#------------------------------------------------------------------------------
#$Date: 2022-05-05 23:50:32 +0300 (Thu, 05 May 2022) $
#$Revision: 275047 $
#$URL: file:///home/coder/svn-repositories/cod/cif/7/06/12/7061267.cif $
#------------------------------------------------------------------------------
#
# This file is available in the Crystallography Open Database (COD),
# http://www.crystallography.net/
#
# All data on this site have been placed in the public domain by the
# contributors.
#
data_7061267
loop_
_publ_author_name
'Ibrahim, Mukaila A.'
'Boer\'e, Ren\'e T.'
_publ_section_title
;
 The copper sulfate hydration cycle. Crystal structures of CuSO4
 (Chalcocyanite), CuSO4&#x00B7;H2O (Poitevinite), CuSO4&#x00B7;3H2O
 (Bonattite) and CuSO4&#x00B7;5H2O (Chalcanthite) at low temperature using
 non-spherical atomic scattering factors
;
_journal_issue                   12
_journal_name_full               'New Journal of Chemistry'
_journal_page_first              5479
_journal_page_last               5488
_journal_paper_doi               10.1039/D2NJ00169A
_journal_volume                  46
_journal_year                    2022
_chemical_absolute_configuration ad
_chemical_formula_moiety         'Cu H6 O7 S'
_chemical_formula_sum            'Cu H6 O7 S'
_chemical_formula_weight         213.655
_space_group_crystal_system      monoclinic
_space_group_IT_number           9
_space_group_name_Hall           'C -2yc'
_space_group_name_H-M_alt        'C 1 c 1'
_symmetry_Int_Tables_number      9
_atom_sites_solution_primary     dual
_audit_creation_date             2022-01-08
_audit_creation_method
;
Olex2 1.5
(compiled 2021.12.09 svn.r5202d8cf for OlexSys, GUI svn.r6439)
;
_audit_update_record
;
2022-01-10 deposited with the CCDC.	2022-02-02 downloaded from the CCDC.
;
_cell_angle_alpha                90
_cell_angle_beta                 96.450(3)
_cell_angle_gamma                90
_cell_formula_units_Z            4
_cell_length_a                   5.5708(2)
_cell_length_b                   12.9751(4)
_cell_length_c                   7.3754(2)
_cell_measurement_reflns_used    10841
_cell_measurement_temperature    100.01(10)
_cell_measurement_theta_max      38.3700
_cell_measurement_theta_min      3.0270
_cell_volume                     529.73(3)
_computing_cell_refinement       'CrysAlisPro 1.171.41.110a (Rigaku OD, 2021)'
_computing_data_collection       'CrysAlisPro 1.171.41.110a (Rigaku OD, 2021)'
_computing_data_reduction        'CrysAlisPro 1.171.41.110a (Rigaku OD, 2021)'
_computing_molecular_graphics    'Olex2 1.5 (Dolomanov et al., 2009)'
_computing_publication_material  'Olex2 1.5 (Dolomanov et al., 2009)'
_computing_structure_refinement  'olex2.refine 1.5 (Bourhis et al., 2015)'
_computing_structure_solution    'SHELXT 2018/2 (Sheldrick, 2018)'
_diffrn_ambient_environment      N~2~
_diffrn_ambient_temperature      100.01(10)
_diffrn_detector                 'Hybrid Pixel Array Detector'
_diffrn_detector_area_resol_mean 5.8140
_diffrn_detector_type            'Pilatus 200K'
_diffrn_measured_fraction_theta_full 1.0000
_diffrn_measured_fraction_theta_max 0.9639
_diffrn_measurement_details
;
List of Runs (angles in degrees, time in seconds):

  # Type    Start    End  Width  t~exp~   \w     \q     \k     \f   Frames
#--------------------------------------------------------------------------
  1  \w     37.00  91.00   0.50    3.59    --   22.41-178.00-150.00  108
  2  \w     37.00  91.00   0.50    3.59    --   22.41-178.00 -30.00  108
  3  \w    -15.00  58.00   0.50    3.59    --   22.41 -99.00 120.00  146
  4  \w    -37.00  38.00   0.50    3.59    --  -25.54  57.00 -60.00  150
  5  \w    -80.00 -30.00   0.50    3.59    --  -25.54 130.00 113.16  100
  6  \w    -87.00 -36.00   0.50    3.59    --  -25.54 142.00-147.35  102
  7  \w    -14.00  13.00   0.50    3.59    --  -25.54-103.00  42.04   54
  8  \w    -29.00  41.00   0.50    3.59    --  -25.54  38.00  60.00  140
  9  \w    -19.00   9.00   0.50    3.59    --  -25.54 -96.00-108.75   56
 10  \w    -95.00 -20.00   0.50    3.59    --  -25.54 -19.00 -60.00  150
 11  \w    -22.00   7.00   0.50    3.59    --  -25.54 -93.00 -21.65   58
 12  \w    -36.00  -6.00   0.50    3.59    --  -25.54 -73.00 161.82   60
 13  \w    -82.00 -33.00   0.50    3.59    --  -25.54 133.00 -54.40   98
 14  \w    -29.00  41.00   0.50    3.59    --  -25.54  38.00-180.00  140
 15  \w    -92.00 -22.00   0.50    3.59    --  -25.54 -38.00  30.00  140
 16  \w     11.00  85.00   0.50    3.59    --   22.41  57.00 -90.00  148
 17  \w     37.00  91.00   0.50    3.59    --   22.41-178.00  90.00  108
 18  \w     11.00  85.00   0.50    3.59    --   22.41  57.00-150.00  148
 19  \w    -22.00   7.00   0.50    3.59    --  -25.54 -93.00  67.26   58
 20  \w    -89.00 -14.00   0.50    3.59    --  -25.54 -57.00   0.00  150
 21  \w    -14.00  12.00   0.50    3.59    --  -25.54-102.00 -66.73   52
 22  \w    -93.00 -49.00   0.50    3.59    --  -25.54 150.00 129.03   88
 23  \w    -89.00 -14.00   0.50    3.59    --  -25.54 -57.00-120.00  150
 24  \w    -92.00 -22.00   0.50    3.59    --  -25.54 -38.00 120.00  140
;
_diffrn_measurement_device       'four-circle diffractometer'
_diffrn_measurement_device_type
'SuperNova, Dual, Cu at home/near, Pilatus 200K'
_diffrn_measurement_method       '\w scans'
_diffrn_orient_matrix_type
'CrysAlisPro convention (1999,Acta A55,543-557)'
_diffrn_orient_matrix_UB_11      0.0781743000
_diffrn_orient_matrix_UB_12      -0.0114271000
_diffrn_orient_matrix_UB_13      -0.0668453000
_diffrn_orient_matrix_UB_21      0.0414769000
_diffrn_orient_matrix_UB_22      -0.0445329000
_diffrn_orient_matrix_UB_23      0.0497496000
_diffrn_orient_matrix_UB_31      -0.0927301000
_diffrn_orient_matrix_UB_32      -0.0295665000
_diffrn_orient_matrix_UB_33      -0.0491910000
_diffrn_radiation_monochromator  mirror
_diffrn_radiation_probe          x-ray
_diffrn_radiation_type           'Mo K\a'
_diffrn_radiation_wavelength     0.71073
_diffrn_reflns_av_R_equivalents  0.0375
_diffrn_reflns_av_unetI/netI     0.0284
_diffrn_reflns_Laue_measured_fraction_full 1.0000
_diffrn_reflns_Laue_measured_fraction_max 0.9639
_diffrn_reflns_limit_h_max       9
_diffrn_reflns_limit_h_min       -9
_diffrn_reflns_limit_k_max       21
_diffrn_reflns_limit_k_min       -22
_diffrn_reflns_limit_l_max       12
_diffrn_reflns_limit_l_min       -12
_diffrn_reflns_number            13522
_diffrn_reflns_point_group_measured_fraction_full 1.0000
_diffrn_reflns_point_group_measured_fraction_max 0.9446
_diffrn_reflns_theta_full        25.2417
_diffrn_reflns_theta_max         38.16
_diffrn_reflns_theta_min         3.14
_diffrn_source                   'micro-focus sealed X-ray tube'
_diffrn_source_type              'SuperNova (Mo) X-ray Source'
_exptl_absorpt_coefficient_mu    4.488
_exptl_absorpt_correction_T_max  1.00000
_exptl_absorpt_correction_T_min  0.95627
_exptl_absorpt_correction_type   multi-scan
_exptl_absorpt_process_details
;
CrysAlisPro 1.171.41.110a (Rigaku Oxford Diffraction, 2021)
Empirical absorption correction using spherical harmonics,
implemented in SCALE3 ABSPACK scaling algorithm.
;
_exptl_crystal_colour            'clear grayish blue'
_exptl_crystal_colour_lustre     clear
_exptl_crystal_colour_modifier   grayish
_exptl_crystal_colour_primary    blue
_exptl_crystal_density_diffrn    2.679
_exptl_crystal_description       prism
_exptl_crystal_F_000             430.301
_exptl_crystal_recrystallization_method
'The material was recrystallised from --- by'
_exptl_crystal_size_max          0.101
_exptl_crystal_size_mid          0.07
_exptl_crystal_size_min          0.057
_refine_diff_density_max         0.3868
_refine_diff_density_min         -0.8111
_refine_diff_density_rms         0.1105
_refine_ls_abs_structure_details
'Hooft, R.W.W., Straver, L.H., Spek, A.L. (2010). J. Appl. Cryst., 43, 665-668.'
_refine_ls_abs_structure_Flack   0.001(4)
_refine_ls_d_res_high            0.5752
_refine_ls_d_res_low             6.4875
_refine_ls_goodness_of_fit_ref   1.0125
_refine_ls_hydrogen_treatment    refall
_refine_ls_matrix_type           full
_refine_ls_number_constraints    0
_refine_ls_number_parameters     136
_refine_ls_number_reflns         2761
_refine_ls_number_restraints     128
_refine_ls_restrained_S_all      0.9891
_refine_ls_R_factor_all          0.0194
_refine_ls_R_factor_gt           0.0188
_refine_ls_shift/su_max          -0.0009
_refine_ls_shift/su_mean         0.0000
_refine_ls_structure_factor_coef Fsqd
_refine_ls_weighting_details
'w=1/[\s^2^(Fo^2^)+(0.0228P)^2^] where P=(Fo^2^+2Fc^2^)/3'
_refine_ls_weighting_scheme      calc
_refine_ls_wR_factor_gt          0.0424
_refine_ls_wR_factor_ref         0.0429
_reflns_Friedel_coverage         0.925
_reflns_limit_h_max              9
_reflns_limit_h_min              -9
_reflns_limit_k_max              22
_reflns_limit_k_min              -22
_reflns_limit_l_max              12
_reflns_limit_l_min              -12
_reflns_number_gt                2715
_reflns_number_total             2761
_reflns_threshold_expression     I>=2u(I)
_iucr_refine_instructions_details
;
TITL rb21092_auto_a.res in Cc
REM Old TITL RB21092_auto in Cc
REM SHELXT solution in Cc: R1 0.026, Rweak 0.019, Alpha 0.000
REM <I/s> 0.840 for 26 systematic absences, Orientation as input
REM Flack x = -0.008 ( 0.007 ) from 534 Parsons' quotients
REM Formula found by SHELXT: O7 S Cu
CELL 0.71073 5.5708 12.9751 7.3754 90 96.45 90
ZERR 4 0.0002 0.0004 0.0002 0 0.003 0
LATT -7
SYMM +X,-Y,0.5+Z
SFAC Cu H O S
UNIT 4 24 28 4
EQIV $1 +X,+Y,-1+Z
EQIV $2 1+X,+Y,+Z
EQIV $3 -0.5+X,1.5-Y,-0.5+Z
EQIV $4 -1+X,+Y,+Z
EQIV $5 -1+X,1-Y,-0.5+Z
EQIV $6 -1+X,+Y,-1+Z
RIGU Cu1 O1 O1 O1 O2 O2 O2 O3 O3 O3 O4 O4 O4 O5 H5a H5b O6 H6a H6b O7 H7a =
 H7b S1 S1 S1
ISOR 0.01 0.02 H7b H6a
RIGU 0.001 0.001 H7b H6b H5b H5a
DFIX 0.989 O6 H6b O6 H6a O5 H5a O5 H5b O7 H7b O7 H7a

L.S. 30
PLAN  2
SIZE 0.057 0.07 0.101
TEMP -173
CONF
HTAB O5 O4_$1
HTAB O5 O7_$2
HTAB O6 O1_$3
HTAB O6 O3_$1
HTAB O6 O4_$6
HTAB O7 O2_$4
HTAB O7 O2_$5
RTAB Cu1 O4_$3
list 4
BOND $H
fmap 2 53
acta 
WGHT 0.022804 0
FVAR 0.597291
REM <olex2.extras>
REM <HklSrc "%.\\RB21092_auto.hkl">
REM </olex2.extras>

Cu1   1     0.41266  0.63508  0.35067  11.00000  0.00404  0.00613  0.00344 =
 0.00003  0.00050 -0.00082 
O1    3     0.57354  0.66499  0.59472  11.00000  0.00881  0.00766  0.00496 =
 0.00069 -0.00100  0.00079 
O2    3     0.89114  0.55438  0.73194  11.00000  0.00789  0.01082  0.00914 =
 0.00316  0.00363  0.00489 
O3    3     0.49382  0.54393  0.83293  11.00000  0.00898  0.00663  0.00915 =
 0.00013  0.00339 -0.00217 
O4    3     0.73805  0.69579  0.90100  11.00000  0.01073  0.00714  0.00519 =
 -0.00149  0.00017 -0.00191 
O5    3     0.69954  0.69432  0.26051  11.00000  0.00657  0.00999  0.00742 =
 0.00080  0.00206 -0.00067 
H5a   2     0.71240  0.69296  0.12671  11.00000  0.01247  0.04625  0.01065 =
 0.00108  0.00264 -0.00199 
H5b   2     0.85026  0.67883  0.34322  11.00000  0.00743  0.01476  0.01467 =
 0.00018 -0.00020  0.00024 
O6    3     0.24629  0.62860  0.09894  11.00000  0.00782  0.00948  0.00536 =
 -0.00002  0.00044 -0.00012 
H6a   2     0.33603  0.60302  0.00164  11.00000  0.01114  0.02273  0.00497 =
 -0.00026 -0.00199  0.00546 
H6b   2     0.15555  0.69201  0.05890  11.00000  0.01431  0.01780  0.02153 =
 0.00540  0.00058  0.00640 
O7    3     0.10630  0.59053  0.43301  11.00000  0.00685  0.00778  0.00649 =
 -0.00025  0.00150 -0.00120 
H7a   2     0.03967  0.52732  0.36799  11.00000  0.01323  0.01051  0.01464 =
 -0.00243  0.00257 -0.00325 
H7b   2     0.07227  0.58774  0.55690  11.00000  0.03412  0.02553  0.01292 =
 -0.00391  0.01140 -0.01171 
S1    4     0.67501  0.61297  0.76723  11.00000  0.00419  0.00400  0.00338 =
 0.00005  0.00065  0.00005 
HKLF 4

END
Q2 1 0 0.516667 0.555556 11 0.05 0.37
Q1 1 0.54 0.733333 0.111111 11 0.05 0.39

  REM The information below was added by Olex2.
  REM
  REM R1 = 0.0188 for 2715 Fo > 4sig(Fo) and 0.0194 for all 2761 data
  REM 136 parameters refined using 128 restraints
  REM Highest difference peak 0.3868, deepest hole -0.8111
  REM Mean Shift 0.0000, Max Shift -0.0009.

  REM +++ Tabular Listing of Refinement Information +++
  REM R1_all = 0.0194
  REM R1_gt = 0.0188
  REM wR_ref = 0.0429
  REM GOOF = 1.0125
  REM Shift_max = -0.0009
  REM Shift_mean = 0.0000
  REM Reflections_all = 2761
  REM Reflections_gt = 2715
  REM Parameters = 136
  REM Hole = -0.8111
  REM Peak = 0.3868
  REM Flack = 0.001(4)

  
;
_cod_data_source_file            d2nj00169a2.cif
_cod_data_source_block           RB21092_auto
_cod_depositor_comments
'Adding full bibliography for 7061267--7061270.cif.'
_cod_original_sg_symbol_Hall     ' C -2yc'
_cod_database_code               7061267
_chemical_oxdiff_formula         'Cu S O7 H6'
_chemical_oxdiff_usercomment
'Smaller Xtal - small block cut from larger crystals'
_olex2_refinement_description
;
1. Restrained distances
 O6-H6b = O6-H6a = O5-H5a = O5-H5b = O7-H7b = O7-H7a
 0.989 with sigma of 0.02
2. Uiso/Uaniso restraints and constraints
Uanis(H7b) \\sim Ueq, Uanis(H6a) \\sim Ueq: with sigma of 0.01 and sigma for
terminal atoms of 0.02
3. Rigid body (RIGU) restrains
 Cu1, O1, O1, O1, O2, O2, O2, O3, O3, O3, O4, O4, O4, O5, H5a, H5b, O6, H6a,
 H6b, O7, H7a, H7b, S1, S1, S1
 with sigma for 1-2 distances of 0.004 and sigma for 1-3 distances of 0.004
 H7b, H6b, H5b, H5a
 with sigma for 1-2 distances of 0.001 and sigma for 1-3 distances of 0.001
;
_iucr_refine_fcf_details
;
data_RB21092_auto_CCDC1
_computing_structure_refinement   'olex2.refine 1.5 (Bourhis et al., 2015)'
_shelx_refln_list_code            4
loop_
  _space_group_symop_id
  _space_group_symop_operation_xyz
  1  x,y,z
  2  x,-y,z+1/2
  3  x+1/2,y+1/2,z
  4  x+1/2,-y+1/2,z+1/2

_space_group_crystal_system       monoclinic
_space_group_IT_number            9
_space_group_name_H-M_alt         'C 1 c 1'
_space_group_name_Hall            ' C -2yc'
_symmetry_space_group_name_H-M    'C 1 c 1'
_symmetry_space_group_name_Hall   ' C -2yc'
_symmetry_Int_Tables_number       9
_cell_length_a                    5.5708(2)
_cell_length_b                    12.9751(4)
_cell_length_c                    7.3754(2)
_cell_angle_alpha                 90
_cell_angle_beta                  96.450(3)
_cell_angle_gamma                 90
_cell_volume                      529.73(3)
loop_
  _refln_index_h
  _refln_index_k
  _refln_index_l
  _refln_F_squared_calc
  _refln_F_squared_meas
  _refln_F_squared_sigma
  _refln_F_squared_weight
  _refln_observed_status
-9 -5 -1 676.550 611.770 52.655 11.881 o
-9 -5 0 313.729 315.318 26.881 45.986 o
-9 -3 -2 949.035 864.564 59.422 8.961 o
-9 -3 -1 453.423 419.168 30.340 34.821 o
-9 -3 0 144.802 130.332 14.468 162.140 o
-9 -1 -3 80.617 61.246 23.461 64.325 o
-9 -1 -2 735.339 733.097 45.301 15.257 o
-9 -1 -1 279.108 266.933 22.734 63.993 o
-9 -1 0 113.944 109.973 13.595 185.917 o
-9 1 1 957.366 968.518 54.554 10.297 o
-9 1 2 270.598 236.810 15.729 126.040 o
-9 1 3 1129.830 1126.190 37.734 17.060 o
-9 1 4 870.743 802.191 39.353 18.513 o
-9 1 5 698.469 634.527 36.430 22.733 o
-9 3 1 1330.200 1313.600 50.827 10.181 o
-9 3 2 772.045 709.197 33.488 25.156 o
-9 3 3 1130.200 1127.290 37.730 17.056 o
-9 3 4 358.873 367.904 21.731 65.865 o
-9 3 5 116.177 85.206 15.587 143.057 o
-9 5 1 775.768 701.996 38.715 19.858 o
-9 5 2 38.650 35.823 9.754 371.166 o
-9 5 3 721.224 661.857 28.496 33.329 o
-9 5 4 169.018 164.324 21.098 77.421 o
-9 5 5 805.036 713.288 72.683 6.362 o
-9 7 2 672.900 619.414 66.488 7.664 o
-9 7 3 483.050 486.859 62.676 8.787 o
-8 -12 -1 748.484 654.284 68.450 7.186 o
-8 -10 -2 0.429 -6.083 13.427 197.428 o
-8 -10 -1 176.190 146.166 18.168 103.333 o
-8 -10 0 404.953 365.525 31.892 32.446 o
-8 -8 -3 575.597 588.011 39.813 20.224 o
-8 -8 -2 1637.010 1579.110 67.107 6.069 o
-8 -8 -1 545.004 573.194 41.901 18.580 o
-8 -8 0 1561.940 1351.310 85.535 4.200 o
-8 -6 -5 755.810 749.615 71.758 6.537 o
-8 -6 -4 169.406 175.096 26.765 48.648 o
-8 -6 -3 158.832 153.937 17.891 106.900 o
-8 -6 -2 99.772 104.564 14.869 157.175 o
-8 -6 -1 285.157 297.844 27.839 43.480 o
-8 -6 0 29.913 24.739 9.055 431.919 o
-8 -4 -5 28.322 32.407 14.618 166.204 o
-8 -4 -4 1267.410 1336.750 60.250 7.916 o
-8 -4 -3 110.833 118.643 14.176 171.389 o
-8 -4 -2 2434.030 2537.610 74.808 4.060 o
-8 -4 -1 130.278 101.420 13.802 179.699 o
-8 -4 0 1743.740 1708.830 48.557 9.084 o
-8 -2 -5 1072.570 1029.670 45.825 13.268 o
-8 -2 -4 104.836 86.732 12.614 216.780 o
-8 -2 -3 1428.060 1470.010 46.236 11.056 o
-8 -2 -2 114.216 106.136 12.805 208.834 o
-8 -2 -1 76.838 81.318 14.507 166.593 o
-8 -2 0 77.338 63.169 8.350 491.120 o
-8 0 -4 1629.320 1664.910 68.650 5.822 o
-8 0 -2 2552.280 2543.700 176.633 1.029 o
-8 0 0 1234.790 1187.710 43.024 13.564 o
-8 0 2 897.231 825.569 41.697 16.668 o
-8 0 4 59.337 59.361 12.922 210.839 o
-8 0 6 765.615 675.892 48.307 13.610 o
-8 0 8 1976.460 1970.110 124.483 2.031 o
-8 2 1 951.905 962.937 36.606 19.611 o
-8 2 2 22.331 16.816 5.501 1167.830 o
-8 2 3 1340.850 1264.880 36.591 15.896 o
-8 2 4 16.023 9.369 8.399 503.866 o
-8 2 5 3893.370 3864.620 90.259 2.226 o
-8 2 6 93.399 98.665 19.960 88.293 o
-8 2 7 1417.780 1305.200 50.266 10.118 o
-8 2 8 199.189 241.514 34.113 29.975 o
-8 4 1 430.074 413.807 20.550 68.961 o
-8 4 2 1380.580 1401.530 38.539 14.314 o
-8 4 3 22.941 14.998 5.519 1160.170 o
-8 4 4 239.931 229.818 17.617 104.842 o
-8 4 5 172.416 173.181 17.610 109.307 o
-8 4 6 530.655 535.722 37.467 22.945 o
-8 4 7 375.012 364.122 31.867 32.736 o
-8 6 1 1548.580 1573.990 40.384 12.308 o
-8 6 2 423.352 429.059 20.990 66.571 o
-8 6 3 1260.530 1278.010 35.499 16.995 o
-8 6 4 277.939 278.902 18.231 95.510 o
-8 6 5 1668.850 1615.110 50.216 9.035 o
-8 6 6 277.454 280.593 28.293 42.330 o
-8 6 7 583.745 490.839 62.592 8.730 o
-8 8 1 785.205 739.001 31.279 27.664 o
-8 8 2 1285.470 1334.710 43.701 12.751 o
-8 8 3 44.204 38.183 8.534 482.600 o
-8 8 4 404.103 358.142 25.635 48.372 o
-8 8 5 42.401 34.210 11.894 250.145 o
-8 8 6 290.192 272.931 47.175 15.696 o
-8 10 1 755.937 813.285 47.059 14.085 o
-8 10 2 1317.800 1325.940 49.910 10.475 o
-8 10 3 898.457 1005.620 43.582 15.124 o
-8 10 4 750.928 674.654 43.425 16.481 o
-8 10 5 838.272 824.905 80.840 5.161 o
-8 12 3 125.579 113.299 29.264 41.191 o
-7 -13 -2 259.554 290.671 36.113 26.520 o
-7 -13 -1 862.546 869.691 60.904 8.684 o
-7 -13 0 130.160 104.105 30.357 38.302 o
-7 -11 -4 948.257 990.060 93.649 3.847 o
-7 -11 -3 510.187 483.152 45.551 16.137 o
-7 -11 -2 575.620 573.745 32.497 28.982 o
-7 -11 -1 183.238 146.675 20.240 83.769 o
-7 -11 0 418.519 465.382 41.612 19.453 o
-7 -9 -5 904.581 862.632 59.780 8.929 o
-7 -9 -4 124.863 121.233 15.332 146.445 o
-7 -9 -3 912.826 907.393 43.679 15.213 o
-7 -9 -2 147.527 145.734 16.584 124.327 o
-7 -9 -1 383.052 389.060 31.292 33.694 o
-7 -9 0 1137.020 1281.930 51.944 10.380 o
-7 -7 -6 865.053 838.806 42.689 16.151 o
-7 -7 -5 499.607 476.246 29.463 35.811 o
-7 -7 -4 1004.330 1077.790 44.502 14.063 o
-7 -7 -3 957.458 917.287 48.058 12.834 o
-7 -7 -2 562.835 547.273 64.956 8.124 o
-7 -7 -1 388.081 426.328 31.538 33.009 o
-7 -7 0 1683.140 1669.670 59.826 7.055 o
-7 -5 -6 482.588 496.966 27.866 39.542 o
-7 -5 -5 668.966 747.463 37.098 21.868 o
-7 -5 -4 80.754 78.117 10.240 329.026 o
-7 -5 -3 1831.360 1921.550 48.840 8.500 o
-7 -5 -2 289.041 292.758 16.698 110.306 o
-7 -5 -1 541.393 566.098 25.316 44.601 o
-7 -5 0 1558.500 1494.450 50.751 9.355 o
-7 -3 -7 594.614 467.714 61.975 8.899 o
-7 -3 -6 155.488 149.548 15.947 133.523 o
-7 -3 -5 860.030 840.525 35.298 21.904 o
-7 -3 -4 389.327 401.912 23.259 57.266 o
-7 -3 -3 1673.380 1708.840 40.544 11.405 o
-7 -3 -2 644.406 669.040 23.483 46.046 o
-7 -3 -1 670.095 671.365 18.258 62.753 o
-7 -3 0 2976.520 3040.600 55.532 4.588 o
-7 -1 -7 714.877 738.643 56.760 10.188 o
-7 -1 -6 103.367 91.710 12.317 226.905 o
-7 -1 -5 843.359 844.129 43.745 15.585 o
-7 -1 -4 120.743 149.771 13.608 183.434 o
-7 -1 -3 2444.510 2472.730 50.705 6.241 o
-7 -1 -2 422.049 440.774 19.136 77.110 o
-7 -1 -1 1151.300 1187.700 24.885 26.898 o
-7 -1 0 1524.060 1499.800 37.336 13.746 o
-7 1 1 1062.630 1023.650 26.842 27.516 o
-7 1 2 913.413 889.960 33.154 23.328 o
-7 1 3 65.579 65.447 7.615 590.943 o
-7 1 4 934.847 883.003 27.699 29.535 o
-7 1 5 584.844 576.132 44.153 16.744 o
-7 1 6 247.436 257.295 27.419 45.369 o
-7 1 7 505.639 483.959 29.627 35.344 o
-7 1 8 96.309 95.641 14.294 170.187 o
-7 1 9 1531.920 1402.050 85.359 4.218 o
-7 3 1 310.684 304.942 14.525 136.594 o
-7 3 2 2283.210 2275.440 48.842 6.992 o
-7 3 3 118.439 117.218 10.401 308.350 o
-7 3 4 2049.310 2002.390 49.685 7.705 o
-7 3 5 547.056 513.332 23.851 49.556 o
-7 3 6 290.175 279.229 28.381 41.962 o
-7 3 7 967.139 962.084 42.079 15.780 o
-7 3 8 611.332 596.114 34.456 25.820 o
-7 3 9 1434.910 1384.920 75.597 5.264 o
-7 5 1 565.965 518.643 24.220 47.834 o
-7 5 2 995.140 925.789 29.540 26.094 o
-7 5 3 425.541 460.268 23.067 56.364 o
-7 5 4 453.453 447.815 19.964 70.531 o
-7 5 5 1877.070 1807.820 61.909 6.333 o
-7 5 6 610.986 574.711 34.916 25.319 o
-7 5 7 809.080 733.061 41.807 17.216 o
-7 5 8 61.068 86.247 15.564 145.413 o
-7 5 9 891.550 855.374 80.727 5.144 o
-7 7 1 305.611 307.763 18.039 95.114 o
-7 7 2 1379.670 1382.150 41.299 13.198 o
-7 7 3 706.587 750.011 30.802 29.193 o
-7 7 4 1587.780 1559.020 42.295 11.540 o
-7 7 5 584.322 542.397 26.549 40.720 o
-7 7 6 570.415 531.845 43.683 17.195 o
-7 7 7 893.724 931.906 46.688 13.652 o
-7 7 8 643.255 600.496 35.126 24.723 o
-7 9 1 1092.950 1148.940 43.864 13.867 o
-7 9 2 1255.150 1308.710 47.522 11.477 o
-7 9 3 1342.740 1390.210 47.789 10.973 o
-7 9 4 451.190 413.620 23.310 55.314 o
-7 9 5 2233.360 2234.170 58.827 5.878 o
-7 9 6 500.956 481.269 30.354 33.944 o
-7 9 7 1110.580 1011.810 52.981 10.434 o
-7 11 1 332.203 326.062 23.826 57.002 o
-7 11 2 460.675 465.877 33.162 29.391 o
-7 11 3 338.042 321.665 34.240 28.938 o
-7 11 4 1426.300 1387.880 41.520 12.881 o
-7 11 5 128.638 139.213 14.615 159.827 o
-7 11 6 980.991 943.968 43.869 14.753 o
-7 11 7 199.452 162.352 37.729 24.687 o
-7 13 1 1355.760 1366.740 81.050 4.726 o
-7 13 2 332.741 283.134 23.558 58.638 o
-7 13 3 1178.570 1160.760 44.534 13.190 o
-7 13 4 163.260 144.202 15.803 135.559 o
-7 13 5 690.981 556.929 36.977 22.462 o
-6 -16 -3 224.235 247.144 41.289 20.540 o
-6 -16 -2 112.363 103.096 27.834 45.574 o
-6 -16 -1 84.506 78.619 13.979 178.882 o
-6 -16 0 307.962 305.672 25.539 50.750 o
-6 -14 -4 865.224 927.496 89.192 4.255 o
-6 -14 -3 662.494 618.086 143.754 1.704 o
-6 -14 -2 1686.330 1671.330 66.828 5.996 o
-6 -14 -1 660.277 644.742 35.370 24.142 o
-6 -14 0 1579.980 1449.340 58.117 7.728 o
-6 -12 -5 964.653 899.996 65.325 7.525 o
-6 -12 -4 740.475 747.786 53.948 11.131 o
-6 -12 -3 808.564 846.066 44.071 15.522 o
-6 -12 -2 97.591 102.531 20.024 87.641 o
-6 -12 -1 207.065 211.685 17.315 110.379 o
-6 -12 0 348.612 350.081 21.868 65.717 o
-6 -10 -6 45.836 36.261 12.004 245.399 o
-6 -10 -5 712.394 720.504 53.308 11.453 o
-6 -10 -4 708.268 742.485 39.260 19.656 o
-6 -10 -3 1640.990 1613.600 52.229 8.654 o
-6 -10 -2 736.936 687.189 33.290 25.826 o
-6 -10 -1 2573.410 2566.280 69.270 4.321 o
-6 -10 0 931.995 920.341 30.527 25.793 o
-6 -8 -7 387.720 408.781 34.737 27.639 o
-6 -8 -6 1300.310 1307.390 52.081 9.900 o
-6 -8 -5 1017.820 993.294 40.919 16.145 o
-6 -8 -4 1702.850 1757.320 50.008 8.807 o
-6 -8 -3 623.659 594.072 24.908 43.599 o
-6 -8 -2 585.529 620.431 36.799 23.117 o
-6 -8 -1 283.373 311.890 17.351 102.968 o
-6 -8 0 299.347 288.256 15.660 122.431 o
-6 -6 -7 120.021 89.498 22.971 66.657 o
-6 -6 -6 11.402 9.531 5.265 1281.090 o
-6 -6 -5 616.977 603.451 25.945 40.992 o
-6 -6 -4 744.059 738.761 28.080 33.107 o
-6 -6 -3 1847.610 1923.110 46.669 8.893 o
-6 -6 -2 476.527 464.274 17.874 81.716 o
-6 -6 -1 4065.560 4071.530 77.369 2.439 o
-6 -6 0 846.137 855.960 28.224 30.372 o
-6 -4 -8 2509.230 2487.150 109.276 2.342 o
-6 -4 -7 302.088 376.932 31.678 33.605 o
-6 -4 -6 1465.450 1441.430 51.129 9.570 o
-6 -4 -5 409.222 396.840 24.545 51.747 o
-6 -4 -4 2212.080 2305.080 48.829 7.117 o
-6 -4 -3 114.104 107.559 9.096 398.765 o
-6 -4 -2 414.885 433.515 18.553 81.551 o
-6 -4 -1 246.806 230.937 12.410 193.060 o
-6 -4 0 1442.350 1428.600 39.771 13.396 o
-6 -2 -8 21.206 18.973 7.811 581.268 o
-6 -2 -7 300.902 292.974 21.085 72.512 o
-6 -2 -6 14.366 12.487 6.210 920.413 o
-6 -2 -5 1356.930 1382.810 44.478 12.073 o
-6 -2 -4 282.457 299.056 16.002 118.956 o
-6 -2 -3 2399.870 2555.360 46.052 6.783 o
-6 -2 -2 200.516 208.015 11.555 229.697 o
-6 -2 -1 4454.680 4476.890 83.407 2.056 o
-6 -2 0 311.168 312.153 11.671 190.653 o
-6 0 -8 3260.680 3067.190 121.308 1.777 o
-6 0 -6 1877.120 1894.140 60.214 6.507 o
-6 0 -4 2322.570 2369.190 75.319 4.179 o
-6 0 -2 200.339 195.018 17.697 106.655 o
-6 0 0 2711.270 2583.490 53.743 5.399 o
-6 0 2 3435.810 3390.710 81.145 2.809 o
-6 0 4 6212.410 5981.270 154.279 0.820 o
-6 0 6 938.438 1049.220 57.684 9.312 o
-6 0 8 859.120 966.339 60.602 8.704 o
-6 0 10 11.598 7.706 10.370 330.802 o
-6 2 1 4241.900 4209.010 64.885 2.633 o
-6 2 2 122.440 133.737 9.942 332.228 o
-6 2 3 2333.200 2395.330 78.149 3.959 o
-6 2 4 300.936 328.980 21.759 67.984 o
-6 2 5 831.465 796.136 55.614 10.339 o
-6 2 6 83.720 95.813 10.233 327.346 o
-6 2 7 785.915 786.544 36.472 21.549 o
-6 2 8 24.386 19.583 8.009 552.513 o
-6 2 9 1250.220 1296.220 60.615 7.897 o
-6 2 10 17.024 18.141 10.416 327.543 o
-6 4 1 315.808 315.644 16.853 105.966 o
-6 4 2 1947.760 1939.510 48.542 8.232 o
-6 4 3 201.365 222.908 18.582 96.733 o
-6 4 4 5700.860 5528.640 93.331 1.408 o
-6 4 5 157.030 158.896 14.018 169.948 o
-6 4 6 2320.310 2217.140 52.925 6.449 o
-6 4 7 182.956 218.663 19.727 87.036 o
-6 4 8 1853.650 1793.240 60.541 6.575 o
-6 4 9 163.441 144.918 25.084 55.431 o
-6 4 10 137.222 142.621 18.464 101.408 o
-6 6 1 3474.030 3453.800 66.840 3.320 o
-6 6 2 46.561 50.289 6.816 747.055 o
-6 6 3 551.964 533.226 17.304 78.343 o
-6 6 4 259.455 286.248 13.855 155.126 o
-6 6 5 80.706 86.785 10.771 297.647 o
-6 6 6 12.580 11.282 5.018 1408.900 o
-6 6 7 1603.210 1594.020 62.063 6.866 o
-6 6 8 296.838 310.459 21.959 67.224 o
-6 6 9 1386.380 1369.730 54.534 8.975 o
-6 8 1 417.940 413.281 16.154 101.364 o
-6 8 2 775.287 786.350 29.595 29.873 o
-6 8 3 582.069 546.975 20.501 60.377 o
-6 8 4 2833.030 2753.260 49.160 5.465 o
-6 8 5 1065.310 1066.080 39.829 16.350 o
-6 8 6 2627.330 2581.830 66.353 4.476 o
-6 8 7 995.511 1024.910 43.091 14.939 o
-6 8 8 1749.770 1739.050 69.057 5.601 o
-6 8 9 220.324 195.794 21.065 76.190 o
-6 10 1 1986.900 2014.940 42.851 9.106 o
-6 10 2 470.356 459.746 19.237 73.628 o
-6 10 3 405.190 382.649 19.588 76.384 o
-6 10 4 178.389 157.206 13.099 190.484 o
-6 10 5 202.266 182.059 13.069 186.661 o
-6 10 6 117.505 103.610 12.269 226.458 o
-6 10 7 890.601 817.722 57.519 9.623 o
-6 10 8 1256.020 1267.900 87.665 4.182 o
-6 12 1 311.633 286.211 15.743 120.388 o
-6 12 2 713.707 708.554 25.635 38.653 o
-6 12 3 1160.110 1074.460 35.082 18.765 o
-6 12 4 702.722 663.078 27.582 35.309 o
-6 12 5 1383.700 1377.220 38.335 14.455 o
-6 12 6 586.650 549.821 31.187 31.106 o
-6 12 7 898.867 832.918 47.890 13.214 o
-6 14 1 382.441 380.304 26.986 44.265 o
-6 14 2 832.193 796.991 31.096 27.024 o
-6 14 3 259.963 236.593 18.628 93.647 o
-6 14 4 173.862 160.473 14.381 160.503 o
-6 14 5 721.476 671.254 30.346 30.182 o
-6 14 6 211.154 166.900 26.891 47.889 o
-6 16 1 307.268 308.718 25.272 51.736 o
-6 16 2 305.457 290.402 24.734 54.031 o
-6 16 3 1069.410 946.024 73.289 6.011 o
-6 16 4 365.223 352.762 50.931 13.371 o
-5 -17 -4 66.121 61.835 24.442 59.356 o
-5 -17 -3 1246.430 1260.770 83.083 4.612 o
-5 -17 -2 406.958 355.798 38.319 23.001 o
-5 -17 -1 753.447 720.520 76.439 5.806 o
-5 -17 0 345.769 331.855 29.630 37.925 o
-5 -15 -5 406.139 336.728 53.145 12.270 o
-5 -15 -4 948.671 976.309 59.152 8.951 o
-5 -15 -3 447.011 427.033 32.875 30.121 o
-5 -15 -2 1019.470 1031.350 60.804 8.390 o
-5 -15 -1 316.275 306.656 27.551 43.938 o
-5 -15 0 923.946 915.778 35.236 21.149 o
-5 -13 -6 389.666 327.647 51.492 13.074 o
-5 -13 -5 768.887 768.752 54.058 11.020 o
-5 -13 -4 443.577 380.980 28.777 38.642 o
-5 -13 -3 1198.690 1185.060 45.095 12.825 o
-5 -13 -2 359.155 343.234 27.623 42.976 o
-5 -13 -1 1888.550 1765.610 52.471 7.860 o
-5 -13 0 1069.530 1045.050 35.851 19.021 o
-5 -11 -7 181.769 161.819 38.990 23.168 o
-5 -11 -6 271.713 211.913 28.581 41.881 o
-5 -11 -5 216.477 215.676 20.550 79.688 o
-5 -11 -4 941.608 914.664 39.330 17.803 o
-5 -11 -3 97.044 88.626 10.281 322.609 o
-5 -11 -2 1460.090 1490.340 40.025 13.056 o
-5 -11 -1 165.026 148.430 12.179 220.308 o
-5 -11 0 2016.540 2054.060 71.388 4.918 o
-5 -9 -8 85.657 49.543 13.511 192.005 o
-5 -9 -7 697.985 666.552 98.386 3.586 o
-5 -9 -6 933.328 897.485 56.795 9.705 o
-5 -9 -5 1209.820 1254.830 39.551 15.181 o
-5 -9 -4 714.173 734.450 29.921 30.535 o
-5 -9 -3 1132.870 1145.060 32.379 20.685 o
-5 -9 -2 417.959 398.187 14.699 117.052 o
-5 -9 -1 3650.220 3764.690 75.027 2.802 o
-5 -9 0 658.871 664.309 17.069 68.661 o
-5 -7 -8 721.787 709.239 78.505 5.534 o
-5 -7 -7 960.760 958.906 43.149 15.201 o
-5 -7 -6 602.955 614.460 29.959 32.681 o
-5 -7 -5 40.134 40.832 7.766 581.962 o
-5 -7 -4 1364.050 1363.720 32.707 17.470 o
-5 -7 -3 243.719 238.571 12.704 185.518 o
-5 -7 -2 2129.120 2173.950 42.668 8.451 o
-5 -7 -1 931.385 933.448 37.078 19.485 o
-5 -7 0 4487.030 4396.570 66.958 2.403 o
-5 -5 -9 1266.790 1366.350 72.224 5.839 o
-5 -5 -8 34.208 11.529 10.944 296.244 o
-5 -5 -7 309.634 289.861 19.964 79.741 o
-5 -5 -6 804.522 839.560 32.136 25.806 o
-5 -5 -5 1372.510 1410.120 41.798 12.967 o
-5 -5 -4 1380.170 1363.800 36.450 15.398 o
-5 -5 -3 626.028 682.669 23.979 44.979 o
-5 -5 -2 1044.270 1119.710 29.291 24.499 o
-5 -5 -1 2592.910 2666.950 44.223 6.449 o
-5 -5 0 1501.130 1495.560 35.070 14.836 o
-5 -3 -10 125.442 126.557 30.749 37.317 o
-5 -3 -9 1398.350 1468.490 63.253 7.045 o
-5 -3 -8 1180.280 1244.880 49.248 11.204 o
-5 -3 -7 1202.090 1181.620 48.964 11.333 o
-5 -3 -6 2253.000 2206.590 50.599 6.892 o
-5 -3 -5 261.195 261.820 15.473 129.447 o
-5 -3 -4 4010.860 4069.720 75.620 2.512 o
-5 -3 -3 751.472 744.096 20.104 51.142 o
-5 -3 -2 2181.950 2282.070 43.677 7.980 o
-5 -3 -1 3255.150 3315.790 56.535 4.056 o
-5 -3 0 1735.430 1727.210 38.514 11.690 o
-5 -1 -10 112.953 103.937 30.693 37.529 o
-5 -1 -9 1152.340 1084.030 50.885 10.941 o
-5 -1 -8 263.650 215.113 20.236 80.639 o
-5 -1 -7 509.416 499.326 25.765 44.657 o
-5 -1 -6 1532.290 1507.370 34.965 14.644 o
-5 -1 -5 1206.190 1217.340 32.054 19.897 o
-5 -1 -4 3641.610 3732.660 58.683 3.404 o
-5 -1 -3 147.586 149.996 7.225 559.160 o
-5 -1 -2 1831.680 1833.800 26.744 14.460 o
-5 -1 -1 2491.050 2396.930 72.243 4.255 o
-5 -1 0 928.024 938.664 20.510 40.816 o
-5 1 1 2154.580 2095.120 43.206 8.401 o
-5 1 2 88.531 91.306 6.371 795.334 o
-5 1 3 6066.930 5997.080 90.538 1.309 o
-5 1 4 1059.150 1061.720 24.305 30.288 o
-5 1 5 1790.380 1785.820 57.056 7.235 o
-5 1 6 1726.130 1744.570 42.406 10.596 o
-5 1 7 1477.650 1491.190 69.519 5.956 o
-5 1 8 1497.750 1507.790 61.023 7.270 o
-5 1 9 176.763 249.370 37.126 25.434 o
-5 1 10 248.753 277.299 34.339 29.321 o
-5 1 11 414.168 386.006 33.602 29.309 o
-5 3 1 2819.980 2828.520 45.973 5.688 o
-5 3 2 421.002 437.431 13.291 131.216 o
-5 3 3 4080.960 4040.330 54.886 3.064 o
-5 3 4 1792.700 1762.450 30.341 13.832 o
-5 3 5 1486.020 1447.710 39.875 13.091 o
-5 3 6 1841.410 1837.990 43.221 9.807 o
-5 3 7 296.219 303.170 25.038 52.863 o
-5 3 8 3045.320 3069.840 93.004 2.637 o
-5 3 9 229.076 262.159 25.802 51.155 o
-5 3 10 1152.740 1180.930 49.590 11.257 o
-5 3 11 565.014 590.054 48.029 14.364 o
-5 5 1 941.420 951.544 22.696 36.343 o
-5 5 2 170.874 172.364 9.805 319.451 o
-5 5 3 3566.630 3580.490 59.143 3.513 o
-5 5 4 384.317 398.564 18.001 88.368 o
-5 5 5 1010.130 1052.660 27.996 26.772 o
-5 5 6 1887.380 1890.990 45.878 8.988 o
-5 5 7 992.044 1041.260 36.214 19.339 o
-5 5 8 1222.430 1236.340 47.856 11.581 o
-5 5 9 74.286 58.812 13.501 192.633 o
-5 5 10 406.695 426.063 26.923 43.745 o
-5 7 1 555.685 570.208 18.547 70.146 o
-5 7 2 2497.780 2453.450 44.759 6.832 o
-5 7 3 829.972 855.362 24.168 37.477 o
-5 7 4 1706.530 1680.510 38.116 12.056 o
-5 7 5 1280.730 1253.030 33.010 18.437 o
-5 7 6 1049.460 968.526 32.283 22.442 o
-5 7 7 182.433 178.373 12.887 194.350 o
-5 7 8 1660.770 1649.510 55.572 7.881 o
-5 7 9 209.345 278.376 35.222 28.053 o
-5 7 10 1021.140 1084.380 43.617 14.425 o
-5 9 1 2647.650 2675.510 57.853 5.071 o
-5 9 2 27.630 20.448 5.068 1368.090 o
-5 9 3 2400.680 2547.450 48.169 6.541 o
-5 9 4 37.827 41.838 8.723 462.900 o
-5 9 5 584.371 580.541 28.882 35.204 o
-5 9 6 1251.140 1319.410 43.120 13.166 o
-5 9 7 856.005 867.583 32.795 24.377 o
-5 9 8 912.663 926.349 48.692 12.673 o
-5 9 9 820.130 864.504 110.145 2.849 o
-5 11 1 527.104 533.942 19.926 65.571 o
-5 11 2 1587.710 1578.680 39.502 12.417 o
-5 11 3 702.890 673.173 25.779 38.928 o
-5 11 4 1128.170 1079.380 37.032 17.669 o
-5 11 5 643.030 662.961 29.237 33.130 o
-5 11 6 598.732 586.432 28.611 35.502 o
-5 11 7 135.031 147.956 16.921 120.073 o
-5 11 8 364.486 338.295 26.540 46.209 o
-5 11 9 201.402 175.343 23.106 64.335 o
-5 13 1 1830.560 1809.410 92.248 3.476 o
-5 13 2 1227.470 1220.900 39.901 14.999 o
-5 13 3 1208.640 1226.000 37.442 16.410 o
-5 13 4 648.767 641.673 27.062 37.477 o
-5 13 5 684.786 628.054 32.797 27.247 o
-5 13 6 253.148 273.903 23.591 60.148 o
-5 13 7 1100.920 1112.590 64.523 7.418 o
-5 13 8 244.589 231.694 22.664 65.461 o
-5 15 1 434.871 388.167 23.815 54.042 o
-5 15 2 1477.120 1482.100 52.175 9.222 o
-5 15 3 285.583 280.619 20.117 79.686 o
-5 15 4 1039.190 1091.500 46.595 12.934 o
-5 15 5 221.587 205.980 20.674 78.781 o
-5 15 6 791.246 782.104 40.786 17.915 o
-5 17 1 284.833 236.655 26.604 47.751 o
-5 17 2 420.051 363.824 30.770 34.536 o
-5 17 3 478.726 457.146 31.752 31.670 o
-5 17 4 333.606 309.504 30.975 35.080 o
-5 17 5 770.512 641.138 71.618 6.586 o
-5 19 2 1129.290 1026.190 85.661 4.471 o
-4 -20 0 24.434 18.220 15.865 141.253 o
-4 -18 -5 224.023 219.337 40.644 21.214 o
-4 -18 -4 1030.070 1004.030 63.369 7.808 o
-4 -18 -3 30.345 35.513 14.765 162.863 o
-4 -18 -2 277.788 235.553 73.061 6.623 o
-4 -18 -1 133.470 131.472 23.503 63.380 o
-4 -18 0 99.174 131.913 16.198 132.465 o
-4 -16 -5 225.208 260.907 30.626 36.798 o
-4 -16 -4 116.001 130.271 22.505 69.234 o
-4 -16 -3 1633.230 1658.770 80.258 4.538 o
-4 -16 -2 471.972 470.983 32.873 29.750 o
-4 -16 -1 2222.300 2176.910 71.459 4.659 o
-4 -16 0 981.722 975.523 36.486 19.445 o
-4 -14 -7 580.458 520.521 46.893 15.066 o
-4 -14 -6 1186.820 1131.250 60.797 8.078 o
-4 -14 -5 840.878 898.022 44.379 15.119 o
-4 -14 -4 934.990 997.749 40.679 16.709 o
-4 -14 -3 695.109 658.152 29.502 31.983 o
-4 -14 -2 234.413 244.641 20.743 77.424 o
-4 -14 -1 399.388 427.064 43.772 17.770 o
-4 -14 0 289.879 297.151 18.761 89.787 o
-4 -12 -8 443.666 437.317 44.904 16.806 o
-4 -12 -7 100.528 85.585 20.477 83.925 o
-4 -12 -6 268.396 226.605 25.549 51.848 o
-4 -12 -5 484.338 460.265 26.262 44.065 o
-4 -12 -4 283.422 265.564 19.710 83.051 o
-4 -12 -3 702.808 707.836 24.136 42.339 o
-4 -12 -2 1071.780 1052.920 35.927 18.920 o
-4 -12 -1 1262.530 1317.820 34.452 17.445 o
-4 -12 0 2733.280 2688.460 64.065 4.478 o
-4 -10 -8 1344.340 1182.220 71.670 5.929 o
-4 -10 -7 1847.540 1870.880 88.914 3.671 o
-4 -10 -6 2394.390 2301.360 61.967 5.277 o
-4 -10 -5 1708.890 1686.340 41.680 10.976 o
-4 -10 -4 787.329 753.864 21.662 45.482 o
-4 -10 -3 444.079 436.813 18.192 82.314 o
-4 -10 -2 162.501 156.982 10.487 288.413 o
-4 -10 -1 370.045 358.246 16.394 105.153 o
-4 -10 0 250.849 184.966 20.764 77.642 o
-4 -8 -9 307.166 307.843 25.456 51.053 o
-4 -8 -8 488.710 466.998 34.511 27.137 o
-4 -8 -7 38.193 36.391 13.175 204.159 o
-4 -8 -6 856.066 828.735 29.191 29.050 o
-4 -8 -5 862.252 872.085 33.363 23.684 o
-4 -8 -4 2065.850 2061.740 38.970 9.529 o
-4 -8 -3 435.374 429.898 13.403 128.307 o
-4 -8 -2 4733.300 4755.040 69.638 2.152 o
-4 -8 -1 1537.930 1487.540 31.263 16.321 o
-4 -8 0 3425.410 3425.280 51.187 4.081 o
-4 -6 -10 288.812 284.024 34.611 28.683 o
-4 -6 -9 2237.000 2209.720 60.080 5.749 o
-4 -6 -8 341.189 343.563 23.869 56.445 o
-4 -6 -7 2847.100 2852.480 64.528 4.245 o
-4 -6 -6 733.688 765.224 30.027 29.917 o
-4 -6 -5 4299.050 4396.470 80.768 2.186 o
-4 -6 -4 123.403 135.088 8.581 433.709 o
-4 -6 -3 1092.320 1103.690 20.863 33.573 o
-4 -6 -2 470.711 466.507 10.699 155.412 o
-4 -6 -1 723.337 714.043 21.408 48.885 o
-4 -6 0 40.015 41.624 4.467 1710.450 o
-4 -4 -10 1090.180 1069.900 47.866 12.266 o
-4 -4 -9 286.768 266.257 21.975 67.965 o
-4 -4 -8 311.445 280.176 24.602 54.556 o
-4 -4 -7 169.397 159.379 12.806 199.583 o
-4 -4 -6 863.728 797.175 24.526 36.697 o
-4 -4 -5 196.715 212.027 11.743 223.716 o
-4 -4 -4 2552.060 2510.240 35.824 7.681 o
-4 -4 -3 188.336 190.015 12.728 197.103 o
-4 -4 -2 10396.800 10230.000 131.198 0.489 o
-4 -4 -1 1939.580 1947.810 32.259 11.854 o
-4 -4 0 6733.450 6789.240 89.341 1.123 o
-4 -2 -10 45.309 39.382 9.899 359.648 o
-4 -2 -9 1529.560 1518.790 61.937 7.052 o
-4 -2 -8 111.095 125.552 15.330 147.078 o
-4 -2 -7 1845.710 1820.900 57.939 6.961 o
-4 -2 -6 251.369 255.748 14.543 145.429 o
-4 -2 -5 7028.170 7154.890 90.386 1.042 o
-4 -2 -4 311.237 307.805 11.634 192.008 o
-4 -2 -3 3773.750 3787.460 55.429 3.391 o
-4 -2 -2 199.765 197.581 8.036 417.827 o
-4 -2 -1 5171.960 5298.110 68.942 1.884 o
-4 -2 0 132.561 131.087 6.096 769.816 o
-4 0 -10 1585.390 1553.990 79.962 4.632 o
-4 0 -8 266.570 266.289 30.147 37.632 o
-4 0 -6 493.267 487.385 21.973 58.503 o
-4 0 -4 1344.050 1342.500 46.778 11.382 o
-4 0 -2 11547.400 11375.300 127.305 0.419 o
-4 0 0 9551.670 9916.130 172.215 0.454 o
-4 0 2 8872.360 9101.080 156.556 0.538 o
-4 0 4 1379.990 1321.940 33.335 17.160 o
-4 0 6 730.208 907.650 69.964 6.820 o
-4 0 8 2964.160 3008.420 107.847 2.191 o
-4 0 10 4199.850 4351.470 324.998 0.309 o
-4 2 1 2336.910 2309.300 30.791 9.451 o
-4 2 2 202.213 205.947 6.933 511.395 o
-4 2 3 7935.980 7753.180 66.227 0.971 o
-4 2 4 780.456 752.270 15.115 66.198 o
-4 2 5 3824.420 3874.140 73.435 2.724 o
-4 2 6 723.693 761.338 25.773 37.617 o
-4 2 7 5978.680 6248.310 121.521 1.049 o
-4 2 8 175.972 190.443 20.134 84.266 o
-4 2 9 1017.660 1100.550 44.137 14.144 o
-4 2 10 51.376 47.775 10.607 312.710 o
-4 2 11 800.781 814.077 40.476 18.016 o
-4 4 1 1380.610 1392.880 25.351 21.705 o
-4 4 2 5361.980 5283.980 70.036 1.806 o
-4 4 3 306.449 297.902 9.201 268.412 o
-4 4 4 1002.240 998.792 18.222 41.714 o
-4 4 5 696.392 649.679 19.331 57.896 o
-4 4 6 1086.840 1140.360 35.627 18.694 o
-4 4 7 526.455 505.105 21.312 59.869 o
-4 4 8 1362.520 1478.080 51.032 9.818 o
-4 4 9 39.564 30.164 8.839 451.587 o
-4 4 10 2936.150 2980.260 109.344 2.159 o
-4 4 11 306.528 305.437 24.842 53.450 o
-4 6 1 1405.600 1360.690 46.162 11.347 o
-4 6 2 823.267 843.132 23.165 39.776 o
-4 6 3 4883.220 4645.570 95.457 1.686 o
-4 6 4 1464.830 1491.840 30.962 17.043 o
-4 6 5 3481.020 3468.230 99.950 2.187 o
-4 6 6 1308.680 1339.120 48.063 11.072 o
-4 6 7 3503.490 3594.610 92.516 2.364 o
-4 6 8 157.059 153.398 16.397 126.437 o
-4 6 9 510.637 576.524 29.096 35.802 o
-4 6 10 56.636 71.669 12.630 220.381 o
-4 6 11 133.088 148.669 33.194 32.013 o
-4 8 1 1239.940 1237.620 29.987 20.963 o
-4 8 2 3281.410 3363.780 57.803 3.939 o
-4 8 3 1982.970 1952.600 76.064 4.557 o
-4 8 4 1361.670 1341.930 33.076 17.370 o
-4 8 5 395.631 440.865 23.601 55.202 o
-4 8 6 727.043 710.701 27.775 34.148 o
-4 8 7 703.332 706.012 29.873 30.940 o
-4 8 8 304.166 331.883 21.595 68.786 o
-4 8 9 298.898 263.282 20.019 80.234 o
-4 8 10 1296.860 1292.740 43.753 12.770 o
-4 10 1 1318.530 1333.420 32.935 17.834 o
-4 10 2 1338.930 1288.540 25.829 22.580 o
-4 10 3 2751.020 2604.210 72.809 3.912 o
-4 10 4 1116.000 1129.390 32.636 20.716 o
-4 10 5 3186.820 3148.550 78.279 3.131 o
-4 10 6 762.683 796.435 34.771 23.407 o
-4 10 7 1763.660 1812.670 67.494 5.738 o
-4 10 8 157.416 163.789 18.789 97.174 o
-4 10 9 408.578 354.239 31.144 33.920 o
-4 10 10 155.030 140.998 18.302 102.651 o
-4 12 1 1361.260 1303.580 37.526 15.178 o
-4 12 2 1606.980 1542.440 39.488 12.416 o
-4 12 3 1423.010 1303.630 31.862 17.706 o
-4 12 4 762.576 760.676 23.486 41.699 o
-4 12 5 511.280 510.168 22.985 53.595 o
-4 12 6 550.135 552.746 24.589 46.676 o
-4 12 7 361.414 368.959 30.672 35.251 o
-4 12 8 408.864 436.397 29.742 36.486 o
-4 12 9 545.151 582.502 35.567 24.946 o
-4 14 1 431.961 431.234 25.190 48.658 o
-4 14 2 1564.940 1580.310 46.257 10.402 o
-4 14 3 930.428 917.688 36.773 19.791 o
-4 14 4 2100.140 2196.430 52.540 6.945 o
-4 14 5 1373.590 1472.730 47.436 10.854 o
-4 14 6 1803.790 1778.600 49.134 8.701 o
-4 14 7 491.286 503.688 37.081 23.686 o
-4 14 8 834.162 806.394 48.505 13.150 o
-4 16 1 1783.910 1837.980 57.910 7.059 o
-4 16 2 688.762 668.543 34.959 24.310 o
-4 16 3 521.136 489.473 30.383 33.618 o
-4 16 4 266.460 212.838 20.828 76.387 o
-4 16 5 9.017 12.389 7.916 567.479 o
-4 16 6 485.082 437.339 29.161 36.888 o
-4 16 7 200.500 231.018 49.347 14.478 o
-4 18 1 42.375 39.236 11.919 248.988 o
-4 18 2 766.905 773.346 39.996 18.660 o
-4 18 3 257.798 215.394 21.433 72.598 o
-4 18 4 1427.230 1434.730 56.267 8.416 o
-4 18 5 115.557 83.289 17.544 113.530 o
-4 20 1 1406.790 1468.060 106.796 2.855 o
-4 20 2 231.639 225.840 43.111 18.871 o
-3 -21 -1 401.855 358.032 52.613 12.505 o
-3 -21 0 580.621 566.717 66.965 7.643 o
-3 -19 -5 31.674 25.732 17.967 110.090 o
-3 -19 -4 632.599 511.293 44.965 16.147 o
-3 -19 -3 216.067 183.130 21.301 74.832 o
-3 -19 -2 921.536 987.560 49.963 12.027 o
-3 -19 -1 303.597 243.365 30.160 37.408 o
-3 -19 0 776.404 728.800 43.461 16.254 o
-3 -17 -6 98.912 73.591 18.183 106.275 o
-3 -17 -5 620.526 579.900 37.264 22.523 o
-3 -17 -4 335.016 314.965 27.326 44.336 o
-3 -17 -3 544.916 550.251 37.504 22.786 o
-3 -17 -2 406.225 445.126 31.175 33.473 o
-3 -17 -1 591.055 636.081 45.367 15.824 o
-3 -17 0 602.541 598.610 37.191 22.652 o
-3 -15 -7 179.603 198.497 26.270 50.263 o
-3 -15 -6 856.273 915.416 46.384 13.954 o
-3 -15 -5 101.285 75.934 13.270 197.088 o
-3 -15 -4 1727.000 1645.570 62.241 6.620 o
-3 -15 -3 130.847 118.900 19.078 95.591 o
-3 -15 -2 1727.860 1669.390 47.213 9.499 o
-3 -15 -1 54.861 60.253 8.433 488.978 o
-3 -15 0 1520.280 1498.290 44.568 11.204 o
-3 -13 -8 573.011 718.207 55.320 10.914 o
-3 -13 -7 1164.470 1068.890 50.527 11.053 o
-3 -13 -6 1053.590 1035.790 57.518 9.175 o
-3 -13 -5 1136.490 1159.140 48.324 11.801 o
-3 -13 -4 504.992 478.118 29.954 34.717 o
-3 -13 -3 1532.780 1448.840 32.068 16.134 o
-3 -13 -2 301.762 281.453 19.917 80.534 o
-3 -13 -1 1618.010 1560.930 51.659 8.902 o
-3 -13 0 609.845 621.156 25.280 42.630 o
-3 -11 -9 52.731 58.457 31.282 36.313 o
-3 -11 -8 816.714 757.313 55.506 10.434 o
-3 -11 -7 790.602 759.099 39.121 19.270 o
-3 -11 -6 2388.160 2305.460 75.173 4.163 o
-3 -11 -5 489.031 562.880 24.502 48.256 o
-3 -11 -4 3265.100 3090.700 94.352 2.497 o
-3 -11 -3 532.532 488.492 21.402 59.564 o
-3 -11 -2 2965.920 2871.150 66.328 4.009 o
-3 -11 -1 1045.980 1066.960 30.183 23.924 o
-3 -11 0 717.907 697.400 19.979 53.754 o
-3 -9 -10 349.952 338.952 39.815 21.601 o
-3 -9 -9 223.868 205.474 29.687 39.286 o
-3 -9 -8 617.166 583.896 37.740 22.033 o
-3 -9 -7 1172.710 1142.040 40.430 15.227 o
-3 -9 -6 606.991 594.600 27.300 38.093 o
-3 -9 -5 2981.090 2868.730 73.633 3.585 o
-3 -9 -4 512.607 487.241 23.286 52.773 o
-3 -9 -3 4622.960 4623.370 91.304 1.830 o
-3 -9 -2 1010.860 1005.000 28.846 26.142 o
-3 -9 -1 3398.090 3336.280 53.283 4.058 o
-3 -9 0 2806.110 2655.910 60.188 4.700 o
-3 -7 -10 1263.640 1151.930 48.980 11.188 o
-3 -7 -9 71.079 56.354 12.805 214.098 o
-3 -7 -8 1045.010 993.540 43.477 14.589 o
-3 -7 -7 1055.610 999.397 30.372 24.022 o
-3 -7 -6 2892.190 2787.200 55.789 4.837 o
-3 -7 -5 1605.940 1516.390 34.113 14.494 o
-3 -7 -4 1147.090 1141.720 28.529 23.790 o
-3 -7 -3 3783.580 3837.580 62.544 3.115 o
-3 -7 -2 4278.360 4208.020 58.618 2.769 o
-3 -7 -1 7834.210 7526.570 108.796 0.829 o
-3 -7 0 1514.550 1491.790 31.008 16.612 o
-3 -5 -11 777.342 656.022 72.346 6.452 o
-3 -5 -10 1088.080 1081.790 45.119 13.435 o
-3 -5 -9 505.180 443.651 36.955 23.922 o
-3 -5 -8 856.306 839.478 35.915 21.360 o
-3 -5 -7 1520.240 1470.050 45.001 11.120 o
-3 -5 -6 244.629 233.877 13.313 171.567 o
-3 -5 -5 3870.010 3787.140 71.651 2.778 o
-3 -5 -4 13.156 14.985 2.141 7600.460 o
-3 -5 -3 6706.510 6634.480 102.066 1.058 o
-3 -5 -2 54.156 50.439 3.527 2561.030 o
-3 -5 -1 4036.810 4021.130 62.261 2.887 o
-3 -5 0 903.208 894.760 20.829 41.604 o
-3 -3 -11 16.171 7.608 6.924 741.005 o
-3 -3 -10 1800.740 1708.680 51.351 8.342 o
-3 -3 -9 114.956 103.375 12.527 217.893 o
-3 -3 -8 976.202 970.311 51.424 11.342 o
-3 -3 -7 1113.710 1122.340 34.755 19.173 o
-3 -3 -6 2200.110 2231.210 38.431 8.858 o
-3 -3 -5 1399.090 1382.600 25.121 21.688 o
-3 -3 -4 96.662 100.330 5.382 1048.380 o
-3 -3 -3 3098.260 3156.480 45.215 5.013 o
-3 -3 -2 6252.770 6355.550 60.489 1.470 o
-3 -3 -1 6170.750 6035.590 85.610 1.326 o
-3 -3 0 7488.190 7315.520 96.266 0.937 o
-3 -1 -11 583.699 528.916 39.224 20.877 o
-3 -1 -10 2147.360 1982.450 62.894 5.711 o
-3 -1 -9 655.607 596.025 27.680 36.452 o
-3 -1 -8 1022.980 978.064 43.669 14.614 o
-3 -1 -7 1443.240 1455.300 35.843 14.992 o
-3 -1 -6 1412.220 1429.060 31.388 17.527 o
-3 -1 -5 1870.100 1845.120 44.582 9.390 o
-3 -1 -4 534.851 541.383 12.464 116.567 o
-3 -1 -3 2353.000 2378.040 29.845 9.390 o
-3 -1 -2 3681.550 3751.230 53.818 3.547 o
-3 -1 -1 3400.170 3534.760 50.044 4.102 o
-3 -1 0 2467.410 2461.570 27.980 9.024 o
-3 1 1 4274.750 4151.700 59.151 2.776 o
-3 1 2 12024.100 11684.600 120.158 0.403 o
-3 1 3 1667.840 1602.120 20.411 19.497 o
-3 1 4 3185.900 3268.290 49.723 4.538 o
-3 1 5 1258.890 1263.450 24.875 24.632 o
-3 1 6 1796.120 1890.760 44.856 9.493 o
-3 1 7 2187.360 2362.070 54.140 6.409 o
-3 1 8 340.547 333.289 19.352 82.016 o
-3 1 9 2183.230 2269.760 64.332 5.325 o
-3 1 10 176.536 151.896 16.887 118.669 o
-3 1 11 1397.420 1545.330 81.729 4.582 o
-3 1 12 553.597 514.689 47.890 14.554 o
-3 3 1 2986.790 2944.340 41.525 5.632 o
-3 3 2 18827.800 18138.700 165.749 0.172 o
-3 3 3 826.528 839.278 20.375 45.980 o
-3 3 4 2291.300 2341.140 42.864 7.725 o
-3 3 5 3898.470 4042.710 65.687 2.867 o
-3 3 6 2263.920 2259.840 39.905 8.365 o
-3 3 7 2345.100 2456.800 62.778 5.164 o
-3 3 8 184.954 218.564 15.859 131.079 o
-3 3 9 1852.340 1966.290 53.331 7.568 o
-3 3 10 1092.690 1159.620 41.153 15.209 o
-3 3 11 1154.150 1245.640 73.216 5.844 o
-3 5 1 1745.550 1812.510 36.867 11.925 o
-3 5 2 2833.290 2876.710 47.988 5.458 o
-3 5 3 2014.690 1936.230 41.078 9.507 o
-3 5 4 2156.170 2181.920 36.677 9.410 o
-3 5 5 2720.400 2754.220 81.402 3.387 o
-3 5 6 938.548 1008.700 32.456 23.193 o
-3 5 7 1996.900 2118.940 50.153 7.614 o
-3 5 8 191.059 179.462 22.729 66.548 o
-3 5 9 1019.190 1046.190 31.652 22.937 o
-3 5 10 98.360 108.244 12.711 213.183 o
-3 5 11 687.574 733.725 53.542 11.394 o
-3 7 1 145.405 134.441 8.641 418.133 o
-3 7 2 4759.980 4612.980 55.464 2.435 o
-3 7 3 149.073 165.416 8.460 423.743 o
-3 7 4 1612.240 1597.030 28.695 16.426 o
-3 7 5 2251.880 2282.030 45.677 7.497 o
-3 7 6 3866.020 3828.920 81.561 2.476 o
-3 7 7 457.888 438.397 28.941 37.721 o
-3 7 8 1570.310 1670.320 62.511 6.786 o
-3 7 9 422.818 398.297 31.914 32.124 o
-3 7 10 1688.950 1791.420 53.965 7.987 o
-3 7 11 703.641 679.025 44.492 15.953 o
-3 9 1 2452.160 2370.900 41.699 7.419 o
-3 9 2 1962.380 1981.100 43.324 9.144 o
-3 9 3 2196.240 2260.620 43.286 8.032 o
-3 9 4 1024.450 1067.690 39.132 17.008 o
-3 9 5 3328.170 3276.460 81.674 2.877 o
-3 9 6 106.074 112.438 12.371 223.671 o
-3 9 7 2631.850 2544.710 68.905 4.303 o
-3 9 8 21.098 31.201 7.179 686.335 o
-3 9 9 1478.800 1570.740 64.587 6.645 o
-3 9 10 100.315 91.373 21.586 75.584 o
-3 11 1 339.956 369.027 12.289 165.859 o
-3 11 2 1086.510 1101.950 28.835 24.525 o
-3 11 3 395.874 384.797 18.493 84.340 o
-3 11 4 1757.190 1827.190 40.582 10.800 o
-3 11 5 439.232 419.194 18.726 79.448 o
-3 11 6 2662.200 2719.310 52.174 5.509 o
-3 11 7 251.956 253.144 21.050 74.733 o
-3 11 8 1223.400 1272.450 69.208 6.368 o
-3 11 9 469.113 450.042 30.102 34.979 o
-3 11 10 759.247 775.988 42.137 17.113 o
-3 13 1 2332.100 2415.240 60.702 5.408 o
-3 13 2 638.224 629.092 21.784 52.005 o
-3 13 3 1988.320 2001.640 46.297 8.457 o
-3 13 4 759.522 809.917 26.690 34.696 o
-3 13 5 1443.560 1536.560 45.147 11.231 o
-3 13 6 761.406 729.147 25.509 37.713 o
-3 13 7 1277.870 1283.510 43.806 12.846 o
-3 13 8 756.770 793.686 40.432 18.323 o
-3 13 9 1437.910 1491.880 57.488 8.076 o
-3 15 1 447.305 458.856 22.395 58.598 o
-3 15 2 1205.450 1149.790 48.988 11.362 o
-3 15 3 750.356 684.490 34.080 24.761 o
-3 15 4 1253.410 1244.380 40.191 14.656 o
-3 15 5 389.620 349.571 23.397 57.308 o
-3 15 6 1121.840 1140.890 44.145 13.633 o
-3 15 7 310.967 310.859 23.665 58.315 o
-3 15 8 938.208 897.482 51.000 11.686 o
-3 17 1 1249.420 1220.770 47.817 11.533 o
-3 17 2 10.643 19.675 7.951 562.072 o
-3 17 3 1697.560 1728.560 59.695 7.006 o
-3 17 4 255.762 249.409 18.842 91.616 o
-3 17 5 982.033 1021.240 45.573 13.732 o
-3 17 6 476.068 407.917 33.511 28.939 o
-3 17 7 542.564 555.407 49.372 13.725 o
-3 19 1 882.099 900.389 49.254 12.549 o
-3 19 2 459.232 416.511 34.312 27.799 o
-3 19 3 771.193 619.140 50.621 12.566 o
-3 19 4 290.826 260.642 37.318 24.826 o
-3 19 5 267.897 277.044 56.789 10.907 o
-3 21 1 1151.210 1196.810 100.068 3.320 o
-2 -20 -4 17.302 12.674 8.557 485.227 o
-2 -20 -3 208.776 201.383 29.198 40.692 o
-2 -20 -2 176.933 182.039 26.648 48.977 o
-2 -20 -1 59.164 71.526 14.774 161.505 o
-2 -20 0 35.861 36.842 10.394 327.392 o
-2 -18 -6 338.047 359.290 57.602 10.530 o
-2 -18 -5 112.622 115.893 17.185 117.833 o
-2 -18 -4 1479.170 1498.580 81.462 4.572 o
-2 -18 -3 423.834 423.268 25.391 48.224 o
-2 -18 -2 1090.140 1101.400 139.689 1.768 o
-2 -18 -1 390.524 403.194 25.003 50.399 o
-2 -18 0 1207.400 1182.070 43.957 13.281 o
-2 -16 -7 1747.480 1798.190 85.172 4.011 o
-2 -16 -6 716.796 698.704 32.987 26.347 o
-2 -16 -5 2207.660 2122.890 60.664 5.787 o
-2 -16 -4 332.370 362.095 22.707 61.732 o
-2 -16 -3 860.282 842.093 34.472 22.701 o
-2 -16 -2 339.813 356.884 23.922 56.108 o
-2 -16 -1 410.132 425.277 23.959 53.626 o
-2 -16 0 619.161 606.311 32.412 28.538 o
-2 -14 -8 119.674 102.604 19.127 95.520 o
-2 -14 -7 40.528 19.081 10.257 336.429 o
-2 -14 -6 21.631 12.210 5.251 1282.740 o
-2 -14 -5 156.524 136.547 12.695 205.916 o
-2 -14 -4 1099.590 1081.860 34.062 19.969 o
-2 -14 -3 738.401 764.062 27.246 34.471 o
-2 -14 -2 2205.830 2071.450 61.196 5.765 o
-2 -14 -1 1219.970 1229.190 43.742 13.225 o
-2 -14 0 2907.370 2860.790 65.503 4.119 o
-2 -12 -9 364.154 272.725 34.723 28.166 o
-2 -12 -8 1695.780 1637.010 79.773 4.548 o
-2 -12 -7 1258.140 1218.700 54.672 9.378 o
-2 -12 -6 2666.510 2705.680 68.472 4.226 o
-2 -12 -5 1734.820 1672.580 47.636 9.373 o
-2 -12 -4 1725.690 1690.790 46.710 9.594 o
-2 -12 -3 1793.680 1665.910 32.446 13.444 o
-2 -12 -2 1721.760 1739.500 44.576 10.056 o
-2 -12 -1 299.146 307.151 14.582 136.881 o
-2 -12 0 1320.770 1286.450 56.947 8.608 o
-2 -10 -10 548.083 543.387 49.705 13.554 o
-2 -10 -9 666.836 637.075 60.016 9.301 o
-2 -10 -8 189.387 231.072 21.698 72.297 o
-2 -10 -7 122.293 135.514 14.505 162.696 o
-2 -10 -6 19.120 18.486 5.436 1197.020 o
-2 -10 -5 348.184 344.730 16.035 111.308 o
-2 -10 -4 249.326 237.671 13.675 163.017 o
-2 -10 -3 3261.380 3165.100 54.449 4.243 o
-2 -10 -2 4568.580 4663.980 121.458 1.382 o
-2 -10 -1 5441.810 5422.030 78.729 1.651 o
-2 -10 0 7627.070 7541.250 95.821 0.908 o
-2 -8 -11 220.880 155.232 36.692 26.038 o
-2 -8 -10 451.554 444.885 29.325 36.883 o
-2 -8 -9 171.621 183.960 18.572 98.600 o
-2 -8 -8 1103.840 1113.850 31.393 21.929 o
-2 -8 -7 782.142 784.892 36.094 21.947 o
-2 -8 -6 2083.440 2073.080 61.579 5.891 o
-2 -8 -5 501.864 544.000 24.395 48.521 o
-2 -8 -4 2472.920 2470.090 52.295 6.020 o
-2 -8 -3 2031.720 1953.770 38.509 9.955 o
-2 -8 -2 4158.400 4153.750 74.626 2.445 o
-2 -8 -1 230.452 238.086 10.912 241.622 o
-2 -8 0 1345.230 1310.130 19.891 26.953 o
-2 -6 -11 2268.260 2213.460 78.370 4.056 o
-2 -6 -10 179.759 170.370 15.548 137.964 o
-2 -6 -9 1949.270 1968.800 52.486 7.502 o
-2 -6 -8 78.044 73.777 7.731 566.485 o
-2 -6 -7 1637.660 1576.640 36.560 13.197 o
-2 -6 -6 192.933 193.008 9.126 346.743 o
-2 -6 -5 1159.480 1131.700 25.601 26.493 o
-2 -6 -4 583.760 584.843 13.276 100.626 o
-2 -6 -3 10486.000 10268.100 211.635 0.352 o
-2 -6 -2 2815.380 2895.190 39.187 6.205 o
-2 -6 -1 11859.700 11809.200 127.482 0.399 o
-2 -6 0 866.839 835.074 14.647 59.735 o
-2 -4 -11 336.515 310.371 21.265 70.050 o
-2 -4 -10 940.893 885.445 34.532 21.769 o
-2 -4 -9 537.226 546.554 25.552 44.225 o
-2 -4 -8 2725.380 2720.920 67.634 4.220 o
-2 -4 -7 905.904 920.022 23.288 36.556 o
-2 -4 -6 6355.320 6235.770 68.556 1.399 o
-2 -4 -5 1093.510 1143.080 17.587 37.461 o
-2 -4 -4 3922.130 3866.560 47.825 3.485 o
-2 -4 -3 2832.560 2926.680 29.453 6.934 o
-2 -4 -2 3787.970 3663.560 74.714 2.763 o
-2 -4 -1 429.539 420.267 9.015 202.406 o
-2 -4 0 553.764 533.242 11.762 121.095 o
-2 -2 -12 42.831 39.982 11.773 255.116 o
-2 -2 -11 2168.320 2030.560 63.495 5.584 o
-2 -2 -10 4.494 4.791 4.649 1646.070 o
-2 -2 -9 749.149 724.621 27.220 34.673 o
-2 -2 -8 3.860 10.996 3.565 2795.230 o
-2 -2 -7 1442.910 1300.680 43.082 12.406 o
-2 -2 -6 221.402 202.828 10.100 282.231 o
-2 -2 -5 1241.290 1238.660 17.634 32.032 o
-2 -2 -4 224.325 224.101 5.209 667.861 o
-2 -2 -3 10700.200 10271.700 112.311 0.504 o
-2 -2 -2 275.097 284.655 7.286 381.229 o
-2 -2 -1 2207.800 2145.470 28.754 10.739 o
-2 -2 0 2355.450 2474.170 27.917 9.460 o
-2 0 -12 11.004 6.699 8.607 480.160 o
-2 0 -10 1865.050 1738.420 217.894 0.723 o
-2 0 -8 7016.950 6564.570 122.513 0.900 o
-2 0 -6 15030.200 14671.200 216.278 0.219 o
-2 0 -4 6745.460 6831.570 141.936 0.809 o
-2 0 -2 3391.130 3424.060 53.004 4.031 o
-2 0 0 213.922 217.327 15.965 127.598 o
-2 0 2 9970.440 9809.500 163.429 0.457 o
-2 0 4 7018.540 7127.980 93.338 1.029 o
-2 0 6 11578.600 11528.600 209.950 0.313 o
-2 0 8 3153.920 3379.030 107.875 2.086 o
-2 0 10 1189.080 1205.500 94.014 3.715 o
-2 0 12 4.443 -7.680 16.930 124.165 o
-2 2 1 21607.900 19661.900 176.109 0.137 o
-2 2 2 4335.820 4458.140 60.807 2.606 o
-2 2 3 6512.800 6452.210 87.452 1.204 o
-2 2 4 215.093 237.702 8.082 390.718 o
-2 2 5 8021.710 8039.860 144.378 0.655 o
-2 2 6 133.589 135.581 13.356 189.551 o
-2 2 7 1415.770 1494.260 39.229 13.583 o
-2 2 8 93.347 96.513 8.719 441.297 o
-2 2 9 3056.100 3209.140 69.158 3.630 o
-2 2 10 121.499 116.867 14.328 167.279 o
-2 2 11 1440.190 1465.770 77.904 4.970 o
-2 2 12 184.729 150.008 26.939 48.010 o
-2 4 1 4201.040 4362.190 69.796 2.491 o
-2 4 2 7479.880 7188.840 95.993 0.948 o
-2 4 3 584.985 597.357 11.046 117.661 o
-2 4 4 9392.510 9478.120 101.584 0.630 o
-2 4 5 1241.410 1283.090 25.200 24.469 o
-2 4 6 9214.220 9228.680 133.693 0.573 o
-2 4 7 256.259 259.491 19.973 82.127 o
-2 4 8 2090.480 2210.030 46.478 7.874 o
-2 4 9 437.755 475.507 20.369 68.395 o
-2 4 10 682.149 680.231 28.198 34.332 o
-2 4 11 58.130 68.424 14.852 159.926 o
-2 4 12 148.087 135.558 26.798 48.827 o
-2 6 1 17309.900 16616.700 166.327 0.198 o
-2 6 2 1930.800 1890.210 32.922 11.881 o
-2 6 3 5314.000 5261.220 65.889 1.880 o
-2 6 4 71.515 71.787 6.446 804.941 o
-2 6 5 466.910 469.160 16.778 90.050 o
-2 6 6 126.091 134.651 10.545 296.962 o
-2 6 7 507.737 530.277 23.027 53.256 o
-2 6 8 67.147 63.672 10.157 337.585 o
-2 6 9 2847.030 2973.960 66.064 4.088 o
-2 6 10 665.775 667.772 29.049 33.113 o
-2 6 11 1667.900 1753.330 71.138 5.428 o
-2 6 12 363.568 353.855 49.389 14.197 o
-2 8 1 1612.510 1632.860 29.514 15.927 o
-2 8 2 3130.170 3248.090 51.133 4.540 o
-2 8 3 1742.070 1789.280 27.033 15.225 o
-2 8 4 6778.650 6691.110 81.671 1.172 o
-2 8 5 1484.310 1503.910 37.493 13.894 o
-2 8 6 4322.340 4291.110 64.267 2.579 o
-2 8 7 529.700 569.761 21.314 58.569 o
-2 8 8 1480.160 1543.820 43.596 11.582 o
-2 8 9 797.481 743.053 33.601 24.632 o
-2 8 10 439.823 467.037 24.064 52.043 o
-2 8 11 167.981 187.725 21.793 72.517 o
-2 10 1 4536.340 4642.070 91.218 1.855 o
-2 10 2 4384.490 4428.490 67.324 2.438 o
-2 10 3 1438.460 1517.410 34.472 15.446 o
-2 10 4 518.221 505.957 15.424 94.821 o
-2 10 5 193.023 198.570 12.952 189.819 o
-2 10 6 155.794 165.500 11.897 230.087 o
-2 10 7 346.850 327.775 16.066 111.772 o
-2 10 8 653.439 697.988 31.249 29.444 o
-2 10 9 1723.040 1845.950 56.284 7.436 o
-2 10 10 1137.020 1102.070 51.132 10.874 o
-2 10 11 1347.970 1381.530 107.637 2.837 o
-2 12 1 724.444 726.658 18.897 56.440 o
-2 12 2 778.284 784.874 24.443 38.930 o
-2 12 3 1243.860 1270.880 34.967 17.455 o
-2 12 4 1480.350 1415.210 45.357 11.250 o
-2 12 5 1602.230 1544.170 33.032 14.866 o
-2 12 6 1560.520 1562.970 32.958 15.120 o
-2 12 7 1109.610 1126.940 35.072 18.961 o
-2 12 8 1093.440 1115.240 52.204 10.607 o
-2 12 9 667.945 640.378 40.636 18.962 o
-2 12 10 663.579 681.379 54.196 11.226 o
-2 14 1 1337.830 1325.520 37.747 15.146 o
-2 14 2 1631.950 1552.350 46.874 10.061 o
-2 14 3 947.883 990.500 45.310 14.043 o
-2 14 4 272.100 273.369 22.058 67.770 o
-2 14 5 601.464 601.597 27.148 38.470 o
-2 14 6 124.245 122.660 13.204 195.222 o
-2 14 7 170.054 158.867 17.201 114.714 o
-2 14 8 944.704 921.261 41.560 16.299 o
-2 14 9 466.141 473.460 36.786 24.255 o
-2 16 1 526.161 550.410 27.879 38.448 o
-2 16 2 278.047 259.515 19.414 85.688 o
-2 16 3 1817.600 1789.830 82.245 4.205 o
-2 16 4 473.593 480.190 29.306 36.444 o
-2 16 5 2260.530 2322.150 60.520 5.588 o
-2 16 6 414.300 404.035 24.047 53.434 o
-2 16 7 1670.180 1659.190 46.901 9.767 o
-2 16 8 383.167 368.267 40.624 20.636 o
-2 18 1 500.818 498.215 25.566 45.418 o
-2 18 2 853.431 886.702 34.750 22.297 o
-2 18 3 110.408 116.281 13.224 196.149 o
-2 18 4 557.535 573.064 36.506 23.769 o
-2 18 5 59.197 34.709 9.939 355.435 o
-2 18 6 162.740 174.603 16.636 122.215 o
-2 18 7 46.090 57.796 22.340 71.127 o
-2 20 1 332.900 276.020 41.219 20.335 o
-2 20 2 129.682 130.032 18.947 96.784 o
-2 20 3 1397.670 1430.210 56.710 8.379 o
-2 20 4 126.292 133.495 16.680 124.078 o
-1 -21 -3 1008.410 937.671 84.427 4.663 o
-1 -21 -2 167.340 170.526 31.016 36.439 o
-1 -21 -1 363.022 328.276 28.772 39.897 o
-1 -21 0 183.712 190.295 17.532 109.391 o
-1 -19 -6 585.812 561.475 48.844 13.906 o
-1 -19 -5 886.846 842.678 51.930 11.509 o
-1 -19 -4 154.779 136.891 15.401 143.106 o
-1 -19 -3 875.373 832.038 41.163 17.113 o
-1 -19 -2 307.625 304.865 21.771 68.062 o
-1 -19 -1 569.444 546.817 39.087 21.035 o
-1 -19 0 1275.050 1351.900 49.357 10.733 o
-1 -17 -8 278.260 228.728 41.709 20.048 o
-1 -17 -7 668.292 639.344 39.304 20.103 o
-1 -17 -6 383.670 405.426 39.422 21.787 o
-1 -17 -5 2264.490 2326.780 74.826 4.280 o
-1 -17 -4 94.686 86.145 12.562 219.428 o
-1 -17 -3 3125.870 3097.460 86.564 2.837 o
-1 -17 -2 293.707 292.501 20.253 78.237 o
-1 -17 -1 2221.420 2270.340 54.588 6.374 o
-1 -17 0 522.496 532.998 32.147 30.230 o
-1 -15 -8 841.854 807.760 39.544 18.514 o
-1 -15 -7 303.914 286.488 20.254 77.978 o
-1 -15 -6 695.481 680.094 26.210 38.073 o
-1 -15 -5 864.082 878.602 29.044 28.791 o
-1 -15 -4 639.521 721.834 31.461 29.146 o
-1 -15 -3 1100.600 1133.130 44.558 13.544 o
-1 -15 -2 820.461 886.482 33.715 23.636 o
-1 -15 -1 748.058 737.459 26.945 35.088 o
-1 -15 0 1154.190 1117.700 50.679 10.962 o
-1 -13 -9 930.428 884.256 41.361 16.584 o
-1 -13 -8 805.340 913.009 40.864 17.465 o
-1 -13 -7 1199.110 1130.890 49.461 11.241 o
-1 -13 -6 845.508 824.738 30.113 27.970 o
-1 -13 -5 1245.260 1252.340 33.977 18.123 o
-1 -13 -4 884.040 953.481 29.415 27.521 o
-1 -13 -3 1597.420 1581.140 43.937 10.956 o
-1 -13 -2 1733.720 1653.710 30.910 14.404 o
-1 -13 -1 2791.640 2731.600 46.321 5.796 o
-1 -13 0 1566.170 1568.140 42.372 11.585 o
-1 -11 -10 1307.610 1316.580 63.203 7.281 o
-1 -11 -9 207.912 208.146 19.493 88.428 o
-1 -11 -8 1895.460 1902.760 59.291 6.605 o
-1 -11 -7 588.752 594.692 26.693 39.810 o
-1 -11 -6 2134.800 2139.950 46.280 7.882 o
-1 -11 -5 111.711 116.033 10.269 317.478 o
-1 -11 -4 3123.940 3079.300 62.703 3.973 o
-1 -11 -3 135.804 129.409 9.643 348.000 o
-1 -11 -2 3247.260 3120.990 51.038 4.478 o
-1 -11 -1 851.755 861.949 23.280 38.590 o
-1 -11 0 4819.690 4708.400 66.763 2.176 o
-1 -9 -10 178.388 167.910 22.135 70.357 o
-1 -9 -9 1632.690 1568.180 74.688 5.137 o
-1 -9 -8 396.699 434.503 31.240 33.479 o
-1 -9 -7 2060.240 2092.490 75.785 4.463 o
-1 -9 -6 139.737 127.915 11.773 240.150 o
-1 -9 -5 479.204 481.752 19.782 69.624 o
-1 -9 -4 1048.170 1035.260 28.836 25.455 o
-1 -9 -3 773.325 782.351 25.722 36.502 o
-1 -9 -2 1537.330 1500.160 35.455 14.430 o
-1 -9 -1 1119.090 1103.060 21.671 31.928 o
-1 -9 0 143.943 141.372 5.814 800.768 o
-1 -7 -11 840.586 872.530 40.536 17.619 o
-1 -7 -10 674.432 631.616 34.744 24.823 o
-1 -7 -9 1259.120 1219.650 38.569 15.509 o
-1 -7 -8 2255.820 2266.140 58.709 5.833 o
-1 -7 -7 1499.630 1465.930 38.742 13.415 o
-1 -7 -6 1641.930 1565.580 38.650 12.476 o
-1 -7 -5 442.705 443.745 15.443 104.507 o
-1 -7 -4 3408.290 3328.940 51.075 4.160 o
-1 -7 -3 158.757 175.458 9.237 358.211 o
-1 -7 -2 3143.650 3169.210 43.616 5.034 o
-1 -7 -1 2308.100 2304.580 30.546 9.617 o
-1 -7 0 11002.200 10477.200 109.116 0.488 o
-1 -5 -12 28.931 -6.391 12.586 224.418 o
-1 -5 -11 1807.570 1805.490 64.977 6.012 o
-1 -5 -10 179.961 184.218 14.520 156.146 o
-1 -5 -9 1225.820 1194.650 36.525 16.929 o
-1 -5 -8 29.973 37.313 6.379 863.113 o
-1 -5 -7 3652.540 3575.400 60.757 3.379 o
-1 -5 -6 1267.320 1276.080 20.432 28.324 o
-1 -5 -5 2704.980 2727.310 45.846 6.004 o
-1 -5 -4 5505.290 5508.360 62.478 1.809 o
-1 -5 -3 10838.300 10692.300 146.122 0.435 o
-1 -5 -2 6087.640 6091.050 75.062 1.429 o
-1 -5 -1 2735.640 2811.630 29.253 7.384 o
-1 -5 0 4015.030 4117.650 53.080 3.137 o
-1 -3 -12 891.219 843.746 40.000 17.808 o
-1 -3 -11 1005.130 997.225 32.346 22.685 o
-1 -3 -10 88.263 73.719 8.659 452.858 o
-1 -3 -9 1266.640 1270.320 37.452 15.899 o
-1 -3 -8 987.122 966.219 29.675 25.787 o
-1 -3 -7 2834.100 2673.360 47.050 5.709 o
-1 -3 -6 1494.040 1490.830 22.314 21.478 o
-1 -3 -5 1010.700 1027.180 16.052 44.785 o
-1 -3 -4 6003.110 5929.010 60.040 1.604 o
-1 -3 -3 332.062 334.584 6.733 345.654 o
-1 -3 -2 3625.070 3566.440 43.144 4.128 o
-1 -3 -1 10360.300 10339.300 95.970 0.548 o
-1 -3 0 10834.600 10441.700 93.507 0.521 o
-1 -1 -12 762.644 732.791 36.704 21.678 o
-1 -1 -11 844.961 798.648 35.103 22.384 o
-1 -1 -10 56.456 44.911 8.383 496.229 o
-1 -1 -9 808.611 786.842 23.178 40.852 o
-1 -1 -8 484.478 464.491 18.877 74.918 o
-1 -1 -7 3415.970 3360.600 44.001 4.483 o
-1 -1 -6 3177.920 3077.430 38.217 5.391 o
-1 -1 -5 1967.350 2008.090 25.515 13.222 o
-1 -1 -4 16433.200 15676.900 119.522 0.237 o
-1 -1 -3 11387.400 11080.900 74.555 0.496 o
-1 -1 -2 15199.600 14320.500 113.690 0.277 o
-1 -1 -1 5068.530 5073.260 62.672 2.058 o
-1 -1 0 6215.180 6021.040 58.203 1.543 o
-1 1 1 14421.900 13203.300 112.927 0.310 o
-1 1 2 246.650 270.287 7.731 380.845 o
-1 1 3 890.300 892.682 18.700 46.668 o
-1 1 4 3049.540 3058.990 47.374 5.019 o
-1 1 5 3691.310 3697.800 46.509 3.845 o
-1 1 6 2651.400 2748.530 50.486 5.654 o
-1 1 7 453.871 514.899 20.760 64.954 o
-1 1 8 3450.070 3547.020 60.864 3.555 o
-1 1 9 1050.030 1069.050 38.537 17.232 o
-1 1 10 1349.580 1506.300 73.483 5.542 o
-1 1 11 193.169 186.093 27.104 47.229 o
-1 1 12 469.441 507.628 45.535 16.219 o
-1 3 1 8154.930 7946.890 75.106 0.898 o
-1 3 2 688.196 703.093 13.120 84.337 o
-1 3 3 2740.800 2667.030 33.058 7.220 o
-1 3 4 2619.270 2607.710 52.693 5.619 o
-1 3 5 3401.520 3473.650 51.696 4.056 o
-1 3 6 4258.620 4403.770 102.069 1.774 o
-1 3 7 484.602 486.522 12.656 125.929 o
-1 3 8 5290.840 5293.890 82.413 1.667 o
-1 3 9 437.369 481.413 22.047 60.087 o
-1 3 10 1698.540 1774.360 54.139 7.951 o
-1 3 11 861.656 863.376 57.208 9.726 o
-1 3 12 484.454 430.059 42.512 18.534 o
-1 5 1 15383.100 14467.200 129.881 0.263 o
-1 5 2 3.258 3.156 1.085 30090.300 o
-1 5 3 6618.620 6579.180 67.105 1.309 o
-1 5 4 581.590 601.338 14.230 93.074 o
-1 5 5 9267.300 9221.610 133.206 0.572 o
-1 5 6 281.461 293.548 11.799 195.987 o
-1 5 7 872.405 866.240 20.347 44.051 o
-1 5 8 1354.770 1379.650 38.503 14.535 o
-1 5 9 904.912 953.553 27.681 29.475 o
-1 5 10 862.342 869.996 45.628 14.404 o
-1 5 11 374.050 371.401 25.032 50.917 o
-1 5 12 285.418 311.664 35.188 27.737 o
-1 7 1 2304.970 2410.200 29.804 9.527 o
-1 7 2 4728.820 4679.880 52.095 2.495 o
-1 7 3 6354.440 6141.030 77.552 1.341 o
-1 7 4 3358.330 3345.310 44.636 4.538 o
-1 7 5 5436.290 5414.880 72.434 1.730 o
-1 7 6 1380.980 1402.000 30.409 18.474 o
-1 7 7 1081.270 1101.780 27.715 25.719 o
-1 7 8 1649.290 1701.350 45.296 10.180 o
-1 7 9 83.989 90.768 10.635 304.263 o
-1 7 10 848.827 780.732 40.183 18.070 o
-1 7 11 779.909 747.924 35.615 22.581 o
-1 7 12 846.253 864.428 80.391 5.203 o
-1 9 1 7746.580 7802.080 102.376 0.851 o
-1 9 2 1557.730 1580.670 22.928 19.773 o
-1 9 3 5368.650 5376.290 77.544 1.693 o
-1 9 4 1623.460 1637.770 38.829 12.331 o
-1 9 5 4372.420 4342.370 68.471 2.440 o
-1 9 6 666.738 717.233 26.422 37.817 o
-1 9 7 1122.890 1156.380 33.501 19.870 o
-1 9 8 1836.280 1878.410 66.202 5.775 o
-1 9 9 1045.570 1041.190 47.009 12.818 o
-1 9 10 835.684 884.383 38.076 19.478 o
-1 9 11 790.184 766.004 41.819 17.219 o
-1 11 1 620.336 663.887 20.322 57.166 o
-1 11 2 5552.090 5476.760 72.531 1.683 o
-1 11 3 1089.630 1147.280 31.140 22.118 o
-1 11 4 4791.550 4917.060 76.723 1.973 o
-1 11 5 444.112 472.561 18.379 80.019 o
-1 11 6 1486.290 1580.170 34.980 14.699 o
-1 11 7 314.149 339.256 27.501 43.918 o
-1 11 8 484.799 497.059 29.334 36.141 o
-1 11 9 438.769 454.757 31.165 33.144 o
-1 11 10 426.853 476.207 62.984 8.746 o
-1 11 11 127.684 99.311 26.545 49.995 o
-1 13 1 3058.140 3019.100 53.474 4.633 o
-1 13 2 1397.060 1590.220 55.083 8.587 o
-1 13 3 1663.020 1727.620 59.058 7.170 o
-1 13 4 444.673 425.194 21.076 65.417 o
-1 13 5 1212.980 1233.670 39.107 15.453 o
-1 13 6 298.994 300.476 14.960 131.597 o
-1 13 7 1582.680 1639.500 41.058 11.786 o
-1 13 8 576.866 485.528 42.410 18.215 o
-1 13 9 969.591 1059.040 94.238 3.786 o
-1 13 10 414.293 349.370 57.014 10.685 o
-1 15 1 227.959 237.174 17.785 103.448 o
-1 15 2 1960.520 1995.900 58.111 6.591 o
-1 15 3 65.583 63.867 14.100 177.068 o
-1 15 4 2436.610 2371.820 87.668 3.320 o
-1 15 5 51.345 42.113 14.383 171.043 o
-1 15 6 1373.000 1420.390 44.369 11.977 o
-1 15 7 314.527 301.089 22.950 61.715 o
-1 15 8 913.204 913.354 64.161 7.821 o
-1 15 9 307.458 285.037 48.675 14.731 o
-1 17 1 947.908 1010.670 47.106 13.147 o
-1 17 2 501.658 506.741 28.264 38.245 o
-1 17 3 682.534 736.586 35.907 23.043 o
-1 17 4 408.076 455.717 28.713 38.774 o
-1 17 5 701.981 669.020 31.318 28.956 o
-1 17 6 326.576 325.040 20.080 77.627 o
-1 17 7 984.310 961.287 46.171 13.544 o
-1 17 8 25.171 32.964 19.537 93.145 o
-1 19 1 110.551 109.001 14.154 172.245 o
-1 19 2 1052.210 1157.510 46.148 12.968 o
-1 19 3 221.864 236.188 19.163 90.344 o
-1 19 4 866.192 925.440 43.706 15.351 o
-1 19 5 320.536 346.392 25.056 52.024 o
-1 19 6 480.427 499.949 60.742 9.334 o
-1 21 1 207.467 191.309 17.591 107.631 o
-1 21 2 468.895 481.985 27.963 39.616 o
-1 21 3 116.146 105.523 17.426 114.711 o
0 -22 -2 575.258 566.886 63.573 8.450 o
0 -22 -1 61.691 25.451 18.836 99.949 o
0 -20 -5 212.311 197.588 30.988 36.221 o
0 -20 -4 196.386 172.583 24.463 57.691 o
0 -20 -3 625.726 583.538 63.128 8.515 o
0 -20 -2 27.408 14.627 8.588 480.721 o
0 -20 -1 2182.400 2146.710 76.754 4.267 o
0 -18 -7 409.223 396.881 32.511 31.158 o
0 -18 -6 1214.240 1104.120 52.951 10.097 o
0 -18 -5 500.927 482.095 27.640 39.936 o
0 -18 -4 1411.920 1417.340 54.668 8.836 o
0 -18 -3 326.143 291.217 21.379 69.991 o
0 -18 -2 1217.160 1231.810 43.467 13.350 o
0 -18 -1 235.265 244.195 16.337 120.067 o
0 -16 -8 355.521 333.115 29.250 38.745 o
0 -16 -7 302.375 253.674 25.252 52.322 o
0 -16 -6 62.894 58.340 13.261 200.151 o
0 -16 -5 583.744 569.072 28.825 35.409 o
0 -16 -4 289.509 324.443 24.199 56.248 o
0 -16 -3 1609.110 1588.270 50.233 9.225 o
0 -16 -2 844.634 840.496 31.338 26.327 o
0 -16 -1 4126.350 4075.600 69.760 2.608 o
0 -14 -9 336.982 315.479 29.267 38.976 o
0 -14 -8 993.182 1000.530 43.027 15.037 o
0 -14 -7 901.474 922.931 40.095 17.472 o
0 -14 -6 1860.860 1887.450 55.879 7.204 o
0 -14 -5 1481.760 1508.970 38.073 13.661 o
0 -14 -4 1598.720 1651.760 42.116 11.362 o
0 -14 -3 615.469 594.187 21.835 53.179 o
0 -14 -2 575.859 564.892 20.021 62.320 o
0 -14 -1 213.665 207.029 12.835 189.328 o
0 -12 -10 608.375 646.082 43.936 16.703 o
0 -12 -9 298.435 293.360 28.335 41.938 o
0 -12 -8 716.606 726.139 36.299 22.426 o
0 -12 -7 151.164 183.878 20.184 84.529 o
0 -12 -6 446.352 397.380 21.322 64.616 o
0 -12 -5 711.349 678.172 31.979 27.856 o
0 -12 -4 1424.130 1421.480 33.658 16.279 o
0 -12 -3 1672.870 1619.620 31.960 14.550 o
0 -12 -2 4269.550 4112.960 50.847 3.007 o
0 -12 -1 2063.340 2078.640 28.660 11.683 o
0 -10 -10 403.592 407.600 34.024 28.635 o
0 -10 -9 1062.620 1061.400 52.750 10.563 o
0 -10 -8 2950.140 3061.450 79.485 3.248 o
0 -10 -7 2512.120 2611.830 80.022 3.642 o
0 -10 -6 3156.600 3143.690 66.875 3.692 o
0 -10 -5 3171.850 3230.180 81.973 2.962 o
0 -10 -4 2934.530 2939.080 62.191 4.262 o
0 -10 -3 3198.310 3143.440 47.576 4.731 o
0 -10 -2 156.849 138.794 5.730 796.828 o
0 -10 -1 756.601 782.248 16.865 60.437 o
0 -8 -11 203.343 192.700 24.149 58.931 o
0 -8 -10 1115.390 1058.050 53.651 10.159 o
0 -8 -9 686.542 651.801 33.775 25.834 o
0 -8 -8 873.530 896.203 28.128 29.786 o
0 -8 -7 123.532 116.412 14.177 170.609 o
0 -8 -6 1003.500 1003.230 38.018 18.076 o
0 -8 -5 464.363 427.205 15.764 100.334 o
0 -8 -4 3412.290 3507.630 67.872 3.303 o
0 -8 -3 1552.640 1474.340 50.819 9.380 o
0 -8 -2 1964.590 1989.300 34.758 11.011 o
0 -8 -1 745.659 741.653 15.694 66.599 o
0 -6 -12 51.660 41.064 20.070 88.096 o
0 -6 -11 327.635 337.002 61.499 9.271 o
0 -6 -10 3.723 5.673 3.770 2502.600 o
0 -6 -9 2807.070 2689.740 53.946 5.162 o
0 -6 -8 696.043 722.944 23.432 44.073 o
0 -6 -7 5205.350 5246.210 107.237 1.387 o
0 -6 -6 690.837 651.523 24.947 41.327 o
0 -6 -5 7845.940 7589.580 164.109 0.611 o
0 -6 -4 3330.950 3254.160 45.138 4.611 o
0 -6 -3 10328.800 10168.800 103.743 0.542 o
0 -6 -2 17.821 18.039 1.674 11987.700 o
0 -6 -1 7427.850 7182.560 77.607 1.044 o
0 -4 -12 2771.120 2749.930 77.957 3.541 o
0 -4 -11 323.464 312.090 16.811 106.008 o
0 -4 -10 1494.040 1494.860 38.811 13.342 o
0 -4 -9 934.571 931.295 31.087 25.072 o
0 -4 -8 1640.800 1638.880 34.315 13.814 o
0 -4 -7 332.753 298.408 10.945 205.153 o
0 -4 -6 74.699 81.549 4.142 1758.640 o
0 -4 -5 369.613 345.127 7.516 286.024 o
0 -4 -4 5807.670 5782.770 49.329 1.786 o
0 -4 -3 8780.190 8760.450 96.533 0.721 o
0 -4 -2 4584.890 4443.800 59.377 2.500 o
0 -4 -1 5349.760 5299.090 57.767 1.963 o
0 -2 -12 13.340 9.400 8.031 551.149 o
0 -2 -11 702.860 680.451 24.799 41.075 o
0 -2 -10 122.744 111.900 9.849 340.986 o
0 -2 -9 2493.790 2496.380 44.207 6.857 o
0 -2 -8 82.798 77.582 10.668 303.632 o
0 -2 -7 4372.030 4084.170 55.042 2.839 o
0 -2 -6 72.192 72.161 4.082 1836.920 o
0 -2 -5 7138.670 6773.240 83.566 1.092 o
0 -2 -4 551.662 544.358 11.782 120.366 o
0 -2 -3 8656.560 8166.990 90.880 0.778 o
0 -2 -2 323.037 333.446 7.458 320.455 o
0 -2 -1 3869.340 3683.870 37.331 3.984 o
0 0 -12 3487.760 3262.720 122.335 1.693 o
0 0 -10 1716.480 1676.810 51.365 8.582 o
0 0 -8 2682.080 2739.760 81.854 3.391 o
0 0 -6 303.243 291.390 13.191 161.356 o
0 0 -4 8567.810 8177.870 97.553 0.765 o
0 0 -2 25609.000 21031.100 318.428 0.088 o
0 0 2 24655.400 20461.900 207.715 0.110 o
0 0 4 8140.650 8014.930 107.123 0.781 o
0 0 6 662.390 653.044 31.177 29.707 o
0 0 8 2992.300 3208.160 145.169 1.371 o
0 0 10 1835.590 1798.790 111.785 2.502 o
0 0 12 3239.520 3182.960 114.794 1.916 o
0 2 0 47.967 49.342 1.615 9298.580 o
0 2 1 4408.140 4282.160 37.252 3.149 o
0 2 2 361.758 372.425 5.952 339.517 o
0 2 3 9581.530 9191.990 96.403 0.638 o
0 2 4 567.595 594.928 10.021 130.190 o
0 2 5 7262.450 7231.520 77.048 1.069 o
0 2 6 92.731 87.161 5.616 993.195 o
0 2 7 4067.880 4132.870 64.161 2.777 o
0 2 8 106.019 125.719 12.368 223.066 o
0 2 9 2158.520 2224.990 59.018 5.975 o
0 2 10 143.386 150.616 22.622 68.079 o
0 2 11 652.750 692.720 43.907 16.488 o
0 2 12 12.819 35.571 21.079 80.063 o
0 4 0 30821.700 24308.500 558.492 0.048 o
0 4 1 5133.150 5005.540 61.743 2.059 o
0 4 2 4424.040 4435.110 41.779 2.981 o
0 4 3 8332.540 8436.820 69.594 0.863 o
0 4 4 5518.540 5503.600 54.441 1.896 o
0 4 5 295.495 296.859 7.352 357.316 o
0 4 6 81.004 79.401 7.243 637.425 o
0 4 7 333.241 343.183 15.646 117.195 o
0 4 8 1836.540 1831.790 39.296 10.801 o
0 4 9 982.334 958.149 31.400 24.055 o
0 4 10 1747.500 1803.280 47.440 9.190 o
0 4 11 298.945 274.081 43.503 18.379 o
0 4 12 2777.860 2705.400 160.474 1.199 o
0 6 0 732.476 756.875 12.882 78.882 o
0 6 1 7423.640 7383.130 70.238 1.063 o
0 6 2 52.626 52.412 2.882 3652.740 o
0 6 3 11230.500 11191.700 122.154 0.443 o
0 6 4 3320.350 3320.430 45.986 4.535 o
0 6 5 8116.990 8225.070 107.277 0.772 o
0 6 6 714.985 681.386 23.114 44.948 o
0 6 7 5185.600 5146.730 109.204 1.377 o
0 6 8 696.853 714.004 22.597 46.384 o
0 6 9 2264.870 2312.670 52.405 6.528 o
0 6 10 20.570 34.441 8.753 462.561 o
0 6 11 151.756 148.851 23.367 63.801 o
0 6 12 36.284 21.499 18.724 101.367 o
0 8 0 2257.240 2276.240 23.090 11.130 o
0 8 1 793.944 783.830 13.114 71.610 o
0 8 2 1887.810 1864.490 38.130 10.811 o
0 8 3 1355.520 1424.190 35.804 15.679 o
0 8 4 3171.490 3209.230 70.379 3.481 o
0 8 5 476.783 472.318 18.136 79.731 o
0 8 6 818.961 826.022 25.750 35.105 o
0 8 7 184.221 196.886 14.897 148.053 o
0 8 8 981.115 1037.150 37.106 18.765 o
0 8 9 883.317 899.757 37.046 19.959 o
0 8 10 1342.190 1376.780 56.415 8.606 o
0 8 11 263.477 253.139 29.866 38.389 o
0 10 0 220.185 226.260 6.390 535.083 o
0 10 1 595.033 620.504 17.466 71.978 o
0 10 2 149.714 154.847 12.838 201.378 o
0 10 3 3698.500 3796.830 62.465 3.194 o
0 10 4 2917.780 3019.940 72.924 3.614 o
0 10 5 3115.730 3082.810 65.818 3.809 o
0 10 6 3098.610 3137.090 87.163 2.818 o
0 10 7 2652.260 2752.270 76.469 3.708 o
0 10 8 2776.100 2881.010 64.126 4.329 o
0 10 9 816.919 770.655 87.889 4.417 o
0 10 10 278.217 242.640 23.846 58.775 o
0 10 11 133.161 121.786 21.452 75.904 o
0 12 0 5110.760 4902.210 103.861 1.483 o
0 12 1 2057.230 2116.650 43.842 8.544 o
0 12 2 3933.010 3828.310 138.146 1.319 o
0 12 3 1636.260 1605.590 46.989 9.933 o
0 12 4 1214.680 1184.720 37.695 16.359 o
0 12 5 647.193 631.680 24.563 43.525 o
0 12 6 478.393 505.255 20.451 65.694 o
0 12 7 226.293 239.308 18.872 92.733 o
0 12 8 887.720 875.328 45.963 14.131 o
0 12 9 446.442 364.493 31.313 33.205 o
0 12 10 665.285 633.828 39.192 20.234 o
0 14 0 28.015 28.012 4.977 1413.310 o
0 14 1 89.175 110.913 11.894 243.286 o
0 14 2 794.438 779.672 30.017 29.049 o
0 14 3 729.648 746.406 27.100 35.046 o
0 14 4 1816.020 1883.040 47.311 8.907 o
0 14 5 1273.840 1281.550 38.559 15.249 o
0 14 6 1883.940 1931.250 46.265 8.860 o
0 14 7 961.878 1003.610 49.315 12.159 o
0 14 8 897.039 926.180 39.826 17.675 o
0 14 9 296.329 241.553 31.906 33.633 o
0 16 0 1157.310 1122.090 40.742 15.194 o
0 16 1 3823.610 3647.070 84.147 2.463 o
0 16 2 706.503 755.201 47.851 13.895 o
0 16 3 1328.380 1441.230 50.769 10.032 o
0 16 4 214.135 179.085 14.446 154.735 o
0 16 5 345.762 379.204 21.179 69.138 o
0 16 6 116.782 116.549 19.699 90.071 o
0 16 7 419.670 399.304 28.050 40.654 o
0 16 8 470.198 479.918 31.619 31.882 o
0 18 0 235.445 258.044 20.420 79.498 o
0 18 1 193.106 176.088 19.704 87.548 o
0 18 2 1489.050 1559.250 52.419 9.039 o
0 18 3 347.157 341.490 27.249 44.240 o
0 18 4 1685.380 1685.720 58.047 7.343 o
0 18 5 460.073 493.611 30.856 33.337 o
0 18 6 1234.720 1268.610 51.769 10.206 o
0 18 7 427.086 405.038 56.649 10.783 o
0 20 0 2.122 0.312 6.752 780.546 o
0 20 1 1973.500 1944.180 56.482 6.850 o
0 20 2 36.554 52.535 10.795 303.021 o
0 20 3 495.418 493.712 27.950 39.173 o
0 20 4 187.446 200.021 26.472 49.441 o
0 20 5 68.222 56.529 16.037 137.242 o
0 22 0 249.414 221.941 28.610 41.944 o
0 22 1 62.675 67.918 17.795 111.636 o
0 22 2 723.654 774.631 54.114 11.075 o
1 -21 -4 540.791 566.745 66.768 7.712 o
1 -21 -3 81.258 72.819 16.232 133.460 o
1 -21 -2 491.316 470.449 35.448 25.817 o
1 -21 -1 297.898 255.763 37.339 24.784 o
1 -19 -6 584.037 569.910 38.579 21.403 o
1 -19 -5 226.606 216.242 27.496 45.518 o
1 -19 -4 834.378 861.249 37.725 19.849 o
1 -19 -3 169.721 137.836 18.128 104.136 o
1 -19 -2 1137.880 1174.490 44.334 13.413 o
1 -19 -1 142.615 159.211 16.613 123.830 o
1 -17 -8 35.828 14.856 14.660 165.274 o
1 -17 -7 915.383 914.890 65.951 7.438 o
1 -17 -6 379.579 336.658 29.138 38.752 o
1 -17 -5 635.889 642.406 34.968 24.811 o
1 -17 -4 483.814 468.854 38.536 22.185 o
1 -17 -3 548.273 518.382 23.373 51.063 o
1 -17 -2 508.447 490.620 22.514 55.766 o
1 -17 -1 1149.460 1166.560 32.044 20.683 o
1 -15 -9 301.813 276.700 24.111 56.841 o
1 -15 -8 769.004 731.793 37.764 20.647 o
1 -15 -7 327.745 336.872 24.270 55.098 o
1 -15 -6 1483.420 1489.500 50.324 9.671 o
1 -15 -5 45.449 39.376 12.707 219.104 o
1 -15 -4 2229.230 2231.480 81.673 3.845 o
1 -15 -3 69.361 79.959 9.101 415.816 o
1 -15 -2 2137.790 2176.400 50.018 7.253 o
1 -15 -1 262.768 269.003 13.939 154.216 o
1 -13 -9 1048.380 992.841 52.097 10.898 o
1 -13 -8 580.604 562.465 37.056 23.039 o
1 -13 -7 1295.250 1358.300 48.938 10.798 o
1 -13 -6 319.107 325.669 17.659 97.371 o
1 -13 -5 1026.130 1039.410 32.163 22.429 o
1 -13 -4 467.763 505.529 22.923 55.139 o
1 -13 -3 1541.170 1540.920 48.962 9.798 o
1 -13 -2 1353.600 1405.380 30.787 18.487 o
1 -13 -1 3321.060 3280.880 50.406 4.324 o
1 -11 -10 574.081 643.961 43.275 17.291 o
1 -11 -9 438.539 447.426 33.358 29.314 o
1 -11 -8 505.904 570.094 36.688 23.876 o
1 -11 -7 336.610 331.594 31.945 32.991 o
1 -11 -6 1766.730 1802.700 72.876 5.116 o
1 -11 -5 476.433 452.322 24.483 49.882 o
1 -11 -4 4637.810 4558.800 67.151 2.286 o
1 -11 -3 1028.840 1044.000 28.812 25.679 o
1 -11 -2 5611.130 5430.310 63.364 1.776 o
1 -11 -1 573.010 575.598 13.722 98.988 o
1 -9 -11 621.400 642.307 43.490 16.974 o
1 -9 -10 888.407 948.744 51.165 11.680 o
1 -9 -9 951.568 1061.730 51.892 11.120 o
1 -9 -8 1734.240 1718.150 43.964 10.206 o
1 -9 -7 994.068 1036.760 41.939 15.558 o
1 -9 -6 588.831 547.227 28.667 35.816 o
1 -9 -5 4452.490 4379.450 50.898 2.783 o
1 -9 -4 1524.800 1405.100 73.519 5.432 o
1 -9 -3 5392.390 5329.270 146.929 0.973 o
1 -9 -2 1660.970 1698.620 30.203 15.025 o
1 -9 -1 7907.240 7707.710 69.913 0.966 o
1 -7 -11 658.800 645.782 42.934 17.226 o
1 -7 -10 960.886 980.746 40.262 16.885 o
1 -7 -9 75.639 69.236 8.149 514.250 o
1 -7 -8 1546.380 1477.000 34.501 14.848 o
1 -7 -7 1241.900 1209.110 27.576 22.985 o
1 -7 -6 1137.510 1164.860 46.996 12.305 o
1 -7 -5 5784.670 5781.920 90.502 1.391 o
1 -7 -4 3143.940 3052.480 54.555 4.439 o
1 -7 -3 6440.430 6304.890 82.268 1.269 o
1 -7 -2 4761.850 4683.080 47.360 2.559 o
1 -7 -1 2235.140 2304.510 21.344 11.453 o
1 -5 -12 308.066 281.019 28.779 40.687 o
1 -5 -11 306.473 290.320 20.666 75.049 o
1 -5 -10 936.822 902.140 33.760 22.455 o
1 -5 -9 1008.450 990.052 25.415 30.462 o
1 -5 -8 1262.110 1234.070 27.958 22.275 o
1 -5 -7 1165.660 1125.720 32.920 20.059 o
1 -5 -6 291.939 269.419 14.489 141.235 o
1 -5 -5 9577.640 9168.540 147.516 0.522 o
1 -5 -4 415.276 392.475 9.881 193.356 o
1 -5 -3 6502.960 6557.810 80.895 1.242 o
1 -5 -2 28.442 30.405 2.497 5330.030 o
1 -5 -1 15289.300 14383.700 208.596 0.222 o
1 -3 -12 564.141 548.389 28.683 36.127 o
1 -3 -11 643.608 675.561 26.869 37.681 o
1 -3 -10 1711.180 1722.700 41.234 11.019 o
1 -3 -9 368.443 334.470 16.535 104.758 o
1 -3 -8 5124.670 5006.570 68.498 1.962 o
1 -3 -7 579.837 554.199 15.400 87.467 o
1 -3 -6 3740.310 3787.500 67.699 2.986 o
1 -3 -5 3761.320 3671.580 42.524 3.933 o
1 -3 -4 2464.280 2414.990 32.375 8.547 o
1 -3 -3 2975.570 2942.520 44.957 5.399 o
1 -3 -2 1148.330 1239.060 23.063 28.376 o
1 -3 -1 7837.240 7486.590 93.290 0.897 o
1 -1 -12 551.503 527.544 31.881 30.418 o
1 -1 -11 136.763 137.169 12.023 230.660 o
1 -1 -10 1409.100 1429.430 37.763 14.418 o
1 -1 -9 1131.670 1167.720 26.979 25.276 o
1 -1 -8 3495.740 3365.390 59.648 3.648 o
1 -1 -7 552.757 542.672 11.705 121.065 o
1 -1 -6 2752.780 2688.690 44.020 6.118 o
1 -1 -5 3695.410 3653.120 59.701 3.354 o
1 -1 -4 3105.680 3090.320 32.201 5.896 o
1 -1 -3 580.251 555.288 12.534 108.770 o
1 -1 -2 472.087 490.164 8.554 185.326 o
1 -1 -1 13820.500 12629.900 98.226 0.344 o
1 1 0 6727.650 6507.220 56.783 1.356 o
1 1 1 4467.160 4587.410 38.400 2.956 o
1 1 2 15798.200 14997.800 88.913 0.267 o
1 1 3 11143.400 11069.900 62.128 0.522 o
1 1 4 16273.900 15931.700 96.666 0.245 o
1 1 5 2275.030 2315.960 25.406 10.563 o
1 1 6 2868.020 2855.640 41.288 5.962 o
1 1 7 3658.930 3710.990 74.564 2.827 o
1 1 8 335.401 356.870 19.638 79.679 o
1 1 9 976.141 1030.620 57.462 9.327 o
1 1 10 150.984 144.054 17.021 118.163 o
1 1 11 784.444 755.793 115.821 2.593 o
1 1 12 799.160 843.797 77.616 5.588 o
1 3 0 11768.700 11361.300 99.219 0.444 o
1 3 1 9327.560 9246.020 71.188 0.711 o
1 3 2 3843.440 3819.230 27.874 4.223 o
1 3 3 180.390 194.927 4.106 1025.570 o
1 3 4 5807.510 5960.100 46.076 1.782 o
1 3 5 1354.260 1396.260 19.938 25.958 o
1 3 6 1166.230 1189.230 22.459 29.148 o
1 3 7 3185.580 3231.130 75.881 3.211 o
1 3 8 817.840 888.210 28.835 29.670 o
1 3 9 1240.610 1217.400 36.383 16.835 o
1 3 10 129.046 103.614 17.541 112.902 o
1 3 11 837.157 851.712 52.539 11.374 o
1 3 12 1007.450 977.698 93.649 3.832 o
1 5 0 3554.210 3705.560 40.911 4.221 o
1 5 1 3129.740 3215.740 31.582 5.754 o
1 5 2 6086.050 5972.780 48.115 1.668 o
1 5 3 11023.000 11029.500 82.637 0.508 o
1 5 4 5398.700 5457.260 62.715 1.854 o
1 5 5 2732.960 2796.570 49.410 5.573 o
1 5 6 1353.330 1358.640 29.887 19.257 o
1 5 7 3569.840 3550.210 59.023 3.528 o
1 5 8 9.288 3.220 3.990 2231.850 o
1 5 9 1288.560 1233.750 36.976 16.131 o
1 5 10 276.827 289.402 23.652 59.270 o
1 5 11 1750.750 1751.540 113.187 2.471 o
1 7 0 10814.600 10394.700 85.724 0.534 o
1 7 1 2063.580 2050.820 19.670 13.729 o
1 7 2 2999.050 3073.050 37.118 5.804 o
1 7 3 224.510 214.951 5.531 634.842 o
1 7 4 3342.400 3331.050 44.466 4.578 o
1 7 5 516.315 529.864 17.223 81.312 o
1 7 6 1773.580 1810.160 43.011 10.145 o
1 7 7 1647.650 1716.440 68.884 5.744 o
1 7 8 2254.540 2287.510 54.152 6.354 o
1 7 9 1204.160 1248.590 51.718 10.324 o
1 7 10 731.090 684.041 93.355 3.963 o
1 7 11 767.038 775.570 54.413 10.887 o
1 9 0 142.042 154.833 5.155 943.800 o
1 9 1 1065.260 1038.370 12.965 47.559 o
1 9 2 1587.540 1592.140 27.297 17.291 o
1 9 3 867.319 900.801 21.848 40.506 o
1 9 4 932.328 961.823 25.718 31.692 o
1 9 5 428.553 446.485 16.945 92.368 o
1 9 6 130.166 116.264 13.305 192.158 o
1 9 7 2022.050 2074.840 55.647 6.766 o
1 9 8 350.960 395.865 28.034 41.601 o
1 9 9 1490.150 1452.060 57.862 7.939 o
1 9 10 207.847 159.158 28.423 43.039 o
1 9 11 1339.600 1330.100 72.908 5.700 o
1 11 0 4700.530 4601.130 68.923 2.213 o
1 11 1 822.293 792.825 17.865 53.727 o
1 11 2 3595.000 3604.610 59.402 3.468 o
1 11 3 135.729 128.113 11.310 259.499 o
1 11 4 3019.920 2967.990 59.895 4.301 o
1 11 5 115.813 129.234 10.517 301.295 o
1 11 6 2186.430 2230.520 57.774 6.076 o
1 11 7 623.780 693.609 41.801 18.112 o
1 11 8 1769.990 1790.790 64.887 6.081 o
1 11 9 211.886 233.265 28.600 42.223 o
1 11 10 1405.420 1413.550 104.497 2.978 o
1 13 0 1542.470 1417.400 76.205 5.100 o
1 13 1 2740.880 2699.270 55.692 5.107 o
1 13 2 1731.760 1713.130 52.602 8.247 o
1 13 3 1666.140 1684.040 67.213 5.960 o
1 13 4 881.602 908.714 30.441 26.577 o
1 13 5 1086.040 1076.310 44.564 13.712 o
1 13 6 863.230 905.726 50.596 12.023 o
1 13 7 1239.350 1249.530 63.102 7.438 o
1 13 8 832.939 853.979 52.501 11.395 o
1 13 9 838.674 920.773 57.035 9.770 o
1 13 10 122.947 97.321 29.488 40.613 o
1 15 0 1083.060 1099.540 47.520 12.382 o
1 15 1 798.448 824.977 62.887 8.289 o
1 15 2 1078.820 1130.820 35.196 19.097 o
1 15 3 1109.250 1145.820 36.127 18.166 o
1 15 4 501.057 551.801 25.200 45.950 o
1 15 5 846.831 820.943 35.649 21.752 o
1 15 6 721.888 724.743 34.511 24.331 o
1 15 7 267.075 270.400 22.300 66.563 o
1 15 8 651.460 680.263 48.590 13.751 o
1 17 0 445.241 472.125 23.529 53.851 o
1 17 1 2353.980 2339.970 64.081 5.101 o
1 17 2 235.364 248.887 20.054 82.367 o
1 17 3 3262.780 3424.550 73.557 3.197 o
1 17 4 121.990 107.025 11.901 239.257 o
1 17 5 2044.530 2078.730 98.722 2.980 o
1 17 6 456.405 456.851 25.532 46.813 o
1 17 7 621.801 600.086 35.294 24.680 o
1 19 0 1052.560 1046.370 37.720 17.825 o
1 19 1 586.250 608.981 32.691 28.425 o
1 19 2 261.235 269.206 22.131 67.663 o
1 19 3 879.005 960.229 42.363 16.020 o
1 19 4 123.562 136.427 19.701 89.733 o
1 19 5 846.396 970.517 44.896 14.674 o
1 19 6 785.776 857.112 81.989 5.039 o
1 21 0 129.751 124.032 19.596 90.680 o
1 21 1 434.218 492.250 36.892 24.244 o
1 21 2 174.370 162.738 16.667 121.504 o
1 21 3 1064.050 1131.480 66.382 7.089 o
1 21 4 79.882 83.502 26.208 51.559 o
2 -20 -4 93.528 69.444 18.249 105.669 o
2 -20 -3 1261.450 1294.730 58.134 8.430 o
2 -20 -2 118.669 130.456 15.566 142.296 o
2 -20 -1 188.074 195.041 19.478 89.372 o
2 -18 -7 90.727 99.900 31.618 35.439 o
2 -18 -6 271.881 320.998 72.052 6.799 o
2 -18 -5 85.631 81.092 15.023 155.168 o
2 -18 -4 612.005 611.454 30.823 31.091 o
2 -18 -3 167.414 173.859 14.213 164.044 o
2 -18 -2 1034.840 1053.850 42.340 15.104 o
2 -18 -1 497.447 493.304 28.743 37.302 o
2 -16 -8 430.097 369.695 39.323 21.785 o
2 -16 -7 1809.650 1800.860 86.478 3.879 o
2 -16 -6 510.132 483.187 41.132 19.529 o
2 -16 -5 2172.130 2214.070 92.220 3.239 o
2 -16 -4 348.501 380.268 24.107 54.905 o
2 -16 -3 1756.020 1743.880 49.321 8.834 o
2 -16 -2 214.029 224.636 16.204 123.923 o
2 -16 -1 446.777 456.115 18.557 79.157 o
2 -14 -9 341.729 356.221 31.733 33.281 o
2 -14 -8 720.559 697.072 42.379 17.276 o
2 -14 -7 222.556 215.830 22.892 64.793 o
2 -14 -6 70.289 59.656 13.281 199.151 o
2 -14 -5 535.673 572.932 25.467 44.224 o
2 -14 -4 335.402 365.917 16.622 105.175 o
2 -14 -3 902.408 879.249 32.939 23.707 o
2 -14 -2 1842.820 1854.870 50.524 8.226 o
2 -14 -1 1167.070 1142.570 28.860 23.242 o
2 -12 -10 915.756 985.093 54.253 10.462 o
2 -12 -9 812.045 927.939 61.608 8.531 o
2 -12 -8 1266.740 1306.740 50.445 10.478 o
2 -12 -7 1289.330 1263.740 47.286 11.522 o
2 -12 -6 1858.130 1886.450 50.762 8.106 o
2 -12 -5 1578.100 1584.810 53.974 8.450 o
2 -12 -4 1287.690 1262.230 34.635 17.357 o
2 -12 -3 975.730 1007.350 21.960 36.019 o
2 -12 -2 786.637 777.909 26.193 35.396 o
2 -12 -1 505.866 501.298 20.526 64.292 o
2 -10 -10 1102.070 1157.230 71.454 6.180 o
2 -10 -9 1517.240 1522.780 58.685 7.664 o
2 -10 -8 517.778 565.251 31.329 31.507 o
2 -10 -7 290.655 260.217 23.215 61.379 o
2 -10 -6 66.028 65.188 9.594 377.459 o
2 -10 -5 158.194 160.484 10.346 296.154 o
2 -10 -4 766.296 747.397 19.721 51.634 o
2 -10 -3 1777.440 1767.300 32.160 13.325 o
2 -10 -2 4734.600 4725.680 61.476 2.308 o
2 -10 -1 4485.260 4432.410 62.276 2.496 o
2 -8 -11 145.356 139.883 25.622 53.345 o
2 -8 -10 530.099 556.125 38.776 21.512 o
2 -8 -9 903.966 922.880 28.512 28.614 o
2 -8 -8 1419.590 1439.570 33.500 16.325 o
2 -8 -7 602.388 574.864 17.862 70.890 o
2 -8 -6 4380.600 4397.630 106.825 1.662 o
2 -8 -5 1457.120 1483.590 28.966 18.190 o
2 -8 -4 6185.860 6065.920 80.249 1.365 o
2 -8 -3 1395.610 1488.570 33.562 16.291 o
2 -8 -2 2970.130 3002.530 42.648 5.527 o
2 -8 -1 1372.850 1408.090 20.158 25.362 o
2 -6 -11 1812.290 1865.560 132.191 1.852 o
2 -6 -10 630.786 658.734 28.645 34.434 o
2 -6 -9 2667.760 2681.470 52.576 5.494 o
2 -6 -8 121.790 113.283 9.947 334.815 o
2 -6 -7 338.134 358.798 12.193 169.024 o
2 -6 -6 165.055 146.478 11.322 251.846 o
2 -6 -5 720.326 743.771 31.238 28.438 o
2 -6 -4 132.164 151.921 7.481 539.450 o
2 -6 -3 6502.460 6634.800 122.649 0.953 o
2 -6 -2 1696.640 1694.700 26.305 16.268 o
2 -6 -1 18017.900 17319.300 139.680 0.193 o
2 -4 -12 76.584 71.953 14.622 164.207 o
2 -4 -11 63.229 62.831 10.242 332.703 o
2 -4 -10 848.774 861.671 29.466 28.548 o
2 -4 -9 510.520 509.049 21.221 60.776 o
2 -4 -8 2171.560 2173.590 53.704 6.667 o
2 -4 -7 280.436 279.502 13.895 152.171 o
2 -4 -6 9185.370 9094.300 153.245 0.531 o
2 -4 -5 1264.290 1237.280 48.666 11.165 o
2 -4 -4 8825.520 8991.360 119.235 0.644 o
2 -4 -3 550.283 582.887 13.165 105.585 o
2 -4 -2 7170.920 7178.840 75.111 1.098 o
2 -4 -1 4221.660 4325.390 40.005 3.229 o
2 -2 -12 171.357 162.690 17.979 105.296 o
2 -2 -11 1180.960 1169.040 36.173 17.542 o
2 -2 -10 109.906 99.506 8.994 410.070 o
2 -2 -9 2583.300 2571.060 41.067 6.916 o
2 -2 -8 115.639 109.138 12.433 220.681 o
2 -2 -7 1036.620 1035.450 27.981 26.533 o
2 -2 -6 150.538 144.983 7.276 552.357 o
2 -2 -5 8012.230 7638.850 134.954 0.704 o
2 -2 -4 183.241 180.457 10.113 297.701 o
2 -2 -3 6765.710 6675.140 67.246 1.266 o
2 -2 -2 4168.760 4413.620 50.620 2.976 o
2 -2 -1 21940.900 20217.200 174.289 0.133 o
2 0 -12 32.436 13.069 10.482 322.925 o
2 0 -10 1646.380 1580.860 59.040 7.326 o
2 0 -8 3680.690 3684.490 70.791 2.951 o
2 0 -6 11888.500 11295.400 192.679 0.329 o
2 0 -4 7093.350 7119.090 163.023 0.674 o
2 0 -2 10059.800 9961.630 128.709 0.517 o
2 0 0 79.150 75.783 3.326 2501.280 o
2 0 2 3523.710 3581.510 39.637 4.394 o
2 0 4 7235.720 7395.370 79.490 1.048 o
2 0 6 15135.200 14607.600 253.874 0.197 o
2 0 8 6798.260 6939.180 172.404 0.658 o
2 0 10 1605.180 1723.700 110.860 2.599 o
2 0 12 86.263 51.295 21.023 80.006 o
2 2 0 2262.250 2411.920 38.411 8.363 o
2 2 1 2460.300 2423.410 22.313 9.847 o
2 2 2 240.573 244.348 4.987 643.775 o
2 2 3 10232.400 10228.100 71.296 0.598 o
2 2 4 226.238 223.665 4.971 696.086 o
2 2 5 865.395 893.928 20.541 43.402 o
2 2 6 196.104 194.690 9.012 351.980 o
2 2 7 1392.880 1410.760 34.320 16.211 o
2 2 8 8.488 9.536 5.009 1416.150 o
2 2 9 1110.200 1095.980 63.439 7.637 o
2 2 10 7.718 6.089 7.706 599.107 o
2 2 11 2296.730 2282.110 92.223 3.167 o
2 2 12 56.707 76.439 26.629 50.045 o
2 4 0 423.440 418.126 7.276 244.773 o
2 4 1 483.237 503.401 7.669 193.784 o
2 4 2 4221.930 4318.840 37.699 3.285 o
2 4 3 3046.620 3120.250 29.323 6.174 o
2 4 4 4074.350 4095.210 34.030 3.624 o
2 4 5 1256.680 1265.900 28.241 21.931 o
2 4 6 6331.100 6470.220 73.742 1.339 o
2 4 7 924.075 899.762 31.179 25.269 o
2 4 8 2470.310 2522.170 65.135 4.771 o
2 4 9 444.412 467.378 58.906 9.952 o
2 4 10 802.726 750.835 68.198 7.159 o
2 4 11 274.411 283.667 40.952 20.727 o
2 6 0 820.024 818.693 11.332 74.500 o
2 6 1 11560.600 11769.100 101.977 0.441 o
2 6 2 2730.900 2751.110 29.912 7.427 o
2 6 3 9606.730 9614.770 82.091 0.650 o
2 6 4 647.109 659.710 13.964 85.635 o
2 6 5 968.942 970.618 26.046 30.492 o
2 6 6 149.207 137.398 9.443 355.422 o
2 6 7 1778.740 1863.020 76.860 4.680 o
2 6 8 136.870 156.012 20.329 83.951 o
2 6 9 2319.300 2244.120 199.912 0.833 o
2 6 10 170.428 158.710 28.997 41.614 o
2 6 11 2388.580 2336.440 103.626 2.605 o
2 8 0 1211.530 1208.070 18.759 31.956 o
2 8 1 161.348 177.306 7.181 539.176 o
2 8 2 4807.260 4959.510 60.370 2.236 o
2 8 3 2148.470 2146.150 51.816 7.001 o
2 8 4 2519.570 2544.390 44.262 6.738 o
2 8 5 544.278 556.184 19.132 68.138 o
2 8 6 2175.270 2271.490 48.036 7.352 o
2 8 7 745.613 780.294 33.386 25.192 o
2 8 8 817.971 727.955 52.963 11.378 o
2 8 9 93.715 114.214 21.450 76.482 o
2 8 10 419.387 372.767 38.262 22.980 o
2 8 11 185.693 203.921 42.242 19.734 o
2 10 0 7845.510 7819.160 91.676 0.882 o
2 10 1 5348.990 5288.760 69.120 1.821 o
2 10 2 4460.460 4546.730 82.842 2.052 o
2 10 3 2868.720 2893.590 57.457 4.679 o
2 10 4 229.814 259.163 14.934 140.742 o
2 10 5 299.659 316.812 16.399 112.127 o
2 10 6 82.023 79.476 10.114 336.620 o
2 10 7 172.316 168.830 18.461 99.961 o
2 10 8 313.480 259.077 30.576 36.307 o
2 10 9 857.579 820.101 52.309 11.453 o
2 10 10 532.549 450.986 74.771 6.218 o
2 12 0 1074.980 1046.710 27.515 26.412 o
2 12 1 332.952 308.955 12.518 168.184 o
2 12 2 2039.720 2030.350 46.310 8.274 o
2 12 3 1916.880 2008.150 73.480 4.828 o
2 12 4 1836.040 1873.130 46.271 9.084 o
2 12 5 1776.080 1870.160 55.304 7.481 o
2 12 6 2915.500 3062.870 77.140 3.383 o
2 12 7 1191.120 1232.270 52.504 10.135 o
2 12 8 1474.100 1478.450 75.680 5.188 o
2 12 9 324.243 287.129 27.742 43.393 o
2 14 0 2830.810 2671.140 69.955 3.996 o
2 14 1 1334.960 1340.290 35.368 16.325 o
2 14 2 2018.120 2037.180 50.487 7.604 o
2 14 3 771.645 759.867 26.206 35.831 o
2 14 4 812.081 824.799 31.240 26.912 o
2 14 5 206.578 201.328 20.649 79.407 o
2 14 6 20.231 17.059 13.660 190.539 o
2 14 7 3.475 -1.318 8.648 475.865 o
2 14 8 208.442 169.415 26.231 50.275 o
2 14 9 57.709 32.179 19.061 97.625 o
2 16 0 456.125 519.417 34.446 27.273 o
2 16 1 592.128 636.422 27.166 38.289 o
2 16 2 406.179 403.580 21.050 67.340 o
2 16 3 1145.260 1188.170 42.039 14.430 o
2 16 4 353.755 340.465 23.231 59.009 o
2 16 5 2467.330 2522.650 79.301 3.746 o
2 16 6 822.631 804.704 37.763 20.076 o
2 16 7 1695.550 1686.170 73.466 5.168 o
2 16 8 355.381 362.068 51.380 13.151 o
2 18 0 1094.390 1059.750 41.464 15.281 o
2 18 1 408.738 437.589 23.757 54.304 o
2 18 2 1006.190 945.175 44.543 14.296 o
2 18 3 421.079 458.059 25.063 49.033 o
2 18 4 1182.960 1220.970 46.883 12.100 o
2 18 5 144.414 165.846 17.911 106.961 o
2 18 6 310.544 263.742 30.862 35.674 o
2 20 0 33.784 37.974 10.525 319.398 o
2 20 1 148.815 161.666 18.373 101.760 o
2 20 2 200.596 165.410 16.767 118.767 o
2 20 3 337.826 389.846 59.957 9.723 o
3 -21 -2 25.647 6.307 13.931 183.206 o
3 -21 -1 970.522 998.360 61.706 8.264 o
3 -19 -5 320.145 297.878 51.884 12.976 o
3 -19 -4 210.455 251.460 47.596 15.532 o
3 -19 -3 790.651 811.603 47.579 13.717 o
3 -19 -2 505.308 493.460 33.895 27.814 o
3 -19 -1 799.019 634.271 53.622 11.251 o
3 -17 -7 817.637 861.120 80.783 5.169 o
3 -17 -6 379.454 342.110 48.577 14.648 o
3 -17 -5 1152.860 1201.360 72.038 6.032 o
3 -17 -4 199.417 196.726 17.172 112.856 o
3 -17 -3 2034.370 2038.620 61.472 5.998 o
3 -17 -2 23.018 23.237 7.166 689.353 o
3 -17 -1 1112.740 1089.650 39.348 16.301 o
3 -15 -8 846.131 780.252 46.151 14.333 o
3 -15 -7 341.533 331.813 37.247 24.599 o
3 -15 -6 1027.920 1051.010 47.904 12.477 o
3 -15 -5 428.838 435.160 42.869 18.399 o
3 -15 -4 1176.840 1175.280 41.594 14.529 o
3 -15 -3 723.005 726.071 32.465 26.829 o
3 -15 -2 1145.390 1198.360 32.137 20.499 o
3 -15 -1 441.305 436.124 21.761 62.001 o
3 -13 -9 1243.680 1232.040 51.726 10.242 o
3 -13 -8 767.569 792.289 39.647 18.882 o
3 -13 -7 1367.230 1363.500 58.682 8.063 o
3 -13 -6 760.578 757.167 33.758 24.723 o
3 -13 -5 1404.460 1409.440 38.595 14.136 o
3 -13 -4 748.083 769.860 24.166 40.411 o
3 -13 -3 2365.560 2387.640 65.514 4.929 o
3 -13 -2 639.354 658.663 27.900 35.759 o
3 -13 -1 2097.150 2091.810 47.856 7.782 o
3 -11 -10 723.437 728.793 40.638 18.489 o
3 -11 -9 443.535 462.668 26.460 44.191 o
3 -11 -8 1326.010 1354.800 59.234 8.023 o
3 -11 -7 264.374 255.100 15.214 133.312 o
3 -11 -6 2872.930 2866.780 60.081 4.507 o
3 -11 -5 417.220 437.939 14.964 112.109 o
3 -11 -4 1913.840 1975.140 39.424 10.169 o
3 -11 -3 395.144 388.822 17.441 92.556 o
3 -11 -2 1231.830 1257.200 35.267 17.415 o
3 -11 -1 368.089 355.168 13.357 143.965 o
3 -9 -11 551.289 511.862 66.880 7.698 o
3 -9 -10 75.789 112.342 22.948 67.073 o
3 -9 -9 1389.800 1532.160 53.214 9.112 o
3 -9 -8 27.427 26.786 5.926 1002.560 o
3 -9 -7 2550.840 2629.470 56.178 5.385 o
3 -9 -6 148.212 150.622 9.826 329.229 o
3 -9 -5 2975.120 3053.800 65.657 3.957 o
3 -9 -4 1053.260 1098.060 30.881 23.006 o
3 -9 -3 2079.160 2109.970 47.214 7.910 o
3 -9 -2 1924.460 1964.430 38.346 10.397 o
3 -9 -1 2222.890 2286.150 52.812 6.581 o
3 -7 -11 857.196 813.928 63.383 8.113 o
3 -7 -10 1679.590 1746.880 54.214 8.006 o
3 -7 -9 461.776 434.970 30.055 35.241 o
3 -7 -8 1532.600 1569.270 43.213 11.450 o
3 -7 -7 465.713 450.866 18.263 80.172 o
3 -7 -6 3927.520 3862.080 67.894 2.838 o
3 -7 -5 2008.310 1965.470 44.865 8.722 o
3 -7 -4 1808.670 1885.490 45.335 9.354 o
3 -7 -3 105.318 100.997 8.490 458.152 o
3 -7 -2 4923.630 4988.110 69.404 2.030 o
3 -7 -1 214.308 213.902 8.118 396.495 o
3 -5 -12 466.675 522.458 65.002 8.186 o
3 -5 -11 693.875 693.585 49.472 13.192 o
3 -5 -10 81.910 82.520 11.538 260.488 o
3 -5 -9 1061.590 1152.890 43.775 14.032 o
3 -5 -8 289.749 322.341 17.117 104.686 o
3 -5 -7 2117.490 2187.770 48.767 7.474 o
3 -5 -6 1064.700 1124.730 31.572 22.124 o
3 -5 -5 2836.410 2855.010 61.680 4.445 o
3 -5 -4 2176.140 2196.800 148.393 1.453 o
3 -5 -3 2061.250 2035.760 35.786 10.251 o
3 -5 -2 2717.610 2796.620 44.182 6.066 o
3 -5 -1 2091.300 2129.160 36.157 9.861 o
3 -3 -12 444.998 422.879 28.499 39.033 o
3 -3 -11 1393.590 1442.160 46.876 11.016 o
3 -3 -10 999.878 1007.120 55.192 9.973 o
3 -3 -9 1896.550 1872.990 38.941 10.556 o
3 -3 -8 69.018 78.416 8.667 457.366 o
3 -3 -7 2097.530 2152.470 51.943 7.081 o
3 -3 -6 2298.690 2360.940 48.977 6.849 o
3 -3 -5 3333.950 3400.850 61.048 3.713 o
3 -3 -4 2368.020 2392.040 55.582 5.907 o
3 -3 -3 640.422 645.935 13.729 88.315 o
3 -3 -2 18628.700 17721.700 178.274 0.172 o
3 -3 -1 2949.740 2967.250 33.428 6.288 o
3 -1 -12 440.150 451.356 26.604 43.926 o
3 -1 -11 1469.780 1486.020 42.767 12.021 o
3 -1 -10 108.161 130.704 14.869 156.069 o
3 -1 -9 2190.710 2258.070 46.720 7.525 o
3 -1 -8 488.069 449.313 16.651 90.182 o
3 -1 -7 2061.040 2114.680 42.067 8.860 o
3 -1 -6 2115.060 2055.780 48.758 7.637 o
3 -1 -5 1201.110 1155.400 33.004 19.549 o
3 -1 -4 3286.950 3134.170 46.066 4.703 o
3 -1 -3 1814.390 1801.960 22.640 16.055 o
3 -1 -2 11835.000 11750.900 101.384 0.430 o
3 -1 -1 4506.520 4499.840 46.286 2.804 o
3 1 0 2496.070 2494.310 21.704 9.594 o
3 1 1 3358.180 3393.100 27.801 5.329 o
3 1 2 3941.250 4021.550 33.164 3.832 o
3 1 3 2248.280 2248.070 27.188 10.568 o
3 1 4 792.250 812.708 12.944 71.237 o
3 1 5 1636.760 1679.510 32.495 14.389 o
3 1 6 1586.290 1693.010 47.652 9.781 o
3 1 7 1267.480 1277.100 37.337 15.934 o
3 1 8 1182.410 1117.840 41.527 14.675 o
3 1 9 557.146 520.128 30.395 33.009 o
3 1 10 2127.840 2121.360 67.415 5.162 o
3 1 11 620.880 642.065 36.552 23.094 o
3 3 0 6858.190 6972.890 55.259 1.281 o
3 3 1 6507.250 6614.540 72.549 1.293 o
3 3 2 5795.270 5944.630 56.971 1.694 o
3 3 3 3104.590 3189.210 32.322 5.788 o
3 3 4 284.123 291.277 8.536 308.002 o
3 3 5 1344.880 1389.340 26.137 21.642 o
3 3 6 2490.450 2531.660 41.641 7.125 o
3 3 7 853.813 861.823 34.933 22.219 o
3 3 8 1184.080 1145.310 49.218 11.350 o
3 3 9 42.065 45.148 10.333 330.346 o
3 3 10 1668.180 1644.990 66.455 6.084 o
3 3 11 52.038 60.323 15.002 157.050 o
3 5 0 804.857 826.079 12.483 71.373 o
3 5 1 4515.230 4582.490 51.287 2.668 o
3 5 2 49.718 50.904 3.942 2112.420 o
3 5 3 6946.360 7113.700 73.460 1.152 o
3 5 4 24.417 23.170 3.913 2279.860 o
3 5 5 3756.200 3890.160 54.300 3.402 o
3 5 6 257.844 252.495 16.267 119.142 o
3 5 7 1458.080 1500.410 43.126 11.915 o
3 5 8 807.510 875.940 42.516 16.430 o
3 5 9 575.360 579.344 38.535 21.468 o
3 5 10 1049.260 969.216 129.921 2.043 o
3 7 0 1321.000 1369.430 30.832 18.927 o
3 7 1 8312.200 8248.530 95.764 0.792 o
3 7 2 3934.050 3968.910 61.927 2.983 o
3 7 3 3887.400 3990.200 69.716 2.768 o
3 7 4 1039.770 1110.330 29.690 24.220 o
3 7 5 1624.030 1647.640 37.919 12.608 o
3 7 6 2883.030 2947.900 58.413 4.563 o
3 7 7 884.245 945.063 39.511 17.916 o
3 7 8 1079.070 1119.380 51.917 10.733 o
3 7 9 89.711 96.761 29.039 41.985 o
3 7 10 1196.620 1152.950 74.589 5.658 o
3 9 0 2685.680 2720.910 53.675 5.340 o
3 9 1 3490.650 3550.350 65.078 3.344 o
3 9 2 922.600 908.530 23.704 35.589 o
3 9 3 4505.580 4531.610 70.723 2.282 o
3 9 4 538.965 557.969 25.711 43.632 o
3 9 5 3064.030 3176.690 65.986 3.804 o
3 9 6 698.794 741.884 33.303 25.911 o
3 9 7 1092.150 1209.140 53.227 10.173 o
3 9 8 623.758 639.477 34.395 25.628 o
3 9 9 314.507 325.040 51.604 13.106 o
3 9 10 319.716 324.173 38.474 23.203 o
3 11 0 911.549 917.688 30.312 26.307 o
3 11 1 1101.990 1127.420 41.389 15.117 o
3 11 2 3101.950 3146.360 63.443 3.921 o
3 11 3 492.709 443.203 31.928 31.294 o
3 11 4 3193.190 3170.030 80.983 3.007 o
3 11 5 473.740 475.590 21.485 61.511 o
3 11 6 2322.570 2379.740 53.885 6.184 o
3 11 7 756.152 771.158 43.658 16.124 o
3 11 8 871.514 834.175 59.858 8.972 o
3 11 9 52.332 51.307 24.428 59.501 o
3 13 0 629.629 601.970 22.952 48.958 o
3 13 1 1489.730 1495.300 39.078 13.260 o
3 13 2 313.507 338.413 16.440 109.805 o
3 13 3 1155.320 1153.350 36.622 17.494 o
3 13 4 490.194 504.734 27.514 40.239 o
3 13 5 1336.330 1354.560 39.957 14.047 o
3 13 6 1032.990 1070.590 45.156 13.649 o
3 13 7 1145.980 1138.330 57.240 8.996 o
3 13 8 567.215 585.645 39.716 20.357 o
3 15 0 1456.410 1505.650 40.470 12.868 o
3 15 1 44.765 39.052 6.533 815.660 o
3 15 2 1707.050 1616.280 44.053 10.459 o
3 15 3 141.830 138.452 13.390 187.713 o
3 15 4 1682.980 1774.810 46.085 9.749 o
3 15 5 120.495 123.959 13.528 186.619 o
3 15 6 883.358 798.495 55.301 10.351 o
3 15 7 211.065 154.240 25.677 52.456 o
3 17 0 647.500 626.068 28.618 34.480 o
3 17 1 629.795 639.616 29.774 32.505 o
3 17 2 458.039 456.078 38.731 22.122 o
3 17 3 373.836 408.979 23.942 54.711 o
3 17 4 343.989 334.022 23.891 56.390 o
3 17 5 790.083 835.786 38.541 19.527 o
3 17 6 65.919 53.517 16.103 136.208 o
3 19 0 824.544 813.800 45.339 14.792 o
3 19 1 220.998 248.908 25.799 51.347 o
3 19 2 932.898 979.291 64.515 7.687 o
3 19 3 166.118 158.528 26.995 47.923 o
3 19 4 595.399 635.913 49.600 13.416 o
3 19 5 56.383 68.787 26.236 51.562 o
3 21 0 658.625 584.461 67.525 7.464 o
4 -20 -3 452.031 439.880 55.192 11.297 o
4 -20 -2 183.681 177.740 37.589 24.887 o
4 -20 -1 1418.550 1495.360 64.004 6.869 o
4 -18 -5 96.940 102.303 21.543 75.861 o
4 -18 -4 1377.360 1280.540 72.414 5.755 o
4 -18 -3 282.851 321.846 36.885 25.313 o
4 -18 -2 523.198 567.353 29.140 35.605 o
4 -18 -1 56.854 63.932 10.780 301.565 o
4 -16 -7 80.434 81.609 20.946 80.498 o
4 -16 -6 356.840 351.977 65.199 8.245 o
4 -16 -5 28.106 47.154 16.706 127.241 o
4 -16 -4 353.030 368.072 29.347 38.357 o
4 -16 -3 823.019 815.996 42.588 16.447 o
4 -16 -2 769.034 816.012 35.343 22.679 o
4 -16 -1 1921.240 1988.790 69.596 5.227 o
4 -14 -8 994.930 1002.780 53.451 10.547 o
4 -14 -7 540.453 532.681 47.153 14.993 o
4 -14 -6 1801.300 1838.940 68.039 5.613 o
4 -14 -5 1194.670 1204.510 53.417 9.887 o
4 -14 -4 1982.460 2014.380 57.673 6.601 o
4 -14 -3 803.872 811.608 33.290 24.606 o
4 -14 -2 1295.510 1347.020 44.680 12.305 o
4 -14 -1 312.543 345.502 31.592 33.816 o
4 -12 -9 392.547 377.400 27.820 41.770 o
4 -12 -8 310.898 315.376 29.007 39.894 o
4 -12 -7 306.202 316.881 22.440 64.305 o
4 -12 -6 340.630 328.407 22.450 63.227 o
4 -12 -5 550.748 568.470 23.456 50.033 o
4 -12 -4 1052.920 1126.690 37.751 17.541 o
4 -12 -3 1544.480 1546.160 53.060 8.773 o
4 -12 -2 1846.160 1907.330 60.087 6.564 o
4 -12 -1 1499.170 1450.820 40.471 12.795 o
4 -10 -10 283.983 286.393 29.607 38.738 o
4 -10 -9 475.067 455.360 29.768 35.580 o
4 -10 -8 266.961 256.708 21.919 68.900 o
4 -10 -7 1903.650 1993.050 58.543 6.626 o
4 -10 -6 815.242 798.310 41.644 17.152 o
4 -10 -5 3031.750 3025.250 63.667 4.032 o
4 -10 -4 1026.940 1129.760 42.547 14.855 o
4 -10 -3 2666.850 2613.240 70.980 4.097 o
4 -10 -2 1250.950 1283.640 45.500 12.280 o
4 -10 -1 1086.220 1126.000 31.367 22.072 o
4 -8 -10 1103.340 1091.610 96.789 3.560 o
4 -8 -9 212.246 226.104 17.547 107.089 o
4 -8 -8 315.840 309.054 21.050 72.012 o
4 -8 -7 607.564 620.611 20.687 57.157 o
4 -8 -6 646.968 681.174 24.849 42.226 o
4 -8 -5 379.738 401.872 21.018 68.482 o
4 -8 -4 1510.680 1522.540 49.422 9.790 o
4 -8 -3 1996.680 2078.490 52.518 7.281 o
4 -8 -2 3033.810 3120.740 58.885 4.264 o
4 -8 -1 1382.080 1454.230 32.452 17.100 o
4 -6 -11 144.807 120.059 23.916 61.187 o
4 -6 -10 97.706 89.807 13.031 203.947 o
4 -6 -9 660.817 637.500 26.785 37.894 o
4 -6 -8 139.191 140.970 11.806 238.009 o
4 -6 -7 3800.150 3779.170 92.891 2.209 o
4 -6 -6 1307.150 1280.320 37.161 15.766 o
4 -6 -5 3543.170 3468.920 68.283 3.206 o
4 -6 -4 1356.950 1436.760 60.448 7.655 o
4 -6 -3 4927.590 4920.470 96.221 1.627 o
4 -6 -2 868.062 895.324 26.151 32.833 o
4 -6 -1 1163.800 1191.350 26.702 24.914 o
4 -4 -11 365.855 317.428 47.105 15.593 o
4 -4 -10 2739.310 2859.620 72.279 3.851 o
4 -4 -9 28.792 24.171 6.416 856.604 o
4 -4 -8 1184.100 1215.040 40.470 14.956 o
4 -4 -7 433.741 443.969 22.735 57.753 o
4 -4 -6 1020.130 1080.960 39.576 16.716 o
4 -4 -5 675.855 630.900 21.793 50.695 o
4 -4 -4 1292.550 1290.190 30.067 20.088 o
4 -4 -3 383.872 393.028 15.569 111.129 o
4 -4 -2 5454.810 5523.270 71.581 1.717 o
4 -4 -1 1530.280 1519.000 23.616 20.113 o
4 -2 -12 27.356 25.592 26.937 49.024 o
4 -2 -11 864.857 956.285 42.001 16.319 o
4 -2 -10 49.550 33.963 9.105 424.057 o
4 -2 -9 1322.790 1334.870 43.275 12.765 o
4 -2 -8 161.316 160.955 17.884 106.768 o
4 -2 -7 6378.870 6529.410 101.949 1.116 o
4 -2 -6 713.531 710.500 32.741 26.640 o
4 -2 -5 3687.440 3667.460 80.058 2.645 o
4 -2 -4 749.783 748.156 17.954 57.940 o
4 -2 -3 7201.300 7017.950 85.266 1.054 o
4 -2 -2 213.111 219.779 7.711 425.859 o
4 -2 -1 1640.910 1692.130 22.574 18.354 o
4 0 -12 1100.380 1024.000 85.521 4.497 o
4 0 -10 4007.870 4214.550 138.902 1.274 o
4 0 -8 2507.740 2446.220 87.118 3.293 o
4 0 -6 560.035 571.875 49.137 13.796 o
4 0 -4 2117.050 2171.420 68.981 4.992 o
4 0 -2 10009.500 9961.200 134.050 0.509 o
4 0 0 9982.050 9861.110 107.909 0.565 o
4 0 2 11199.000 10939.500 148.841 0.412 o
4 0 4 1072.220 1124.840 33.376 20.554 o
4 0 6 516.227 511.407 29.928 34.441 o
4 0 8 541.689 596.318 45.612 15.864 o
4 0 10 1714.220 1636.750 96.621 3.290 o
4 2 0 158.869 154.923 4.778 995.865 o
4 2 1 5057.330 5115.100 48.918 2.253 o
4 2 2 218.583 226.010 8.734 349.946 o
4 2 3 4058.300 4158.830 49.578 3.188 o
4 2 4 270.293 287.572 12.182 189.273 o
4 2 5 7173.900 7355.810 91.469 1.000 o
4 2 6 213.534 229.436 12.804 188.471 o
4 2 7 1864.260 1846.230 46.236 9.048 o
4 2 8 88.435 85.723 12.708 215.083 o
4 2 9 1350.480 1423.220 53.593 9.232 o
4 2 10 46.938 34.711 10.802 302.523 o
4 4 0 6675.320 6872.810 88.213 1.133 o
4 4 1 1907.510 1935.180 38.651 10.454 o
4 4 2 9928.530 9861.050 143.295 0.497 o
4 4 3 150.014 162.600 7.161 559.192 o
4 4 4 2270.200 2319.700 38.514 8.469 o
4 4 5 168.831 167.947 9.881 316.618 o
4 4 6 741.218 774.901 23.154 42.853 o
4 4 7 220.366 231.722 15.747 129.848 o
4 4 8 558.616 552.666 29.039 35.436 o
4 4 9 324.494 347.312 26.057 48.335 o
4 4 10 1207.080 1107.550 57.453 8.859 o
4 6 0 89.392 85.579 6.083 867.311 o
4 6 1 926.520 960.869 22.704 36.578 o
4 6 2 595.708 592.737 15.414 84.433 o
4 6 3 1604.280 1610.110 37.615 12.911 o
4 6 4 88.386 85.552 7.544 584.478 o
4 6 5 4855.690 4966.280 82.031 1.856 o
4 6 6 688.013 701.090 25.754 39.001 o
4 6 7 2834.590 2979.210 68.811 3.930 o
4 6 8 269.030 267.418 25.738 50.849 o
4 6 9 1972.900 1975.500 58.999 6.463 o
4 6 10 296.668 281.144 50.258 13.848 o
4 8 0 3465.740 3566.590 61.262 3.516 o
4 8 1 1528.140 1582.350 41.291 12.072 o
4 8 2 4387.080 4447.320 83.489 2.085 o
4 8 3 326.148 361.734 26.156 47.866 o
4 8 4 1956.090 2004.490 50.013 7.867 o
4 8 5 671.657 697.287 25.935 38.971 o
4 8 6 672.053 765.528 31.564 28.395 o
4 8 7 10.165 7.895 5.839 1042.550 o
4 8 8 699.291 679.012 36.554 22.446 o
4 8 9 305.923 307.520 30.105 37.261 o
4 10 0 149.574 152.391 9.641 339.857 o
4 10 1 515.594 491.371 18.300 75.914 o
4 10 2 283.836 297.738 19.657 82.832 o
4 10 3 506.596 501.164 25.800 44.591 o
4 10 4 1012.010 1080.190 35.536 19.560 o
4 10 5 1881.780 1876.740 52.069 7.823 o
4 10 6 2552.080 2634.390 73.629 4.007 o
4 10 7 1684.140 1694.730 58.800 7.207 o
4 10 8 1319.070 1393.860 54.751 9.040 o
4 10 9 988.255 932.654 89.809 4.160 o
4 12 0 3117.200 3114.700 70.060 3.574 o
4 12 1 1338.010 1308.240 50.047 10.401 o
4 12 2 927.338 929.900 37.879 18.902 o
4 12 3 597.004 614.648 44.813 16.198 o
4 12 4 274.936 231.900 25.892 50.434 o
4 12 5 331.151 325.106 21.258 70.029 o
4 12 6 149.059 155.427 16.347 127.513 o
4 12 7 49.400 40.699 9.221 413.077 o
4 12 8 561.418 559.481 35.228 25.339 o
4 14 0 225.507 313.134 32.503 32.646 o
4 14 1 509.150 486.390 26.955 41.509 o
4 14 2 285.236 293.262 26.109 49.104 o
4 14 3 634.015 630.277 27.351 37.217 o
4 14 4 1099.000 1142.550 39.351 16.227 o
4 14 5 808.358 831.343 40.039 18.257 o
4 14 6 1174.780 1179.510 44.368 13.240 o
4 14 7 469.671 490.459 33.027 29.441 o
4 16 0 1122.530 1228.170 46.035 12.637 o
4 16 1 2204.720 2166.370 66.439 5.149 o
4 16 2 373.525 408.127 31.568 33.150 o
4 16 3 1437.580 1411.110 58.952 7.845 o
4 16 4 61.436 48.310 11.253 277.342 o
4 16 5 222.378 205.651 18.884 93.398 o
4 16 6 121.302 107.524 31.758 35.041 o
4 18 0 161.144 146.206 18.627 98.963 o
4 18 1 195.392 221.957 21.282 74.992 o
4 18 2 377.983 378.137 37.948 23.503 o
4 18 3 68.908 66.528 12.938 209.601 o
4 18 4 1187.210 1102.740 93.986 3.734 o
4 20 0 14.336 7.288 14.408 171.395 o
5 -19 -1 103.691 115.765 31.646 35.325 o
5 -17 -5 659.597 598.532 65.647 7.870 o
5 -17 -4 401.322 406.051 41.033 20.129 o
5 -17 -3 318.970 287.735 37.350 24.638 o
5 -17 -2 450.937 391.016 41.087 19.942 o
5 -17 -1 435.311 487.949 46.110 15.940 o
5 -15 -6 831.270 882.872 47.505 13.527 o
5 -15 -5 195.474 196.404 22.780 66.048 o
5 -15 -4 1139.840 1162.010 65.491 7.156 o
5 -15 -3 264.430 272.831 33.028 31.553 o
5 -15 -2 1198.400 1127.810 50.944 10.742 o
5 -15 -1 458.763 514.968 41.366 19.451 o
5 -13 -8 249.701 202.556 21.894 70.083 o
5 -13 -7 974.901 845.296 41.480 16.386 o
5 -13 -6 256.718 235.668 23.670 60.050 o
5 -13 -5 633.903 606.506 37.783 21.828 o
5 -13 -4 657.156 638.931 42.923 17.253 o
5 -13 -3 1094.060 1142.220 47.773 12.176 o
5 -13 -2 1264.140 1489.960 68.549 6.319 o
5 -13 -1 1858.570 1913.080 77.529 4.538 o
5 -11 -9 199.522 161.232 19.121 92.743 o
5 -11 -8 461.828 471.891 31.023 33.110 o
5 -11 -7 148.297 149.102 14.747 155.452 o
5 -11 -6 533.896 530.051 36.002 24.653 o
5 -11 -5 642.902 710.742 35.813 23.525 o
5 -11 -4 1158.950 1215.450 55.912 9.250 o
5 -11 -3 668.996 685.685 35.211 24.106 o
5 -11 -2 1413.320 1387.750 42.011 12.751 o
5 -11 -1 514.342 535.122 22.876 53.550 o
5 -9 -9 904.560 915.691 42.919 15.672 o
5 -9 -8 904.957 941.611 53.049 10.945 o
5 -9 -7 951.982 971.218 40.462 16.829 o
5 -9 -6 1147.670 1232.150 38.449 16.197 o
5 -9 -5 758.831 749.953 31.882 27.094 o
5 -9 -4 24.478 32.994 10.947 296.040 o
5 -9 -3 2396.360 2512.930 55.018 5.824 o
5 -9 -2 32.194 46.355 7.412 639.543 o
5 -9 -1 2518.510 2577.080 51.468 5.933 o
5 -7 -10 1037.640 969.879 68.205 6.861 o
5 -7 -9 171.070 168.962 14.278 162.543 o
5 -7 -8 1588.280 1643.060 56.924 7.766 o
5 -7 -7 243.459 253.595 16.910 112.053 o
5 -7 -6 854.110 806.888 27.248 32.122 o
5 -7 -5 1468.950 1535.040 46.789 10.639 o
5 -7 -4 1685.100 1785.720 50.937 8.616 o
5 -7 -3 900.809 912.405 27.284 30.418 o
5 -7 -2 2520.320 2583.410 75.013 3.961 o
5 -7 -1 535.764 548.082 16.289 85.367 o
5 -5 -11 665.628 615.434 66.572 7.653 o
5 -5 -10 365.244 367.771 25.593 49.110 o
5 -5 -9 37.739 21.839 7.603 609.854 o
5 -5 -8 1122.870 1186.600 39.263 16.015 o
5 -5 -7 1159.950 1249.900 39.447 15.525 o
5 -5 -6 1672.710 1701.650 46.052 9.906 o
5 -5 -5 1107.430 1123.560 52.918 10.333 o
5 -5 -4 383.566 390.746 33.489 29.684 o
5 -5 -3 3464.210 3497.420 67.316 3.292 o
5 -5 -2 226.667 238.663 12.125 203.747 o
5 -5 -1 876.511 930.417 22.046 39.453 o
5 -3 -11 493.071 529.640 36.477 24.322 o
5 -3 -10 1361.850 1399.030 56.738 8.471 o
5 -3 -9 148.307 139.939 15.589 140.112 o
5 -3 -8 3130.350 3239.450 89.415 2.694 o
5 -3 -7 309.182 284.937 17.897 96.862 o
5 -3 -6 1733.850 1811.040 46.768 9.372 o
5 -3 -5 1775.930 1808.350 93.341 3.431 o
5 -3 -4 1628.440 1640.320 37.873 12.620 o
5 -3 -3 4329.750 4409.060 68.753 2.438 o
5 -3 -2 421.013 428.945 17.102 92.248 o
5 -3 -1 2758.810 2803.400 49.453 5.521 o
5 -1 -11 336.428 339.746 26.010 48.373 o
5 -1 -10 279.911 285.871 22.421 65.422 o
5 -1 -9 89.285 96.099 12.716 214.339 o
5 -1 -8 1520.190 1438.400 56.692 8.139 o
5 -1 -7 1484.260 1453.430 53.948 8.809 o
5 -1 -6 1598.160 1628.600 47.816 9.801 o
5 -1 -5 1863.070 1807.910 45.375 9.296 o
5 -1 -4 911.787 898.966 26.733 31.140 o
5 -1 -3 6106.030 6326.920 96.617 1.219 o
5 -1 -2 132.076 149.339 9.015 390.427 o
5 -1 -1 2097.710 2124.200 53.229 6.923 o
5 1 0 1306.130 1319.350 23.951 24.264 o
5 1 1 2414.120 2427.550 43.492 7.214 o
5 1 2 2082.130 2212.800 43.093 8.460 o
5 1 3 168.521 187.246 9.585 330.265 o
5 1 4 3573.410 3774.870 67.113 3.123 o
5 1 5 1298.220 1304.270 36.053 16.333 o
5 1 6 1351.580 1421.210 45.239 11.748 o
5 1 7 627.636 634.621 32.517 28.164 o
5 1 8 237.601 255.375 25.940 50.575 o
5 1 9 1107.620 1013.410 75.317 5.672 o
5 3 0 1748.500 1737.010 31.709 13.750 o
5 3 1 2821.180 2857.720 42.447 5.955 o
5 3 2 2256.900 2285.710 38.029 8.643 o
5 3 3 523.909 550.969 15.986 88.260 o
5 3 4 3867.870 4011.040 64.201 2.943 o
5 3 5 286.370 302.812 14.002 148.073 o
5 3 6 2078.870 2206.450 72.367 4.697 o
5 3 7 1363.790 1350.170 71.641 5.841 o
5 3 8 983.322 929.397 42.323 15.638 o
5 3 9 1427.760 1476.070 80.737 4.681 o
5 5 0 1736.480 1839.240 31.594 13.539 o
5 5 1 2698.020 2740.570 48.740 5.739 o
5 5 2 1046.250 1072.620 23.622 31.306 o
5 5 3 753.981 824.252 20.391 48.749 o
5 5 4 1385.130 1395.840 33.223 16.894 o
5 5 5 1424.210 1399.650 54.301 8.917 o
5 5 6 659.191 677.727 32.941 27.058 o
5 5 7 454.166 438.157 25.400 47.458 o
5 5 8 27.423 20.224 7.190 684.205 o
5 5 9 1327.900 1353.410 63.764 7.126 o
5 7 0 4522.400 4784.550 65.453 2.321 o
5 7 1 762.105 788.671 18.198 55.589 o
5 7 2 2138.420 2248.030 47.131 7.603 o
5 7 3 182.048 166.234 10.869 264.827 o
5 7 4 1460.880 1534.850 44.355 11.426 o
5 7 5 72.621 59.394 7.814 560.674 o
5 7 6 627.682 689.658 28.087 35.327 o
5 7 7 1089.430 1117.560 42.100 14.828 o
5 7 8 658.487 698.498 38.150 21.058 o
5 9 0 731.014 784.185 24.808 39.240 o
5 9 1 3363.660 3375.590 65.741 3.483 o
5 9 2 379.947 393.929 22.275 62.103 o
5 9 3 1046.910 1091.170 36.108 18.831 o
5 9 4 721.914 764.817 24.328 40.734 o
5 9 5 1158.650 1159.870 34.040 19.162 o
5 9 6 850.488 885.716 42.477 16.245 o
5 9 7 750.614 761.842 31.671 27.399 o
5 9 8 66.799 52.229 12.205 235.756 o
5 11 0 2234.420 2313.740 73.512 4.415 o
5 11 1 146.104 138.817 16.410 127.099 o
5 11 2 1535.450 1548.760 44.413 11.102 o
5 11 3 96.729 86.347 14.732 160.632 o
5 11 4 1168.190 1229.150 35.582 17.789 o
5 11 5 234.331 248.113 16.321 120.216 o
5 11 6 271.768 277.439 17.633 101.722 o
5 11 7 197.352 200.547 18.913 94.111 o
5 13 0 1071.790 1112.380 36.703 18.161 o
5 13 1 1825.870 1828.140 58.945 6.832 o
5 13 2 349.237 411.474 31.373 33.721 o
5 13 3 1325.030 1374.530 60.382 7.768 o
5 13 4 441.869 424.846 43.621 17.780 o
5 13 5 790.986 811.904 32.854 25.232 o
5 13 6 396.160 377.792 21.099 67.884 o
5 15 0 924.975 912.894 47.656 13.122 o
5 15 1 367.161 381.325 31.287 33.871 o
5 15 2 868.935 814.601 39.909 18.074 o
5 15 3 450.146 449.150 30.171 35.047 o
5 15 4 1053.470 1095.960 62.722 7.862 o
5 15 5 386.991 371.443 25.687 48.382 o
5 17 0 280.423 250.805 31.301 34.968 o
5 17 1 969.276 1049.810 53.940 10.390 o
5 17 2 332.826 334.950 24.152 55.510 o
5 17 3 1464.020 1551.320 59.110 7.648 o
6 -16 -4 391.126 305.054 50.791 13.440 o
6 -16 -3 932.142 951.320 64.551 7.696 o
6 -16 -2 260.242 236.882 33.013 31.692 o
6 -16 -1 222.982 222.328 30.356 37.572 o
6 -14 -6 165.472 147.232 20.787 79.920 o
6 -14 -5 899.195 889.749 42.418 16.055 o
6 -14 -4 272.012 212.083 29.839 38.542 o
6 -14 -3 264.014 273.736 55.920 11.248 o
6 -14 -2 1011.020 1020.820 86.572 4.432 o
6 -14 -1 491.955 516.586 46.278 15.667 o
6 -12 -7 984.223 912.068 37.792 18.656 o
6 -12 -6 632.972 590.215 49.053 13.661 o
6 -12 -5 1330.390 1382.110 99.608 3.275 o
6 -12 -4 678.292 675.902 33.407 26.272 o
6 -12 -3 953.177 951.788 39.955 17.207 o
6 -12 -2 544.994 572.992 28.355 36.927 o
6 -12 -1 195.357 202.812 17.584 107.999 o
6 -10 -8 1123.660 1159.380 43.000 14.125 o
6 -10 -7 680.119 699.479 36.185 22.895 o
6 -10 -6 41.642 36.351 13.170 204.217 o
6 -10 -5 332.477 292.060 19.637 81.160 o
6 -10 -4 321.440 325.272 30.582 35.970 o
6 -10 -3 472.958 501.293 25.118 47.334 o
6 -10 -2 704.298 691.930 27.985 34.284 o
6 -10 -1 2273.830 2296.600 50.981 6.708 o
6 -8 -9 262.763 251.621 20.160 80.647 o
6 -8 -8 1983.820 1993.570 56.710 6.754 o
6 -8 -7 1120.060 1117.400 40.775 15.381 o
6 -8 -6 2760.060 2791.260 65.205 4.318 o
6 -8 -5 1063.100 1064.540 37.133 18.093 o
6 -8 -4 2709.010 2757.000 102.019 2.494 o
6 -8 -3 538.071 550.545 22.687 53.311 o
6 -8 -2 572.788 545.091 22.353 53.535 o
6 -8 -1 297.011 307.913 14.644 136.125 o
6 -6 -10 148.002 105.310 28.142 44.416 o
6 -6 -9 1223.980 1219.160 47.831 11.613 o
6 -6 -8 277.546 276.968 20.089 80.236 o
6 -6 -7 1110.990 1211.050 41.356 14.883 o
6 -6 -6 30.259 33.293 7.518 624.094 o
6 -6 -5 3.870 7.710 5.442 1201.110 o
6 -6 -4 295.151 305.135 18.629 90.476 o
6 -6 -3 705.695 720.345 25.780 38.385 o
6 -6 -2 68.845 59.486 8.111 523.080 o
6 -6 -1 3856.970 3873.060 60.100 3.130 o
6 -4 -10 298.243 264.939 30.133 37.430 o
6 -4 -9 135.173 134.086 26.139 51.379 o
6 -4 -8 2139.340 2149.030 65.026 5.380 o
6 -4 -7 224.211 178.770 15.360 137.603 o
6 -4 -6 2421.820 2433.610 59.666 5.376 o
6 -4 -5 204.181 196.387 19.592 87.884 o
6 -4 -4 5476.780 5529.180 110.478 1.275 o
6 -4 -3 261.980 264.043 16.536 115.065 o
6 -4 -2 1641.070 1773.040 41.634 11.087 o
6 -4 -1 244.399 243.928 12.960 178.867 o
6 -2 -10 10.212 -0.101 7.508 631.103 o
6 -2 -9 1123.200 1096.500 44.593 13.511 o
6 -2 -8 35.404 15.438 7.808 579.685 o
6 -2 -7 643.380 690.107 34.206 25.497 o
6 -2 -6 99.771 67.152 16.608 127.139 o
6 -2 -5 899.673 949.025 129.402 2.071 o
6 -2 -4 298.738 263.044 23.088 61.804 o
6 -2 -3 2558.580 2602.650 72.854 4.067 o
6 -2 -2 107.128 113.548 14.657 161.017 o
6 -2 -1 4572.860 4712.840 95.925 1.753 o
6 0 -10 123.663 158.399 37.140 25.625 o
6 0 -8 1011.240 1115.310 63.198 7.800 o
6 0 -6 903.428 916.090 74.911 5.892 o
6 0 -4 5905.520 6008.480 168.907 0.759 o
6 0 -2 2969.310 3058.590 103.591 2.310 o
6 0 0 2396.670 2424.270 98.248 2.811 o
6 0 2 508.216 487.675 27.751 39.509 o
6 0 4 2879.100 2910.170 101.823 2.420 o
6 0 6 2271.970 2215.670 75.822 4.242 o
6 0 8 3113.290 3356.300 181.384 0.932 o
6 2 0 297.346 334.682 15.946 117.004 o
6 2 1 4540.290 4699.480 82.753 1.997 o
6 2 2 201.069 186.071 12.215 210.362 o
6 2 3 2140.740 2193.500 47.772 7.565 o
6 2 4 283.300 301.266 18.646 90.983 o
6 2 5 995.847 996.935 35.937 19.690 o
6 2 6 21.471 19.479 7.417 644.377 o
6 2 7 215.064 212.151 20.285 81.758 o
6 2 8 27.266 29.163 12.410 230.503 o
6 4 0 1401.730 1426.500 33.529 16.492 o
6 4 1 202.904 218.246 13.616 171.205 o
6 4 2 674.269 711.521 21.736 49.592 o
6 4 3 110.961 92.691 9.675 358.323 o
6 4 4 2406.480 2438.740 59.600 5.400 o
6 4 5 488.385 515.380 36.526 24.331 o
6 4 6 1500.150 1593.300 65.457 6.466 o
6 4 7 311.376 291.474 28.383 41.681 o
6 4 8 2313.780 2325.900 218.398 0.705 o
6 6 0 806.571 830.836 30.000 28.584 o
6 6 1 3971.880 4107.280 61.996 2.909 o
6 6 2 439.691 429.083 18.087 83.530 o
6 6 3 1774.300 1775.440 40.397 10.885 o
6 6 4 713.425 720.258 34.805 24.084 o
6 6 5 443.565 441.627 24.669 50.089 o
6 6 6 34.924 31.906 10.370 329.166 o
6 6 7 247.457 228.696 22.369 67.071 o
6 8 0 331.629 340.442 16.445 108.293 o
6 8 1 293.933 286.599 15.912 119.684 o
6 8 2 717.131 772.220 27.465 34.365 o
6 8 3 622.453 575.634 24.349 45.374 o
6 8 4 1727.600 1733.460 45.906 9.716 o
6 8 5 1090.070 1127.080 31.887 21.586 o
6 8 6 1185.710 1134.200 42.970 13.922 o
6 8 7 387.942 339.479 30.372 35.793 o
6 10 0 977.609 970.855 31.596 23.838 o
6 10 1 2383.220 2449.890 60.496 5.337 o
6 10 2 613.129 640.565 40.919 18.974 o
6 10 3 1598.040 1667.080 44.571 10.614 o
6 10 4 574.300 592.983 24.824 44.966 o
6 10 5 517.841 536.680 24.417 48.159 o
6 10 6 19.982 16.549 6.021 976.658 o
6 12 0 203.440 194.128 16.132 126.611 o
6 12 1 246.405 249.163 21.326 73.144 o
6 12 2 108.344 77.161 19.267 94.604 o
6 12 3 920.967 956.138 38.681 18.265 o
6 12 4 944.511 924.446 38.146 18.610 o
6 12 5 1015.850 941.462 33.395 21.888 o
6 14 0 1668.410 1738.710 69.416 5.643 o
6 14 1 522.936 553.850 33.394 28.179 o
6 14 2 1577.410 1674.160 70.070 5.688 o
6 14 3 636.481 673.719 37.814 21.585 o
6 14 4 704.291 662.636 33.553 25.909 o
6 16 0 238.325 250.779 34.757 28.735 o
6 16 1 12.880 12.412 7.714 597.305 o
6 16 2 86.432 29.768 19.425 93.733 o
7 -15 -1 185.710 181.272 37.000 25.667 o
7 -13 -5 803.405 798.403 57.770 9.693 o
7 -13 -4 154.246 186.352 30.301 38.176 o
7 -13 -3 1255.210 1282.280 57.646 8.567 o
7 -13 -2 331.934 296.921 27.896 42.802 o
7 -13 -1 1450.130 1348.520 60.233 7.619 o
7 -11 -7 183.109 134.237 32.964 32.324 o
7 -11 -6 960.937 978.685 63.826 7.805 o
7 -11 -5 111.408 111.213 18.010 107.589 o
7 -11 -4 1195.790 1274.530 48.732 11.293 o
7 -11 -3 332.839 382.214 26.153 47.617 o
7 -11 -2 454.003 422.918 26.356 44.658 o
7 -11 -1 352.083 321.617 23.344 58.757 o
7 -9 -8 52.387 25.676 17.939 110.254 o
7 -9 -7 1076.910 1077.120 47.750 12.344 o
7 -9 -6 571.070 534.326 42.876 17.789 o
7 -9 -5 2265.490 2361.420 70.124 4.645 o
7 -9 -4 503.246 570.271 32.157 30.221 o
7 -9 -3 1360.670 1343.090 39.460 14.170 o
7 -9 -2 1289.180 1380.680 40.050 14.181 o
7 -9 -1 1249.040 1272.530 42.030 13.752 o
7 -7 -8 632.328 581.219 34.472 25.694 o
7 -7 -7 859.637 856.045 41.911 16.633 o
7 -7 -6 616.714 653.294 34.492 25.506 o
7 -7 -5 497.387 509.219 46.801 15.334 o
7 -7 -4 1644.190 1674.890 56.679 7.677 o
7 -7 -3 595.264 616.599 28.747 35.062 o
7 -7 -2 1416.790 1392.050 44.138 11.944 o
7 -7 -1 364.834 380.857 18.975 82.516 o
7 -5 -9 890.021 892.979 59.292 9.060 o
7 -5 -8 117.657 114.545 21.285 77.350 o
7 -5 -7 734.335 726.421 42.776 16.882 o
7 -5 -6 788.340 796.351 45.394 14.916 o
7 -5 -5 1683.770 1707.640 82.742 4.270 o
7 -5 -4 466.823 456.826 28.215 39.207 o
7 -5 -3 258.549 264.705 18.642 92.970 o
7 -5 -2 905.542 897.444 31.497 25.135 o
7 -5 -1 603.493 621.940 29.068 34.281 o
7 -3 -9 1540.130 1537.330 65.099 6.507 o
7 -3 -8 548.466 516.580 42.781 17.969 o
7 -3 -7 943.311 980.096 60.748 8.545 o
7 -3 -6 397.571 399.052 39.399 21.772 o
7 -3 -5 486.914 475.114 65.142 8.154 o
7 -3 -4 2338.440 2466.420 94.565 2.993 o
7 -3 -3 55.121 38.973 9.485 390.035 o
7 -3 -2 2462.120 2476.580 61.601 5.114 o
7 -3 -1 360.422 373.475 21.931 64.692 o
7 -1 -9 1605.990 1643.410 62.973 6.680 o
7 -1 -8 98.977 100.939 15.222 150.251 o
7 -1 -7 444.279 380.614 27.391 42.203 o
7 -1 -6 383.372 410.681 40.953 20.253 o
7 -1 -5 478.397 467.147 28.959 37.236 o
7 -1 -4 964.634 980.320 41.767 15.934 o
7 -1 -3 27.116 20.085 6.960 729.932 o
7 -1 -2 839.039 892.332 44.249 15.211 o
7 -1 -1 1065.810 1056.870 39.804 16.388 o
7 1 0 1372.770 1419.070 39.005 14.103 o
7 1 1 1186.160 1198.260 33.072 19.444 o
7 1 2 330.102 322.621 17.759 95.882 o
7 1 3 2416.350 2384.290 102.174 2.646 o
7 1 4 101.277 82.884 14.599 163.375 o
7 1 5 846.943 844.562 44.876 14.915 o
7 1 6 236.453 217.815 47.609 15.513 o
7 1 7 671.390 618.181 71.758 6.626 o
7 3 0 2919.420 2948.260 68.649 3.879 o
7 3 1 778.093 794.730 28.757 31.048 o
7 3 2 490.400 494.907 22.594 55.933 o
7 3 3 1828.480 1880.530 67.899 5.577 o
7 3 4 377.876 428.851 31.677 32.818 o
7 3 5 871.801 767.975 54.056 10.829 o
7 3 6 253.881 240.892 25.908 50.583 o
7 3 7 499.307 501.456 86.418 4.684 o
7 5 0 1334.700 1434.530 37.232 15.085 o
7 5 1 721.217 770.739 30.941 28.693 o
7 5 2 250.851 232.169 17.852 101.748 o
7 5 3 1816.760 1954.850 61.439 6.379 o
7 5 4 101.399 94.641 13.758 183.097 o
7 5 5 585.010 574.487 39.018 20.957 o
7 5 6 599.610 600.186 41.522 18.622 o
7 7 0 1553.120 1611.640 43.274 11.267 o
7 7 1 489.939 515.950 35.498 25.616 o
7 7 2 489.141 504.087 29.489 35.712 o
7 7 3 1064.770 1099.010 52.288 10.668 o
7 7 4 981.912 1007.970 40.518 16.538 o
7 7 5 440.413 405.993 25.819 46.688 o
7 7 6 934.201 885.182 63.383 7.988 o
7 9 0 1048.300 1086.870 39.142 16.806 o
7 9 1 528.227 517.697 30.164 33.797 o
7 9 2 117.565 104.280 20.247 85.436 o
7 9 3 1028.090 1123.190 47.769 12.418 o
7 9 4 129.879 109.544 13.594 184.717 o
7 9 5 832.520 772.145 35.976 21.735 o
7 11 0 398.620 439.180 24.829 50.495 o
7 11 1 186.187 183.678 16.664 120.415 o
7 11 2 682.433 699.408 42.679 17.212 o
7 11 3 508.098 504.790 47.291 15.016 o
7 11 4 819.714 821.632 49.119 12.883 o
7 13 0 131.408 116.907 22.759 67.626 o
7 13 1 700.354 698.630 44.365 16.011 o
7 13 2 267.248 260.950 24.648 55.260 o
7 13 3 414.672 347.885 55.864 11.119 o
7 15 0 637.697 667.823 73.103 6.399 o
8 -12 -2 510.724 558.701 65.339 8.064 o
8 -10 -4 714.754 779.051 54.185 11.060 o
8 -10 -3 858.356 866.898 59.388 9.096 o
8 -10 -2 1192.630 1158.590 54.101 9.744 o
8 -10 -1 616.509 580.838 38.336 21.443 o
8 -8 -6 321.470 333.085 53.510 12.195 o
8 -8 -5 54.483 56.520 13.667 188.948 o
8 -8 -4 391.094 370.933 27.926 41.545 o
8 -8 -3 79.361 91.987 14.514 166.088 o
8 -8 -2 1504.860 1546.790 49.668 9.707 o
8 -8 -1 863.718 883.901 41.465 16.841 o
8 -6 -6 277.374 230.847 21.898 69.082 o
8 -6 -5 1741.730 1673.430 68.795 5.677 o
8 -6 -4 236.363 228.899 21.755 70.939 o
8 -6 -3 1183.200 1214.270 43.674 13.439 o
8 -6 -2 337.003 309.673 26.870 45.750 o
8 -6 -1 1201.720 1213.140 48.318 11.516 o
8 -4 -7 303.879 275.190 26.909 46.272 o
8 -4 -6 488.962 455.492 42.931 18.142 o
8 -4 -5 127.099 104.049 15.420 145.149 o
8 -4 -4 367.006 350.261 26.425 46.450 o
8 -4 -3 9.759 13.321 6.758 778.120 o
8 -4 -2 1705.780 1715.580 48.273 9.246 o
8 -4 -1 446.605 463.915 26.223 44.822 o
8 -2 -7 1619.980 1567.920 59.609 7.280 o
8 -2 -6 101.248 106.561 48.184 15.293 o
8 -2 -5 3890.450 3839.790 98.767 2.027 o
8 -2 -4 10.434 15.310 7.318 663.602 o
8 -2 -3 1166.460 1138.450 47.435 12.079 o
8 -2 -2 14.246 15.081 6.867 752.910 o
8 -2 -1 813.458 812.673 35.047 22.637 o
8 0 -6 565.499 504.995 65.002 8.126 o
8 0 -4 216.908 182.923 52.305 12.906 o
8 0 -2 1202.850 1202.190 96.649 3.526 o
8 0 0 1280.420 1305.200 58.043 8.409 o
8 0 2 2248.540 2311.610 219.323 0.701 o
8 0 4 1308.040 1438.630 109.234 2.763 o
8 2 0 95.632 100.128 12.605 217.278 o
8 2 1 178.878 182.970 16.705 120.255 o
8 2 2 122.894 111.155 15.669 140.734 o
8 2 3 1564.500 1585.820 108.393 2.731 o
8 2 4 104.054 83.699 16.260 132.161 o
8 2 5 1237.740 1203.370 101.750 3.196 o
8 4 0 1880.000 1909.380 46.397 8.876 o
8 4 1 146.260 151.735 12.698 206.155 o
8 4 2 2348.650 2364.950 64.119 5.089 o
8 4 3 126.753 137.835 16.751 122.965 o
8 4 4 1041.890 1073.110 62.825 7.869 o
8 4 5 18.905 14.576 21.583 76.375 o
8 6 0 49.813 57.455 10.091 344.705 o
8 6 1 97.513 88.921 11.331 267.494 o
8 6 2 124.076 121.556 14.794 156.958 o
8 6 3 189.347 213.482 24.502 57.346 o
8 6 4 218.862 194.062 30.472 37.401 o
8 8 0 1625.930 1588.180 46.794 10.045 o
8 8 1 591.112 561.588 38.380 21.587 o
8 8 2 1725.130 1676.380 60.388 6.890 o
8 8 3 563.877 551.638 58.401 9.959 o
8 10 0 309.178 347.269 30.474 36.222 o
8 10 1 192.929 174.967 19.291 91.188 o
8 10 2 18.725 6.867 11.745 257.807 o
9 -7 -2 746.190 629.898 69.852 6.925 o
9 -7 -1 604.463 518.589 64.890 8.120 o
9 -5 -3 654.364 654.515 52.810 11.818 o
9 -5 -2 84.735 74.444 12.034 240.070 o
9 -5 -1 700.108 683.651 34.553 24.634 o
9 -3 -4 282.253 284.147 29.547 38.912 o
9 -3 -3 1275.760 1245.200 52.604 9.886 o
9 -3 -2 708.339 707.805 35.047 23.901 o
9 -3 -1 1326.790 1314.100 40.591 13.918 o
9 -1 -4 657.664 622.353 43.557 16.834 o
9 -1 -3 1220.730 1220.610 69.455 6.357 o
9 -1 -2 190.460 205.946 17.484 109.306 o
9 -1 -1 937.204 930.748 33.951 22.142 o
9 1 0 230.524 243.277 20.909 76.403 o
9 1 1 198.495 190.713 21.304 75.114 o
9 3 0 205.208 190.901 16.775 117.732 o
9 3 1 407.195 424.836 34.543 27.762 o
9 5 0 432.070 390.356 29.644 36.703 o
9 5 1 593.391 473.881 64.498 8.240 o
;
_olex2_submission_special_instructions 'No special instructions were received'
_oxdiff_exptl_absorpt_empirical_details
;
Empirical correction (ABSPACK) includes:
- Absorption correction using spherical harmonics
- Frame scaling
;
_oxdiff_exptl_absorpt_empirical_full_max 1.083
_oxdiff_exptl_absorpt_empirical_full_min 0.947
loop_
_space_group_symop_id
_space_group_symop_operation_xyz
1 x,y,z
2 x,-y,z+1/2
3 x+1/2,y+1/2,z
4 x+1/2,-y+1/2,z+1/2
loop_
_atom_site_label
_atom_site_type_symbol
_atom_site_fract_x
_atom_site_fract_y
_atom_site_fract_z
_atom_site_U_iso_or_equiv
_atom_site_adp_type
_atom_site_occupancy
_atom_site_refinement_flags_posn
_atom_site_refinement_flags_adp
Cu1 Cu 0.41266(2) 0.635078(10) 0.350672(18) 0.00453(3) Uani 1.000000 . U
O1 O 0.57354(17) 0.66499(8) 0.59472(12) 0.00728(16) Uani 1.000000 . U
O2 O 0.89114(16) 0.55438(8) 0.73194(13) 0.00908(16) Uani 1.000000 . U
O3 O 0.49382(16) 0.54393(7) 0.83293(13) 0.00807(15) Uani 1.000000 . U
O4 O 0.73805(17) 0.69579(8) 0.90100(12) 0.00774(15) Uani 1.000000 . U
O5 O 0.69954(16) 0.69432(8) 0.26051(12) 0.00790(15) Uani 1.000000 D U
H5a H 0.712(5) 0.693(3) 0.127(2) 0.023(6) Uani 1.000000 D U
H5b H 0.850(3) 0.679(2) 0.343(3) 0.012(5) Uani 1.000000 D U
O6 O 0.24629(19) 0.62860(7) 0.09894(15) 0.00758(17) Uani 1.000000 D U
H6a H 0.336(4) 0.603(2) 0.002(3) 0.013(5) Uani 1.000000 D U
H6b H 0.156(5) 0.6920(16) 0.059(4) 0.018(5) Uani 1.000000 D U
O7 O 0.10630(16) 0.59053(8) 0.43301(12) 0.00698(15) Uani 1.000000 D U
H7a H 0.040(4) 0.5273(15) 0.368(3) 0.013(5) Uani 1.000000 D U
H7b H 0.072(6) 0.588(2) 0.557(2) 0.024(5) Uani 1.000000 D U
S1 S 0.67501(5) 0.61297(2) 0.76723(4) 0.00384(5) Uani 1.000000 . U
loop_
_atom_site_aniso_label
_atom_site_aniso_U_11
_atom_site_aniso_U_22
_atom_site_aniso_U_33
_atom_site_aniso_U_12
_atom_site_aniso_U_13
_atom_site_aniso_U_23
Cu1 0.00404(5) 0.00613(6) 0.00344(5) -0.00082(5) 0.00050(4) 0.00003(5)
O1 0.0088(4) 0.0077(4) 0.0050(4) 0.0008(3) -0.0010(3) 0.0007(3)
O2 0.0079(3) 0.0108(4) 0.0091(4) 0.0049(3) 0.0036(3) 0.0032(3)
O3 0.0090(3) 0.0066(3) 0.0091(4) -0.0022(3) 0.0034(3) 0.0001(3)
O4 0.0107(4) 0.0071(4) 0.0052(3) -0.0019(3) 0.0002(3) -0.0015(3)
O5 0.0066(3) 0.0100(4) 0.0074(4) -0.0007(3) 0.0021(3) 0.0008(3)
H5a 0.012(9) 0.046(18) 0.011(4) -0.002(6) 0.0026(19) 0.001(2)
H5b 0.007(5) 0.015(13) 0.015(7) 0.000(3) -0.000(2) 0.000(5)
O6 0.0078(4) 0.0095(4) 0.0054(4) -0.0001(3) 0.0004(3) -0.0000(3)
H6a 0.011(8) 0.023(10) 0.005(5) 0.005(4) -0.002(3) -0.000(3)
H6b 0.014(11) 0.018(6) 0.022(9) 0.006(4) 0.001(4) 0.005(3)
O7 0.0068(3) 0.0078(4) 0.0065(3) -0.0012(3) 0.0015(3) -0.0002(3)
H7a 0.013(10) 0.011(7) 0.015(8) -0.003(4) 0.003(4) -0.002(4)
H7b 0.034(11) 0.026(11) 0.013(4) -0.012(5) 0.011(2) -0.004(2)
S1 0.00419(10) 0.00400(10) 0.00338(10) 0.00005(8) 0.00065(8) 0.00005(8)
loop_
_atom_type_symbol
_atom_type_scat_dispersion_real
_atom_type_scat_dispersion_imag
_atom_type_scat_source
_atom_type_scat_dispersion_source
Cu 0.34125 1.28947 'NoSpherA2: Chem.Sci. 2021, DOI:10.1039/D0SC05526C'
'Henke, Gullikson and Davis, At. Data and Nucl. Data Tables, 1993, 54, 2'
H 0.00000 0.00000 'NoSpherA2: Chem.Sci. 2021, DOI:10.1039/D0SC05526C'
'Henke, Gullikson and Davis, At. Data and Nucl. Data Tables, 1993, 54, 2'
O 0.01158 0.00611 'NoSpherA2: Chem.Sci. 2021, DOI:10.1039/D0SC05526C'
'Henke, Gullikson and Davis, At. Data and Nucl. Data Tables, 1993, 54, 2'
S 0.12424 0.12443 'NoSpherA2: Chem.Sci. 2021, DOI:10.1039/D0SC05526C'
'Henke, Gullikson and Davis, At. Data and Nucl. Data Tables, 1993, 54, 2'
loop_
_diffrn_refln_index_h
_diffrn_refln_index_k
_diffrn_refln_index_l
_diffrn_refln_intensity_net
_diffrn_refln_intensity_u
-9 -1 -3 21.85 8.37
-9 -1 -2 296.24 26.93
-9 1 -2 233.39 23.07
-9 1 -2 255.82 28.25
-9 1 -1 96.2 17.6
-9 1 -1 104.22 15.38
-9 -1 -1 75.66 14.43
-9 -1 -1 104.49 18.43
-9 1 0 39.35 10.26
-9 -1 0 29.56 9.3
-9 1 0 54.28 13.15
-9 -1 0 39.44 11.5
-9 1 0 33.65 11.11
-9 -1 1 317.93 29.06
-9 1 1 408.29 34.21
-9 1 1 292.69 27.14
-9 -1 1 385.61 34.37
-9 1 1 334.18 32.46
-9 1 2 77.94 14.97
-9 1 2 74.34 14.05
-9 -1 2 91.89 16.15
-9 1 2 109.28 18.87
-9 -1 2 97.99 17.38
-9 -1 2 72.34 12.46
-9 1 2 78.25 13.09
-9 -1 3 370.76 32.77
-9 1 3 415.98 33.62
-9 1 3 362.45 31.12
-9 -1 3 428.29 36.76
-9 1 3 423.81 32.56
-9 -1 3 409.18 31.84
-9 1 4 275.86 27.64
-9 -1 4 267.86 28.04
-9 1 4 309.14 28.95
-9 -1 4 290.18 27.74
-9 -1 5 227.4 26.42
-9 1 5 219.58 25.4
-9 -1 5 244.58 26.66
-9 1 5 213.23 25.56
-9 -3 -2 326.84 29.94
-9 3 -2 287.4 30.02
-9 -3 -1 147.61 20.21
-9 3 -1 139.47 21.55
-9 3 -1 151.21 21.88
-9 -3 -1 160.34 23.28
-9 3 0 51.89 12.97
-9 -3 0 34.36 10.34
-9 3 0 53.36 10.8
-9 -3 0 36.77 11.22
-9 3 0 52.9 13.22
-9 3 1 500.37 38.44
-9 3 1 475.57 33.15
-9 -3 1 428.5 35.6
-9 -3 1 468.06 38.76
-9 3 2 228.74 23.47
-9 -3 2 246.66 26.66
-9 3 2 271.81 27.38
-9 -3 2 300.34 30.39
-9 3 2 230.29 22.96
-9 3 3 391.96 31.39
-9 -3 3 362.35 33.51
-9 3 3 405.07 33.08
-9 -3 3 482.88 38.46
-9 -3 3 383.17 30.67
-9 3 3 394.85 32.26
-9 -3 4 147.09 21.43
-9 3 4 114.62 16.7
-9 3 4 150.06 19.75
-9 -3 4 138.7 20.88
-9 -3 4 109.29 17.19
-9 3 4 132.06 19.49
-9 3 5 21.96 8.37
-9 3 5 29.53 9.94
-9 -3 5 40.59 11.22
-9 -5 -1 199.82 24.14
-9 5 -1 237.39 26.81
-9 -5 0 107.26 18.3
-9 5 0 114.17 19.45
-9 -5 0 99.43 18.61
-9 5 0 128.71 20.6
-9 -5 1 270.8 28.11
-9 5 1 264.06 28.23
-9 -5 1 231.36 27.3
-9 5 1 233.14 26.92
-9 5 2 12.65 6.61
-9 -5 2 18.93 8.44
-9 -5 2 16.45 8.56
-9 5 2 6.42 5.59
-9 -5 3 188.35 24.28
-9 5 3 241.82 25.38
-9 5 3 231.22 22.88
-9 -5 3 267.21 28.34
-9 5 3 230.42 24.89
-9 -5 3 252.97 24.56
-9 5 4 55.25 11.76
-9 -5 4 46.57 11.58
-9 5 4 75.13 14.97
-9 5 5 254.47 25.93
-9 7 2 220.98 23.72
-9 7 3 173.69 22.36
-8 0 -5 7.56 6.58
-8 0 -5 -2.58 5.69
-8 0 -4 615.6 44.72
-8 0 -4 608.16 41.07
-8 0 -4 557.16 41.73
-8 0 -3 -2.72 3.79
-8 0 -3 1.93 4.66
-8 0 -3 -2.55 4.36
-8 0 -2 977.79 56.23
-8 0 -2 851.76 46.72
-8 0 -1 1.93 4.67
-8 0 -1 -2.49 4.92
-8 0 0 429.82 31.13
-8 0 0 410.06 33.6
-8 0 0 459.43 35.52
-8 0 0 406.5 25.53
-8 0 1 4.08 4.5
-8 0 1 2.27 4.49
-8 0 1 2.46 4.2
-8 0 1 1.57 3.79
-8 0 2 270.7 25.51
-8 0 2 314.6 27.38
-8 0 2 297.56 24.63
-8 0 3 1.99 4.39
-8 0 3 -2.21 4.37
-8 0 3 -2.05 4.52
-8 0 4 19.98 7.62
-8 0 4 23.29 8.3
-8 0 4 20.39 8.08
-8 0 5 -1.58 3.13
-8 0 5 -2.47 6.45
-8 0 6 243.76 22.51
-8 0 6 237.3 26.79
-8 0 7 -2.04 4.51
-8 0 7 2.83 5.58
-8 0 8 702.85 44.41
-8 2 -5 369.36 32.3
-8 -2 -5 349.15 32.36
-8 2 -5 402.61 33.52
-8 -2 -5 344.81 32.65
-8 -2 -4 23.77 8.81
-8 2 -4 34.36 10.14
-8 2 -4 33.64 11.43
-8 -2 -4 29.27 9.86
-8 2 -4 34.55 10.64
-8 -2 -3 528.58 36.52
-8 2 -3 522.22 40.43
-8 2 -3 526.34 32.94
-8 -2 -3 519.08 36.67
-8 2 -3 525.05 39.27
-8 2 -2 35.32 8.52
-8 2 -2 44.6 12.18
-8 -2 -2 38.03 10.04
-8 2 -2 39.31 10.88
-8 -2 -2 33.47 10.52
-8 -2 -1 36.01 9.83
-8 2 -1 27.63 8.02
-8 -2 -1 22.73 9.35
-8 -2 0 21.47 7.66
-8 2 0 24.08 8.91
-8 -2 0 28.87 9.8
-8 2 0 21.44 6.85
-8 2 0 19.65 8.75
-8 -2 0 17.52 7.83
-8 2 0 25.03 6.75
-8 2 1 345.62 29.9
-8 2 1 284.3 24.9
-8 -2 1 316.46 28.24
-8 -2 1 391.85 32.56
-8 -2 1 342.49 24.72
-8 2 1 380.99 26.83
-8 2 2 8.65 6.03
-8 2 2 9.81 5.12
-8 -2 2 6.77 4.98
-8 -2 2 7.34 5.91
-8 2 2 3.81 3.76
-8 -2 2 1.78 4.29
-8 -2 3 470.63 35.48
-8 2 3 434.81 32.77
-8 2 3 476.52 33.5
-8 2 3 452.23 27.15
-8 2 3 423.51 32.7
-8 -2 3 449.1 32.28
-8 2 4 16.73 7.1
-8 -2 4 2.44 4.18
-8 2 4 1.52 3.36
-8 2 4 9.4 6.56
-8 -2 4 -4.45 3.8
-8 2 5 1355.19 59.62
-8 2 5 1333.3 60.41
-8 -2 5 1417.19 69.11
-8 2 5 1428.35 70.76
-8 2 6 37.15 9.49
-8 2 6 49.28 12.98
-8 -2 6 21.02 8.64
-8 -2 7 440.06 31.89
-8 2 7 473.95 34.71
-8 2 7 472.17 39.39
-8 -2 7 484.06 39.17
-8 2 8 99.13 16.61
-8 -2 8 74.79 13.51
-8 4 -5 17.37 8.12
-8 4 -5 6.94 6.46
-8 4 -4 467.51 38.89
-8 -4 -4 442.44 35.73
-8 4 -4 516.79 37.27
-8 -4 -3 47.02 11.65
-8 4 -3 55.03 13.34
-8 -4 -3 40.81 11.01
-8 4 -3 38.1 10.82
-8 -4 -3 29.66 10.36
-8 4 -2 971.13 56.48
-8 -4 -2 863.68 50.85
-8 -4 -2 890.86 53.94
-8 4 -2 900.03 52.7
-8 -4 -1 36.77 10.43
-8 4 -1 34.33 7.98
-8 -4 -1 36.04 11.11
-8 4 -1 38.81 11.01
-8 4 0 680.95 44.38
-8 4 0 649.74 35.91
-8 -4 0 557.02 39.51
-8 4 0 557.69 40.31
-8 -4 0 608.9 42.83
-8 4 0 593.94 34.11
-8 -4 1 140.87 19.06
-8 4 1 141.5 16.31
-8 4 1 170.07 20.93
-8 -4 1 126.48 19.02
-8 4 1 152.07 17.62
-8 -4 1 151.74 16.17
-8 4 2 478.9 28.64
-8 4 2 514.57 36.5
-8 -4 2 463.29 35.99
-8 4 2 467.36 31.99
-8 -4 2 529.71 38.61
-8 4 2 579.58 36.76
-8 -4 2 478.57 32.11
-8 4 3 3.07 3.39
-8 4 3 8.38 5.85
-8 4 3 7.74 5.05
-8 -4 3 14.47 7.14
-8 -4 3 6.06 5.64
-8 4 3 -2.24 4.41
-8 4 4 84.44 13.01
-8 4 4 81.13 13.5
-8 -4 4 61.92 13.46
-8 4 4 90.41 15.76
-8 -4 4 89.53 15.12
-8 4 5 85.21 13.37
-8 -4 5 66.3 14.41
-8 4 5 49.68 10.6
-8 4 5 39.63 11.16
-8 -4 5 61.16 13.52
-8 4 6 199.78 21.93
-8 4 6 186.61 24.51
-8 -4 6 184.71 23.23
-8 4 7 121.64 17.86
-8 -4 7 123.79 20.11
-8 4 7 146.05 21.67
-8 6 -5 267.43 25.6
-8 6 -4 55.85 12.18
-8 -6 -4 70.79 15.38
-8 6 -3 45.19 12.23
-8 -6 -3 53.34 12.61
-8 6 -3 66.38 13.43
-8 -6 -3 52.55 12.88
-8 -6 -2 19.81 8.15
-8 6 -2 41.15 11.52
-8 -6 -2 43.08 11.91
-8 6 -2 46.94 11.38
-8 -6 -1 120.85 18.09
-8 -6 -1 94.13 16.74
-8 6 -1 102.61 16.87
-8 6 0 12.74 7.95
-8 -6 0 5.1 5.03
-8 6 0 10.06 4.97
-8 6 1 547.28 31.98
-8 6 1 551.27 32.1
-8 6 1 539.25 39.41
-8 -6 1 587.97 41.23
-8 6 1 545.55 35.74
-8 -6 1 597.81 34.21
-8 6 2 171.1 17.52
-8 -6 2 131.66 19.59
-8 6 2 155.97 16.58
-8 6 2 169.35 20.85
-8 -6 2 136.03 19.28
-8 -6 2 143.79 17.3
-8 6 3 514.41 32.72
-8 -6 3 441.9 36.2
-8 6 3 418.28 32.91
-8 6 3 430.74 30.28
-8 -6 3 481.69 36.09
-8 6 3 451.84 34.82
-8 -6 3 443.91 32.77
-8 6 4 103.92 15.28
-8 -6 4 76.94 15.25
-8 6 4 106.03 15.66
-8 -6 4 109.94 17.15
-8 6 4 78.86 15.47
-8 -6 4 113.89 17.15
-8 -6 5 538.82 41.8
-8 6 5 575.66 36.19
-8 6 5 564.64 38.11
-8 -6 5 616.3 42.36
-8 6 5 584.18 43.27
-8 -6 6 84.7 16.67
-8 6 6 124.75 17.94
-8 6 6 107.36 18.94
-8 -6 6 77.48 15.79
-8 6 7 175.11 22.33
-8 -8 -3 195.48 24.57
-8 -8 -3 211.7 25.95
-8 8 -3 219.86 23.47
-8 8 -2 562.22 43.08
-8 8 -2 575.09 39.42
-8 -8 -2 550.44 42.17
-8 8 -1 199.26 25.09
-8 -8 -1 175.25 22.99
-8 8 -1 233.44 24.4
-8 8 0 451.45 37.42
-8 -8 0 512.48 39.71
-8 8 1 250.84 22.13
-8 -8 1 267.63 27.76
-8 8 1 265.71 27.64
-8 -8 1 288.97 28.21
-8 -8 1 254.89 21.69
-8 8 2 439.35 31.33
-8 8 2 546.27 38.95
-8 -8 2 476.74 37.62
-8 -8 2 476.61 36.56
-8 -8 2 455.79 31.92
-8 8 3 19.82 7.58
-8 8 3 13.77 7.52
-8 -8 3 2.7 4.62
-8 -8 3 25.61 8.9
-8 -8 3 14.81 6.61
-8 8 4 129.06 17.69
-8 -8 4 118.01 19.05
-8 8 4 129.56 17.84
-8 -8 4 132.8 18.69
-8 -8 5 11.21 7.83
-8 8 5 6.84 6.37
-8 -8 5 20.23 8.28
-8 8 6 97.37 16.83
-8 10 -2 -2.17 4.79
-8 -10 -1 57.74 13.9
-8 10 -1 42.34 12.21
-8 10 -1 52.11 12.11
-8 -10 -1 56.08 14
-8 10 0 128.59 19.94
-8 -10 0 126.14 19.43
-8 -10 0 136.17 19.76
-8 10 1 306.69 30.12
-8 -10 1 295.82 29.94
-8 -10 1 269.3 27.42
-8 -10 2 495.61 39.33
-8 10 2 471.45 37.45
-8 10 2 445.46 33.18
-8 -10 2 483.45 33.59
-8 -10 3 380.28 34.16
-8 10 3 373.35 32.1
-8 10 3 350.24 29.75
-8 -10 3 336.25 29.12
-8 10 4 237.67 24.93
-8 -10 4 219.7 26.21
-8 10 4 209.42 23.77
-8 -10 4 292.75 27.99
-8 10 5 294.29 28.84
-8 12 -1 233.42 24.42
-8 -12 3 40.42 10.44
-7 -1 -7 255.88 28.26
-7 1 -7 271.12 29.03
-7 -1 -6 33.87 10.16
-7 1 -6 29.67 9.04
-7 1 -6 49.24 12.29
-7 1 -6 22.99 8.77
-7 -1 -6 28.34 9.88
-7 1 -5 336.01 29.34
-7 -1 -5 325.57 29.28
-7 -1 -5 260.73 26.35
-7 1 -5 263.55 26.22
-7 1 -5 319.91 29.91
-7 1 -4 41.99 10.76
-7 -1 -4 55.37 12.33
-7 -1 -4 51.84 12.25
-7 1 -4 38.38 10.18
-7 1 -4 71.11 14.57
-7 -1 -4 62.81 12.71
-7 1 -3 948.13 48.39
-7 -1 -3 869.55 47.11
-7 1 -3 840.77 48.31
-7 -1 -3 863.73 45.91
-7 1 -3 847.93 43.52
-7 -1 -3 935.7 52.61
-7 1 -3 876.02 50.89
-7 1 -2 170.9 17.74
-7 1 -2 144.24 18.92
-7 1 -2 153.74 16.46
-7 -1 -2 156.77 17.41
-7 -1 -2 154.26 19.68
-7 -1 -2 149.05 17.01
-7 -1 -2 170.34 20.17
-7 1 -1 400.99 26.67
-7 1 -1 398.35 27.68
-7 -1 -1 433.06 29.84
-7 -1 -1 469.37 29.07
-7 -1 -1 472.82 33.93
-7 1 -1 431.96 32.43
-7 1 -1 427.77 32.28
-7 -1 -1 412.26 31.85
-7 1 -1 402.12 22.9
-7 -1 -1 414.19 22.37
-7 -1 0 535.27 34.13
-7 1 0 536.41 32.78
-7 1 0 551.01 36.71
-7 -1 0 544.14 36.75
-7 1 0 529.39 29.48
-7 -1 0 523.28 28.7
-7 -1 1 372.62 28.63
-7 1 1 363.79 26.78
-7 -1 1 372.24 27.77
-7 1 1 384.38 29.14
-7 1 1 345 19.33
-7 1 1 368.28 25.56
-7 -1 1 368.82 24.93
-7 -1 2 327.71 26.14
-7 1 2 277.83 23.97
-7 1 2 288.1 24.37
-7 -1 2 277.79 24.55
-7 1 2 288.13 19.08
-7 -1 2 351.4 18.81
-7 -1 2 363.55 25.89
-7 1 2 339.54 25.57
-7 -1 3 15.1 5.99
-7 1 3 21.98 6.9
-7 1 3 31.77 6.95
-7 -1 3 25.4 5.93
-7 -1 3 29.79 8.44
-7 1 3 13.43 6.01
-7 -1 4 325.76 23.98
-7 1 4 298.1 23.32
-7 1 4 318.67 22.99
-7 -1 4 301.51 21.45
-7 1 4 339.34 28.33
-7 -1 4 313.96 27.2
-7 1 5 232.5 19
-7 -1 5 241.71 20.08
-7 1 5 192.61 18.9
-7 -1 5 174.65 20.69
-7 1 5 154.97 20.06
-7 1 6 86.08 13.52
-7 -1 6 97.34 14.17
-7 -1 7 183.08 20.16
-7 1 7 167.79 19.92
-7 1 7 174.4 22.75
-7 -1 7 162.94 22.15
-7 1 8 37.16 10.28
-7 -1 8 35.93 10.19
-7 -1 8 19.55 8.75
-7 1 8 45.61 12.6
-7 1 9 535.01 39.34
-7 -1 9 416.5 35.14
-7 -1 9 572.61 43.31
-7 1 9 480.14 40.34
-7 3 -7 166.86 22.11
-7 3 -6 46.83 11.39
-7 -3 -6 66.4 14.09
-7 3 -6 57.24 13.41
-7 -3 -6 47.1 12.72
-7 3 -6 48.79 12.49
-7 3 -5 276.03 27.26
-7 -3 -5 340.54 30.34
-7 3 -5 309.1 27.07
-7 -3 -5 286.77 28.02
-7 3 -5 284.77 28.45
-7 3 -4 157 19.31
-7 -3 -4 151.67 19.03
-7 3 -4 135.93 19.39
-7 -3 -4 156.72 18.91
-7 3 -4 113.31 16.61
-7 3 -3 658.77 38.92
-7 -3 -3 659.02 42.28
-7 3 -3 557.28 37.88
-7 3 -3 602.97 41.44
-7 3 -3 620.69 33.42
-7 -3 -3 557.9 37.43
-7 -3 -3 603.64 38.58
-7 3 -2 258.43 21.83
-7 -3 -2 202.77 20.68
-7 -3 -2 236.65 22.68
-7 3 -2 260.12 25.53
-7 3 -2 259.92 19.93
-7 -3 -2 202.83 22.64
-7 3 -2 236.4 23.16
-7 3 -1 228.66 14.86
-7 -3 -1 252.09 21.41
-7 -3 -1 249.82 23.29
-7 3 -1 254.51 24.51
-7 3 -1 247.98 19.86
-7 3 -1 209.12 22.03
-7 -3 -1 233.91 24.05
-7 -3 -1 226.19 15.65
-7 3 -1 259.86 18.43
-7 3 0 1089.77 42.58
-7 -3 0 1084.23 53.91
-7 3 0 1080 48.8
-7 -3 0 1151.99 57.26
-7 3 0 1118.89 48.28
-7 -3 0 1003.4 44.8
-7 3 1 108.38 11.54
-7 3 1 121.13 16.39
-7 -3 1 110.68 15.48
-7 3 1 112.89 13.84
-7 -3 1 109.23 15.75
-7 3 1 130.48 15.06
-7 -3 1 73.54 11.06
-7 3 2 815.66 38.17
-7 3 2 879.59 45.88
-7 3 2 762.65 41.51
-7 -3 2 805.17 46.22
-7 -3 2 818.47 42.41
-7 3 2 789.41 43.53
-7 3 3 40.53 9.26
-7 3 3 30.96 7.16
-7 -3 3 39.9 6.48
-7 -3 3 51.54 10.48
-7 3 3 51.82 10.82
-7 3 4 750.16 39.65
-7 -3 4 695.93 34.19
-7 3 4 692.2 38.18
-7 3 4 667.26 42.75
-7 -3 4 768.12 43.7
-7 3 5 191.9 17.74
-7 3 5 171.81 18.54
-7 -3 5 170.71 16.7
-7 3 5 178.85 21.57
-7 -3 5 206.43 22.42
-7 3 6 101.66 15.07
-7 -3 6 97.87 13.67
-7 -3 7 345.96 27.56
-7 3 7 344.18 29.35
-7 -3 7 314.7 30.61
-7 3 7 367.49 33.47
-7 3 8 193.4 23.29
-7 -3 8 221.18 23.21
-7 3 8 226.73 26.86
-7 -3 8 209.41 25.55
-7 -3 9 489.55 37.18
-7 3 9 499.01 39.18
-7 5 -6 169.14 22.26
-7 5 -6 196.29 21
-7 5 -6 187.06 24.17
-7 -5 -6 168.74 22.27
-7 5 -6 159.79 21.8
-7 5 -5 237.01 25.39
-7 5 -5 301.83 26.11
-7 -5 -5 257.99 27.05
-7 5 -5 262.02 27.48
-7 5 -4 22.21 8
-7 -5 -4 32.66 9.94
-7 -5 -4 30.21 9.2
-7 -5 -4 34.32 9.86
-7 5 -4 20.32 8.34
-7 5 -4 28.26 8.87
-7 5 -3 659.01 40.03
-7 -5 -3 682.33 42.69
-7 5 -3 744.57 46.39
-7 -5 -3 703.65 42.76
-7 -5 -3 686.69 44.69
-7 5 -3 645.57 40.53
-7 -5 -2 91.79 14.69
-7 5 -2 127.4 18.08
-7 -5 -2 97.59 14.53
-7 5 -2 101.3 11.38
-7 -5 -2 113.89 16.75
-7 5 -2 100.49 14.97
-7 5 -1 207.78 16.79
-7 5 -1 189.86 21.8
-7 -5 -1 193.03 21.77
-7 -5 -1 206.46 14.91
-7 5 0 548.79 30.01
-7 -5 0 543.46 37.33
-7 -5 0 511.49 28.6
-7 5 1 163.75 15.76
-7 5 1 209.23 21.56
-7 -5 1 169.78 19.99
-7 5 1 181.62 16.65
-7 -5 1 165.44 19.65
-7 -5 1 217.23 18.59
-7 5 2 320.07 23.37
-7 5 2 356.18 27.77
-7 -5 2 321.43 27.78
-7 5 2 334.69 24.38
-7 -5 2 329.2 27.85
-7 -5 2 321.95 24.93
-7 5 3 169.97 17.27
-7 -5 3 144.56 18.71
-7 5 3 178.37 19.07
-7 -5 3 140.89 17.84
-7 -5 3 181.18 19.37
-7 5 4 161.08 17.69
-7 -5 4 149.93 13.59
-7 5 4 162.99 17.67
-7 -5 4 150.21 19.39
-7 -5 4 165.1 19.19
-7 -5 4 175.63 19.9
-7 5 5 689.24 37.02
-7 -5 5 629.36 33.98
-7 5 5 582.57 38.02
-7 -5 5 675.71 42.76
-7 5 6 182.46 21.1
-7 -5 6 218.1 20.17
-7 -5 6 211.14 23.97
-7 5 7 240.58 25.21
-7 -5 7 263.66 23.74
-7 5 7 282.87 29.52
-7 -5 8 33.78 9.57
-7 5 8 47.95 12.47
-7 -5 8 28.34 10.11
-7 5 8 14.92 8.36
-7 -5 9 305.16 28.8
-7 7 -6 325.75 31.45
-7 -7 -6 273.62 29.38
-7 7 -6 291.68 29.83
-7 7 -6 305.29 31.34
-7 7 -5 159.67 21.03
-7 7 -5 184.74 19.62
-7 -7 -5 177.63 22.45
-7 7 -5 151.53 21.28
-7 7 -4 372.65 31.04
-7 7 -4 362.49 28.44
-7 -7 -4 391.6 33.88
-7 7 -4 419.42 34.88
-7 7 -3 349.84 28.06
-7 7 -3 345.92 31.16
-7 -7 -3 263.11 27.26
-7 7 -3 340.63 27.52
-7 7 -2 214.77 23.73
-7 -7 -2 228.51 24.46
-7 7 -2 149.72 18.39
-7 -7 -1 163.17 20.14
-7 7 -1 147.62 19.19
-7 -7 -1 145.36 19.18
-7 -7 0 582.86 39.73
-7 7 0 542.57 28.58
-7 -7 0 637.52 40.91
-7 -7 0 635.78 32.56
-7 7 1 144.64 18.29
-7 7 1 89.75 11.11
-7 -7 1 103.99 15.86
-7 -7 1 111.32 16.05
-7 -7 1 111.93 13.81
-7 7 2 463.56 28.33
-7 7 2 473.7 33.87
-7 -7 2 486.07 35.77
-7 -7 2 542.54 36.11
-7 -7 2 508.07 32.61
-7 7 3 265.4 23.6
-7 7 3 275.13 24.51
-7 -7 3 245.48 25.28
-7 -7 3 280.13 25.26
-7 -7 3 268.77 24.33
-7 7 4 502.1 34.6
-7 7 4 520.28 34.24
-7 -7 4 609.64 41.1
-7 -7 4 577.1 36.94
-7 7 4 584.65 34.2
-7 -7 4 546.57 37.53
-7 7 5 176.61 20.86
-7 7 5 186.32 18.91
-7 -7 5 214.88 24.3
-7 7 5 208.2 20.81
-7 -7 5 182.13 22.09
-7 7 6 142.99 19.5
-7 -7 6 182.96 18.24
-7 7 6 214.05 22.47
-7 -7 6 219.87 24.54
-7 -7 7 328.31 26.46
-7 7 7 335.47 30.87
-7 7 7 334.82 29.79
-7 -7 8 229.26 23.18
-7 7 8 206.44 24.71
-7 -7 8 227.76 27.25
-7 7 8 186.27 25.63
-7 9 -5 291.19 29.05
-7 9 -5 325.09 31.41
-7 9 -4 46.53 11.53
-7 9 -4 56.47 13.83
-7 -9 -4 32.43 10.72
-7 9 -4 38.97 9.14
-7 9 -3 370.18 32.5
-7 -9 -3 292.42 29.07
-7 9 -3 304.04 25.61
-7 -9 -3 334.24 30.96
-7 -9 -2 59.41 12.99
-7 9 -2 53.54 12.39
-7 9 -2 46.62 10.41
-7 -9 -2 49.53 12.04
-7 9 -1 133.44 19.38
-7 -9 -1 128.63 18.59
-7 -9 -1 153.79 20.13
-7 -9 0 480.08 36.09
-7 -9 0 456.77 34.6
-7 -9 0 443.26 27.64
-7 -9 1 395.4 32.87
-7 9 1 431.88 33.39
-7 -9 1 442.28 32.98
-7 -9 1 377.55 27.3
-7 -9 2 469.23 35.94
-7 9 2 493.94 35.28
-7 -9 2 490.65 34.38
-7 -9 2 418.31 30.78
-7 9 3 435.34 32.73
-7 -9 3 471.13 36.72
-7 9 3 556.34 36.67
-7 -9 3 549.93 35.58
-7 9 3 471.67 29.48
-7 -9 3 491.33 34.49
-7 9 4 156.77 19.47
-7 -9 4 152.64 20.42
-7 9 4 132.79 17.58
-7 9 4 161.21 17.69
-7 -9 4 131.41 18.28
-7 9 5 854.04 49.33
-7 -9 5 775.94 49.35
-7 9 5 837.29 44.49
-7 9 5 738.15 43.79
-7 -9 5 773.73 48.67
-7 9 6 133.58 19.4
-7 -9 6 172.02 22.88
-7 9 6 202.39 22.16
-7 -9 6 174 22.8
-7 9 7 344.85 32.55
-7 -9 7 375.57 33.89
-7 9 7 362.29 31.87
-7 11 -4 353.21 33.41
-7 -11 -3 182.9 23.6
-7 11 -3 161.62 22.41
-7 11 -2 219.87 25.24
-7 -11 -2 195.59 23.78
-7 -11 -2 210.54 24.33
-7 11 -2 195.85 20.36
-7 -11 -1 56.58 13.25
-7 11 -1 54.97 12.98
-7 -11 -1 45.88 11.51
-7 -11 0 159.72 20.93
-7 -11 0 171.96 21.06
-7 -11 1 111.04 17.69
-7 11 1 110.89 17.95
-7 -11 1 110.91 16.62
-7 -11 1 128.11 15.97
-7 -11 2 169.22 22.01
-7 11 2 149.54 20.06
-7 -11 2 177.37 19.63
-7 11 3 149.96 19.36
-7 -11 3 122.22 18.51
-7 -11 3 106.89 17.22
-7 -11 3 80.66 14.06
-7 11 4 458.68 36.2
-7 -11 4 452.28 36.99
-7 11 4 505.47 35.88
-7 -11 4 526.85 38.37
-7 11 4 487.04 32.66
-7 -11 4 537.39 38.63
-7 11 5 57.94 13.44
-7 -11 5 34.09 10.74
-7 11 5 48.14 10.73
-7 11 5 62.43 12.38
-7 -11 5 41.02 11.65
-7 11 6 314.06 30.74
-7 -11 6 336.21 31.82
-7 11 6 346.33 30.21
-7 -11 6 349.25 32.6
-7 11 7 57.92 13.46
-7 -13 -2 100.3 17.81
-7 13 -2 107.19 18.66
-7 -13 -1 299.37 30.01
-7 13 -1 321.45 31.5
-7 -13 0 37.14 10.83
-7 -13 1 423.55 37.1
-7 13 1 543.25 40.17
-7 -13 1 490.57 38.79
-7 -13 2 83.48 16.07
-7 13 2 117.29 18.49
-7 -13 2 90.74 16.92
-7 -13 2 108.93 16.08
-7 -13 3 394.35 34.41
-7 -13 3 460.26 36.21
-7 -13 3 386.91 34.71
-7 13 3 379.37 32.56
-7 -13 3 445.14 34.59
-7 -13 4 55.05 13.5
-7 13 4 51.15 11.99
-7 -13 4 44.28 12.13
-7 13 4 57.02 13.35
-7 -13 4 49.58 12.3
-7 13 5 213.04 22.88
-7 13 5 195.23 22.22
-7 -13 5 185.36 23.5
-6 0 -8 1138.37 63.17
-6 0 -8 1052 59.41
-6 0 -7 -2.42 5.35
-6 0 -7 7.64 5.62
-6 0 -6 701.79 44.54
-6 0 -6 678.62 42.06
-6 0 -6 637.04 41.96
-6 0 -6 685.9 43.45
-6 0 -5 -2 3.95
-6 0 -5 6.56 5.71
-6 0 -5 2.13 3.64
-6 0 -5 2.15 3.67
-6 0 -4 831.65 45.74
-6 0 -4 866.72 48
-6 0 -4 838.44 45.98
-6 0 -3 3.97 5.18
-6 0 -3 -1.71 2.38
-6 0 -3 -1.47 3.54
-6 0 -2 79.1 12.99
-6 0 -2 76.39 11.19
-6 0 -2 49.82 8.94
-6 0 -2 77.22 12.65
-6 0 -1 -0.33 1.25
-6 0 -1 -1.3 2.56
-6 0 -1 -1.41 3.41
-6 0 -1 -1.78 4.31
-6 0 -1 1.75 3.45
-6 0 -1 -0.86 1.89
-6 0 0 898.55 39.64
-6 0 0 909.24 43.46
-6 0 0 913.1 32.56
-6 0 0 966.69 40.45
-6 0 1 -1.58 4.12
-6 0 1 1.48 2.91
-6 0 1 -0.91 2.19
-6 0 1 -1.29 3.12
-6 0 2 1215.46 52.82
-6 0 2 1220.34 45.81
-6 0 2 1189.14 52.83
-6 0 3 1.36 3.01
-6 0 3 -1.09 2.63
-6 0 3 1.68 2.86
-6 0 4 2238.85 76.83
-6 0 4 2105.19 76.5
-6 0 4 2034 82.96
-6 0 5 5.42 3.21
-6 0 5 -1.51 3.34
-6 0 6 383.66 28.07
-6 0 6 362.83 30.26
-6 0 7 5.94 3.91
-6 0 7 -2.42 4.77
-6 0 8 347.56 29.72
-6 0 8 341.53 31.51
-6 0 9 2.47 4.22
-6 0 9 -2.74 3.82
-6 0 10 2.69 4.59
-6 0 10 2.83 6.25
-6 2 -8 8.25 7.18
-6 2 -8 5.39 5.32
-6 -2 -8 16.44 8.55
-6 -2 -8 2.38 4.07
-6 -2 -7 120.71 17.46
-6 -2 -7 105.29 17.39
-6 2 -7 110.54 17.77
-6 2 -7 76.72 15.16
-6 2 -7 105.83 16.74
-6 -2 -6 8.85 6.18
-6 2 -6 7.73 5.05
-6 -2 -6 7.11 5.23
-6 2 -6 -2.25 4.97
-6 2 -6 2.36 4.04
-6 -2 -5 463.02 34.36
-6 2 -5 460.39 34.05
-6 2 -5 476.94 33.24
-6 -2 -5 539.03 36.29
-6 2 -5 526.67 36.29
-6 -2 -4 109.65 15.21
-6 2 -4 134.6 16.76
-6 2 -4 102.74 14.4
-6 2 -4 101.22 15.25
-6 -2 -4 106.82 14.4
-6 -2 -4 104.12 15.92
-6 2 -4 83.7 14.27
-6 -2 -3 933.31 46.91
-6 2 -3 894.64 45.73
-6 2 -3 873.75 40.95
-6 2 -3 911.27 49.51
-6 -2 -3 904.16 45.55
-6 -2 -3 970.77 50.11
-6 -2 -3 878.2 47.56
-6 2 -3 938.77 47.38
-6 2 -2 59.9 9.24
-6 -2 -2 88.84 12.15
-6 -2 -2 71.01 12.12
-6 2 -2 78.65 11.21
-6 2 -2 68.56 12.03
-6 -2 -2 97.07 12.6
-6 -2 -2 66.7 11.42
-6 2 -2 59.56 10.82
-6 2 -1 1557.97 61.21
-6 -2 -1 1610.77 62.83
-6 -2 -1 1690.37 69.5
-6 -2 -1 1505.65 63.83
-6 2 -1 1518.8 60.66
-6 2 -1 1718.02 69.19
-6 -2 -1 1783.69 69.75
-6 2 -1 1541.18 56.44
-6 -2 -1 1518.95 54.23
-6 2 0 121.6 11.74
-6 2 0 108 9.57
-6 -2 0 97.55 12.77
-6 2 0 113.67 12.58
-6 -2 0 103.84 11.65
-6 -2 0 115.1 14.73
-6 -2 0 123.9 11.66
-6 2 0 103.73 11.38
-6 2 1 1544.88 63.11
-6 -2 1 1519.09 63.1
-6 2 1 1469.11 59.3
-6 2 1 1494.19 53.73
-6 -2 1 1443.11 47.31
-6 -2 1 1571.84 59.08
-6 -2 2 43.3 8.92
-6 2 2 60.43 9.85
-6 2 2 41.42 7.13
-6 -2 2 50.25 6.57
-6 -2 2 41.91 8.52
-6 -2 3 915.66 42.05
-6 2 3 914.68 42.27
-6 2 3 778.52 38.01
-6 -2 3 807.43 35.71
-6 -2 3 798.61 42.71
-6 2 3 928.27 45.63
-6 2 4 141.11 14.02
-6 -2 4 113.5 12.34
-6 2 4 109.53 13.06
-6 -2 4 99.03 14.1
-6 2 5 320.28 20.57
-6 -2 5 252.55 20.66
-6 2 5 267.58 22.34
-6 2 6 31.46 6.01
-6 -2 6 35.41 8.36
-6 2 6 36.66 8.72
-6 -2 6 41.98 10.93
-6 2 6 27.39 9.32
-6 -2 7 284.37 24.86
-6 2 7 280.3 25.15
-6 -2 7 279.61 27.05
-6 2 7 277.33 27.31
-6 2 8 4.59 5.55
-6 -2 8 2.18 4.82
-6 -2 8 12.8 6.68
-6 2 8 10.55 6.38
-6 -2 9 426.5 34.74
-6 2 9 499.72 37.86
-6 -2 9 423.77 36.06
-6 2 9 500.37 39.28
-6 2 10 8.22 6.05
-6 -2 10 5.27 6.38
-6 2 10 5.77 6.98
-6 4 -8 899.87 55.94
-6 -4 -8 875.11 54.36
-6 -4 -7 109.58 17.79
-6 4 -7 146.36 20.27
-6 4 -7 145.64 19.26
-6 4 -6 607.32 40.71
-6 4 -6 460.63 31.85
-6 4 -6 496.01 36.34
-6 -4 -6 518.76 38.48
-6 4 -6 501.27 37.98
-6 4 -5 155.75 19.2
-6 4 -5 150.13 17
-6 4 -5 160.26 19.35
-6 4 -5 138.93 19.07
-6 -4 -5 98.07 15.65
-6 4 -4 771.9 44.75
-6 -4 -4 907.01 48.81
-6 4 -4 805.17 43.47
-6 4 -4 767.15 46.28
-6 4 -4 835.5 47.57
-6 -4 -4 829.21 45.74
-6 -4 -4 839.77 46.61
-6 4 -3 29.29 7.85
-6 -4 -3 38.53 9.85
-6 -4 -3 31.04 8.11
-6 4 -3 36.91 9.54
-6 4 -3 46.23 7.56
-6 -4 -3 46.07 9.84
-6 4 -3 34.98 8.33
-6 4 -2 147.34 15.59
-6 4 -2 147.94 13.22
-6 -4 -2 150.97 16.53
-6 4 -2 171.42 18.77
-6 -4 -2 150.74 17.73
-6 4 -2 165.41 17.38
-6 4 -1 76.31 10.66
-6 -4 -1 87.97 12.14
-6 4 -1 76.01 9.58
-6 4 -1 90.74 13.59
-6 -4 -1 96.16 13.94
-6 -4 -1 77.9 8.46
-6 4 0 512.03 26.92
-6 4 0 509.84 27.69
-6 -4 0 535.06 33.76
-6 -4 0 489.74 26.67
-6 4 1 112.26 12.27
-6 -4 1 88.28 12.88
-6 4 1 116.43 14.41
-6 -4 1 106.01 14.43
-6 -4 1 132.81 13.64
-6 -4 2 701.12 34.18
-6 -4 2 698.62 39.87
-6 4 2 765.55 39.08
-6 4 2 618.96 33.65
-6 -4 2 681.22 36.55
-6 4 3 93.13 12.45
-6 -4 3 68.88 8.34
-6 4 3 91.23 11.76
-6 -4 3 69.55 11.38
-6 4 4 1980.63 76.01
-6 -4 4 1984.75 70.12
-6 4 4 2035.24 74.08
-6 4 4 1890.35 73.71
-6 -4 4 1964.07 79.24
-6 -4 5 54.43 9.55
-6 4 5 61.46 11.06
-6 4 5 53.66 8.91
-6 4 5 58.74 11.01
-6 -4 6 791.78 41.81
-6 4 6 786.25 44.49
-6 4 6 796.66 35.9
-6 4 6 757.83 44.25
-6 -4 6 820.9 47.61
-6 4 7 82.39 14.32
-6 -4 7 72.05 12.56
-6 4 7 98.75 16.5
-6 -4 7 60.33 12.75
-6 4 8 662.72 43.32
-6 -4 8 635.48 41.07
-6 4 8 654.71 45.3
-6 -4 8 604.61 43.41
-6 4 9 44.23 11.82
-6 -4 9 28.7 9.21
-6 4 9 74.37 15.24
-6 -4 9 60.56 13.63
-6 -4 10 41.71 11.57
-6 4 10 47.51 12.39
-6 -4 10 45.96 13.65
-6 4 10 70.51 16.45
-6 -6 -7 24.05 8.8
-6 6 -7 40.44 11.32
-6 6 -6 1.62 3.57
-6 6 -6 11.73 7.32
-6 6 -6 2.62 4.48
-6 6 -6 2.5 4.27
-6 -6 -6 2.51 3.5
-6 6 -5 217.02 23.32
-6 6 -5 201.98 19.29
-6 -6 -5 218.26 23.71
-6 -6 -5 255.7 25.32
-6 6 -5 189.69 22.1
-6 6 -5 213.14 23.84
-6 6 -4 258.9 24.36
-6 6 -4 242.79 21.35
-6 -6 -4 285.56 26.39
-6 6 -4 291.05 26.54
-6 -6 -4 238.1 23.89
-6 6 -4 271.85 26.01
-6 6 -3 684.94 39.65
-6 6 -3 628.58 37.18
-6 -6 -3 707.38 42.41
-6 6 -3 725.64 42.98
-6 6 -3 717.77 43.02
-6 -6 -3 662.42 40.48
-6 6 -2 167.26 17.17
-6 -6 -2 160.28 17.75
-6 6 -2 141.08 11.78
-6 6 -2 182.33 19.94
-6 -6 -2 169.69 19.03
-6 6 -2 186.89 18.46
-6 -6 -2 177.59 19.57
-6 6 -1 1508.91 58.97
-6 6 -1 1596.14 67.16
-6 -6 -1 1434.47 64.2
-6 6 -1 1431.58 51.75
-6 -6 -1 1399.76 64.44
-6 -6 -1 1374.01 51.95
-6 6 0 322.56 25.86
-6 6 0 316.75 19.41
-6 -6 0 301.14 25.13
-6 -6 0 298.99 24.77
-6 -6 0 287.66 20
-6 6 1 1196.61 48.56
-6 6 1 1147.11 55.19
-6 -6 1 1343.92 59.41
-6 -6 1 1289.69 57.42
-6 6 1 1222.67 44.99
-6 -6 1 1211.63 51.88
-6 -6 2 20.87 7.02
-6 6 2 13.48 6.01
-6 -6 2 17.67 6.01
-6 -6 2 20.69 6.82
-6 6 2 14.11 4.44
-6 -6 2 23.26 6.86
-6 -6 3 194.57 13.79
-6 6 3 163.97 17.34
-6 -6 3 205.09 18.38
-6 6 3 200.96 18.81
-6 -6 3 195.94 20.32
-6 -6 3 197.89 19.07
-6 6 3 172.68 16.01
-6 -6 3 189.7 18.91
-6 6 4 82.12 12.7
-6 -6 4 127.67 12.33
-6 -6 4 92.46 12.78
-6 6 4 100.18 12.87
-6 -6 4 95.51 13.26
-6 6 4 104.98 13.55
-6 -6 4 96.41 14.35
-6 6 5 26.76 8.26
-6 -6 5 27.43 6.81
-6 6 5 32.99 7.47
-6 6 5 36.13 8.58
-6 -6 6 1.63 3.21
-6 6 6 4.21 5.08
-6 6 6 6.12 3.62
-6 6 6 4.09 4.04
-6 -6 6 4.61 5.09
-6 -6 7 593.67 36.72
-6 6 7 511.89 37.18
-6 6 7 617.26 40.96
-6 -6 7 545.64 40.02
-6 6 8 97.52 16.61
-6 -6 8 93.97 15.31
-6 6 8 133.54 19.46
-6 -6 8 119.95 18.62
-6 6 8 111.37 18.64
-6 -6 9 474.54 36.54
-6 6 9 518.9 40
-6 -6 9 485.77 39.39
-6 6 9 475.56 40.05
-6 -8 -7 143.61 21.27
-6 8 -7 148.95 21.67
-6 8 -7 144.94 21.46
-6 8 -6 470.98 37.23
-6 -8 -6 444.98 36.72
-6 8 -6 487.79 37.07
-6 8 -6 460.08 37.64
-6 8 -5 374.08 31.39
-6 8 -5 346.91 24.87
-6 8 -5 347.41 30.64
-6 8 -5 352.28 31.69
-6 8 -4 624.86 40.1
-6 -8 -4 596.44 41.17
-6 8 -4 615.46 34.97
-6 8 -4 697.82 43.71
-6 8 -4 602.77 41.21
-6 8 -3 193.08 20.36
-6 8 -3 205.08 22.35
-6 -8 -3 197.66 21.82
-6 8 -3 218.76 22.9
-6 -8 -3 219.32 23.18
-6 8 -3 232.97 20.49
-6 8 -2 219.48 22.7
-6 -8 -2 211.7 22.44
-6 -8 -2 232.46 23.09
-6 8 -1 100.12 12.64
-6 8 -1 143.26 17.49
-6 -8 -1 112.17 15.59
-6 -8 -1 99.94 14.77
-6 -8 -1 107.46 11.27
-6 8 0 108.08 15.27
-6 8 0 115.24 9.89
-6 -8 0 94.51 14.68
-6 -8 0 87.34 13.51
-6 -8 0 94.28 11.62
-6 -8 1 149.61 17
-6 -8 1 177.54 19.58
-6 -8 1 158.76 18.98
-6 8 1 145.19 12.33
-6 -8 1 157.4 17.63
-6 8 1 132.95 12.09
-6 -8 1 131.38 14.7
-6 -8 2 231.72 22.93
-6 -8 2 320.18 24.93
-6 8 2 302.63 24.88
-6 -8 2 306.13 26.39
-6 -8 2 262.98 22.64
-6 8 2 259.09 19.17
-6 -8 2 286.42 23.08
-6 -8 3 234.09 21.92
-6 -8 3 186.31 20.64
-6 -8 3 196.6 19.32
-6 8 3 190.02 19.21
-6 8 3 205.53 18.03
-6 -8 3 182.19 18.46
-6 -8 3 168.4 18.68
-6 8 4 1021.45 51.72
-6 8 4 926.25 47.09
-6 -8 4 984.5 52.54
-6 -8 4 978.77 49.29
-6 -8 4 1040.35 50.83
-6 8 4 974.88 47.84
-6 -8 4 956.82 46.93
-6 -8 4 981.69 51.68
-6 8 5 369.95 29.89
-6 8 5 375.78 28.95
-6 -8 5 354.74 27.74
-6 8 5 413.08 27.31
-6 8 6 893.31 50.92
-6 -8 6 869.92 44.87
-6 8 6 992.68 44.27
-6 8 6 908.2 50.51
-6 -8 7 342.9 27.64
-6 8 7 419.34 33.55
-6 8 7 345.25 30.56
-6 -8 7 359.12 32.22
-6 -8 8 593.06 39.54
-6 8 8 599.43 43.13
-6 -8 8 674.45 46.11
-6 -8 9 61.58 13.34
-6 8 9 72.92 15.51
-6 8 9 74.87 16.81
-6 -8 9 71.76 15.09
-6 10 -6 9.99 6.53
-6 10 -6 11.07 7.73
-6 10 -6 18.72 8.35
-6 10 -5 269.32 27.42
-6 10 -5 244.51 26.4
-6 10 -4 281.82 27.24
-6 10 -4 283.55 27.49
-6 10 -4 242.01 20.3
-6 10 -3 514.44 38.19
-6 10 -3 564.75 38.91
-6 -10 -3 616.14 41.28
-6 -10 -3 649.11 42.04
-6 10 -3 593.06 33.75
-6 10 -3 529.13 31.38
-6 10 -2 270.51 25.97
-6 -10 -2 260.99 25.82
-6 -10 -2 251.58 24.67
-6 10 -2 210.48 19.59
-6 -10 -1 939.82 51.83
-6 10 -1 927.97 51.46
-6 -10 -1 840.29 48.17
-6 10 -1 948.77 46.8
-6 -10 0 306.9 28.07
-6 -10 0 330.28 28.26
-6 10 0 364.04 29.47
-6 -10 0 338.71 27.22
-6 -10 0 310.83 22.76
-6 10 0 324.89 26.01
-6 -10 1 738.2 44.91
-6 -10 1 760 43.67
-6 -10 1 700.94 43.06
-6 -10 1 708.29 40.7
-6 10 1 726.89 33.93
-6 10 1 660.97 40.95
-6 -10 1 730.47 39.2
-6 10 2 134.54 17.35
-6 -10 2 153.01 18.89
-6 -10 2 167.63 19.9
-6 -10 2 192.82 20.66
-6 -10 2 178.36 18.34
-6 10 2 159.98 15.48
-6 -10 2 160.89 17.98
-6 -10 3 110.44 16.47
-6 10 3 144.76 17.51
-6 -10 3 159.35 19.22
-6 -10 3 115.92 16.67
-6 10 3 140.32 15.64
-6 -10 3 143.78 17.86
-6 -10 4 62.28 12.54
-6 -10 4 64.69 12.72
-6 10 4 57.64 11.25
-6 -10 4 55.92 11.65
-6 10 4 43.32 9.7
-6 -10 4 54.44 11.66
-6 10 5 39.05 10.26
-6 -10 5 64.19 12.77
-6 -10 5 78.29 14.46
-6 -10 5 51.21 11.64
-6 10 5 71.57 11.91
-6 10 5 73.31 12.96
-6 -10 5 73.14 13.86
-6 10 6 29.4 10.01
-6 10 6 33.59 8.1
-6 -10 6 46.34 11.35
-6 -10 6 45.26 11.06
-6 10 6 29.42 9.52
-6 10 7 273.64 28.04
-6 -10 7 310.13 30.11
-6 10 8 482.94 38.62
-6 -10 8 420.39 36.81
-6 12 -5 297.4 29.98
-6 12 -5 344.01 31.73
-6 12 -4 277.61 28.07
-6 12 -4 256.37 26.44
-6 12 -3 289.29 28.64
-6 -12 -3 298.65 29.24
-6 12 -3 312.54 24.57
-6 12 -2 52.34 12.08
-6 -12 -2 29.31 9.37
-6 12 -2 29.3 8.13
-6 -12 -1 54.09 12.42
-6 12 -1 75.59 14.76
-6 -12 -1 68.4 14.04
-6 -12 -1 85.84 14.17
-6 12 -1 87.94 14.03
-6 -12 0 157.12 20.69
-6 12 0 119.22 17.58
-6 -12 0 121.95 17.58
-6 -12 0 108.44 15.68
-6 12 0 122.08 16.77
-6 -12 1 92.75 16.54
-6 -12 1 99.18 15.99
-6 -12 1 93.21 15.28
-6 12 1 104.63 12.17
-6 -12 1 95.66 14.46
-6 -12 1 117.56 15.14
-6 12 1 104.77 15.9
-6 12 2 267.57 25.55
-6 -12 2 292.22 26.87
-6 -12 2 215.86 24.43
-6 -12 2 267.7 25.98
-6 12 2 227.99 20
-6 12 2 257.01 25.34
-6 -12 2 248.03 23.41
-6 -12 3 418.14 32.71
-6 -12 3 358.56 31.05
-6 12 3 368.66 30.16
-6 -12 3 419.25 33.38
-6 12 3 367.91 27.44
-6 -12 3 372.34 30.33
-6 -12 4 229.18 24.19
-6 -12 4 235.51 24.7
-6 12 4 267.61 24.73
-6 -12 4 230.6 24.32
-6 12 4 211.31 21.93
-6 -12 4 244.66 25.2
-6 12 5 498.16 37.75
-6 -12 5 466.88 35.1
-6 12 5 507.04 34.37
-6 -12 5 461.46 35.47
-6 -12 5 563.06 39.5
-6 12 5 448.29 34.37
-6 -12 5 495.75 37.68
-6 -12 6 194.94 23.09
-6 12 6 191.49 19.94
-6 -12 6 183.01 22.81
-6 12 6 215.38 23.8
-6 -12 7 292.59 28.41
-6 12 7 293.4 29.45
-6 -12 7 306.37 31.1
-6 14 -4 330.89 31.82
-6 14 -3 278.57 28.51
-6 14 -3 176 19.84
-6 -14 -2 630.76 43.52
-6 14 -2 586.22 42.88
-6 14 -2 575.3 38.14
-6 -14 -1 215.58 25.67
-6 -14 -1 241.93 25.8
-6 14 -1 237.79 26.1
-6 14 -1 224.24 23.62
-6 14 0 443.38 36.75
-6 -14 0 539.67 38.9
-6 -14 0 547.61 41
-6 14 0 533.87 38.12
-6 -14 1 136.39 19.97
-6 -14 1 149.86 19.94
-6 -14 1 148.82 20.77
-6 14 1 108.65 17.03
-6 -14 2 286.13 28.86
-6 -14 2 291.44 28.84
-6 14 2 281.12 27.98
-6 -14 2 303.9 28.29
-6 14 2 279.81 23.15
-6 14 2 264.35 27.42
-6 -14 3 86.99 15.36
-6 -14 3 103.59 17.46
-6 -14 3 77.65 15.05
-6 14 3 75.97 12.89
-6 -14 3 80.99 14.6
-6 -14 4 52.33 12.73
-6 -14 4 66.01 13.44
-6 14 4 50.32 11.81
-6 -14 4 71.11 14.03
-6 14 4 56.99 12.05
-6 -14 4 44.66 11.83
-6 14 5 264.09 25.11
-6 -14 5 275.68 27.02
-6 -14 5 178.4 22.57
-6 -14 5 237.06 26.85
-6 14 5 227.09 24.43
-6 -14 5 248.03 26.99
-6 -14 6 51.47 12.63
-6 14 6 67.89 14.75
-6 16 -3 88.17 14.73
-6 16 -2 36.78 9.93
-6 -16 -1 28.68 9.99
-6 -16 -1 23.23 9.95
-6 16 -1 25.41 10.07
-6 16 -1 33.95 9.89
-6 -16 0 106.61 18.85
-6 -16 0 125.71 18.77
-6 16 0 105.89 18.45
-6 16 0 96.35 17.01
-6 -16 1 97.36 17.64
-6 -16 1 137.02 19.21
-6 16 1 90.24 17.08
-6 16 1 110.66 18.41
-6 -16 2 124.74 20.14
-6 -16 2 76.98 14.86
-6 -16 2 112.65 19.22
-6 16 2 103.67 17.84
-6 16 3 306.29 27.07
-6 -16 3 317.69 31.74
-6 -16 3 397.41 35.13
-6 16 4 125.85 18.17
-5 -1 -10 37.08 10.95
-5 -1 -9 417.07 35.22
-5 1 -9 415.58 35.42
-5 -1 -9 325.8 30.24
-5 1 -9 392.39 33.7
-5 -1 -8 56.07 12.27
-5 -1 -8 87.47 15.9
-5 1 -8 81.49 15.26
-5 1 -8 83.25 15.26
-5 1 -7 171.91 20.76
-5 -1 -7 186.67 21.59
-5 1 -7 164.51 18.9
-5 -1 -7 169.18 19.98
-5 1 -7 200.23 22
-5 1 -6 499.6 35.61
-5 -1 -6 574.55 37.51
-5 -1 -6 578.91 35.89
-5 1 -6 500.95 32.83
-5 -1 -6 560.18 35.69
-5 -1 -6 502.47 34.26
-5 1 -6 530.08 34.55
-5 1 -6 555.32 36.55
-5 1 -5 417.3 30.32
-5 -1 -5 448.48 31.5
-5 -1 -5 414.62 29.34
-5 1 -5 432.04 28.98
-5 -1 -5 426.11 29.87
-5 -1 -5 429.02 30.5
-5 1 -5 472.83 31.57
-5 1 -4 1359.79 58.86
-5 -1 -4 1324.97 58.76
-5 -1 -4 1382.37 60.26
-5 -1 -4 1218.47 54.25
-5 1 -4 1431.08 60.46
-5 -1 -4 1305.36 57.71
-5 1 -4 1380.06 60.11
-5 1 -4 1261.38 56.22
-5 1 -3 58.41 5.49
-5 -1 -3 71.21 10.74
-5 1 -3 72.21 11.16
-5 1 -3 44.07 8.92
-5 1 -3 59.5 8.48
-5 -1 -3 57.32 10.31
-5 -1 -3 53.62 8.95
-5 1 -3 47.46 9.37
-5 1 -3 50.2 8.96
-5 1 -3 46.19 3.49
-5 1 -2 605.74 23.57
-5 1 -2 634.91 33.14
-5 -1 -2 657.88 33.81
-5 -1 -2 696.01 34.33
-5 1 -2 623.11 31.1
-5 1 -2 684.31 36.48
-5 -1 -2 679.28 36.62
-5 -1 -2 659.64 35.54
-5 1 -2 687.43 25.8
-5 -1 -2 647.04 24.07
-5 -1 -1 725.55 24.14
-5 -1 -1 830.71 24.61
-5 -1 -1 845.08 37.28
-5 1 -1 965.36 38.75
-5 1 -1 975.46 43.25
-5 -1 -1 973.03 43.17
-5 -1 -1 825.62 38.08
-5 1 -1 822.06 36.67
-5 -1 -1 936.13 42.13
-5 -1 0 314.45 22.47
-5 1 0 309.96 20.56
-5 -1 0 335.45 19.85
-5 1 0 345.83 23.38
-5 -1 0 328.94 14.35
-5 1 0 366.34 20.1
-5 -1 0 339.92 19.49
-5 -1 1 730.56 31.05
-5 -1 1 778.09 28.75
-5 1 1 714.03 29.75
-5 -1 1 764.6 34.67
-5 -1 2 23.18 5.66
-5 1 2 30.48 6.28
-5 1 2 35.56 4.48
-5 -1 2 32.94 5.19
-5 1 2 37.04 6.09
-5 -1 2 30 6.58
-5 -1 3 2164.65 73.75
-5 -1 3 2155.57 68.49
-5 1 3 2178.53 74.38
-5 -1 3 2062.67 71.37
-5 1 3 2135.28 73.64
-5 1 4 376.29 21.53
-5 -1 4 364.73 19.71
-5 -1 4 381.18 21.45
-5 1 4 350.93 23.08
-5 -1 4 374.63 23.06
-5 1 4 414.17 27.7
-5 -1 4 407.08 27.38
-5 1 5 595.27 28.14
-5 1 5 601.47 33.8
-5 -1 5 629.78 33.96
-5 -1 5 687.44 38.93
-5 1 5 705.53 39.23
-5 1 6 648.78 26.15
-5 1 6 594.62 35.56
-5 -1 6 613.14 35.63
-5 1 6 631.73 39.4
-5 -1 6 594.56 38.23
-5 1 7 555.44 35.2
-5 -1 7 511.23 33.94
-5 -1 7 465 35.09
-5 1 7 592.62 38.69
-5 -1 8 571.51 37.59
-5 -1 8 537.75 38.09
-5 1 8 499.97 37.45
-5 -1 9 75.87 14.13
-5 1 9 102.36 16.6
-5 -1 10 98.49 17.35
-5 1 10 99.36 17.3
-5 1 11 145.25 21.69
-5 1 11 125.99 19.76
-5 -1 11 142.21 20.98
-5 -3 -10 45.15 10.97
-5 3 -9 519.11 40.32
-5 3 -9 539.99 40.78
-5 -3 -9 514.27 36.58
-5 3 -8 481.69 37.58
-5 -3 -8 433.25 35.46
-5 3 -8 434.18 35.54
-5 -3 -8 430.2 32.54
-5 -3 -7 400.93 32.57
-5 3 -7 384.87 32.63
-5 -3 -7 476.5 32.42
-5 3 -7 412.78 30.64
-5 3 -6 809.43 46.65
-5 -3 -6 801 46.01
-5 3 -6 730.32 39.6
-5 3 -6 799.2 44.28
-5 -3 -6 786 43.5
-5 3 -6 810.35 46.59
-5 3 -5 87.99 12.03
-5 -3 -5 88.77 13.03
-5 -3 -5 96.37 14.18
-5 3 -5 108.8 14.64
-5 3 -5 87.88 13.7
-5 3 -5 91.39 14.07
-5 3 -4 1555.75 63.89
-5 -3 -4 1432.22 62.47
-5 3 -4 1361.31 58.3
-5 -3 -4 1572.74 64.63
-5 3 -4 1433.63 62.71
-5 3 -4 1460.6 63.78
-5 -3 -4 1351.25 59.79
-5 -3 -3 258.06 21.19
-5 3 -3 248.47 20.6
-5 -3 -3 232.74 19.94
-5 3 -3 253.56 17.18
-5 3 -3 342.19 24.93
-5 -3 -3 285.99 23.37
-5 3 -3 260.76 22.08
-5 3 -3 257.36 20.46
-5 -3 -3 261.96 21.85
-5 3 -2 798.98 38.48
-5 -3 -2 820.01 41.59
-5 3 -2 778.58 33.9
-5 3 -2 902.9 42.81
-5 3 -2 853.14 42.01
-5 -3 -2 877.63 40.43
-5 3 -2 812.09 39.74
-5 -3 -2 863.66 42.13
-5 -3 -2 716.89 27.8
-5 3 -1 1140.87 46.95
-5 3 -1 1110.27 44.58
-5 3 -1 1250.83 52.79
-5 -3 -1 1190.47 48.8
-5 -3 -1 1214.67 52.89
-5 -3 -1 1215.23 52.33
-5 3 0 643.11 29.07
-5 -3 0 529.04 31.89
-5 -3 0 642.6 30.63
-5 -3 0 595.86 33
-5 3 0 588.03 28.7
-5 3 0 690.17 34.83
-5 -3 0 629.29 34.05
-5 -3 0 601.42 28.17
-5 -3 1 972.56 44.52
-5 -3 1 1024.41 41.14
-5 -3 1 1058.04 46.72
-5 -3 1 997.48 33.68
-5 3 1 1000.73 37.17
-5 -3 1 1011.22 42.31
-5 -3 2 149.16 12.78
-5 -3 2 153.24 14.51
-5 3 2 135.31 13.57
-5 -3 2 161.2 10.44
-5 3 2 172.53 11.33
-5 3 2 163.86 13.03
-5 -3 2 137.32 13.71
-5 -3 3 1483.82 52.45
-5 3 3 1362.1 55.24
-5 3 3 1487.03 55.82
-5 -3 3 1420.17 47.18
-5 3 3 1472.45 46.46
-5 -3 3 1472.33 53.68
-5 3 3 1370.6 54.52
-5 -3 4 605.24 30.66
-5 3 4 635.68 33.77
-5 -3 4 604.54 29.87
-5 3 4 688.67 31.52
-5 3 4 615.83 21.99
-5 -3 4 631.26 25.77
-5 3 4 629.26 33.46
-5 3 5 522.15 31.51
-5 -3 5 535.14 30.2
-5 -3 5 473.69 26.82
-5 3 5 530.78 26.08
-5 3 5 466.24 30.55
-5 -3 5 575.68 34.77
-5 3 6 675.91 38.53
-5 -3 6 673.65 37.37
-5 -3 6 667.69 33.66
-5 3 6 614.76 28.07
-5 3 6 671.52 38.79
-5 -3 7 99.82 14.05
-5 -3 7 117.63 16.58
-5 3 7 108.55 16.16
-5 -3 8 1138.67 56.54
-5 -3 8 1051.87 57.02
-5 3 8 1090.49 58.93
-5 -3 9 110.61 17.07
-5 -3 9 79.42 14.88
-5 3 9 89.39 16.11
-5 -3 10 420.18 35.1
-5 3 10 364.17 33.32
-5 -3 10 438.12 36.12
-5 3 10 462.04 37.37
-5 -3 11 190.95 24.59
-5 -3 11 192.74 24.56
-5 3 11 245.88 27.09
-5 5 -9 482.4 39.65
-5 -5 -9 491.08 33.9
-5 -5 -8 10.25 6.69
-5 5 -8 16.01 7.89
-5 -5 -8 1.88 3.71
-5 5 -8 -2.67 3.72
-5 5 -7 128.87 18.65
-5 -5 -7 103.02 14.37
-5 5 -7 92.22 14.64
-5 5 -7 103.83 17.28
-5 -5 -7 90.76 15.85
-5 5 -6 316.53 27.96
-5 5 -6 281.68 21.55
-5 5 -6 290.79 25.51
-5 5 -6 321.6 28.37
-5 -5 -6 297.13 26.76
-5 5 -5 535.87 35.51
-5 5 -5 523.64 30
-5 -5 -5 454.44 32.98
-5 5 -5 542.9 34.41
-5 -5 -5 454.3 33.27
-5 5 -5 493.61 34.9
-5 5 -4 456.52 31.27
-5 -5 -4 514.16 33.73
-5 5 -4 485.3 28.85
-5 -5 -4 505.78 32.85
-5 5 -4 499.1 32.77
-5 5 -4 457.68 32.4
-5 5 -3 217.09 19.73
-5 -5 -3 244.27 21.17
-5 5 -3 255.79 22.14
-5 5 -3 277.04 23.04
-5 -5 -3 245.32 21.89
-5 5 -3 227.5 18.72
-5 5 -2 406.24 28.01
-5 -5 -2 423.74 27.1
-5 5 -2 383.92 19.78
-5 -5 -2 404.26 27.18
-5 5 -2 399.21 27.88
-5 -5 -2 390.26 27.47
-5 5 -1 963.63 41.59
-5 5 -1 958.45 36.83
-5 -5 -1 989.17 45.83
-5 -5 -1 910.92 43.11
-5 5 -1 941.11 46
-5 -5 -1 976.41 46.06
-5 -5 -1 927.52 36.66
-5 5 0 557.49 27
-5 5 0 542.21 31.66
-5 -5 0 550.3 32.1
-5 5 0 482.82 24.54
-5 -5 0 608.32 33.18
-5 5 0 524.44 21.73
-5 -5 0 502.98 26.17
-5 5 1 321.34 17.87
-5 -5 1 324.43 23.95
-5 -5 1 335.84 23.93
-5 -5 1 350.63 22.67
-5 5 1 341.05 18.55
-5 -5 1 368.41 24.57
-5 -5 1 342.27 21.7
-5 -5 2 62.48 9.73
-5 -5 2 60.99 9.99
-5 5 2 58.55 9.14
-5 -5 2 57.77 8.79
-5 -5 2 71.89 10.32
-5 5 2 57.57 7.87
-5 -5 2 63.16 9.67
-5 -5 3 1279.67 47.23
-5 -5 3 1315.05 53.92
-5 5 3 1258.85 51.76
-5 -5 3 1286.61 52.11
-5 5 3 1296.68 51.74
-5 -5 3 1220.77 54.32
-5 5 4 161.13 16.27
-5 -5 4 149.04 13.44
-5 5 4 155.18 14.19
-5 -5 4 144.46 14.29
-5 -5 4 135.25 14
-5 5 4 104.02 12.86
-5 5 5 340.74 25.85
-5 -5 5 352.71 23.83
-5 -5 5 394.76 25.37
-5 5 5 401.74 22.92
-5 -5 5 353.31 23.22
-5 5 5 368.09 26.6
-5 -5 5 414.06 29.32
-5 -5 6 679.2 37.59
-5 -5 6 692.97 36.84
-5 5 6 650.44 30.44
-5 5 6 699.27 40.54
-5 -5 6 661.84 40.8
-5 5 7 360.13 18.79
-5 -5 7 376.45 26.75
-5 -5 7 348.17 27.52
-5 -5 7 421.36 32.69
-5 -5 8 409.8 31.9
-5 5 8 438.46 34.26
-5 5 8 446.11 35.35
-5 -5 8 472.38 35.45
-5 5 9 22.73 8.99
-5 -5 9 4.73 5.24
-5 5 9 25.97 9.93
-5 -5 9 35.7 11.26
-5 5 9 31.44 10.35
-5 5 10 153.35 21.63
-5 -5 10 124.87 19.43
-5 5 10 162.56 22.46
-5 5 10 172.9 23.3
-5 -5 10 147.35 21.18
-5 7 -8 281.45 29.25
-5 -7 -8 282.4 28.14
-5 7 -8 192 24.31
-5 -7 -7 388.17 32.28
-5 7 -7 327.24 30.62
-5 -7 -7 309.09 29.19
-5 7 -7 342.08 31.31
-5 7 -6 217.66 22.36
-5 -7 -6 218.67 23.53
-5 7 -6 222.52 23.94
-5 7 -6 218.65 17.67
-5 7 -5 13.79 6.46
-5 -7 -5 21.26 7.27
-5 7 -5 19.74 7.5
-5 7 -5 8.92 3.79
-5 7 -4 472.77 32.97
-5 -7 -4 533.12 35.07
-5 -7 -4 473.86 32.9
-5 7 -4 489.77 34.07
-5 7 -4 473.13 27.99
-5 -7 -4 485.5 34.4
-5 7 -4 484.63 24.22
-5 7 -3 90.52 13.32
-5 -7 -3 76.44 12.37
-5 7 -3 74.99 12.43
-5 -7 -3 102.53 14.03
-5 -7 -3 72.82 12.28
-5 7 -3 95.64 11.69
-5 7 -3 80.58 9.53
-5 7 -2 852.98 43.58
-5 -7 -2 758.57 41.28
-5 7 -2 757.99 27.98
-5 7 -2 746.14 41.12
-5 -7 -2 811.7 42.87
-5 7 -2 753.47 35.59
-5 -7 -1 317.42 24.37
-5 7 -1 370.08 26.31
-5 -7 -1 374.77 27.06
-5 7 -1 295.92 14.14
-5 -7 -1 354.51 25.47
-5 7 -1 296.94 21.24
-5 -7 -1 370.74 20.27
-5 -7 0 1567.56 65.06
-5 7 0 1577.85 65.1
-5 -7 0 1631.29 66.9
-5 -7 0 1648.25 64.29
-5 -7 0 1607.6 64.08
-5 -7 0 1492.76 57.57
-5 7 0 1470.1 60.9
-5 -7 1 193.84 17.88
-5 -7 1 198.35 19.04
-5 -7 1 212.07 19.49
-5 -7 1 179.43 16.93
-5 7 1 199.77 14.49
-5 -7 1 225.46 17.84
-5 7 1 214.04 18.48
-5 -7 2 830.91 43.61
-5 -7 2 850.72 42.08
-5 -7 2 905.45 44.96
-5 7 2 897.72 43.21
-5 -7 2 916.27 42.36
-5 7 2 846.9 38.16
-5 -7 2 880.32 42.37
-5 7 3 319.82 22.96
-5 -7 3 305.95 23.43
-5 -7 3 311.78 24.38
-5 -7 3 319.67 23.44
-5 7 3 288.93 21.2
-5 -7 3 299.58 21.61
-5 -7 3 291.83 23.16
-5 -7 4 569.03 29.9
-5 -7 4 603.63 34.26
-5 -7 4 566.09 33.86
-5 7 4 572.34 32.02
-5 7 4 639.29 35.09
-5 -7 4 646.98 32.9
-5 -7 5 461.51 27.81
-5 -7 5 421.8 28.72
-5 -7 5 467.82 28.81
-5 7 5 449.01 26.47
-5 7 5 411.14 29.68
-5 -7 5 465.39 32.65
-5 -7 6 357.47 25.98
-5 -7 6 328.55 25.88
-5 7 6 351.49 21.89
-5 7 6 341.71 27.87
-5 -7 6 343.84 28.99
-5 -7 7 64.14 12.31
-5 7 7 68.98 13.09
-5 -7 7 80.19 12.98
-5 7 7 51.08 7.69
-5 7 7 53.34 11.71
-5 -7 7 76.37 14.53
-5 -7 8 555.87 36.98
-5 7 8 632.06 42.21
-5 -7 8 578.44 38.66
-5 -7 8 593.31 41.43
-5 -7 9 124.42 18.22
-5 -7 9 84.14 15.89
-5 7 9 86.28 16.07
-5 7 10 353.99 33.62
-5 -7 10 359.79 32.88
-5 7 10 400.43 36.23
-5 -7 10 422.87 36.02
-5 7 10 397.8 35.63
-5 9 -8 20.06 8.49
-5 9 -8 14.24 7.45
-5 -9 -8 19.38 9.47
-5 9 -7 201.52 24.9
-5 -9 -7 271.72 27.96
-5 9 -6 336.65 28.34
-5 9 -6 300.92 28.98
-5 9 -5 430.54 32.48
-5 9 -5 439.2 33.91
-5 9 -5 466.28 25.72
-5 9 -5 443.82 24.3
-5 9 -4 263.09 24.44
-5 9 -4 241.06 24.2
-5 9 -4 277.39 19.51
-5 9 -4 257.75 19.01
-5 9 -3 414.94 30.67
-5 -9 -3 439.72 31.61
-5 9 -3 441.16 31.06
-5 -9 -3 390.26 29.93
-5 9 -3 417.03 25.34
-5 9 -3 361.77 24.11
-5 9 -2 167.45 18.48
-5 -9 -2 143.29 16.94
-5 9 -2 146.6 16.66
-5 -9 -2 148.89 17.9
-5 -9 -2 142.61 16.95
-5 9 -2 134.46 8.16
-5 9 -2 136.51 14.54
-5 -9 -1 1374.73 62.19
-5 -9 -1 1308.63 60.01
-5 9 -1 1351.35 61.5
-5 -9 -1 1367.43 59.82
-5 9 -1 1316.62 56.28
-5 -9 0 238.07 22.11
-5 -9 0 234.83 21.35
-5 9 0 238.66 21.68
-5 -9 0 249.29 22.01
-5 9 0 213.7 11.8
-5 -9 0 267.88 21.64
-5 9 0 225.29 15.3
-5 -9 0 250.85 19.19
-5 9 0 259.99 21.17
-5 -9 1 888.6 46.88
-5 -9 1 929.97 47.26
-5 -9 1 860.05 47.04
-5 9 1 1000.07 41.03
-5 -9 1 992.8 45.91
-5 9 1 1029.65 48.26
-5 -9 1 944.51 44.56
-5 -9 2 7.06 4.93
-5 -9 2 13.79 5.89
-5 -9 2 5.4 4.7
-5 9 2 5.06 3.53
-5 -9 2 5.64 3.69
-5 -9 2 9.53 5.2
-5 -9 3 835.83 45.11
-5 -9 3 945.31 47.62
-5 -9 3 968.34 47.47
-5 -9 3 925.14 42.36
-5 9 3 904.05 43.52
-5 9 3 854.92 46.65
-5 -9 3 918.7 46.36
-5 -9 4 13.06 6.12
-5 -9 4 18.11 6.7
-5 -9 4 12.12 5.93
-5 9 4 16.81 6.22
-5 -9 5 174.47 18.17
-5 -9 5 208.64 20.93
-5 9 5 216.25 21.27
-5 -9 5 234.44 22.96
-5 9 6 510.53 35.58
-5 -9 6 429.43 32.1
-5 9 6 442.06 27.52
-5 9 6 506.74 35.19
-5 -9 6 478.76 35.16
-5 9 7 303.94 28.29
-5 -9 7 311.77 27.19
-5 9 7 300.64 20.68
-5 9 7 333.48 29.5
-5 -9 7 304.72 28.68
-5 -9 8 328.31 28.94
-5 9 8 333.37 30.74
-5 -9 8 330 30.69
-5 9 9 268.48 28.68
-5 -9 9 347.07 32.08
-5 11 -7 57.73 13.91
-5 11 -6 71.74 14.65
-5 11 -6 78.9 14.2
-5 11 -5 77.98 14.69
-5 11 -5 89.59 15.28
-5 11 -5 69.14 10.16
-5 11 -4 355.97 29.43
-5 11 -4 316.82 27.88
-5 11 -4 344.76 21.02
-5 11 -4 286.7 22.36
-5 11 -3 31.87 8.6
-5 11 -3 28.23 8.87
-5 -11 -3 30.71 9.47
-5 11 -3 29.6 6.56
-5 11 -3 37.13 8.54
-5 -11 -2 511.54 35.54
-5 11 -2 505.51 35.53
-5 11 -2 597.94 35.74
-5 -11 -2 560.05 37.44
-5 -11 -2 521.8 34.78
-5 11 -2 492.1 31.66
-5 -11 -1 51.3 10.75
-5 -11 -1 46.63 10.75
-5 11 -1 49.96 7.21
-5 -11 -1 63.57 11.55
-5 11 -1 55.19 10.58
-5 -11 0 717.85 43.1
-5 -11 0 744.92 42.29
-5 -11 0 808.69 44.55
-5 -11 0 825 41.84
-5 11 0 674.66 32.91
-5 11 0 644.41 39.01
-5 -11 1 177.4 19.17
-5 -11 1 211.79 21.74
-5 -11 1 204.18 21.2
-5 -11 1 195.66 18.28
-5 11 1 192.05 16.42
-5 -11 1 197.32 18.5
-5 11 1 153.75 17.95
-5 -11 2 563.76 36.65
-5 -11 2 539.82 36.3
-5 -11 2 585.8 36.34
-5 11 2 604.43 32.99
-5 -11 2 566.62 32.16
-5 -11 2 506.71 33.54
-5 -11 3 257.59 23.2
-5 -11 3 258.45 23.79
-5 -11 3 199.08 21.27
-5 11 3 232.78 20.82
-5 -11 3 249.15 23
-5 11 3 242.71 23.63
-5 -11 4 427.17 30.55
-5 -11 4 403.52 30.77
-5 -11 4 372.21 29.12
-5 11 4 373.06 28.12
-5 11 4 345.56 29.39
-5 -11 5 245.6 23.01
-5 -11 5 249.77 24.54
-5 -11 5 256.15 23.75
-5 11 5 221.07 22.61
-5 -11 5 206.24 22.86
-5 11 6 179.13 21.76
-5 -11 6 222.17 22.64
-5 -11 6 236.02 23.99
-5 11 6 212.1 23.25
-5 -11 6 192.22 22.66
-5 11 7 66.1 13.57
-5 -11 7 33.22 9.74
-5 11 7 52.38 12.85
-5 -11 7 59.6 13.59
-5 11 8 145.97 21.06
-5 -11 8 119.37 18.62
-5 11 8 110.79 18.34
-5 -11 8 106.47 18.13
-5 -11 9 49.25 12.63
-5 11 9 65.56 14.7
-5 -11 9 73.88 16.18
-5 13 -6 116.89 18.37
-5 13 -5 273.72 27.43
-5 13 -5 274.78 27.12
-5 13 -4 133.34 18.16
-5 13 -4 126.87 18.78
-5 13 -4 144.15 16.62
-5 -13 -3 438.15 34.37
-5 13 -3 386.61 32.44
-5 13 -3 432.78 31.9
-5 13 -3 429.92 30.37
-5 -13 -2 125.35 17.4
-5 13 -2 117.02 17.57
-5 13 -2 124.29 16.32
-5 -13 -1 664.04 42.94
-5 -13 -1 626.81 40.22
-5 13 -1 603.58 30.76
-5 13 -1 643.76 39.64
-5 -13 0 366.2 30.6
-5 -13 0 378.54 29.69
-5 -13 0 375.3 31
-5 13 0 378.13 24.2
-5 13 0 362.75 29.33
-5 -13 1 688.32 43.17
-5 -13 1 707.45 43.69
-5 -13 1 713.35 41.21
-5 13 1 583.26 33.78
-5 13 1 551.24 38.3
-5 -13 2 437.43 33.75
-5 -13 2 389.85 32
-5 -13 2 467.31 32.68
-5 13 2 425.07 29.1
-5 -13 2 454.01 32.22
-5 -13 3 445.6 33.91
-5 -13 3 460.54 35.06
-5 -13 3 488.74 33.42
-5 13 3 418.49 30.05
-5 -13 3 401.58 31.54
-5 13 3 407.49 33.09
-5 -13 4 228.72 23.85
-5 -13 4 225.28 22.63
-5 -13 4 191.87 22.47
-5 13 4 249.89 23.78
-5 13 4 227.52 24.49
-5 -13 4 246.71 24.99
-5 -13 5 235.14 23.03
-5 -13 5 221.49 23.23
-5 -13 5 251.49 25.92
-5 13 5 187.88 21.94
-5 13 6 121.37 18.7
-5 -13 6 103.4 15.63
-5 -13 6 108.97 17.67
-5 13 6 63.7 13.89
-5 -13 6 88.16 15.95
-5 13 7 450.25 36.75
-5 -13 7 357.09 32.63
-5 13 7 357.19 32.85
-5 -13 7 423.51 35.91
-5 13 8 76.46 15.7
-5 -13 8 94.91 17.47
-5 13 8 90.44 16.86
-5 -13 8 68.28 15
-5 15 -5 120.13 18.96
-5 15 -4 363.74 32.66
-5 15 -4 336.34 27.65
-5 15 -3 165.04 21.8
-5 -15 -3 157.29 21.65
-5 15 -3 137.83 18.16
-5 -15 -2 386.38 32.23
-5 15 -2 351.14 29.33
-5 -15 -1 116.2 17.21
-5 -15 -1 105.03 17.38
-5 15 -1 106.46 16.52
-5 -15 0 298.78 29.53
-5 -15 0 349.98 31.41
-5 -15 0 306.47 27.44
-5 15 0 331.88 24.02
-5 15 0 343.99 30.06
-5 -15 1 170.48 21.74
-5 -15 1 119.92 18.67
-5 -15 1 150.69 18.71
-5 15 1 124.29 15.33
-5 15 1 130.48 18.95
-5 -15 2 522.12 39.5
-5 -15 2 494.09 35.38
-5 -15 2 562.13 40.31
-5 15 2 538.47 34.69
-5 -15 3 103.35 16.87
-5 -15 3 115.76 16.26
-5 -15 3 75.03 15.1
-5 15 3 89.62 14.71
-5 15 3 113.11 17.93
-5 -15 4 340.31 31.47
-5 -15 4 472.06 37.24
-5 15 4 379.91 31.07
-5 -15 4 366.57 31.85
-5 15 4 391.56 34.31
-5 -15 5 67.57 14.48
-5 -15 5 66.73 14.13
-5 15 5 67.58 14.01
-5 15 5 92.56 16.88
-5 15 6 265.21 28.6
-5 -15 6 291.05 29.84
-5 15 6 281.4 28.85
-5 -15 6 278.23 29.16
-5 17 -4 22.06 8.72
-5 -17 -3 385.66 35.03
-5 17 -3 499.73 39.67
-5 17 -3 461.47 35.43
-5 -17 -2 137.87 20.62
-5 17 -2 116.81 18.26
-5 17 -1 257.05 27.27
-5 -17 0 130.08 18.13
-5 -17 0 113.88 18.84
-5 17 0 108.95 17.99
-5 -17 1 81.13 15.99
-5 -17 1 119.51 18.91
-5 17 1 69.49 12.33
-5 17 1 71.99 15.25
-5 -17 2 110.82 18.64
-5 -17 2 152.14 21.79
-5 17 2 127.17 17.37
-5 -17 3 198.22 24.86
-5 -17 3 168.37 22.99
-5 17 3 126.83 18.44
-5 17 3 164.9 22.78
-5 -17 4 139.64 20.93
-5 -17 4 94.93 17.94
-5 17 4 117.35 17.9
-5 17 4 85.5 17.1
-5 17 5 228.73 25.55
-5 19 2 366.1 30.56
-4 0 -10 543.59 40.56
-4 0 -10 564.58 40.13
-4 0 -9 -2.29 3.2
-4 0 -8 84.47 14.19
-4 0 -8 105.98 16.23
-4 0 -7 -3.12 4.07
-4 0 -7 -1.92 4.23
-4 0 -7 3.25 4.54
-4 0 -7 -2.05 4.52
-4 0 -6 179.32 16.81
-4 0 -6 178.06 18.93
-4 0 -6 164.95 16.64
-4 0 -6 162.16 17.61
-4 0 -6 184.21 17.94
-4 0 -5 1.4 3.09
-4 0 -5 1.63 3.6
-4 0 -5 1.47 3.25
-4 0 -4 487.66 29.32
-4 0 -4 495.76 19.61
-4 0 -4 433.67 27.16
-4 0 -3 -1.26 3.04
-4 0 -3 -2.48 2.99
-4 0 -3 3.01 2.42
-4 0 -3 -2.6 3.84
-4 0 -3 1.05 1.29
-4 0 -2 3878.44 110.4
-4 0 -2 3888.19 123.04
-4 0 -2 4224.62 126.94
-4 0 -2 4058.52 121.53
-4 0 -2 4193.55 125.94
-4 0 -2 4124.62 125.31
-4 0 -2 4070.29 111.66
-4 0 -1 -0.88 2.31
-4 0 -1 0.89 2.32
-4 0 -1 2.23 2.92
-4 0 -1 1.13 1.57
-4 0 0 3512.78 104.69
-4 0 0 3487.74 104.29
-4 0 0 3618.68 110.61
-4 0 1 -0.56 1.46
-4 0 1 2.25 1.84
-4 0 1 0.65 1.57
-4 0 2 3177.81 99.8
-4 0 2 3315.34 93.77
-4 0 2 3235.88 96.93
-4 0 3 2.68 2.49
-4 0 3 3.9 2.43
-4 0 3 -0.53 1.58
-4 0 3 -0.7 1.53
-4 0 3 -1.19 2.04
-4 0 4 472.24 21.77
-4 0 4 474.34 21.27
-4 0 4 450.52 25.55
-4 0 4 490.14 28.65
-4 0 5 1.07 1.82
-4 0 5 -1.53 3.02
-4 0 6 323.81 24.96
-4 0 7 -1.88 3.71
-4 0 8 1045.92 53.74
-4 0 8 1100.61 55.11
-4 0 9 2.27 3.89
-4 0 9 -2.21 4.36
-4 0 10 1429.75 72.86
-4 0 10 1661.64 74.12
-4 0 11 -2.76 6.08
-4 0 11 -2.41 5.83
-4 -2 -10 7.73 6.24
-4 2 -10 23.86 9.44
-4 2 -10 10.52 6.36
-4 -2 -10 17.93 7.34
-4 -2 -9 496.9 37.71
-4 2 -9 586.08 40.62
-4 -2 -9 541.81 36.79
-4 -2 -8 57.52 11.24
-4 2 -8 50 11.7
-4 -2 -8 35.02 9.07
-4 2 -8 34.61 9.98
-4 -2 -7 673.53 38.31
-4 2 -7 605.05 39.67
-4 -2 -7 649.7 40.26
-4 -2 -7 582.67 36.41
-4 2 -7 720.81 37.99
-4 -2 -6 97.45 14.01
-4 -2 -6 98.49 13.06
-4 2 -6 90.22 11.53
-4 -2 -6 76.7 11.61
-4 2 -6 89.04 13.81
-4 2 -6 95.96 12.9
-4 2 -5 2495.68 93.34
-4 -2 -5 2594.54 93.27
-4 -2 -5 2582.19 90.6
-4 2 -5 2544.45 90.62
-4 2 -5 2624.59 93.68
-4 -2 -5 2533.1 91.11
-4 -2 -5 2522.8 89.94
-4 2 -5 2524.07 87.58
-4 -2 -4 138.86 14.68
-4 2 -4 113.21 9.19
-4 -2 -4 97.59 12.34
-4 2 -4 126.08 13.93
-4 2 -4 114.26 13.27
-4 2 -4 112.63 13.38
-4 -2 -4 120.54 13.65
-4 -2 -4 87.21 11.18
-4 2 -4 97.26 11.28
-4 2 -4 99.38 9.2
-4 2 -3 1359.14 44.35
-4 -2 -3 1364.31 53.99
-4 2 -3 1457.21 54.66
-4 2 -3 1426.67 55.14
-4 2 -3 1310.42 54.42
-4 -2 -3 1440.38 55.82
-4 2 -3 1278.41 47.83
-4 2 -3 1325.03 52.02
-4 -2 -3 1400.43 54.81
-4 2 -3 1238.64 39.06
-4 -2 -2 73.42 9.22
-4 2 -2 73.09 9.24
-4 2 -2 66.24 7.55
-4 2 -2 72.52 9.71
-4 2 -2 76.56 9.91
-4 -2 -2 88.21 10.84
-4 -2 -2 77.81 9.9
-4 -2 -2 60.32 4.93
-4 2 -1 1923.26 63.89
-4 -2 -1 1766.09 63.48
-4 2 -1 1954.03 67.85
-4 -2 -1 1944.15 68.45
-4 2 -1 1942.56 67.81
-4 -2 -1 1899.52 67.7
-4 -2 -1 1821.29 58.36
-4 2 0 54.07 6.54
-4 -2 0 45.19 3.61
-4 -2 0 48.73 7.63
-4 -2 0 49.24 7.32
-4 -2 0 54.35 6.84
-4 2 0 44.84 7.3
-4 2 0 34.6 5.32
-4 -2 1 824.04 28.89
-4 2 1 783.48 29.64
-4 -2 1 771.29 31.82
-4 -2 1 833.09 32.75
-4 -2 1 852.19 29.94
-4 2 1 828.91 31.16
-4 2 1 865.47 30.85
-4 -2 1 823.29 34.61
-4 2 2 69.1 7.89
-4 -2 2 77.68 7.7
-4 2 2 72.71 5.3
-4 -2 2 62.94 7.24
-4 2 2 78.75 8.86
-4 -2 2 79.91 8.66
-4 2 2 79.4 6.41
-4 -2 2 67.89 6.27
-4 2 3 2790.02 88.72
-4 -2 3 2785.39 83.49
-4 -2 3 2733.82 80.55
-4 -2 3 2697.71 85.93
-4 -2 3 2747.08 86.85
-4 2 3 2677.85 76.29
-4 2 3 2642.46 85.31
-4 -2 3 2888.37 85.16
-4 -2 3 2862.18 86.13
-4 2 3 2585.32 77.39
-4 2 3 2820.56 89.13
-4 -2 3 2849.24 81.77
-4 -2 3 2918.48 92.65
-4 -2 4 259.71 17.97
-4 -2 4 265.81 15.22
-4 -2 4 262.86 14.77
-4 -2 4 290.2 16.85
-4 2 4 250.28 12.27
-4 -2 4 269.39 16.7
-4 2 4 300.71 16.4
-4 2 4 244.81 9.92
-4 -2 4 293 15.4
-4 -2 4 291.94 21.12
-4 -2 5 1331.29 51.02
-4 2 5 1419.83 46.84
-4 -2 5 1384.61 55.35
-4 -2 5 1383.3 58.66
-4 2 6 263.77 21.63
-4 2 6 273.48 13.15
-4 2 6 286.85 22.83
-4 -2 6 258.14 22.42
-4 2 7 2121.53 84.67
-4 2 7 2324.56 87.77
-4 -2 7 2246.02 87.13
-4 2 7 2222.41 87.36
-4 2 8 75.6 13.03
-4 -2 8 65.2 12.19
-4 2 8 62.74 12.16
-4 -2 9 423.6 32.84
-4 2 9 399.34 31.96
-4 -2 9 353.51 29.8
-4 2 9 394.61 31.61
-4 2 10 20.35 8.33
-4 -2 10 17.67 8.27
-4 -2 10 9.35 6.12
-4 2 10 23.65 8.42
-4 2 11 318.83 31.13
-4 -2 11 289.33 29.74
-4 -2 11 302.82 28.68
-4 2 11 252.59 26.56
-4 4 -10 416.56 35.59
-4 -4 -10 334.79 31.75
-4 4 -10 407.96 35.72
-4 -4 -10 371.42 29.84
-4 -4 -9 93.5 15.46
-4 -4 -9 102.69 14.86
-4 -4 -9 92.8 15.99
-4 4 -9 88.13 16.56
-4 -4 -8 110.98 16.24
-4 -4 -8 98.92 14.18
-4 4 -8 88.94 15.4
-4 -4 -7 55.19 11.43
-4 4 -7 54.89 11.55
-4 -4 -7 63.06 10.68
-4 4 -7 47.91 11.05
-4 -4 -7 52.04 11.34
-4 4 -7 63.79 11.16
-4 -4 -6 290.62 24.17
-4 -4 -6 273.59 24.4
-4 4 -6 238.54 23.04
-4 4 -6 300.17 20.7
-4 4 -6 294.41 23.14
-4 4 -6 289.29 25.28
-4 -4 -6 290.71 22.25
-4 -4 -5 83.87 12.18
-4 4 -5 81.47 12.26
-4 4 -5 75.63 11.53
-4 -4 -5 54.32 9.95
-4 -4 -5 76.05 10.62
-4 4 -5 69.85 9.6
-4 -4 -5 89.92 12.66
-4 -4 -4 907.65 43.31
-4 -4 -4 873.31 43.14
-4 4 -4 934.14 43.65
-4 4 -4 920.93 44.44
-4 -4 -4 905.68 40.48
-4 -4 -4 931.82 44.23
-4 4 -4 930.92 39.7
-4 4 -4 833.37 30.33
-4 4 -4 882.43 29.14
-4 4 -3 46.65 8.65
-4 -4 -3 70.07 10.27
-4 4 -3 87.46 11.31
-4 -4 -3 79.76 10.77
-4 -4 -3 78.31 10.82
-4 4 -3 62.18 8.44
-4 4 -3 61.12 5.79
-4 -4 -2 3763.03 116.99
-4 4 -2 3676.66 117.57
-4 -4 -2 3622.9 116.65
-4 4 -2 3529.07 117.3
-4 -4 -2 3554.9 118.13
-4 -4 -2 3718.29 103.57
-4 -4 -1 714.25 32.85
-4 4 -1 697.31 34.13
-4 -4 -1 683.56 33.51
-4 4 -1 722.37 34.2
-4 -4 -1 734.33 34.71
-4 4 -1 660.43 21.97
-4 4 -1 693.32 29.91
-4 -4 0 2495.09 82.83
-4 4 0 2391.02 81.94
-4 -4 0 2458.87 82.18
-4 -4 0 2454.35 78.89
-4 -4 0 2432.49 79.09
-4 -4 0 2617.77 82.99
-4 4 0 2314.59 70.89
-4 4 0 2234.13 77.2
-4 4 1 492.67 21.17
-4 -4 1 481.25 18.95
-4 -4 1 485.28 26.77
-4 -4 1 482.36 25.09
-4 -4 1 521.4 27.83
-4 -4 1 549.84 27.45
-4 -4 1 483.56 24.94
-4 4 2 1843.66 55.35
-4 -4 2 2033.08 67.21
-4 4 2 1832.7 65.16
-4 -4 2 1874.31 65.04
-4 -4 2 1898.5 54.89
-4 4 2 1835.61 63.22
-4 -4 3 103.87 7.01
-4 -4 3 118.46 10.38
-4 -4 3 117.28 11.13
-4 4 3 103.78 10.43
-4 -4 3 116.25 11.27
-4 4 3 114 11.31
-4 -4 3 96.33 6.6
-4 -4 3 92.53 11.09
-4 -4 4 335.5 21.24
-4 -4 4 324 16.83
-4 -4 4 379.82 16.61
-4 -4 4 355.24 21.64
-4 -4 4 378.37 21.4
-4 4 4 354.35 19.96
-4 -4 4 359.84 16.07
-4 4 4 329.81 22.52
-4 -4 4 383.45 24.86
-4 -4 5 205.86 17.32
-4 4 5 235.73 19.59
-4 -4 5 214.08 11.68
-4 4 5 242.59 15.04
-4 -4 5 247.94 18.32
-4 -4 5 280.04 17.2
-4 -4 5 212.93 13.03
-4 -4 5 227.46 19.99
-4 4 6 436.83 28.87
-4 -4 6 402.53 26.96
-4 4 6 388.25 18.95
-4 4 6 449.99 29.71
-4 -4 6 375.77 27.66
-4 4 7 156.18 17.83
-4 -4 7 164.88 17.93
-4 4 7 192.74 10.06
-4 4 7 168.54 9.29
-4 4 7 179.93 19.65
-4 -4 7 218.4 21.14
-4 4 8 560.53 36.99
-4 4 8 526.6 36.61
-4 -4 8 539.81 36.7
-4 4 8 479.36 35.41
-4 4 9 7.05 5.68
-4 4 9 9.65 6.3
-4 -4 9 15.8 7.05
-4 4 9 11.5 6.42
-4 4 10 1128.86 60.53
-4 4 10 921.62 56.9
-4 -4 10 1083.95 58.14
-4 4 10 1105.53 58.98
-4 -4 11 77.65 15.95
-4 4 11 109.03 18.5
-4 4 11 109.16 17.86
-4 -4 11 134.61 19.09
-4 -6 -10 106.81 18
-4 -6 -10 95.9 16.97
-4 -6 -9 768.81 48.61
-4 6 -9 814.38 51.63
-4 -6 -9 816.86 49.75
-4 -6 -9 807.9 42.2
-4 6 -9 721.52 49.22
-4 -6 -8 133.6 18.63
-4 6 -8 107.16 17.15
-4 6 -8 119.68 18.39
-4 -6 -8 126.71 14.82
-4 -6 -7 994.94 53.3
-4 6 -7 1052.76 50.1
-4 6 -7 1039.23 55.81
-4 -6 -7 1017.72 53.81
-4 -6 -7 987.46 46.12
-4 -6 -6 301.09 25.48
-4 6 -6 232.51 17.24
-4 6 -6 298.2 26.41
-4 6 -6 292.56 23.27
-4 -6 -6 288.43 25.19
-4 -6 -6 258.05 19.93
-4 -6 -5 1507.41 66.46
-4 -6 -5 1588.22 67.12
-4 6 -5 1535.6 64.28
-4 6 -5 1627.55 68.63
-4 6 -5 1580.37 57.57
-4 -6 -4 59.88 10.32
-4 6 -4 48.67 9.44
-4 -6 -4 24.44 6.92
-4 6 -4 50.16 9.32
-4 -6 -4 44.78 8.89
-4 6 -4 48.16 7.45
-4 6 -4 53.19 6.59
-4 -6 -3 387.58 26.37
-4 6 -3 382.77 18.7
-4 -6 -3 410.79 26.64
-4 -6 -3 385.88 26.01
-4 6 -3 446.1 27.74
-4 6 -3 424.75 26.91
-4 6 -3 353.07 21.59
-4 -6 -3 425.09 27.51
-4 6 -3 380.62 19
-4 6 -3 381.01 20.62
-4 6 -2 173.82 9.79
-4 -6 -2 137.95 14.89
-4 -6 -2 157.01 15.49
-4 6 -2 172.62 16.24
-4 -6 -2 172.37 15.97
-4 6 -2 190.71 16.59
-4 6 -2 164.56 9.54
-4 -6 -2 169.58 16.16
-4 6 -2 162.34 7.54
-4 6 -2 164.96 13.16
-4 -6 -1 271.98 20.71
-4 6 -1 258.57 12.97
-4 6 -1 284.71 20.47
-4 -6 -1 216.37 18.37
-4 6 -1 292.7 20.21
-4 6 -1 234.98 12.15
-4 -6 -1 257.28 19.45
-4 6 -1 242.76 17
-4 -6 0 13.24 4.46
-4 6 0 11.27 2.91
-4 -6 0 14.48 5.04
-4 -6 0 20.2 5.3
-4 -6 0 20.08 5.22
-4 -6 0 11.69 3.78
-4 6 0 16.19 4.78
-4 -6 1 494.22 28.22
-4 -6 1 440.36 25.95
-4 -6 1 465.38 27.21
-4 -6 1 556.71 27.99
-4 -6 1 465.94 25.46
-4 -6 2 317.77 21.35
-4 -6 2 286.72 20
-4 -6 2 314.6 21.58
-4 6 2 284.5 18.37
-4 -6 2 292.55 19.39
-4 6 2 314.06 21.43
-4 -6 3 1639.43 57.16
-4 -6 3 1574.7 48.41
-4 -6 3 1811.96 63.22
-4 -6 3 1749.64 63
-4 6 3 1586.39 60.53
-4 -6 3 1618.86 63.27
-4 -6 4 498.08 20.64
-4 -6 4 535.21 27.4
-4 -6 4 519.98 27.98
-4 -6 4 523.69 28.88
-4 6 4 564.92 30.48
-4 -6 4 587.65 32.21
-4 6 5 1383.72 56.47
-4 -6 5 1137.56 50.43
-4 -6 5 1235.41 49.46
-4 -6 5 1320.9 53.37
-4 -6 5 1138.56 38.42
-4 -6 5 1285.31 56.3
-4 -6 6 432.37 25.26
-4 6 6 461.24 23.36
-4 -6 6 539.18 31.56
-4 6 6 491.25 32.01
-4 -6 6 438.47 29.15
-4 -6 6 531.7 33.73
-4 -6 7 1223.16 57.87
-4 6 7 1364.07 61.71
-4 6 7 1204.22 43.89
-4 -6 7 1333.84 58.15
-4 6 7 1224.41 59.73
-4 -6 7 1396.7 62.5
-4 -6 8 62.42 12.05
-4 6 8 48.63 11.42
-4 6 8 56.7 12.34
-4 -6 8 50.39 11.11
-4 6 9 208.73 23.58
-4 -6 9 189.4 22.05
-4 6 9 185.37 22.74
-4 6 9 215.6 23.75
-4 -6 9 227.85 24.12
-4 6 10 21.14 8.67
-4 6 10 38.11 11.09
-4 -6 10 19.78 8.12
-4 6 10 24.93 8.89
-4 6 11 73.52 15.82
-4 6 11 57.85 14.32
-4 -6 11 28.09 10.15
-4 8 -9 137.47 20.57
-4 -8 -9 109.52 17.81
-4 8 -9 91.99 17.18
-4 -8 -9 99.47 17.62
-4 -8 -8 181.49 21.78
-4 8 -8 173.31 22.58
-4 -8 -8 144.82 19.89
-4 8 -7 17.11 7.24
-4 -8 -7 9.46 6.18
-4 8 -6 300.06 24.6
-4 -8 -6 285.47 25.86
-4 8 -6 301.42 27.17
-4 -8 -6 272.61 25.72
-4 8 -6 305.17 17.66
-4 -8 -5 354.06 28.17
-4 -8 -5 279.24 25
-4 8 -5 335.43 25.32
-4 8 -5 276.52 25.13
-4 8 -5 322.35 18.83
-4 8 -5 296.39 18.55
-4 -8 -4 762.23 38.9
-4 -8 -4 754.89 38.7
-4 8 -4 749.64 36.97
-4 8 -4 762.35 38.67
-4 8 -4 703.57 27.96
-4 8 -4 716.59 29.29
-4 -8 -3 161.21 17.04
-4 8 -3 164.17 16.97
-4 -8 -3 150.27 16.69
-4 8 -3 171.67 17.06
-4 -8 -3 163.08 17.12
-4 8 -3 156.63 13.13
-4 8 -3 146.72 8.26
-4 8 -3 136.42 12.99
-4 8 -2 1639.47 52.41
-4 -8 -2 1722.43 68.11
-4 -8 -2 1764 67.54
-4 8 -2 1780.84 66.71
-4 -8 -2 1768.58 67.81
-4 8 -2 1620.89 52.41
-4 8 -2 1653.12 61.6
-4 8 -1 492.32 18.56
-4 8 -1 499.8 17.16
-4 -8 -1 549.17 32.07
-4 -8 -1 577.51 32.09
-4 8 -1 571.25 30.36
-4 -8 -1 543.1 30.75
-4 8 -1 530.86 28.96
-4 -8 -1 579.06 26.88
-4 -8 0 1266.79 50.6
-4 -8 0 1255.55 51.08
-4 8 0 1179.38 34.78
-4 -8 0 1281.24 49.88
-4 -8 0 1296.65 48.41
-4 8 0 1223.43 41.26
-4 8 0 1119.54 46.55
-4 -8 0 1194.24 44.55
-4 -8 1 420.14 27.24
-4 -8 1 439.9 27.26
-4 -8 1 465.31 28.64
-4 -8 1 461.5 25.97
-4 8 1 418.31 23.12
-4 -8 1 447.74 26.07
-4 -8 2 1188.23 52.01
-4 -8 2 1192.45 51.48
-4 -8 2 1272.19 52.75
-4 -8 2 1186.01 47.71
-4 8 2 1131.87 47.3
-4 8 2 1239.26 52.79
-4 -8 3 634.28 22.62
-4 -8 3 645.34 35.84
-4 -8 3 775.05 37.91
-4 8 3 666.26 34.46
-4 -8 3 721.55 32.58
-4 8 3 813.35 39.53
-4 -8 4 514.29 30.82
-4 -8 4 480.53 28.88
-4 8 4 444.53 28.8
-4 -8 4 476.76 24.88
-4 8 4 465.7 30.47
-4 -8 4 490.84 31.13
-4 -8 5 167.48 16.03
-4 -8 5 181.52 17.99
-4 -8 5 144.21 14.98
-4 8 5 163.64 17.57
-4 -8 5 126.95 15.91
-4 -8 6 236.88 21.67
-4 -8 6 251.23 19.94
-4 8 6 263.18 23.61
-4 -8 6 253.31 21.94
-4 -8 6 265.83 24.48
-4 -8 7 230.52 22.17
-4 8 7 265.57 24.87
-4 -8 7 259.98 23.58
-4 8 7 242.05 24.07
-4 -8 7 262.29 24.78
-4 8 8 126.03 17.8
-4 -8 8 110.15 16.38
-4 -8 8 118.52 16.86
-4 8 8 112.38 17.45
-4 -8 8 124.8 17.78
-4 8 9 86.06 15.58
-4 -8 9 96.46 15.79
-4 -8 9 87.06 15.19
-4 8 9 94.15 16.5
-4 -8 9 105.72 16.98
-4 -8 10 468.17 37.44
-4 8 10 382.68 35.1
-4 -8 10 451.49 35.93
-4 8 10 440.02 37.68
-4 8 10 526.78 39.04
-4 -8 10 488.66 37.9
-4 10 -8 419.49 36.26
-4 -10 -8 423.99 36.06
-4 10 -7 669.6 44.8
-4 -10 -7 665.27 44.92
-4 10 -6 874.8 46.15
-4 10 -6 813.55 48.65
-4 -10 -6 771.54 48.14
-4 10 -6 815.86 37.2
-4 -10 -5 608.46 39.48
-4 10 -5 636.7 38.06
-4 10 -5 637.68 39.74
-4 10 -5 579.7 25.63
-4 10 -5 579.41 31.08
-4 -10 -4 274.47 24.8
-4 10 -4 312.72 25.13
-4 10 -4 284.34 24.15
-4 10 -4 254.07 16.22
-4 10 -4 259.67 13.46
-4 10 -4 262.88 20
-4 -10 -3 169.26 18.42
-4 -10 -3 140.89 16.64
-4 -10 -3 161.09 17.97
-4 10 -3 155.46 16.82
-4 10 -3 159.04 12.79
-4 10 -3 148.84 15.01
-4 10 -2 68.96 10.66
-4 -10 -2 45.62 9.39
-4 -10 -2 56.42 11.09
-4 10 -2 57.49 6.96
-4 -10 -2 58.67 10.52
-4 10 -2 46.71 8.61
-4 -10 -1 112.66 14.58
-4 -10 -1 135.83 15.31
-4 -10 -1 148.98 16.54
-4 10 -1 152.61 14.84
-4 10 -1 106.85 10.46
-4 -10 -1 129.02 14.26
-4 10 -1 118.84 13.74
-4 -10 0 103.94 13.65
-4 10 0 56.43 3.23
-4 -10 0 76.2 11.8
-4 10 0 54.93 3.27
-4 -10 0 90.79 12.34
-4 10 0 80.9 9.4
-4 -10 0 95.92 11.73
-4 -10 0 78.12 10.45
-4 10 0 104 12.9
-4 -10 1 484.85 31.01
-4 -10 1 486.66 31.29
-4 -10 1 510.15 30.27
-4 10 1 462.86 26.39
-4 -10 1 463.97 26.91
-4 -10 1 452.86 28.02
-4 10 2 438.17 17.12
-4 -10 2 443.87 29.92
-4 -10 2 487.91 31.16
-4 -10 2 484.34 29.66
-4 -10 2 497.99 26.41
-4 10 2 461.8 27.63
-4 10 2 443.71 29.82
-4 -10 2 444.17 28.71
-4 10 3 833.73 30.62
-4 -10 3 914.07 45.66
-4 -10 3 986.12 45.67
-4 -10 3 998.49 47.93
-4 -10 3 985.93 39.52
-4 10 3 853.89 42.97
-4 10 3 1005.6 48.23
-4 -10 4 402.77 27.96
-4 -10 4 431.06 28.28
-4 -10 4 368.38 27.93
-4 10 4 407.87 28.21
-4 -10 4 405.55 29.56
-4 10 4 397.42 29.31
-4 -10 5 1072.95 53.8
-4 -10 5 1130.99 52.31
-4 10 5 1032.89 53.15
-4 -10 5 1175.34 56.52
-4 10 5 1202.04 56.81
-4 -10 6 268.45 22.43
-4 -10 6 278.28 25.07
-4 10 6 319.23 26.91
-4 -10 6 273.41 25.49
-4 -10 7 632.17 40.99
-4 10 7 618.8 41.1
-4 -10 7 689 43.13
-4 10 8 46.94 12.03
-4 -10 8 46.61 11.36
-4 10 8 68.56 14.25
-4 -10 8 71.43 14.24
-4 -10 9 112.1 18.25
-4 10 9 123.58 19.49
-4 -10 9 142.63 20.14
-4 10 10 50.26 13.55
-4 -10 10 68.43 14.74
-4 10 10 43.84 12.95
-4 -10 10 34.85 11.59
-4 12 -8 151.74 22.2
-4 -12 -8 160.41 23.14
-4 12 -7 33.95 10.65
-4 -12 -7 27.11 10.04
-4 12 -6 69.28 13.69
-4 12 -6 84.31 14.05
-4 -12 -6 114.05 17.97
-4 12 -6 65.93 10.49
-4 12 -5 156.32 18.76
-4 12 -5 157.89 19.09
-4 -12 -5 178.69 21.18
-4 12 -5 164.99 16.72
-4 12 -4 91.38 14.18
-4 12 -4 108.3 15.42
-4 -12 -4 91.06 14.47
-4 12 -4 89.3 12.63
-4 -12 -3 293.66 25.24
-4 12 -3 257.66 22.36
-4 12 -3 235.33 16.14
-4 12 -3 244.63 15.9
-4 12 -3 255.41 21.7
-4 12 -2 391.61 26.85
-4 -12 -2 402.35 29.25
-4 12 -2 357.09 21.57
-4 12 -2 361.61 26.9
-4 -12 -1 443.89 32
-4 -12 -1 479.17 31.5
-4 -12 -1 487.45 33.53
-4 12 -1 514.72 29.35
-4 12 -1 449.54 25.74
-4 12 -1 442.52 30.49
-4 -12 0 1016.19 50.94
-4 -12 0 944.33 49.73
-4 -12 0 1021.95 48.29
-4 12 0 896.75 42.19
-4 12 0 927.63 47.77
-4 -12 1 431.01 31.42
-4 -12 1 482.68 32.91
-4 -12 1 467.62 30.24
-4 12 1 446.33 27.82
-4 -12 1 491.75 28.2
-4 -12 2 552.35 33.28
-4 -12 2 511.19 34.57
-4 -12 2 557.36 36.12
-4 12 2 552.59 32.66
-4 12 2 577.24 36.68
-4 -12 2 550.04 34.26
-4 -12 3 425.46 18.38
-4 -12 3 467.55 32.36
-4 -12 3 487.81 33.63
-4 -12 3 505.13 31.27
-4 12 3 481.88 31.09
-4 12 3 488.1 33.65
-4 12 4 246.49 15.17
-4 -12 4 287.45 23.09
-4 -12 4 293.99 25.91
-4 -12 4 277.05 24.59
-4 12 4 286.75 24.64
-4 -12 4 276.86 25.18
-4 12 4 261.75 24.58
-4 -12 5 176.28 18.34
-4 -12 5 170.46 19.03
-4 -12 5 206.43 22.16
-4 12 5 182.7 20.21
-4 12 5 183.56 20.88
-4 -12 5 175.24 20.59
-4 12 6 239.83 24.4
-4 -12 6 169.79 21
-4 -12 6 179.11 19.76
-4 -12 6 196.24 19.95
-4 12 6 207.7 22.75
-4 -12 6 191.91 22.13
-4 -12 7 150.34 20.01
-4 12 7 110.69 17.99
-4 -12 7 132 19.02
-4 12 8 156.65 21.31
-4 -12 8 156.38 21.09
-4 12 8 175.53 22.65
-4 -12 8 133.46 20.07
-4 12 9 206.93 25.38
-4 -12 9 209.97 25.63
-4 12 9 181.38 24.37
-4 -12 9 230.69 26.24
-4 14 -7 181.27 23.25
-4 -14 -7 190.23 24.09
-4 14 -6 426.61 34.26
-4 14 -6 386.58 28.02
-4 14 -5 342.49 29.41
-4 14 -5 302.39 27.52
-4 14 -5 317.09 25.71
-4 -14 -4 329.18 28.75
-4 14 -4 380.22 29.21
-4 -14 -4 373.2 31.14
-4 14 -4 341.04 27.37
-4 -14 -3 253.4 24.77
-4 14 -3 247.7 22.17
-4 14 -3 221.76 17.19
-4 14 -3 224.92 22.48
-4 -14 -2 101.86 14.8
-4 14 -2 80.92 10.82
-4 14 -2 81.6 13.93
-4 -14 -1 186.87 20.82
-4 -14 -1 176.06 18.89
-4 14 -1 128.87 14.07
-4 14 -1 125.87 17.19
-4 -14 0 109.33 16.55
-4 -14 0 94.39 13.79
-4 -14 0 98.94 15.73
-4 14 0 104.08 13.18
-4 14 0 124.7 16.63
-4 -14 1 147.28 18.95
-4 -14 1 177.46 20.45
-4 -14 1 138.81 16.56
-4 14 1 154.36 16.76
-4 -14 2 536.75 37.93
-4 -14 2 561.45 38.49
-4 -14 2 574.67 34.8
-4 14 2 567.63 35.4
-4 14 2 574.22 38.4
-4 -14 3 318.5 28.51
-4 -14 3 285.29 26.73
-4 -14 3 372.3 26.77
-4 14 3 307.21 26.2
-4 14 3 342.5 29.38
-4 -14 4 794.32 46.9
-4 -14 4 772.24 41.91
-4 -14 4 849.91 49.29
-4 14 4 747.76 45.18
-4 -14 4 798.74 47.02
-4 14 4 742.07 46.2
-4 -14 5 557.61 39.57
-4 -14 5 459.19 34.87
-4 14 5 558.97 38.65
-4 14 5 516.19 37.84
-4 -14 5 537.47 38.84
-4 14 6 563.76 41.63
-4 -14 6 646.21 41.49
-4 -14 6 638.51 43.93
-4 14 6 622.76 42.57
-4 14 6 646.54 43.42
-4 -14 6 685.23 44.89
-4 -14 7 184.06 23.56
-4 14 7 158.1 21.47
-4 -14 7 197.04 23.95
-4 -14 8 250.4 28.17
-4 14 8 323.79 31.51
-4 -14 8 287.66 30.07
-4 16 -5 102.47 17.02
-4 16 -5 85.16 14.25
-4 -16 -4 47.67 11.82
-4 16 -4 45.4 10.94
-4 -16 -3 604.64 41.38
-4 16 -3 579.45 39.66
-4 -16 -2 196.87 22.78
-4 16 -2 153.47 16.23
-4 16 -2 161.67 20.43
-4 -16 -1 784 45.02
-4 16 -1 772.91 41.02
-4 16 -1 773.34 47.09
-4 -16 0 376.86 28.69
-4 -16 0 292.51 28.68
-4 -16 0 339.33 30.79
-4 16 0 354.97 26.92
-4 16 0 364.56 31.06
-4 -16 1 689.67 39.71
-4 -16 1 631.42 43.44
-4 -16 1 670.75 44.22
-4 16 1 627.32 38.71
-4 -16 2 256.98 26.33
-4 -16 2 222.93 24.97
-4 16 2 248.24 23.71
-4 16 2 222.91 24.97
-4 -16 3 166.53 21.58
-4 -16 3 192.7 23.26
-4 16 3 174.73 20.6
-4 16 3 164.52 21.52
-4 -16 4 76.36 15.05
-4 -16 4 82.38 15.51
-4 16 4 70.23 14
-4 16 4 75 15.01
-4 -16 5 4.98 5.49
-4 -16 5 5.42 5.35
-4 16 5 -2.5 5.53
-4 16 5 10.56 6.38
-4 16 6 113.05 18.63
-4 -16 6 175.28 22
-4 -16 6 188.06 24.14
-4 16 6 146.74 20.77
-4 16 6 155.54 21.85
-4 16 7 64.05 14.94
-4 16 7 99.26 17.81
-4 18 -5 78.25 14.5
-4 -18 -4 352.25 32.4
-4 18 -4 363.66 31.56
-4 -18 -3 12.96 8.09
-4 18 -3 12.42 6.94
-4 -18 -2 108.18 17.95
-4 18 -2 56.05 13.91
-4 -18 -1 66.85 14.25
-4 18 -1 31.48 8.64
-4 18 -1 46.7 12.32
-4 -18 0 43.8 11.83
-4 -18 0 59.44 13.64
-4 18 0 47.64 10.61
-4 18 0 37 10.82
-4 -18 1 11.01 7.2
-4 -18 1 16.36 8.08
-4 18 1 14.85 6.95
-4 -18 2 285.89 29.58
-4 -18 2 275.97 28.64
-4 18 2 228.59 25.07
-4 18 2 317.38 30.76
-4 -18 3 76.78 15.9
-4 -18 3 84.43 16.31
-4 18 3 76.87 14.55
-4 18 3 69.44 14.64
-4 -18 4 502.53 40.56
-4 -18 4 565.04 42.37
-4 18 4 519.42 39.24
-4 18 4 458.04 38.71
-4 -18 5 43.7 12.66
-4 18 5 24.2 9.22
-4 18 5 22.66 10.48
-4 20 0 6.5 5.66
-4 20 1 523.74 38.1
-4 20 2 80.57 15.38
-3 1 -11 222.59 24.77
-3 -1 -11 144.43 20.48
-3 1 -11 183.02 22.97
-3 -1 -11 201.81 23.21
-3 -1 -10 715.1 45.11
-3 1 -10 713.5 45.18
-3 1 -10 657.26 44.27
-3 -1 -10 739.57 44.96
-3 1 -9 201.3 21.98
-3 -1 -9 218.45 22.75
-3 -1 -9 204.13 20.62
-3 1 -9 204.81 22.33
-3 -1 -9 234.19 22.97
-3 -1 -8 376.15 26.8
-3 1 -8 313.13 26.86
-3 -1 -8 351.65 27.3
-3 1 -7 505 29.08
-3 1 -7 526.67 33.9
-3 -1 -7 518.13 31.02
-3 -1 -7 503.77 31.96
-3 1 -7 478.76 32.11
-3 1 -7 571.27 30.5
-3 -1 -6 495.49 29.36
-3 1 -6 509.62 31.57
-3 1 -6 486.86 27.42
-3 -1 -6 475.66 30.45
-3 1 -6 527.95 28.94
-3 -1 -6 541.58 31.09
-3 -1 -6 528.4 29.18
-3 1 -5 768.91 36.87
-3 -1 -5 604.23 33.88
-3 -1 -5 675.97 25.97
-3 -1 -5 640.24 32.48
-3 1 -5 708.22 31.78
-3 -1 -5 605.65 32.69
-3 1 -5 635.18 31.32
-3 1 -5 680.76 32.91
-3 -1 -5 711.23 33.69
-3 1 -5 541.61 32.9
-3 -1 -5 623.18 32.89
-3 1 -4 192.86 14.11
-3 1 -4 200.2 16.48
-3 1 -4 198.4 11.83
-3 -1 -4 202.26 16.36
-3 -1 -4 190.6 10.32
-3 -1 -4 173.08 14.5
-3 1 -4 182.99 15.03
-3 1 -4 219.42 17.02
-3 -1 -4 173.61 14.99
-3 1 -4 198.93 14.88
-3 1 -3 858.69 29.72
-3 -1 -3 844.94 36.7
-3 -1 -3 867.41 35.81
-3 1 -3 886.04 37.16
-3 -1 -3 814.97 26.76
-3 -1 -3 883.91 37.08
-3 1 -3 812.82 35.92
-3 1 -3 802.99 36.3
-3 -1 -3 917.31 37.28
-3 1 -3 819.56 30.64
-3 -1 -2 1207.5 36.8
-3 1 -2 1293.61 40.59
-3 -1 -2 1384.13 48.39
-3 1 -2 1311.56 47.81
-3 -1 -2 1441.66 49.6
-3 1 -2 1399.94 49.1
-3 1 -2 1372.01 48.67
-3 -1 -2 1364.93 48.09
-3 -1 -2 1461.08 49.39
-3 1 -2 1338.24 43.9
-3 -1 -2 1266.7 37.26
-3 1 -1 1267.02 43.33
-3 1 -1 1266.93 43.53
-3 -1 -1 1324.11 43.6
-3 -1 -1 1191.85 45.05
-3 1 -1 1293.26 45.32
-3 1 -1 1215.64 41.84
-3 1 0 848.54 32.82
-3 1 0 912.93 31.68
-3 -1 0 918.74 31.98
-3 -1 0 849.57 27.16
-3 -1 0 895.83 34.69
-3 1 0 909.62 34.69
-3 -1 0 840.53 30.24
-3 1 0 894.03 32.08
-3 1 0 878.04 30.93
-3 -1 0 845.61 31.54
-3 1 1 1452.29 45.03
-3 -1 1 1515.45 48.17
-3 -1 1 1359.13 45.09
-3 -1 1 1554.73 47.22
-3 -1 1 1563.06 46.63
-3 1 1 1429.91 49.75
-3 1 1 1521.97 45.43
-3 -1 1 1506.24 46.19
-3 1 1 1528.81 48.29
-3 1 1 1353.56 46.51
-3 -1 2 4471.85 118.67
-3 -1 2 4144.19 115.53
-3 -1 2 3863.54 118.91
-3 -1 2 4027.21 119.5
-3 -1 2 4066.19 119.91
-3 1 2 4093.32 113.91
-3 -1 2 4236.53 117.96
-3 1 2 4219.02 113.84
-3 1 2 4302.9 119.45
-3 -1 2 4043.37 116.68
-3 1 2 4330.09 122.35
-3 -1 3 551.77 22.86
-3 1 3 557.93 24.25
-3 1 3 595.8 25.79
-3 -1 3 576.8 23.54
-3 -1 3 558.33 23.31
-3 1 3 540.09 22.63
-3 -1 3 597.06 22.88
-3 -1 3 606.91 23.31
-3 1 3 524.66 26.03
-3 1 3 575.15 24.51
-3 -1 3 595.46 28.25
-3 -1 4 1165.54 41.56
-3 1 4 1214.09 46.18
-3 -1 4 1059.85 38.26
-3 1 4 1182.12 37.91
-3 1 4 1161.19 46.09
-3 -1 4 1140.9 40.78
-3 -1 4 1269.45 48.3
-3 1 5 473.96 26.51
-3 -1 5 479.56 26.5
-3 1 5 455.42 16.49
-3 -1 5 458.6 18.1
-3 1 5 411.79 13.68
-3 1 5 470.21 26.87
-3 -1 5 479.92 27.24
-3 -1 6 682.82 35.56
-3 1 6 652.25 35.28
-3 1 6 683.72 36.16
-3 1 6 655.91 35.57
-3 -1 6 697.45 36.38
-3 1 7 846.86 43.12
-3 -1 7 800.01 42.5
-3 1 7 899.91 44.54
-3 1 7 821.75 42.82
-3 -1 7 843.61 43.05
-3 -1 8 108.26 15.19
-3 1 8 109.89 14.92
-3 1 8 116.93 15.55
-3 -1 8 123.86 15.53
-3 1 8 134.03 16.07
-3 1 9 789.25 46.64
-3 -1 9 777.12 46.3
-3 1 9 828.27 45.32
-3 -1 9 838.74 45.39
-3 -1 10 41.19 11.29
-3 1 10 43.47 11.26
-3 -1 10 55.09 11.11
-3 1 10 71.31 12.78
-3 -1 11 539.23 40.86
-3 1 11 563.3 41.62
-3 -1 12 171.68 23.25
-3 1 12 195.9 25.19
-3 3 -11 -2.75 4.71
-3 -3 -11 6.38 5.55
-3 -3 -11 2.42 5.35
-3 3 -11 5.16 4.41
-3 3 -10 550.01 41.31
-3 -3 -10 612.42 38.68
-3 3 -10 647.89 43.52
-3 -3 -10 619.11 40.39
-3 -3 -10 613.27 41.37
-3 3 -9 28.52 9.12
-3 -3 -9 46.57 10.1
-3 3 -9 46.24 10.97
-3 -3 -9 21.55 7.72
-3 -3 -9 38.83 9.71
-3 -3 -8 316.45 25.03
-3 -3 -8 385.42 28.27
-3 -3 -8 337.3 27.61
-3 3 -7 431.91 25.95
-3 3 -7 396.47 29.73
-3 -3 -7 377.28 26.34
-3 3 -7 392.08 29.32
-3 -3 -7 396.33 27.91
-3 3 -6 857.48 38.8
-3 3 -6 823.82 42.67
-3 -3 -6 770.37 38.06
-3 -3 -6 752.68 40.51
-3 3 -6 771.24 34.37
-3 -3 -6 800.19 40.28
-3 3 -6 795.99 27.28
-3 -3 -5 521.73 30.01
-3 -3 -5 523.66 29.35
-3 3 -5 491.88 23.9
-3 3 -5 518.77 27.65
-3 -3 -5 451.49 25.93
-3 3 -5 505.32 30.13
-3 3 -5 529.37 25.69
-3 3 -5 504.21 20.73
-3 3 -5 451.8 16.17
-3 -3 -4 26.27 5.84
-3 3 -4 43.94 7.81
-3 -3 -4 35.73 6.18
-3 -3 -4 38.18 7.04
-3 3 -4 45.69 7.57
-3 -3 -4 42.33 7.31
-3 3 -4 41.08 6.28
-3 3 -4 30.97 3.49
-3 3 -4 33.58 3.35
-3 3 -3 1148.44 39.68
-3 -3 -3 1144.56 45.32
-3 -3 -3 1120.44 45.14
-3 3 -3 1119.97 39.11
-3 3 -3 1245.96 45.89
-3 -3 -3 1208.29 45.91
-3 3 -3 1072.5 45.38
-3 -3 -3 1173.78 46.14
-3 -3 -3 1076.15 42.49
-3 -3 -3 1224.28 46.65
-3 3 -3 1023.73 40.85
-3 3 -3 1020.12 35.6
-3 3 -3 1112.07 34.93
-3 3 -2 2246.24 66.65
-3 -3 -2 2250.89 74.83
-3 -3 -2 2321.18 74.96
-3 3 -2 2297.46 75.19
-3 -3 -2 2350.69 74.95
-3 3 -2 2101.6 67.18
-3 -3 -2 2294.52 75.83
-3 3 -2 2280.63 75.62
-3 -3 -2 2323.17 75.69
-3 -3 -2 2212.33 63.7
-3 3 -2 2300.07 67.51
-3 -3 -1 2170.69 71.05
-3 3 -1 2103.25 63.47
-3 -3 -1 2161.7 68.92
-3 3 -1 2473.87 71.76
-3 -3 -1 2201.66 69.66
-3 -3 -1 2174.93 70.92
-3 3 -1 2268.42 70.58
-3 3 -1 2006.03 58.22
-3 -3 -1 2181.02 70.26
-3 -3 -1 2071.9 62.64
-3 3 -1 1929 64.09
-3 -3 0 2541.71 70.08
-3 3 0 2686.48 80.23
-3 -3 0 2706.56 82.48
-3 -3 0 2669.94 79.7
-3 3 0 2690.59 81.97
-3 -3 0 2755.91 82.48
-3 -3 0 2606.45 79.92
-3 -3 0 2731.8 81.75
-3 3 0 2392.28 73.25
-3 3 0 2641.46 80.08
-3 -3 0 2318.08 76.23
-3 -3 1 1047.86 33.84
-3 -3 1 1044.01 39.75
-3 3 1 1057.42 39.33
-3 -3 1 1117.26 38.83
-3 3 1 967.86 35.74
-3 -3 1 1064.91 32.31
-3 3 2 6203.1 171.06
-3 -3 2 6651.95 178.07
-3 -3 2 6314.03 172.74
-3 -3 2 6346.18 175.53
-3 -3 2 6601.87 181.91
-3 -3 2 6370.7 180.14
-3 -3 2 6532.15 172.8
-3 3 2 6420.86 181.86
-3 -3 2 6808.21 183.96
-3 3 3 315.64 17.47
-3 -3 3 294.09 14.15
-3 -3 3 285.1 13.22
-3 3 3 308.38 18.53
-3 -3 3 277.34 16.07
-3 -3 3 315.51 17.71
-3 -3 3 280.8 13.06
-3 -3 3 351.65 20.31
-3 -3 4 824.68 31.33
-3 3 4 868.74 37.5
-3 -3 4 839.31 32.38
-3 3 4 759.35 30.13
-3 3 4 852.79 37.48
-3 -3 4 898.79 38.95
-3 3 5 1456.41 56.81
-3 3 5 1426.07 45.81
-3 -3 5 1401.82 48.17
-3 3 5 1447.36 57.2
-3 -3 5 1502.12 57.93
-3 -3 6 805.04 39.92
-3 3 6 809.29 40.67
-3 -3 6 814.6 30.44
-3 3 6 764.59 26.37
-3 3 6 848.78 41.3
-3 -3 6 838.67 40.88
-3 -3 7 863.72 44.35
-3 3 7 867.79 45.06
-3 3 7 900.64 45.55
-3 -3 7 873.86 44.25
-3 -3 8 69.36 12.33
-3 3 8 71.31 12.48
-3 3 8 75.04 12.63
-3 3 8 73.16 12.13
-3 -3 8 98.97 13.9
-3 -3 9 737.39 44.28
-3 3 9 699.18 43.05
-3 3 9 672.03 42.81
-3 3 9 669.03 40.76
-3 -3 9 728.76 42.06
-3 -3 10 394.27 33.12
-3 3 10 405.24 33.88
-3 3 10 391.54 32.82
-3 -3 10 420.7 31.6
-3 3 10 449.87 32.85
-3 -3 11 433.61 36.82
-3 3 11 454.8 37.06
-3 -5 -11 234.04 25.81
-3 -5 -10 388.13 32.01
-3 -5 -10 337.88 26.67
-3 5 -10 410.51 34.58
-3 -5 -10 422.63 33.82
-3 -5 -9 135.45 18.6
-3 5 -9 151.41 20.77
-3 -5 -9 143.72 16.05
-3 -5 -9 205.37 22.29
-3 5 -8 317.67 28.06
-3 -5 -8 322.3 23.36
-3 -5 -8 290.33 25.49
-3 -5 -8 260.87 24.55
-3 5 -7 540.83 30.37
-3 5 -7 503.01 35.05
-3 -5 -7 496.27 29.06
-3 -5 -7 559.7 35.41
-3 5 -6 61.72 11.1
-3 5 -6 94.37 11.46
-3 -5 -6 76.25 11.87
-3 -5 -6 90.96 10.76
-3 -5 -6 96.24 13.08
-3 5 -6 79.88 6.77
-3 -5 -5 1339.23 56.4
-3 -5 -5 1451.57 57.77
-3 5 -5 1454.71 54.51
-3 5 -5 1415.32 58.76
-3 -5 -5 1425.05 51.26
-3 5 -5 1209.29 38.61
-3 5 -5 1394.37 48.24
-3 5 -5 1349.72 42.85
-3 5 -5 1240.99 45.57
-3 -5 -4 4.05 3.52
-3 5 -4 5.59 4.36
-3 -5 -4 4.49 2.66
-3 -5 -4 10.57 4.33
-3 5 -4 3.51 3.05
-3 5 -4 5.93 1.36
-3 5 -4 5.48 2.44
-3 -5 -4 10.76 4.78
-3 5 -4 7.59 3.18
-3 5 -4 1.54 1.53
-3 -5 -3 2240.77 79.73
-3 5 -3 2386.33 71.53
-3 -5 -3 2332.56 80.01
-3 -5 -3 2581.15 81.42
-3 5 -3 2472.68 81.06
-3 5 -3 2572.13 79.87
-3 -5 -3 2421.64 80.41
-3 5 -3 2152.23 63.55
-3 5 -3 2263.99 63.94
-3 5 -3 2352 69.73
-3 -5 -2 16.19 4.41
-3 5 -2 15.18 3.04
-3 5 -2 12.59 4.03
-3 -5 -2 25.01 5.36
-3 -5 -2 18.85 4.98
-3 5 -2 16.24 2.54
-3 -5 -2 11.89 4.01
-3 5 -2 24.25 5.52
-3 -5 -2 22.51 5.31
-3 5 -2 19.22 2.44
-3 5 -1 1397.46 42.13
-3 -5 -1 1543.68 54.1
-3 5 -1 1356.44 42.72
-3 -5 -1 1464.78 52.96
-3 5 -1 1494.31 52.3
-3 -5 -1 1450.6 52.34
-3 -5 -1 1535.97 53.34
-3 5 -1 1434.97 43.65
-3 -5 -1 1301.3 45.92
-3 -5 0 313 19
-3 -5 0 327.29 19.26
-3 -5 0 330.09 19.99
-3 5 0 310.05 18.13
-3 -5 0 337.94 19.26
-3 5 0 304.95 15.07
-3 -5 1 671.88 29.79
-3 -5 1 658.62 30.05
-3 -5 1 625.95 29.77
-3 -5 1 609.29 28.07
-3 5 1 666.98 29.5
-3 -5 2 1038.67 40.81
-3 -5 2 1028.81 40.98
-3 -5 2 976.77 30.66
-3 5 2 1021.65 41.5
-3 -5 2 1097.89 41.83
-3 -5 3 678.27 29.64
-3 -5 3 709.98 24.98
-3 5 3 670.81 20.25
-3 -5 3 693.32 31.06
-3 -5 3 756.44 32.36
-3 -5 3 615.46 21.01
-3 5 3 764.79 34
-3 -5 3 731.72 33.22
-3 -5 4 755.35 29.6
-3 -5 4 788.91 35.1
-3 5 4 790.25 36.88
-3 -5 4 755.75 33.15
-3 -5 4 740.96 35.35
-3 5 4 781.2 36.38
-3 -5 4 851.02 38.16
-3 5 5 1052.2 45.52
-3 -5 5 908.8 38.74
-3 5 5 1020.57 45.45
-3 -5 5 962.77 44.96
-3 5 6 403.23 26.01
-3 -5 6 335.12 18.49
-3 5 6 352.33 24.81
-3 -5 6 364.44 24.81
-3 5 7 731.19 40.79
-3 5 7 741.34 26.79
-3 5 7 818.29 43.12
-3 -5 7 752.63 41.12
-3 5 8 97.81 14.42
-3 -5 8 79.45 13.38
-3 5 8 65.92 11.95
-3 5 8 46.93 6.74
-3 -5 8 51.14 10.52
-3 -5 9 359.9 30.27
-3 5 9 361.37 30.13
-3 5 9 367.95 30.96
-3 5 9 354.19 20.18
-3 -5 9 413.6 30.77
-3 5 9 398.28 30.23
-3 5 10 39.42 10.91
-3 -5 10 37.56 10.81
-3 5 10 50.41 12.22
-3 5 10 21.62 7.74
-3 -5 10 45.7 10.99
-3 5 11 254.07 27.36
-3 -5 11 301.11 29.86
-3 5 11 227.76 26.93
-3 7 -10 413.91 36.44
-3 -7 -10 381.77 32.38
-3 -7 -10 465.87 37.06
-3 7 -10 383.26 34.5
-3 7 -9 18.6 8.31
-3 -7 -9 15.67 7
-3 -7 -9 27.04 8.76
-3 -7 -8 363.86 29.24
-3 7 -8 322.25 29.74
-3 -7 -8 385.73 23.95
-3 -7 -8 319.88 28.83
-3 -7 -7 351.38 27.66
-3 7 -7 347.9 29.01
-3 -7 -7 365.15 22.44
-3 -7 -7 358.05 28.86
-3 7 -7 355.6 18.78
-3 7 -6 997.78 45.35
-3 7 -6 985.97 51.02
-3 -7 -6 1008.06 41.28
-3 -7 -6 1063.08 51.92
-3 7 -6 943.01 37.9
-3 -7 -5 548.4 33.6
-3 7 -5 558.73 33.87
-3 7 -5 564.9 31.08
-3 -7 -5 565.91 26.45
-3 -7 -5 513.62 32.84
-3 7 -5 499.27 24.98
-3 -7 -4 392.03 26.8
-3 -7 -4 467.15 28.1
-3 7 -4 426.18 25.86
-3 7 -4 399.35 26.78
-3 7 -4 398.05 16.89
-3 7 -4 381.98 21.11
-3 -7 -3 1293.54 55.07
-3 -7 -3 1381.52 55.73
-3 -7 -3 1332.29 55.44
-3 7 -3 1336.12 55.05
-3 -7 -3 1474.74 56.82
-3 7 -3 1385.49 50.52
-3 -7 -2 1524.26 58.05
-3 -7 -2 1555.47 58.3
-3 -7 -2 1572.47 58.05
-3 7 -2 1540.49 57.2
-3 -7 -2 1496.41 57.64
-3 7 -2 1443.05 47.65
-3 7 -2 1404.53 53.31
-3 7 -1 2501.72 70.19
-3 -7 -1 2621.14 88.08
-3 -7 -1 2823.62 88.09
-3 7 -1 2786.82 85.25
-3 -7 -1 2847.35 89.7
-3 -7 -1 2735.56 86.77
-3 7 -1 2573.29 78.42
-3 7 -1 2675.67 85.11
-3 -7 0 554.84 28.74
-3 -7 0 505.88 28.64
-3 -7 0 542.47 27.7
-3 7 0 516.8 25.41
-3 -7 0 537.35 26.78
-3 -7 0 535.02 25.86
-3 -7 1 43.79 2.78
-3 -7 1 46.2 2.93
-3 -7 1 56.1 7.9
-3 -7 1 71.87 9.48
-3 -7 1 56.61 8.45
-3 -7 1 56.18 7.23
-3 7 1 45.16 6.35
-3 7 1 40.36 7.24
-3 -7 2 1613.11 48.03
-3 7 2 1541.09 48.95
-3 -7 2 1692.09 61.06
-3 -7 2 1660.05 59.71
-3 -7 2 1667.06 60.93
-3 -7 2 1594.21 55.1
-3 7 2 1616.83 58.06
-3 7 2 1790.03 62.48
-3 -7 2 1705.42 60.87
-3 7 3 56.63 5.64
-3 -7 3 48.7 5.27
-3 -7 3 74.36 8.48
-3 -7 3 62.07 8.75
-3 -7 3 67.62 9.27
-3 -7 3 66.38 7.27
-3 7 3 59.16 8.99
-3 -7 3 42.35 7.62
-3 -7 4 613.44 24.66
-3 -7 4 572.44 29.37
-3 -7 4 594.71 31.49
-3 -7 4 588.66 29.64
-3 -7 4 559.41 24.52
-3 -7 4 577.46 18.49
-3 -7 4 491.75 17.83
-3 7 4 630.54 32.59
-3 -7 4 583.27 32.04
-3 -7 5 799.38 39.11
-3 7 5 867.79 41.78
-3 -7 5 770.21 39.55
-3 -7 5 821.48 37.43
-3 7 5 837.99 41.31
-3 -7 5 785.78 40.82
-3 7 6 1306.25 59.08
-3 -7 6 1382.68 53.61
-3 7 6 1375.76 60.6
-3 -7 6 1393.89 60.37
-3 7 7 145.12 17.22
-3 7 7 148.61 17.83
-3 -7 7 174.72 18.69
-3 7 8 558.69 37.76
-3 7 8 604.82 39.31
-3 -7 8 622.78 38.86
-3 -7 9 114.62 17.18
-3 7 9 173.35 20.84
-3 7 9 121.44 12.57
-3 7 9 156.75 20.37
-3 -7 9 161.91 19.39
-3 -7 10 682.93 45.32
-3 7 10 592.13 42.46
-3 7 10 586.22 42.94
-3 7 10 674.66 42.44
-3 -7 10 651.05 42.3
-3 -7 11 235.72 27.3
-3 7 11 251.82 27.58
-3 7 11 238.72 27.6
-3 9 -10 112.94 19.7
-3 -9 -10 128.52 20.5
-3 9 -9 66.72 14.64
-3 -9 -9 79.38 15.34
-3 -9 -8 233.21 23.69
-3 9 -8 193.42 23.37
-3 -9 -8 194.61 22.92
-3 -9 -7 383.12 30.09
-3 9 -7 393.47 32.01
-3 -9 -7 445.91 33.39
-3 9 -7 407.77 23.38
-3 9 -6 221.02 19.58
-3 9 -6 226.24 22.72
-3 -9 -6 214.24 22.11
-3 9 -6 196.35 15.91
-3 -9 -5 1076.28 52.15
-3 9 -5 994.89 47.12
-3 9 -5 1083.55 51.96
-3 9 -5 1045.9 34.9
-3 9 -5 924.71 42.09
-3 -9 -4 190.75 17.48
-3 9 -4 174.71 17.69
-3 -9 -4 171.68 17.68
-3 9 -4 161.11 14.4
-3 -9 -3 1679.88 65.23
-3 -9 -3 1750.19 66.62
-3 9 -3 1684.83 64.98
-3 -9 -3 1643.26 65.94
-3 9 -3 1496.49 60
-3 -9 -2 395.67 25.01
-3 9 -2 367.79 23.24
-3 -9 -2 336.02 15.71
-3 9 -2 359.8 22.7
-3 -9 -1 1119.12 36.52
-3 -9 -1 1258.48 51.76
-3 -9 -1 1235.58 49.91
-3 9 -1 1220.8 47.09
-3 -9 -1 1168.15 51.13
-3 9 -1 1198.25 44.28
-3 -9 -1 1259.08 49.41
-3 9 -1 1102.09 47.97
-3 -9 0 900.42 28.69
-3 -9 0 1037.48 44.61
-3 -9 0 1023.05 42.31
-3 9 0 840.16 26.71
-3 -9 0 971.35 43.74
-3 9 0 999.2 38.63
-3 -9 0 1021.02 40.52
-3 9 0 980.34 38.51
-3 -9 0 902.72 39.25
-3 -9 1 822.66 27.68
-3 -9 1 801.22 39.97
-3 -9 1 925.95 41.79
-3 -9 1 796.67 37.86
-3 -9 1 849.51 35.59
-3 9 1 851.75 37.16
-3 9 1 894.25 40.82
-3 -9 2 755.58 37.03
-3 -9 2 741.8 34.78
-3 -9 2 760.46 37.5
-3 9 2 666.76 33.54
-3 -9 2 675.42 29.91
-3 9 2 672.74 35.87
-3 -9 2 684.67 35.16
-3 -9 3 882.11 41.48
-3 -9 3 832.33 37.74
-3 -9 3 771.54 39
-3 -9 3 782.15 31.68
-3 -9 3 800.03 39.96
-3 9 3 778.07 39.84
-3 -9 4 367.19 24.65
-3 -9 4 348.35 25.31
-3 9 4 363.24 19.72
-3 9 4 421.37 27.28
-3 -9 4 416.11 27.35
-3 9 5 1124.32 44.02
-3 -9 5 1262.54 51.27
-3 -9 5 1172.54 53.1
-3 9 5 1238.27 54.21
-3 -9 5 1041.33 33.6
-3 9 5 1193.45 52.96
-3 -9 5 1305.15 55.68
-3 9 6 58.91 10.79
-3 -9 6 29.85 7.22
-3 -9 6 32.97 8.72
-3 9 6 43.44 9.73
-3 -9 6 35.51 8.9
-3 9 7 943.53 49.75
-3 -9 7 938.92 35.69
-3 9 7 809.58 47.99
-3 -9 7 902.56 49.17
-3 9 8 17.78 7.6
-3 9 8 9.35 6.11
-3 -9 8 12.54 3.93
-3 -9 8 6.51 4.79
-3 9 9 565.35 40.08
-3 9 9 551 40.57
-3 -9 9 564.13 39.12
-3 9 10 33.7 10.26
-3 9 10 16.48 8.6
-3 -9 10 48.05 11.87
-3 11 -9 11.45 7.49
-3 -11 -9 33.77 10.76
-3 11 -8 254.57 27.34
-3 -11 -8 285.53 28.72
-3 11 -7 292.15 27.95
-3 -11 -7 274.25 27.28
-3 11 -7 256.45 19.96
-3 11 -6 906.5 44.96
-3 11 -6 756.79 45.89
-3 -11 -6 794.85 47.42
-3 11 -6 814.03 40.02
-3 -11 -5 200.24 19.19
-3 11 -5 179.64 18.53
-3 11 -5 217.67 21.29
-3 -11 -5 214.97 21.91
-3 11 -5 195.9 17.76
-3 -11 -4 1091.43 53.18
-3 -11 -4 1165.03 52.52
-3 11 -4 1226.91 53.85
-3 11 -4 1070.74 35.23
-3 11 -4 995.79 47.52
-3 -11 -3 184.71 17.95
-3 11 -3 160.98 16.34
-3 -11 -3 181.84 12.46
-3 11 -3 163.45 16.09
-3 -11 -2 1106.57 48.98
-3 11 -2 998.16 44.94
-3 -11 -2 981.61 46.85
-3 11 -2 1011.46 46.78
-3 -11 -1 362.62 16.9
-3 11 -1 364.54 22.21
-3 -11 -1 356.29 26.04
-3 -11 -1 381.82 25.14
-3 11 -1 391.05 22.98
-3 -11 -1 455.05 29.4
-3 -11 0 251.93 12.88
-3 -11 0 257.26 21.62
-3 -11 0 234.71 20.53
-3 -11 0 253.17 19.64
-3 11 0 226.04 16.25
-3 11 0 269.05 19.02
-3 -11 1 127.99 9.11
-3 -11 1 133.04 15.22
-3 -11 1 132.81 15.46
-3 -11 1 148.74 14.33
-3 11 1 126.15 7.71
-3 11 1 132.5 13.62
-3 11 1 136.49 15.08
-3 -11 2 393.54 27.31
-3 -11 2 367.74 23.9
-3 -11 2 433.78 28.68
-3 11 2 389.45 25.75
-3 -11 2 402.06 21.15
-3 11 2 371.62 26.74
-3 11 3 129.82 11.09
-3 -11 3 129.84 13.7
-3 -11 3 124.59 14.98
-3 -11 3 128.11 15.29
-3 11 3 121.26 14.33
-3 -11 3 175.7 17.43
-3 11 3 159.21 16.83
-3 -11 4 688.59 39.08
-3 -11 4 641.94 33.8
-3 -11 4 667.79 37.37
-3 11 4 583.99 28.97
-3 11 4 663.61 38.18
-3 -11 4 703.03 39.31
-3 11 5 153.72 13.68
-3 -11 5 152.05 16.69
-3 -11 5 164.77 18.34
-3 11 5 166.4 18.3
-3 11 5 140.8 16.79
-3 -11 5 113.43 15.88
-3 11 6 937.91 42.49
-3 11 6 989.98 51.3
-3 -11 6 907.99 46.93
-3 -11 6 1048.85 52.87
-3 11 6 952.7 51.49
-3 -11 6 974.88 51.69
-3 11 6 995.63 50.69
-3 11 7 89.57 14.96
-3 -11 7 93.74 15.28
-3 11 7 87.18 15.03
-3 -11 7 90.62 14.82
-3 11 8 509.57 36.82
-3 -11 8 431.96 34.68
-3 11 8 387.47 33.42
-3 -11 8 480.92 35.9
-3 11 9 159.36 21.29
-3 -11 9 150.2 21.17
-3 11 9 167.9 22.42
-3 -11 9 164.45 21.11
-3 11 10 296.1 29.7
-3 -11 10 307.82 30.79
-3 11 10 227.23 27.41
-3 -11 10 272.54 27.75
-3 13 -8 238.39 26.88
-3 -13 -8 274.35 29.07
-3 13 -7 417.71 34.1
-3 -13 -7 390.3 33.75
-3 13 -7 350.2 25.99
-3 13 -6 346.37 29.67
-3 13 -6 387.41 27.58
-3 -13 -5 422.88 30.24
-3 13 -5 441.63 31.9
-3 13 -5 379.77 27.86
-3 -13 -4 152.09 17.7
-3 13 -4 141.8 16.71
-3 -13 -4 206.84 21.15
-3 -13 -4 184.08 14.39
-3 13 -4 160.74 17.44
-3 -13 -3 492.45 33.05
-3 -13 -3 510.06 24.82
-3 -13 -3 565.7 34.92
-3 13 -3 508.65 31.11
-3 13 -3 521.53 20.79
-3 13 -3 501.39 32.71
-3 -13 -2 103.01 13.56
-3 -13 -2 77.33 12.96
-3 13 -2 128.67 13.58
-3 -13 -2 103.87 9.23
-3 -13 -2 104.62 14.03
-3 13 -2 66.69 11.5
-3 -13 -1 595.79 33.72
-3 -13 -1 515.53 34.05
-3 13 -1 564.49 29.27
-3 -13 -1 604.11 36.8
-3 13 -1 507.69 29.81
-3 -13 0 222.65 21.51
-3 -13 0 221.65 19.08
-3 -13 0 254.1 22.55
-3 13 0 221.04 18.86
-3 13 0 188.13 19.58
-3 -13 1 936.11 47.54
-3 -13 1 828.72 45.48
-3 -13 1 884.01 41.69
-3 13 1 787.04 41.54
-3 13 1 873.85 46.12
-3 -13 2 199.64 13.77
-3 -13 2 273.13 23.78
-3 -13 2 228.42 18.81
-3 -13 2 221.18 21.57
-3 13 2 216.53 20.08
-3 13 2 236.35 22.04
-3 -13 3 663.48 40.34
-3 -13 3 741.41 36.91
-3 -13 3 713.61 42.1
-3 13 3 666.48 39.52
-3 -13 3 716.95 41.61
-3 13 3 774.67 43.23
-3 -13 4 267.87 20.73
-3 -13 4 273.42 24.39
-3 -13 4 287.26 25.51
-3 13 4 292.67 19.73
-3 13 4 316.61 26.49
-3 -13 4 301.68 25.9
-3 -13 5 576.63 38.27
-3 -13 5 562.16 36.47
-3 13 5 494.8 28.5
-3 13 5 599.4 38.29
-3 -13 5 534.15 36.78
-3 13 6 272.72 20.71
-3 13 6 197.41 22.46
-3 -13 6 298.57 27.27
-3 -13 6 267.66 24.34
-3 13 6 260.45 25.49
-3 13 6 245.83 24.34
-3 -13 6 268.81 25.81
-3 13 7 448.83 34.72
-3 -13 7 425.53 31.86
-3 -13 7 502.57 37.33
-3 13 7 423.22 34.86
-3 -13 7 493.32 36.78
-3 13 8 299.57 28.91
-3 -13 8 313.96 29.88
-3 13 8 231.89 26.27
-3 -13 8 284.6 28.51
-3 13 9 532.9 40.52
-3 -13 9 509.09 40.93
-3 13 9 516.07 41.38
-3 -13 9 567.32 41.26
-3 15 -7 67.74 14.12
-3 15 -7 73.06 12.53
-3 15 -6 333.48 29.15
-3 -15 -6 331.78 30.69
-3 15 -6 316.43 26.6
-3 15 -5 32.69 9.04
-3 -15 -5 38.15 9.92
-3 -15 -5 11.86 6.65
-3 15 -5 28 8.62
-3 -15 -4 578.84 37.89
-3 -15 -4 592.77 39.4
-3 15 -4 589.88 38.14
-3 -15 -3 51.64 11.2
-3 -15 -3 61.25 11.73
-3 -15 -3 25.89 5.68
-3 15 -3 44.99 10.33
-3 -15 -2 586.42 27.36
-3 -15 -2 582.41 38.24
-3 15 -2 583.93 33.83
-3 15 -2 640.89 39.8
-3 -15 -1 15.43 4.04
-3 -15 -1 21.7 8.31
-3 -15 -1 30.72 8.09
-3 15 -1 24.31 7.17
-3 -15 0 506.7 24.54
-3 -15 0 588.89 38.15
-3 -15 0 559.83 37.12
-3 -15 0 552.32 32.7
-3 15 0 473.17 31.72
-3 15 0 561.2 37.24
-3 -15 1 163 12.75
-3 -15 1 192.68 21.13
-3 -15 1 129.16 17.37
-3 -15 1 181.33 17.25
-3 15 1 167.01 18.31
-3 15 1 141.67 18.21
-3 -15 2 373.29 21.41
-3 -15 2 460.79 33.38
-3 -15 2 446.58 33.18
-3 15 2 427.56 30.93
-3 15 2 376.68 30.7
-3 -15 3 219.51 23.3
-3 -15 3 260.08 25.64
-3 15 3 249.82 23.82
-3 15 3 247.21 24.7
-3 15 4 432.32 26.39
-3 -15 4 444.85 34
-3 -15 4 460.91 34.95
-3 15 4 453.53 33.96
-3 15 4 435.27 33.76
-3 -15 5 124.98 17.66
-3 -15 5 137.12 19.14
-3 15 5 117.79 13.71
-3 15 5 123.63 17.97
-3 -15 6 405.85 34.62
-3 -15 6 404.37 32.53
-3 15 6 411.59 27.31
-3 15 6 404 33.12
-3 15 7 111.38 18.06
-3 15 7 119.18 14.78
-3 15 7 94.42 16.87
-3 -15 7 113.32 18.66
-3 15 8 317.82 30.7
-3 -15 8 336.4 32.76
-3 15 8 306.58 31.19
-3 -17 -6 21.24 9.1
-3 17 -6 30.84 9.25
-3 -17 -5 184.11 21.29
-3 -17 -5 227.42 24.85
-3 17 -5 211.24 23.36
-3 -17 -4 131.88 18.15
-3 -17 -4 104.65 16.44
-3 17 -4 99.57 16.25
-3 -17 -3 226.62 23.8
-3 17 -3 180.97 18.7
-3 17 -3 185.19 22.16
-3 -17 -2 174.95 21.24
-3 17 -2 160.56 17.74
-3 17 -2 139.76 19.28
-3 -17 -1 239.2 24.88
-3 17 -1 217 21.31
-3 -17 0 213.74 23.76
-3 17 0 213.98 21.69
-3 17 0 212.87 23.68
-3 -17 1 403.95 33.63
-3 -17 1 474.89 36.14
-3 17 1 426.5 32.36
-3 17 1 437.25 34.68
-3 -17 2 4.94 4.88
-3 -17 2 4.96 5.99
-3 17 2 8.82 6.16
-3 17 2 9.87 5.97
-3 -17 3 636.52 43.13
-3 -17 3 620.42 42.94
-3 17 3 624.23 42.06
-3 17 3 583.88 42.27
-3 17 4 92.19 12.36
-3 -17 4 83.49 16.04
-3 -17 4 83.63 15.78
-3 17 4 96.18 16.48
-3 17 4 86.34 15.81
-3 -17 5 377.52 32.93
-3 -17 5 387.44 34.19
-3 17 5 333.55 31.13
-3 17 5 359.61 32.05
-3 -17 6 137.83 20.02
-3 -17 6 129.1 20.31
-3 17 6 167.86 21.94
-3 17 7 203.07 24.99
-3 17 7 193.03 24.83
-3 -19 -5 9.18 6.41
-3 -19 -4 194.27 23.06
-3 19 -4 169.67 22.33
-3 -19 -3 67.07 13.97
-3 19 -3 67.72 12.19
-3 19 -3 60.21 13.53
-3 -19 -2 372.72 32.67
-3 19 -2 351.63 28.64
-3 19 -2 331.54 31.76
-3 -19 -1 94.16 16.87
-3 19 -1 80.97 13.97
-3 -19 0 234.13 26.33
-3 19 0 283.77 26.49
-3 19 0 257.38 27.82
-3 -19 1 294.17 29.87
-3 19 1 332.94 29.81
-3 19 1 334.84 31.74
-3 -19 2 142.33 21.27
-3 19 2 144.74 20.33
-3 19 2 158.82 22.12
-3 19 3 228.67 25.62
-3 19 3 212.61 25.46
-3 -19 4 117.13 19
-3 19 4 64.58 14.23
-3 19 4 96.92 17.64
-3 19 5 78.53 15.85
-3 19 5 119.05 19.47
-3 21 -1 127.73 18.77
-3 21 0 202.18 23.89
-3 21 1 426.97 35.7
-2 0 -12 2.53 4.98
-2 0 -12 2.28 3.9
-2 0 -11 -2.39 4.71
-2 0 -11 2.21 3.78
-2 0 -10 538.88 38.32
-2 0 -10 694.35 41.54
-2 0 -9 -1.99 3.4
-2 0 -9 3.83 4.63
-2 0 -9 1.62 3.58
-2 0 -9 -1.9 3.75
-2 0 -8 2288.51 88.36
-2 0 -8 2392.97 88.63
-2 0 -8 2346.64 85.05
-2 0 -8 2337.35 87.76
-2 0 -7 3.08 3.04
-2 0 -7 2.55 2.81
-2 0 -7 1.48 2.92
-2 0 -6 5209.39 156.85
-2 0 -6 5245.24 153.92
-2 0 -6 5307.68 148.35
-2 0 -6 5160.67 158.76
-2 0 -5 0.67 1.76
-2 0 -5 -0.93 1.59
-2 0 -5 -0.48 1.49
-2 0 -5 1.16 2.3
-2 0 -5 4.29 2.8
-2 0 -4 2334.29 75.62
-2 0 -4 2602.12 79.83
-2 0 -4 2364.8 75.11
-2 0 -4 2447.79 71.79
-2 0 -3 0.71 1.71
-2 0 -3 0.65 1.57
-2 0 -3 0.39 1.02
-2 0 -2 1181.04 36.36
-2 0 -2 1306.51 41.42
-2 0 -2 1216.47 42.11
-2 0 -2 1174.47 41.78
-2 0 -2 1266.63 41.84
-2 0 -2 1190.57 37.7
-2 0 -1 1.49 1.7
-2 0 -1 -0.52 1.55
-2 0 -1 0.44 1.14
-2 0 -1 -0.55 1.79
-2 0 -1 -0.88 1.38
-2 0 0 82.31 6.76
-2 0 0 63.67 5.25
-2 0 0 93.43 6.7
-2 0 0 72.61 6.08
-2 0 1 0.38 1.06
-2 0 1 0.19 0.75
-2 0 1 4.14 1.24
-2 0 1 0.4 1.49
-2 0 2 3593.02 100.99
-2 0 2 3482.44 100.73
-2 0 2 3418.59 101.24
-2 0 3 1.39 1.1
-2 0 3 1.29 0.98
-2 0 3 -0.61 1.71
-2 0 3 0.53 1.47
-2 0 4 2665.52 77.44
-2 0 4 2550.53 77.85
-2 0 4 2643.19 80.54
-2 0 4 2541.28 68.88
-2 0 4 2448.97 67.18
-2 0 4 2321.43 68.23
-2 0 4 2544.3 80.61
-2 0 4 2698.85 81.52
-2 0 5 1.07 2.11
-2 0 5 1.09 1.87
-2 0 5 2.62 1.21
-2 0 6 4110.38 130
-2 0 6 4138.34 129.92
-2 0 6 4089.87 129.28
-2 0 7 -1.53 2.61
-2 0 7 1.51 2.58
-2 0 7 1.36 2.33
-2 0 8 1245.72 56.49
-2 0 8 1168.75 52.29
-2 0 9 2.04 3.49
-2 0 9 -1.63 3.59
-2 0 10 430.07 33.54
-2 0 11 2.53 3.53
-2 0 12 -2.74 6.04
-2 -2 -12 13.73 7.15
-2 -2 -12 11.13 6.6
-2 2 -12 18.88 8.4
-2 2 -11 729.49 47.8
-2 -2 -11 728.39 44.22
-2 -2 -11 716.61 44.11
-2 2 -11 723.77 45.37
-2 2 -10 2.38 3.32
-2 -2 -10 4.03 4.45
-2 2 -10 -2.16 4.78
-2 -2 -10 4.07 4.02
-2 -2 -10 4.02 4.43
-2 -2 -10 -2.28 3.9
-2 -2 -9 262.18 23.21
-2 2 -9 260.44 25.04
-2 -2 -9 248.14 22.56
-2 2 -9 235.22 23.43
-2 -2 -9 272.4 23.89
-2 -2 -9 271.79 24.89
-2 -2 -8 3.22 3.56
-2 2 -8 7.24 4.72
-2 -2 -8 1.7 2.38
-2 2 -8 3.72 3.67
-2 -2 -8 4.95 4.3
-2 2 -8 9.13 4.98
-2 -2 -8 1.85 2.59
-2 -2 -7 479.37 28.53
-2 2 -7 508.66 25.04
-2 -2 -7 446.93 28.56
-2 -2 -7 520.42 29.83
-2 2 -7 540.54 26.75
-2 2 -7 495.76 28.38
-2 2 -7 432.07 15.68
-2 2 -7 412.38 15.38
-2 2 -6 75.65 8.78
-2 -2 -6 83.83 10.79
-2 2 -6 97.37 9.8
-2 2 -6 55.01 9.54
-2 -2 -6 65.93 9.34
-2 2 -6 75.71 7.13
-2 2 -6 72.57 9.34
-2 2 -6 63.2 4.66
-2 2 -5 478.62 22.4
-2 -2 -5 459.88 25.88
-2 -2 -5 469.45 25.52
-2 -2 -5 440.86 20.02
-2 2 -5 417.15 22.24
-2 2 -5 464.74 26.56
-2 -2 -5 440.3 24.03
-2 2 -5 452.91 18.23
-2 2 -5 433.49 16.02
-2 -2 -5 391.03 24.75
-2 2 -5 426.01 15.73
-2 2 -4 90.57 8.08
-2 -2 -4 78.46 9.21
-2 -2 -4 82.62 9.12
-2 2 -4 78.16 7.42
-2 -2 -4 77.45 6.34
-2 2 -4 91.28 8.85
-2 2 -4 105.6 10.67
-2 -2 -4 69.33 8.09
-2 2 -4 76.67 5.38
-2 -2 -4 73.89 8.71
-2 2 -4 78.02 5.83
-2 2 -4 77.75 4.88
-2 -2 -4 73.55 9.25
-2 2 -4 79.09 5.02
-2 2 -3 3716.57 104.12
-2 -2 -3 3722.31 108.76
-2 2 -3 3687.94 103.95
-2 -2 -3 3748.94 99.94
-2 2 -3 3832.49 105.15
-2 2 -3 3967.71 107.72
-2 -2 -3 3757.62 108.52
-2 2 -3 3384.66 97.27
-2 2 -3 3709.24 107.46
-2 2 -3 3329.97 104.13
-2 2 -3 3692.09 101.82
-2 2 -3 3366.04 98.84
-2 2 -3 3701.71 98.61
-2 2 -2 93.26 6.93
-2 2 -2 113.59 7.32
-2 -2 -2 107.9 8.94
-2 2 -2 99.47 8.55
-2 2 -2 88.58 6.49
-2 -2 -2 120.27 9.61
-2 2 -2 99.33 8.34
-2 2 -2 101 7.24
-2 2 -2 98.61 6.02
-2 -2 -1 794.39 28.61
-2 2 -1 771.48 28
-2 2 -1 769.79 23.8
-2 -2 -1 764.02 29.09
-2 -2 -1 752.94 28.25
-2 2 -1 793.32 29
-2 -2 -1 873.01 30.06
-2 -2 -1 787.43 27.68
-2 2 -1 771.71 28.01
-2 2 -1 794.75 27.74
-2 2 -1 704.27 21.27
-2 -2 -1 664.74 23.49
-2 -2 0 798.82 24.88
-2 -2 0 894.26 30.62
-2 -2 0 894.28 31.43
-2 -2 0 891.82 30.04
-2 -2 0 911.59 31.63
-2 2 0 883.28 31.13
-2 2 0 938.72 30.74
-2 2 0 890.99 30.67
-2 2 0 869.57 29.8
-2 -2 1 7141.38 190.01
-2 -2 1 6810.38 182.98
-2 -2 1 7151.6 189.61
-2 -2 1 7121.98 189.04
-2 -2 1 6998.46 188.69
-2 -2 1 6424.85 183.5
-2 2 1 7217.2 189.09
-2 2 1 7136.25 190.11
-2 -2 1 7108.09 190.05
-2 -2 2 1656.08 46.38
-2 -2 2 1504.8 46.61
-2 -2 2 1601.01 51.37
-2 2 2 1505.73 48.9
-2 -2 2 1656.13 49.65
-2 -2 2 1485.68 45.93
-2 2 2 1653.66 51.42
-2 2 2 1641.17 50.48
-2 2 2 1611.79 50.83
-2 -2 3 2278.93 68.21
-2 2 3 2332.23 69.74
-2 -2 3 2293.96 72.12
-2 -2 3 2382.93 68.9
-2 2 3 2212.01 70.03
-2 -2 4 88.77 9.15
-2 2 4 87.96 8.08
-2 -2 4 86.8 7.92
-2 2 4 80.19 8.85
-2 -2 4 85.97 6.58
-2 2 4 89.2 9.47
-2 -2 4 75.36 8.79
-2 2 4 81.96 7.64
-2 -2 5 3018.99 93.21
-2 2 5 2947.92 92.87
-2 -2 5 2646.62 80.89
-2 2 5 2779.57 77.38
-2 2 5 2948.07 93.32
-2 -2 5 2938.8 92.51
-2 2 6 43.07 8.03
-2 -2 6 39.62 7.8
-2 -2 6 42.82 4.63
-2 2 6 58.6 9.18
-2 -2 6 66.19 9.45
-2 -2 7 514.18 31.54
-2 2 7 528.98 31.79
-2 2 7 555.49 32.42
-2 2 7 519.82 30.1
-2 -2 7 546.43 30.78
-2 2 8 35.54 8.63
-2 -2 8 34.49 8.63
-2 2 8 30.24 7.9
-2 2 8 28.84 5.46
-2 -2 8 45.59 8.91
-2 2 8 35.37 8.35
-2 -2 9 1120.91 56.61
-2 2 9 1145.42 56.77
-2 2 9 1132.39 56.58
-2 -2 9 1137.52 52.82
-2 2 9 1182.64 53.48
-2 2 10 38.88 10.39
-2 -2 10 32.65 9.82
-2 2 10 44.36 10.77
-2 -2 10 48.04 9.99
-2 2 11 527.63 39.23
-2 -2 11 518.09 39.38
-2 -2 12 55.55 13.77
-2 2 12 51.43 13.42
-2 4 -11 98.74 17.56
-2 -4 -11 112.17 15.76
-2 4 -11 120.2 18.29
-2 -4 -11 94.23 15.36
-2 -4 -11 128.02 18.64
-2 -4 -10 342.6 26.57
-2 4 -10 264.96 26.39
-2 -4 -10 313.97 28.04
-2 -4 -10 319.32 27.19
-2 -4 -10 331.35 29.99
-2 -4 -9 186.39 18.38
-2 -4 -9 212.49 21.55
-2 -4 -9 167.79 19.09
-2 4 -9 197.3 21.11
-2 -4 -9 214.82 22.75
-2 4 -8 882.8 49.54
-2 -4 -8 1023.85 46.31
-2 -4 -8 989.81 48.22
-2 -4 -8 965.99 49.16
-2 4 -7 351.17 26.7
-2 -4 -7 350.32 22.69
-2 -4 -7 341.46 24.61
-2 -4 -7 321.36 25.03
-2 4 -7 312.24 12.51
-2 -4 -7 331.45 25.78
-2 -4 -6 2259.18 80.98
-2 4 -6 2248.87 70.57
-2 4 -6 2355.68 74.77
-2 4 -6 2329.33 83.68
-2 -4 -6 2232.24 75.35
-2 4 -6 2145.31 67.93
-2 4 -6 2198.3 65.62
-2 4 -6 2086.69 66.86
-2 -4 -6 2221.28 82.2
-2 -4 -5 381.67 24.21
-2 4 -5 393.2 18.74
-2 -4 -5 417.19 25.23
-2 4 -5 403.79 21.95
-2 4 -5 409.66 25.8
-2 -4 -5 381.9 21.31
-2 4 -5 424.1 17.91
-2 -4 -5 473.12 27.33
-2 4 -5 420.87 17.96
-2 4 -5 374.82 17.66
-2 4 -5 416.49 18.24
-2 -4 -4 1450.68 53.02
-2 4 -4 1401.32 44.19
-2 -4 -4 1395.71 52.95
-2 4 -4 1466.54 50.53
-2 4 -4 1314.74 53.21
-2 4 -4 1357.19 42.55
-2 4 -4 1310.05 45.02
-2 4 -4 1289.67 44.89
-2 4 -4 1344.67 44.46
-2 -4 -4 1479.02 54.3
-2 4 -4 1395.97 43.87
-2 -4 -3 1077.2 41.47
-2 -4 -3 1020.9 40.78
-2 4 -3 1101.05 38.38
-2 4 -3 1159.43 37.77
-2 4 -3 1044.48 39.62
-2 4 -3 1057.25 41.62
-2 -4 -3 968.27 36.22
-2 4 -3 1037.22 35.59
-2 -4 -3 1018.82 41.07
-2 4 -3 1034.04 32.44
-2 4 -3 1051.78 34.61
-2 4 -3 1028.74 36.41
-2 -4 -3 1083.81 42.09
-2 4 -3 936.62 34.76
-2 4 -2 1344.81 44.71
-2 -4 -2 1386.27 46.79
-2 4 -2 1381.39 47.27
-2 -4 -2 1199.54 41.75
-2 4 -2 1352.07 45.72
-2 4 -2 1288.79 43.7
-2 4 -2 1212.18 42.2
-2 4 -1 160.61 10.47
-2 -4 -1 149.33 11.1
-2 4 -1 139.65 6.5
-2 4 -1 168.07 11.17
-2 -4 -1 153.47 11.29
-2 -4 -1 155.6 11.06
-2 4 -1 148.44 10.52
-2 -4 -1 137.36 8.47
-2 4 -1 156.67 10.68
-2 -4 0 186.18 12.28
-2 -4 0 192.51 12.49
-2 -4 0 184.09 11.96
-2 4 0 193.1 11.4
-2 -4 0 183.84 11.49
-2 4 0 184.81 11.44
-2 4 0 203.53 12.16
-2 4 0 193.26 11.88
-2 -4 1 1426.07 46.63
-2 -4 1 1565.11 51.49
-2 -4 1 1519.74 51.01
-2 4 1 1565.13 50.42
-2 -4 1 1576.35 49.25
-2 -4 1 1685.77 51.32
-2 4 2 2438.9 70.74
-2 -4 2 2684.31 77.3
-2 -4 2 2517.78 70.94
-2 4 2 2544.77 67.73
-2 -4 2 2707.5 77.34
-2 -4 2 2592.87 77.83
-2 4 2 2611.97 76.9
-2 -4 2 2720.81 77.52
-2 -4 2 2270.4 67.45
-2 4 2 2611.1 76.79
-2 4 3 188.34 11.02
-2 4 3 209.33 8.1
-2 -4 3 209.45 11.6
-2 4 3 207.16 11.28
-2 -4 3 228.2 14.4
-2 4 3 203.76 13.62
-2 -4 3 210.62 13.25
-2 -4 3 235.22 14.54
-2 4 3 246.71 14.66
-2 4 3 221.77 14.85
-2 4 3 205.5 12.93
-2 -4 4 3344 99.69
-2 -4 4 3520.8 105.65
-2 4 4 3407.19 98.55
-2 4 4 3371.88 105.18
-2 -4 4 3402.22 100.17
-2 4 4 3286.86 105.5
-2 4 4 3317.25 100.28
-2 -4 4 3396.08 106.08
-2 -4 5 491.14 26.74
-2 4 5 438.86 21.24
-2 4 5 452.64 25.87
-2 -4 5 444.56 21.24
-2 4 5 443.19 26.18
-2 4 5 455.78 21.52
-2 -4 5 490.92 26.46
-2 4 6 3255.87 108.78
-2 -4 6 3475.62 110.11
-2 -4 6 3308.7 98.76
-2 4 6 3152.76 109.08
-2 -4 6 3253.04 107.82
-2 4 7 94.93 12.8
-2 -4 7 66.46 10.87
-2 4 7 88.84 5.41
-2 4 7 100.91 13.35
-2 -4 7 123.29 13.78
-2 -4 8 794.08 43.87
-2 4 8 841.24 44.06
-2 4 8 743.56 42.52
-2 4 8 735.13 33.79
-2 -4 8 841.21 41.87
-2 4 8 793.16 40.72
-2 -4 9 192.51 21.24
-2 4 9 166.4 19.19
-2 4 9 156.38 18.91
-2 4 9 146.55 13.49
-2 4 9 190.36 18.97
-2 -4 9 179.4 18.46
-2 4 10 227.27 24.26
-2 -4 10 227.61 24.35
-2 4 10 240.34 18.05
-2 4 10 271.81 26.08
-2 -4 10 246.44 22.61
-2 -4 11 34.26 10.42
-2 4 11 17.64 8.27
-2 4 11 22.41 9.21
-2 4 12 45.86 12.82
-2 -4 12 51.17 14.35
-2 -6 -11 799.4 46.36
-2 6 -11 740.97 48.38
-2 -6 -11 826.56 50.85
-2 6 -10 83.25 15.97
-2 -6 -10 62.91 10.7
-2 6 -10 64.66 13.45
-2 -6 -10 41.12 10.45
-2 -6 -10 53.45 12.55
-2 -6 -9 678.13 40.84
-2 6 -9 666.84 44.55
-2 -6 -9 698.09 36.25
-2 -6 -9 773.41 45.19
-2 -6 -9 694.23 44.81
-2 6 -8 35.16 9.72
-2 -6 -8 27.28 6.62
-2 -6 -8 21.28 7.03
-2 -6 -8 36.64 9.22
-2 6 -8 19.69 4.37
-2 -6 -8 28.07 8.55
-2 -6 -7 565.53 33.62
-2 6 -7 542.24 35.7
-2 -6 -7 590.57 29.3
-2 -6 -7 557.94 35.23
-2 -6 -7 552.42 36.95
-2 6 -7 555.13 25.77
-2 6 -6 79.73 11.96
-2 6 -6 78.3 9.71
-2 -6 -6 59.48 9.76
-2 -6 -6 69.58 8.36
-2 -6 -6 80.74 11.84
-2 6 -6 57.92 7.23
-2 6 -6 70.67 7.65
-2 -6 -6 57.31 10.79
-2 -6 -5 362.79 24.9
-2 6 -5 437.82 23.69
-2 6 -5 399.75 26.78
-2 6 -5 401.61 18.78
-2 6 -5 435.86 20.22
-2 -6 -5 431.74 27.43
-2 6 -5 389.47 20.13
-2 6 -5 365.97 20
-2 -6 -4 239.5 17.97
-2 6 -4 227.16 17.94
-2 -6 -4 204.58 15.13
-2 -6 -4 208.12 16.67
-2 6 -4 210.34 11.15
-2 6 -4 192.23 11.48
-2 -6 -4 194.4 16.61
-2 6 -4 209.21 13.02
-2 6 -4 207.27 13.8
-2 -6 -3 3753.19 113.57
-2 -6 -3 3871.87 113.54
-2 6 -3 3844.42 113.76
-2 -6 -3 3403.36 102.93
-2 6 -3 3461.17 102.21
-2 6 -3 3487.64 107.85
-2 6 -3 3840.5 106.18
-2 -6 -2 964.43 34.11
-2 -6 -2 984.94 40.51
-2 6 -2 1032.12 37.77
-2 -6 -2 950.8 39.84
-2 -6 -2 1048.5 41.3
-2 -6 -2 1077.5 41.41
-2 6 -2 1027.83 40.24
-2 -6 -2 1119.02 41.85
-2 6 -2 1096.22 37.48
-2 6 -2 1027.47 38.87
-2 -6 -1 4382.62 122.26
-2 -6 -1 4192.82 120.11
-2 6 -1 4058.5 118.91
-2 -6 -1 4260.77 122.52
-2 -6 -1 4196.51 120.21
-2 6 -1 4192.2 119.23
-2 6 -1 4205.79 119.22
-2 -6 0 284.83 11.73
-2 -6 0 297.41 18.01
-2 -6 0 305.68 17.95
-2 -6 0 298.86 16.96
-2 6 0 311.62 15.64
-2 6 0 323 16.98
-2 6 0 270.95 15.19
-2 -6 0 307.08 16.42
-2 6 0 293.67 15.63
-2 -6 1 6003.37 166.16
-2 -6 1 5994.93 167.74
-2 -6 1 5609.8 169.62
-2 -6 1 6157.98 170.57
-2 -6 1 5751.61 164.92
-2 6 1 5909.36 167.63
-2 -6 1 5849.67 166
-2 6 1 6121.09 170.31
-2 -6 2 663.39 28.06
-2 -6 2 667.74 29.92
-2 -6 2 600.67 29.97
-2 6 2 659.45 21.75
-2 -6 2 660.5 25.38
-2 6 2 745.49 31.42
-2 6 2 683.24 28.88
-2 -6 2 722.93 30.66
-2 6 3 1796.83 58.42
-2 -6 3 1817.02 63.42
-2 6 3 1855.39 54.94
-2 6 3 1854.12 55.35
-2 -6 3 2019.59 56.81
-2 -6 3 1769.97 53.07
-2 6 3 1969.31 65.63
-2 6 3 1918.02 65.28
-2 -6 3 1907.81 65.56
-2 6 4 25.41 4.08
-2 -6 4 20.29 4.94
-2 6 4 31.94 6.4
-2 6 4 28.97 5.93
-2 -6 4 21.72 5.33
-2 -6 5 166.67 15.32
-2 6 5 163.29 13.27
-2 6 5 169.65 15.36
-2 -6 5 170.23 13.56
-2 6 5 168.12 15.68
-2 -6 5 166.67 15.38
-2 6 6 34.99 7.71
-2 -6 6 53.24 9.53
-2 -6 6 49.22 7.31
-2 6 6 48.95 9.01
-2 -6 6 52.84 9.21
-2 -6 7 197.64 19.21
-2 6 7 169.87 17.61
-2 -6 7 213.46 15.58
-2 6 7 160.96 17.86
-2 -6 7 187.3 18.17
-2 6 8 28.2 8.52
-2 -6 8 27.59 8.04
-2 6 8 15.77 6.47
-2 -6 8 20.63 6.59
-2 -6 9 1123.27 57.03
-2 6 9 956.66 52.69
-2 6 9 1051.19 45.64
-2 6 9 1055.73 55.53
-2 -6 9 1115.02 53.35
-2 -6 10 241.87 25.96
-2 6 10 232.95 24.57
-2 6 10 241.07 19.41
-2 6 10 212.03 23.98
-2 -6 10 257.01 23.72
-2 6 11 648.32 44.17
-2 -6 11 644.77 45.38
-2 6 11 583.44 42.47
-2 -6 12 126.24 17.62
-2 8 -11 55.38 13.09
-2 -8 -10 130.38 17.46
-2 8 -10 160.27 22.39
-2 -8 -10 175.56 22.46
-2 -8 -10 176.12 23.07
-2 8 -9 64.55 13.59
-2 -8 -9 68 12.28
-2 -8 -9 65.74 13.7
-2 -8 -9 63.5 13.6
-2 -8 -8 394.18 29.52
-2 8 -8 380.09 31.9
-2 -8 -8 375.35 21.88
-2 -8 -8 411.64 31.98
-2 8 -8 419.93 23.44
-2 -8 -8 403.03 32.35
-2 -8 -7 286.36 23.58
-2 8 -7 240.45 23.71
-2 -8 -7 285.8 16.98
-2 -8 -7 333.29 27.03
-2 8 -7 241.73 17.77
-2 -8 -7 309.52 26.58
-2 8 -6 736.25 35.37
-2 -8 -6 685.45 37.87
-2 8 -6 788.16 42.51
-2 -8 -6 810.44 42.49
-2 -8 -6 785.36 42.85
-2 8 -6 667.52 32.79
-2 8 -5 197.63 18.36
-2 -8 -5 203.14 18.95
-2 -8 -5 185.38 18.2
-2 8 -5 191.31 15.02
-2 -8 -4 862.96 41.52
-2 -8 -4 847.45 35.97
-2 -8 -4 933.92 39.55
-2 8 -4 970.65 42.86
-2 8 -4 860.85 28.13
-2 -8 -4 915.35 42.31
-2 8 -4 809.99 36.74
-2 -8 -3 732.92 35.07
-2 -8 -3 675.18 32.56
-2 8 -3 662.46 33.14
-2 8 -3 707.21 24.6
-2 8 -3 699.15 31.96
-2 -8 -2 1521.25 55.76
-2 8 -2 1507.65 54.42
-2 -8 -2 1459.21 48.54
-2 -8 -2 1443.01 55.29
-2 -8 -1 85.67 10.24
-2 -8 -1 93.48 9.75
-2 -8 -1 71.95 9.36
-2 8 -1 94.01 8.99
-2 -8 -1 79.92 6.72
-2 -8 0 439.71 18.53
-2 -8 0 519.77 26.41
-2 -8 0 477.78 25.69
-2 -8 0 491.49 23.95
-2 8 0 437.38 14.87
-2 8 0 480.87 21.31
-2 -8 0 467.08 22.54
-2 8 0 469.84 25.48
-2 8 0 479.69 22.25
-2 -8 1 603.47 25.42
-2 -8 1 552.52 28.99
-2 -8 1 555.87 26.5
-2 -8 1 547.28 28.98
-2 -8 1 556.63 25.41
-2 -8 1 605.04 24.88
-2 -8 1 618.25 28.82
-2 8 1 608.4 29.57
-2 -8 2 1182.33 47.3
-2 -8 2 1122.8 43.27
-2 -8 2 1109.31 46.24
-2 -8 2 1166.24 39.11
-2 8 2 1151.85 46.89
-2 -8 2 1218.75 47.26
-2 8 3 644.93 23.92
-2 -8 3 687.61 32.39
-2 -8 3 691.99 33.44
-2 -8 3 616.57 23.01
-2 -8 3 594.77 19.82
-2 8 3 650.77 32
-2 8 3 650.62 32.29
-2 -8 3 642.9 32.22
-2 8 4 2423.54 77.33
-2 -8 4 2463.91 81.83
-2 8 4 2412.76 83.55
-2 -8 4 2311.61 67.67
-2 -8 4 2306 68.94
-2 8 4 2433.64 82.62
-2 -8 4 2413.07 83.67
-2 8 5 501.46 27.08
-2 -8 5 534.98 29.13
-2 8 5 569.21 32.22
-2 8 5 539.16 30.53
-2 -8 5 546.52 31.45
-2 -8 6 1470.59 62.96
-2 8 6 1522.04 58.92
-2 8 6 1593.34 64.36
-2 -8 6 1456.13 58.54
-2 8 6 1564.36 65.16
-2 -8 6 1548.03 53.6
-2 -8 6 1563.25 63.87
-2 -8 7 203.77 20.38
-2 8 7 218.43 20.52
-2 -8 7 205.55 17.21
-2 -8 7 196.99 15.52
-2 8 7 201.28 20.61
-2 -8 7 196.24 19.5
-2 8 8 517.77 35.21
-2 -8 8 512.55 36.07
-2 8 8 596.75 38.51
-2 -8 8 560.8 30.21
-2 -8 8 560.21 35.61
-2 8 9 240.16 24.2
-2 8 9 275.5 26.66
-2 -8 9 256.62 20.91
-2 -8 9 289.81 25.34
-2 8 10 164.41 21.07
-2 8 10 195.36 23.07
-2 -8 10 148.38 17.18
-2 8 10 157.42 16.6
-2 -8 10 177.54 20.33
-2 8 11 76.6 15.21
-2 8 11 64.89 14.47
-2 -8 11 61.41 11.59
-2 10 -10 183.51 24.73
-2 -10 -10 203.72 25.44
-2 10 -9 180.67 23.3
-2 -10 -9 269.37 27.67
-2 -10 -9 229.42 26.42
-2 10 -8 88.24 15.43
-2 -10 -8 106.11 16.44
-2 10 -8 72.46 10.44
-2 -10 -8 68.26 14.18
-2 10 -7 46.07 11.31
-2 -10 -7 50.43 11.51
-2 10 -7 40.12 8.01
-2 -10 -7 61.5 12.51
-2 10 -6 5.82 4.28
-2 10 -6 6.87 3.84
-2 -10 -6 5.92 5.15
-2 10 -6 5.32 3.72
-2 -10 -6 9.78 5.46
-2 -10 -5 137.23 14.01
-2 10 -5 116.83 14.62
-2 -10 -5 105.69 14.26
-2 -10 -5 129.96 13.07
-2 10 -5 117.55 13.27
-2 -10 -5 124.31 15.19
-2 -10 -4 87.38 11.05
-2 10 -4 84.67 11.37
-2 -10 -4 80.96 9.68
-2 -10 -4 93.9 12.55
-2 10 -4 79.38 10.5
-2 -10 -3 1114.98 42.99
-2 -10 -3 1110.88 48.04
-2 10 -3 1124.15 47.87
-2 10 -3 1156.17 35.35
-2 10 -3 1118.68 47.72
-2 -10 -2 1642.36 61.95
-2 10 -2 1684.03 60.63
-2 -10 -1 1976.1 72.01
-2 -10 -1 1977.31 71.29
-2 -10 -1 1997.92 68.23
-2 10 -1 1941.76 64.85
-2 -10 -1 1923.46 67.97
-2 10 -1 1775.85 69.18
-2 -10 0 2661.7 88.2
-2 -10 0 2741.83 88.68
-2 -10 0 2706.76 83.52
-2 10 0 2580.39 77.9
-2 -10 0 2632.7 78.08
-2 10 0 2847.54 88.44
-2 -10 1 1654.33 62.89
-2 -10 1 1657.49 58.08
-2 10 1 1524.36 49.25
-2 -10 1 1706.23 63.42
-2 10 1 1796.48 64.01
-2 -10 2 1553.85 56.29
-2 -10 2 1588.04 62.16
-2 10 2 1582.3 51.63
-2 -10 2 1592.67 62.35
-2 -10 2 1566.37 61.26
-2 10 2 1600.07 61.99
-2 -10 3 537.32 26.69
-2 -10 3 533.15 31.06
-2 -10 3 493.5 29.99
-2 10 3 553.5 31.12
-2 -10 3 541.94 31.02
-2 10 3 587.12 31.82
-2 10 4 175.36 14.45
-2 -10 4 168.65 16.46
-2 -10 4 192.43 18.08
-2 10 4 147.53 15.87
-2 -10 4 189.2 9.56
-2 10 4 194.7 17.6
-2 -10 4 175.51 17.28
-2 10 5 69.69 9.57
-2 -10 5 70.53 10.82
-2 -10 5 68.12 11.53
-2 10 5 90.18 12.68
-2 -10 5 43.05 8.97
-2 10 5 81.52 11.59
-2 10 6 76.86 12.03
-2 10 6 71.45 10.43
-2 -10 6 46.3 9.38
-2 10 6 65.92 11.55
-2 -10 6 55.36 6.98
-2 -10 6 51.95 10.26
-2 10 6 46.89 9.28
-2 10 7 100.48 13.12
-2 10 7 130.25 16.31
-2 -10 7 99.15 13.34
-2 10 7 126.8 16.8
-2 -10 7 119.7 11.26
-2 -10 7 129.02 16.18
-2 10 8 250.03 24.16
-2 -10 8 256.55 18.54
-2 10 8 239.04 24.76
-2 -10 8 244.04 23.62
-2 10 9 719.03 44.13
-2 -10 9 644.59 34.31
-2 10 9 628.1 43.48
-2 -10 9 646.55 41.23
-2 10 10 381.15 32.7
-2 10 10 386.79 28.16
-2 10 10 415.19 35.16
-2 10 11 492.87 38.4
-2 12 -9 86.19 16.65
-2 -12 -9 108.26 18.54
-2 12 -8 652.79 43.58
-2 -12 -8 573.73 41.44
-2 12 -8 542.33 33.45
-2 12 -7 469.01 34.9
-2 -12 -7 447.85 34.38
-2 12 -7 399.33 27.94
-2 12 -6 977.63 51.47
-2 -12 -6 1003.77 52.8
-2 -12 -6 966.74 46.07
-2 12 -6 921.01 46.2
-2 -12 -5 616.71 34.05
-2 12 -5 615.67 36.64
-2 -12 -5 575.52 31.55
-2 12 -5 582.38 34.29
-2 -12 -4 614.59 34.38
-2 12 -4 642.83 35.21
-2 -12 -4 593.35 30.63
-2 12 -4 562.43 33.66
-2 -12 -3 594.92 29.02
-2 -12 -3 612.14 34.32
-2 -12 -3 649.43 34.72
-2 12 -3 615.47 32.58
-2 12 -3 555.98 18.37
-2 12 -3 616.61 34.51
-2 -12 -2 632.79 35
-2 12 -2 627.92 30.98
-2 -12 -2 634.32 34.04
-2 -12 -2 595.18 28.48
-2 -12 -1 128.07 14.9
-2 -12 -1 93.05 11.44
-2 12 -1 108.34 10.42
-2 -12 -1 106.34 10.17
-2 -12 -1 100.14 11.58
-2 12 -1 130.44 14.64
-2 -12 0 536.73 31.38
-2 -12 0 518.31 30.94
-2 -12 0 479.68 26.11
-2 12 0 425.43 21.06
-2 -12 0 413.87 22.24
-2 12 0 422.85 28.16
-2 -12 1 245.19 16.16
-2 12 1 254.47 12.53
-2 -12 1 272.43 21.97
-2 -12 1 280.89 18.61
-2 -12 1 273.73 22.21
-2 12 1 240.49 19.7
-2 12 1 258.37 21.13
-2 -12 2 269.08 18.3
-2 -12 2 281.58 22.7
-2 12 2 288.29 15.34
-2 -12 2 284.64 22.79
-2 12 2 271.45 22.09
-2 -12 3 471.62 30.6
-2 -12 3 467.27 25.08
-2 -12 3 446.73 29.93
-2 12 3 371.28 27.58
-2 -12 3 491.74 30.89
-2 12 3 461.53 30.08
-2 12 4 508.55 28.11
-2 -12 4 571.89 27.58
-2 -12 4 501.77 32.85
-2 -12 4 491.88 31.96
-2 -12 4 417.81 16.88
-2 12 4 576.77 34.45
-2 -12 4 535.55 33.29
-2 12 4 570.97 33.86
-2 12 5 569.61 31.4
-2 -12 5 587.93 35.36
-2 -12 5 556.24 36.2
-2 12 5 570.33 36.48
-2 -12 5 517.88 21.24
-2 12 5 540.16 33.9
-2 -12 5 560.22 35.68
-2 12 6 545.09 32.42
-2 12 6 528.14 35
-2 -12 6 589.8 35.96
-2 -12 6 556.34 37.44
-2 12 6 542.21 37.36
-2 -12 6 528.69 23.61
-2 12 6 579.3 35.53
-2 -12 6 624.9 38.45
-2 12 7 400.46 28.28
-2 12 7 401.12 30.91
-2 -12 7 413.61 32.8
-2 -12 7 391.1 29.15
-2 12 7 405.8 32.43
-2 -12 7 402.82 31.11
-2 12 8 402.34 31.89
-2 12 8 413.09 33.83
-2 -12 8 379.2 31.22
-2 12 9 226.95 24.54
-2 12 9 235.92 26.85
-2 -12 9 223.56 24.18
-2 12 10 248.09 26.81
-2 12 10 237.42 27.91
-2 14 -8 39.05 10.94
-2 14 -8 34.86 8.73
-2 14 -7 4.74 4.68
-2 14 -7 9.4 5.87
-2 14 -6 2.12 3.62
-2 -14 -6 9.62 5
-2 -14 -6 2.32 4.59
-2 -14 -6 4.79 3.53
-2 14 -6 3.79 4.94
-2 14 -5 46.8 10.19
-2 -14 -5 41.45 9.34
-2 -14 -5 50.61 11.08
-2 -14 -5 53.12 9.48
-2 14 -5 50.89 10.92
-2 -14 -4 392.92 27.87
-2 14 -4 364.42 26.29
-2 -14 -4 418.06 25.41
-2 -14 -4 376.05 28.53
-2 14 -4 367.92 28.17
-2 -14 -3 290.13 23.63
-2 14 -3 276.56 20.87
-2 -14 -3 250.05 18.8
-2 -14 -3 277.73 22.97
-2 14 -3 275.84 23.75
-2 -14 -2 754.45 41.38
-2 -14 -2 747.03 34.67
-2 -14 -2 714.81 38.29
-2 -14 -1 406.03 26.09
-2 -14 -1 460.58 25
-2 14 -1 445.29 31.05
-2 -14 0 1078.56 51.88
-2 -14 0 1002.72 44.56
-2 -14 0 997.87 41.99
-2 14 0 1017.26 50.71
-2 -14 1 457.26 25.41
-2 -14 1 512.73 33.23
-2 -14 1 418.55 30.48
-2 -14 1 480.04 26.66
-2 14 1 454.59 30.48
-2 14 1 518.3 33.34
-2 -14 2 558.45 36.04
-2 -14 2 553.69 28.7
-2 -14 2 547.01 35.33
-2 14 2 556.23 35.56
-2 -14 3 374.03 28.97
-2 -14 3 330 27.31
-2 14 3 355.82 27.79
-2 -14 4 121.58 16.45
-2 -14 4 91.52 14.54
-2 14 4 75.81 13.18
-2 14 4 100.27 14.72
-2 14 5 198.95 18.8
-2 -14 5 225.45 23.12
-2 -14 5 212.6 22.18
-2 14 5 211.03 22.5
-2 14 5 229.42 22.63
-2 14 6 42.21 9.19
-2 -14 6 42.02 11.34
-2 -14 6 38.26 10.12
-2 14 6 47.09 11.43
-2 14 6 49.31 11.16
-2 14 7 49.43 11.39
-2 14 7 36.69 8.97
-2 -14 7 67.36 13.77
-2 -14 7 66.67 12.98
-2 14 7 42.84 11.48
-2 14 7 77.26 13.58
-2 14 8 358.65 28.34
-2 14 8 319.48 29.29
-2 14 8 336.05 31.42
-2 -14 8 290.48 29.81
-2 14 9 191.09 23.12
-2 -14 9 155.43 22.38
-2 14 9 156.57 22.71
-2 -16 -7 621.75 44.32
-2 16 -7 658.08 41.74
-2 -16 -6 242.93 22.17
-2 -16 -6 275.11 22.77
-2 -16 -6 245.85 26.02
-2 16 -6 226.06 23.7
-2 -16 -5 740 42.26
-2 -16 -5 722.66 45.25
-2 -16 -5 767.83 40.04
-2 16 -5 796.46 46.48
-2 -16 -4 120.98 16.09
-2 -16 -4 118.71 13.73
-2 -16 -4 143.28 17.92
-2 16 -4 139.22 18.39
-2 -16 -3 314.81 26.5
-2 -16 -3 299.28 21.47
-2 -16 -3 300.57 24.91
-2 16 -3 286.06 26.66
-2 -16 -2 131.44 16.89
-2 -16 -2 113.63 12.64
-2 -16 -2 141.31 15.88
-2 -16 -1 177.87 19.75
-2 -16 -1 156.68 18.84
-2 -16 -1 131.19 13.55
-2 16 -1 152.99 18.7
-2 -16 0 219.57 17.62
-2 16 0 231.02 21.88
-2 16 0 193.94 21.47
-2 -16 1 197.19 16.82
-2 -16 1 212.53 22.41
-2 16 1 186.9 20.65
-2 16 1 188.61 21.14
-2 -16 2 99.44 12.02
-2 -16 2 86.65 14.9
-2 16 2 87.58 14.16
-2 16 2 92.05 15.02
-2 -16 3 629 41.46
-2 16 3 647.82 41.53
-2 -16 4 160.77 20.4
-2 -16 4 167.95 21.06
-2 16 4 174.36 21.24
-2 16 4 181.41 20.97
-2 16 5 767.05 42.79
-2 -16 5 861.24 50.2
-2 -16 5 842.19 50.18
-2 16 5 855.41 51.34
-2 16 5 831.72 48.47
-2 16 6 127.09 16.48
-2 -16 6 136.44 19.53
-2 -16 6 139.87 19.54
-2 16 6 158.77 21.35
-2 16 6 162.13 20.12
-2 16 7 629.43 42.33
-2 16 7 524.59 35.89
-2 -16 7 594.53 43.43
-2 -16 7 609.24 41.69
-2 16 7 636.5 44.82
-2 16 7 573.32 39.71
-2 16 8 108.93 17.75
-2 16 8 108.05 16.09
-2 -16 8 145.18 21.64
-2 16 8 172.21 23.06
-2 -18 -6 106.94 17.71
-2 18 -6 148.04 20.15
-2 -18 -5 42.42 10.22
-2 -18 -5 37.52 10.14
-2 18 -5 44.31 11.7
-2 -18 -4 541.78 36.88
-2 -18 -4 583.77 38.15
-2 18 -4 467.62 37.27
-2 -18 -3 159.21 19.78
-2 -18 -3 161.36 16.38
-2 -18 -3 147.27 17.83
-2 18 -3 128.97 19.04
-2 -18 -2 452.07 33.78
-2 -18 -2 352.4 24.69
-2 -18 -1 119.2 17.8
-2 -18 -1 146.74 19.45
-2 -18 -1 152.44 15.31
-2 18 -1 150.62 19.99
-2 -18 0 421.79 26.89
-2 -18 0 403.29 32.84
-2 18 0 409.27 32.24
-2 18 0 454.27 35.49
-2 -18 1 176.62 16.92
-2 -18 1 172.68 21.12
-2 -18 1 181.62 22.41
-2 18 1 173.13 20.87
-2 18 1 186.03 22.37
-2 -18 2 301.64 22.92
-2 -18 2 302.75 28.35
-2 -18 2 291.57 28.59
-2 18 2 351.36 30.47
-2 18 2 341.61 30.74
-2 -18 3 50.22 9.6
-2 -18 3 44.86 11.84
-2 -18 3 33.4 10.5
-2 18 3 32.32 10.17
-2 18 3 39.87 11.04
-2 -18 4 201.56 24.12
-2 18 4 205.8 20.46
-2 18 4 205.35 23.65
-2 18 5 20.78 7.22
-2 -18 5 13.26 7.85
-2 18 5 2.71 6
-2 18 5 15.02 7.82
-2 18 6 56.8 13.21
-2 18 6 59 11.59
-2 -18 6 47.99 12.44
-2 18 6 65.02 14.84
-2 18 6 82.13 15.41
-2 18 7 30.26 10.27
-2 18 7 14.32 6.71
-2 -20 -4 4.58 5.97
-2 -20 -4 2.14 4.22
-2 20 -4 8.17 6.58
-2 -20 -3 67.31 13.95
-2 20 -3 76.85 15.66
-2 -20 -2 72.29 14.44
-2 20 -2 57.93 12.63
-2 -20 -1 28.36 9.54
-2 20 -1 26.26 8.84
-2 20 -1 22.06 9.05
-2 -20 0 20.45 8.74
-2 -20 0 15.89 7.84
-2 20 0 7.38 6.43
-2 20 0 11.05 7.22
-2 20 1 83.96 15.73
-2 20 1 113.37 18.52
-2 -20 2 36.95 10.79
-2 -20 2 69.32 14.77
-2 20 2 36.96 11.11
-2 20 2 41.36 11.91
-2 -20 3 511.52 39.83
-2 -20 3 578.4 42.63
-2 20 3 469.86 38.69
-2 20 3 479.89 39.29
-2 -20 4 44.48 12.33
-2 -20 4 54.32 13.28
-2 20 4 52.43 10.9
-2 20 4 35.49 11.49
-1 1 -12 239.91 26.69
-1 -1 -12 312.85 28.56
-1 1 -12 229.11 23.37
-1 -1 -12 230.02 23.35
-1 1 -12 267.83 26.1
-1 -1 -12 294.04 28.49
-1 1 -11 317.34 29.12
-1 -1 -11 247.23 25.07
-1 1 -11 238.92 23.31
-1 -1 -11 312.69 25.73
-1 1 -11 299.66 26.71
-1 -1 -11 294.32 27.65
-1 1 -10 4.44 4.91
-1 -1 -10 22.39 7.78
-1 1 -10 16.65 6.84
-1 -1 -10 23.09 7.44
-1 -1 -10 7.5 4.91
-1 1 -10 17.45 7.16
-1 -1 -10 31.71 9.1
-1 1 -9 300.09 25.63
-1 -1 -9 289.84 24.36
-1 1 -9 252.04 22.22
-1 -1 -9 295.06 23.6
-1 1 -9 271.25 21.69
-1 -1 -9 292.07 23.13
-1 -1 -9 249.68 23.1
-1 1 -9 295.4 24.06
-1 1 -8 158.41 17.35
-1 -1 -8 151.5 16.29
-1 1 -8 118.88 14.26
-1 1 -8 184.18 16.35
-1 -1 -8 201.74 17.81
-1 -1 -8 173.9 16.87
-1 -1 -8 158.67 16.92
-1 1 -8 170.18 17.14
-1 -1 -7 1153.43 50.77
-1 -1 -7 1256.89 50.95
-1 1 -7 1291.64 49.18
-1 -1 -7 1191.9 50.17
-1 1 -7 1149.81 50.29
-1 1 -7 1184.92 50.21
-1 -1 -7 1186.37 51.88
-1 1 -7 1155.78 39.45
-1 -1 -7 1214.38 38.69
-1 -1 -6 1062.21 45.2
-1 1 -6 1150.63 39.08
-1 -1 -6 1062.84 44.89
-1 1 -6 1034.66 42.42
-1 -1 -6 1207.82 46.39
-1 1 -6 1093.18 44.67
-1 1 -6 1093.79 36.04
-1 -1 -6 1070.61 39.79
-1 -1 -6 1093.92 35.01
-1 1 -5 691.79 29.52
-1 -1 -5 767.1 32.36
-1 -1 -5 737.9 29.42
-1 1 -5 713.5 33.28
-1 1 -5 717.08 27.3
-1 1 -5 743.95 27.95
-1 -1 -5 692.71 28.07
-1 1 -5 701.8 29.4
-1 1 -5 694.7 30.83
-1 -1 -5 706.68 23.52
-1 -1 -4 5645.64 157.27
-1 1 -4 5680.11 154.86
-1 -1 -4 5638.4 157.53
-1 1 -4 5563.82 156.49
-1 -1 -4 5650.65 153.97
-1 1 -4 5846.45 155.35
-1 1 -4 5854.73 153.73
-1 1 -4 5626.41 152.2
-1 -1 -4 5685.69 153.33
-1 -1 -4 5590.02 153.19
-1 -1 -4 5428.44 158.61
-1 -1 -4 5112.87 147.46
-1 1 -4 5360.74 146.25
-1 1 -3 3910.84 109.83
-1 -1 -3 4193.57 112.88
-1 -1 -3 3981.09 113
-1 1 -3 4038.33 111.4
-1 -1 -3 3955.72 111.83
-1 -1 -3 3957.58 108.88
-1 1 -3 4096.36 110
-1 1 -3 3993.87 113.63
-1 -1 -3 3619.26 111.35
-1 -1 -3 4056.32 110.52
-1 1 -3 3944.2 107.42
-1 1 -3 4013.03 111.75
-1 -1 -3 4116.95 108.6
-1 -1 -3 4055.13 113.95
-1 1 -3 3941.69 105.75
-1 -1 -3 3914.88 108.78
-1 -1 -3 3587.4 103.64
-1 1 -3 3753 104.94
-1 -1 -2 5289.7 141.29
-1 1 -2 5129.56 138.82
-1 1 -2 5013.2 139.75
-1 1 -2 5160.06 140.05
-1 -1 -2 4993.39 140.55
-1 -1 -2 5151.56 140.72
-1 -1 -2 5215.68 141.4
-1 1 -2 5242.09 141.03
-1 1 -2 4701.9 139.07
-1 1 -2 5167.78 140.88
-1 -1 -2 5286.34 142.36
-1 1 -2 4909.5 140.23
-1 1 -1 1821.81 52.57
-1 1 -1 1750.26 50.86
-1 1 -1 1894.46 51
-1 1 -1 1645.02 52.61
-1 1 -1 1839.24 50.63
-1 -1 -1 1819.58 52.07
-1 -1 -1 1931.73 53.23
-1 1 -1 1875.17 52.76
-1 1 -1 1776.84 51
-1 1 -1 1719.28 49.74
-1 -1 0 2165.77 59.98
-1 -1 0 2204.04 60.87
-1 -1 0 2046.46 59.96
-1 -1 0 2145.55 60.74
-1 1 0 2310.15 60.41
-1 -1 0 2123.12 58.22
-1 1 0 2162.17 58.31
-1 -1 0 2002.22 59.32
-1 1 0 2151.84 59.87
-1 -1 1 4686.16 125.82
-1 1 1 4652.73 127.08
-1 1 1 4701.42 127.62
-1 -1 1 4691.47 127.38
-1 -1 1 4595.53 128.3
-1 -1 1 4729.58 127.22
-1 -1 1 4557.32 126.44
-1 1 1 4680.14 128.06
-1 1 1 4998 127.98
-1 1 1 4788.48 128.17
-1 1 2 106.65 6.94
-1 -1 2 99.44 6.25
-1 -1 2 92.27 5.34
-1 -1 2 92.02 6.73
-1 1 2 93.4 5.98
-1 1 3 326.86 15.66
-1 -1 3 303.63 14.72
-1 -1 3 307.33 12.25
-1 -1 3 306.58 15.83
-1 -1 3 344.95 15.6
-1 1 3 338.4 13.65
-1 -1 3 296.75 15.52
-1 1 4 1157.72 39.31
-1 -1 4 1053.55 37.98
-1 -1 4 980.52 32.66
-1 1 4 1084.85 29.54
-1 -1 4 1148.03 38.43
-1 -1 4 1138.7 40.38
-1 1 4 1115.21 40.42
-1 -1 4 1083.01 39.45
-1 -1 5 1335.65 50.07
-1 1 5 1391.27 50.46
-1 -1 5 1327.29 40.58
-1 -1 5 1312.23 46.91
-1 1 5 1214.02 43.38
-1 -1 5 1369.85 49.83
-1 1 5 1354.53 49.98
-1 -1 5 1266.46 47.43
-1 -1 6 1032.33 43.53
-1 1 6 955.95 42.11
-1 -1 6 877.87 31.23
-1 1 6 1000.1 42.64
-1 -1 6 1010.68 42.43
-1 1 6 1022.36 40.37
-1 -1 6 1018.84 40.66
-1 -1 7 175.96 16.79
-1 1 7 200.06 17.73
-1 1 7 164.58 12.99
-1 1 7 165.93 16.14
-1 1 7 179.49 15.06
-1 -1 7 217.88 16.4
-1 1 8 1365.48 57.75
-1 -1 8 1256.05 56.68
-1 1 8 1168.99 48.03
-1 1 8 1239.51 55.13
-1 1 8 1316.34 52.05
-1 -1 8 1259.94 51.42
-1 1 9 360.28 28.21
-1 -1 9 415.1 30.2
-1 1 9 376.56 27.78
-1 -1 9 375.83 24.68
-1 -1 10 539.19 37.22
-1 1 10 535.59 36.93
-1 -1 11 68.25 13.71
-1 1 11 64.44 13.64
-1 1 12 183.18 23.11
-1 -1 12 179.02 22.84
-1 3 -12 273.53 29.26
-1 -3 -12 324.97 28.03
-1 3 -12 300.61 27.1
-1 -3 -12 298.09 30.04
-1 3 -11 296.06 29.87
-1 -3 -11 338.9 27.88
-1 3 -11 360.07 29.34
-1 -3 -11 401.08 31.6
-1 -3 -11 354.01 27.51
-1 3 -11 334.6 27.18
-1 -3 -11 404.52 33.5
-1 3 -10 35.8 9.73
-1 -3 -10 27.53 8.32
-1 3 -10 31.57 9.15
-1 -3 -10 26.15 8.27
-1 -3 -10 25.01 7.99
-1 -3 -10 18.26 7.5
-1 3 -10 20.87 7.11
-1 -3 -9 404.87 28.28
-1 -3 -9 495.4 32.78
-1 3 -9 472.57 31.51
-1 -3 -9 473.86 29.98
-1 -3 -9 464.12 33.14
-1 3 -9 415.43 28.2
-1 -3 -8 335 23.74
-1 -3 -8 338.11 25.57
-1 3 -8 371.47 22.25
-1 -3 -8 334.31 23.87
-1 3 -8 336.97 23.29
-1 3 -7 994.77 46.94
-1 -3 -7 963.25 41.99
-1 3 -7 1001.15 38.89
-1 -3 -7 962.61 44.99
-1 -3 -7 984.86 42.87
-1 3 -7 881.11 26.31
-1 3 -7 895.34 26.31
-1 -3 -7 883.47 44.52
-1 -3 -7 1017.1 31.84
-1 3 -7 1054.7 42.22
-1 3 -6 552.51 23.3
-1 3 -6 527.51 30.37
-1 -3 -6 540.22 27.28
-1 -3 -6 560.58 28.48
-1 -3 -6 582.7 30.38
-1 3 -6 487.47 23.98
-1 -3 -6 510.67 19.67
-1 3 -6 501.01 18.75
-1 -3 -6 522.96 21.85
-1 3 -6 575.02 27.13
-1 -3 -6 547.36 30.55
-1 -3 -5 371.75 22.24
-1 3 -5 370.3 17.83
-1 3 -5 351.32 17.42
-1 3 -5 355.25 22.65
-1 3 -5 397.82 18.31
-1 3 -5 358.97 15.18
-1 3 -5 380.24 17.21
-1 -3 -5 404.28 23.52
-1 3 -5 349.36 18.93
-1 -3 -5 343.67 14.46
-1 3 -4 2212.37 67.77
-1 -3 -4 2259.11 70.6
-1 3 -4 2175.62 63.26
-1 3 -4 2084.15 64.93
-1 3 -4 2049.37 70.92
-1 -3 -4 2102.41 65.78
-1 3 -4 2173.5 67.73
-1 3 -4 2038.54 62.15
-1 3 -4 2147.05 63.96
-1 -3 -4 1904.86 70.01
-1 3 -4 2048.84 65.48
-1 3 -4 2183.53 63.56
-1 -3 -4 2073.63 60.22
-1 3 -3 120.12 6.8
-1 -3 -3 122.12 8.22
-1 3 -3 122.92 9.33
-1 3 -3 120.71 7.43
-1 3 -3 116.29 7.47
-1 3 -3 118.13 7.01
-1 3 -3 115.52 7.41
-1 3 -3 122.09 7.88
-1 -3 -3 120.04 10.13
-1 -3 -3 118.15 6.33
-1 -3 -2 1232.33 40.84
-1 3 -2 1249.47 42.68
-1 -3 -2 1342.18 42.52
-1 3 -2 1282.07 41.08
-1 3 -2 1238.37 36.3
-1 3 -2 1286.11 40.03
-1 -3 -2 1282.29 42.88
-1 3 -1 3615.69 95.65
-1 -3 -1 3784.97 97.38
-1 3 -1 3768.43 97.31
-1 -3 -1 3735.34 98.11
-1 3 -1 3533.91 96.28
-1 3 -1 3667.9 96.65
-1 -3 -1 3753.94 97.52
-1 3 -1 3642.5 95.9
-1 -3 0 3840.55 103.42
-1 -3 0 3793.56 103.71
-1 -3 0 3688.02 104.12
-1 -3 0 3663.14 104.28
-1 3 0 3808.03 102.38
-1 -3 0 3742.97 102.95
-1 -3 0 3347.86 101.22
-1 3 0 3881.29 103.51
-1 -3 0 3641.73 102.92
-1 3 0 3682.56 102.74
-1 3 0 3842.45 103.9
-1 -3 1 2713.16 79.83
-1 -3 1 2886.13 80.63
-1 -3 1 2792.86 81.35
-1 3 1 2781.1 76.55
-1 -3 1 2811.7 81.62
-1 -3 1 2951.51 80.76
-1 3 1 2886.14 81.21
-1 3 1 2830.47 80.88
-1 3 1 2857.12 80.99
-1 -3 2 236.59 12.64
-1 3 2 239.51 10.19
-1 3 2 249.51 9.6
-1 3 2 241.36 12.76
-1 -3 2 247.17 12.49
-1 -3 2 282.88 13.43
-1 3 2 242.2 12.84
-1 3 2 269.2 12.23
-1 3 3 936.51 29.34
-1 3 3 948.95 35.2
-1 3 3 1028.36 35.36
-1 -3 3 901.89 32.72
-1 -3 3 993.71 34.9
-1 3 3 958.49 34.36
-1 3 3 910.47 31.47
-1 -3 3 944.04 35.15
-1 3 4 944.16 36.85
-1 -3 4 845.51 32.57
-1 3 4 913.18 36.95
-1 -3 4 964.85 35.96
-1 3 4 911.23 31.34
-1 -3 4 1013.12 36.97
-1 -3 5 1288.35 49.11
-1 3 5 1286.79 48.3
-1 -3 5 1174.38 41.96
-1 3 5 1218.1 48.15
-1 3 5 1221.62 39.75
-1 -3 5 1265.7 46.4
-1 -3 6 1522.47 59.74
-1 3 6 1666.83 60.23
-1 3 6 1474.64 45.92
-1 -3 6 1502.31 51.05
-1 3 6 1701.98 60.95
-1 -3 6 1619.15 57.15
-1 3 7 179.46 16.76
-1 -3 7 153.02 16.04
-1 3 7 172.8 7.63
-1 -3 7 169.69 11.77
-1 3 7 189.25 14.44
-1 3 7 189.85 17.39
-1 -3 7 164.21 14.74
-1 3 7 171.13 14.9
-1 -3 8 1928.31 76.71
-1 3 8 1815.94 74.52
-1 3 8 1919.92 67.66
-1 3 8 1848.73 74.01
-1 -3 8 1871.87 70.21
-1 3 8 1933.17 70.2
-1 3 9 192.23 19.84
-1 -3 9 165.55 19
-1 3 9 181.46 19.25
-1 3 9 172.41 15.61
-1 -3 9 151.58 15.71
-1 -3 10 619.96 41.03
-1 3 10 622.45 40.06
-1 3 10 632.71 34.23
-1 3 10 655.69 40.49
-1 3 11 321.81 29.05
-1 -3 11 293.26 28.68
-1 -3 12 146.4 21.6
-1 3 12 159.69 21.3
-1 5 -12 -2.28 4.49
-1 -5 -11 616.35 37.98
-1 -5 -11 695.21 38.73
-1 5 -11 618.23 41.86
-1 -5 -11 577.81 41.49
-1 -5 -11 704.87 46.77
-1 -5 -10 69.05 11.32
-1 -5 -10 61.06 11.15
-1 5 -10 52.22 11.59
-1 -5 -10 89.07 15.04
-1 5 -10 59.67 10.23
-1 -5 -9 398.77 27.88
-1 5 -9 434.94 33.57
-1 -5 -9 392.67 26.35
-1 -5 -9 464.4 32.87
-1 5 -9 448.09 27.22
-1 5 -8 14.19 7.22
-1 -5 -8 12.46 4.77
-1 -5 -8 13.19 5.61
-1 -5 -8 13.07 5.84
-1 -5 -8 11.68 6.08
-1 5 -8 15.15 4.89
-1 5 -7 1321.66 58.25
-1 -5 -7 1222.73 48.89
-1 -5 -7 1197.88 51.92
-1 -5 -7 1353 57.28
-1 5 -7 1242.44 42.05
-1 5 -7 1284.2 48.71
-1 -5 -7 1351.39 58.25
-1 -5 -6 445.21 25.65
-1 -5 -6 465.33 28.29
-1 5 -6 463.44 20.25
-1 5 -6 516.64 22.71
-1 5 -6 427.81 28.1
-1 -5 -6 414.13 22.27
-1 5 -6 453.53 20.37
-1 -5 -6 480.78 29.53
-1 -5 -6 433.14 18.79
-1 5 -6 448.91 22.35
-1 -5 -5 881.74 39.25
-1 -5 -5 917.76 42.06
-1 5 -5 984.78 32.54
-1 5 -5 923.44 36.07
-1 5 -5 1050.72 44.3
-1 5 -5 1030.05 36.83
-1 5 -5 962.43 35.07
-1 -5 -5 952.75 33.02
-1 5 -5 920.44 34.81
-1 -5 -5 1078.03 44.4
-1 5 -5 1010.94 36.67
-1 5 -4 1952.86 56.15
-1 -5 -4 1932.17 68.01
-1 -5 -4 1909.27 62.31
-1 5 -4 1943.44 68.56
-1 -5 -4 1954.42 60.25
-1 5 -4 1966.16 61.48
-1 -5 -4 1997.58 68.63
-1 5 -4 2058.46 62.41
-1 5 -3 3697.44 111.63
-1 -5 -3 3745.67 110.07
-1 5 -3 3921.11 114.28
-1 -5 -3 3554.54 104.99
-1 5 -3 3848.11 102.9
-1 5 -3 3921 109.65
-1 -5 -3 4015.82 115.13
-1 5 -2 2227.86 64.78
-1 5 -2 2213.12 68.4
-1 -5 -2 2143.34 60.63
-1 5 -2 2223.28 67.08
-1 5 -2 2098.91 65.38
-1 -5 -2 2130.92 68.32
-1 -5 -1 1016.43 35.38
-1 -5 -1 993.59 36.47
-1 -5 -1 1062.88 36.25
-1 -5 -1 996.43 35.13
-1 5 -1 1064.82 34.79
-1 5 -1 989.51 35.21
-1 -5 -1 966.68 29.92
-1 5 -1 1015.05 34.51
-1 5 -1 977.63 34.78
-1 -5 -1 974.32 34.51
-1 5 -1 981.3 35.28
-1 -5 0 1392.94 43.68
-1 -5 0 1538.3 46.5
-1 -5 0 1414.78 48.01
-1 5 0 1409.9 40.75
-1 -5 0 1594.19 49.03
-1 5 0 1495.85 44.45
-1 -5 0 1462.59 45.48
-1 -5 0 1351.96 43.78
-1 5 0 1459.24 46.24
-1 5 0 1502.27 45.62
-1 -5 0 1550.52 47.49
-1 -5 1 5180.13 141.32
-1 -5 1 5483.26 144.9
-1 -5 1 5054.84 144.12
-1 5 1 5237.79 138.34
-1 -5 1 4970.57 138.46
-1 5 1 5238.61 142.42
-1 5 1 5160.61 143.28
-1 5 1 5300.08 143.79
-1 -5 1 4757.1 135.51
-1 5 1 5215.89 138.92
-1 5 2 0.62 1.84
-1 5 2 1.85 1.21
-1 5 2 0.73 1.14
-1 -5 2 2.03 2.22
-1 -5 2 0.52 0.86
-1 5 2 1.77 2.1
-1 -5 2 0.65 0.71
-1 -5 2 1.21 1.69
-1 5 2 2.78 1.73
-1 5 2 0.66 1.45
-1 5 3 2439.21 66.5
-1 5 3 2420.81 74.26
-1 5 3 2348.78 68.47
-1 -5 3 2337.64 74.2
-1 5 3 2229.47 69.95
-1 -5 3 2349 74.23
-1 -5 3 2436.68 75.46
-1 5 3 2285.36 70.9
-1 5 3 2256.5 74.13
-1 -5 4 227.01 15.89
-1 5 4 205.09 11.29
-1 5 4 236.55 15.73
-1 -5 4 210.57 14.23
-1 5 4 215.08 15.68
-1 5 4 190.49 13.72
-1 5 4 204.94 12.03
-1 -5 4 239.9 15.77
-1 -5 5 3220.85 105.28
-1 -5 5 3224.64 90.29
-1 5 5 3513.02 104.61
-1 -5 5 3017.77 99.34
-1 5 5 3379.58 105.59
-1 5 5 3295.42 95.26
-1 -5 5 3379.94 103.87
-1 -5 6 80.2 11.08
-1 -5 6 110.28 7.34
-1 5 6 105.23 12.11
-1 -5 6 96.66 10.1
-1 5 6 112.46 12.82
-1 -5 6 113.08 11.93
-1 -5 7 313.65 24
-1 5 7 303.35 22.91
-1 -5 7 302.68 15.23
-1 5 7 302.49 15.01
-1 -5 7 322.14 19.26
-1 5 7 316.26 23.58
-1 -5 7 312.66 21.86
-1 -5 8 484.22 32.65
-1 5 8 528.06 32.46
-1 5 8 473.38 27.98
-1 5 8 503.61 32.52
-1 -5 8 477.4 28.99
-1 -5 9 322.12 27.81
-1 -5 9 343.43 18.55
-1 5 9 330.55 26.94
-1 5 9 324.6 23.36
-1 5 9 335.42 27.44
-1 -5 9 375.44 25.68
-1 5 10 343.87 28.77
-1 -5 10 318.38 29.05
-1 5 10 262.3 21.81
-1 5 10 333.58 28.43
-1 5 11 148.4 19.61
-1 -5 11 135.44 19.87
-1 5 11 129.28 18.43
-1 5 11 121.59 14.97
-1 5 12 120.46 18.75
-1 -5 12 102.32 16.9
-1 -7 -11 305.49 25.55
-1 7 -11 300.27 31.22
-1 -7 -11 304.19 30.06
-1 7 -11 334.03 29.92
-1 -7 -10 202.55 20.21
-1 7 -10 214.27 25.04
-1 -7 -10 220.42 24.63
-1 -7 -10 272.45 27.59
-1 -7 -9 443.62 29.72
-1 7 -9 467.23 35.71
-1 -7 -9 422.06 25.21
-1 -7 -9 394.82 32.02
-1 -7 -9 456.96 34.99
-1 -7 -8 817.95 41.8
-1 7 -8 762.12 45.89
-1 -7 -8 830.73 36.25
-1 -7 -8 803.83 46.06
-1 -7 -7 511.05 30.2
-1 7 -7 513.11 34.14
-1 -7 -7 512.65 24.98
-1 -7 -7 501.17 33.41
-1 -7 -7 586.85 35.76
-1 -7 -6 556.91 30.58
-1 7 -6 564.15 26.69
-1 7 -6 576.57 34.02
-1 -7 -6 517.58 30.7
-1 -7 -6 578.62 34.07
-1 -7 -5 156.16 14.1
-1 7 -5 167.93 16.03
-1 -7 -5 149.73 9.62
-1 -7 -5 192.93 16.93
-1 -7 -5 143.66 13.46
-1 -7 -5 154.61 15.41
-1 -7 -4 1177.51 43.76
-1 7 -4 1157.47 48.25
-1 -7 -4 1203.21 36.94
-1 -7 -4 1170.32 48.45
-1 -7 -4 1159.51 45.35
-1 -7 -4 1249.21 49.08
-1 7 -3 46.98 7.07
-1 -7 -3 68.77 7.53
-1 7 -3 67.99 6.43
-1 -7 -3 60.06 8.06
-1 -7 -3 63.3 8.2
-1 -7 -2 1129.56 42.76
-1 7 -2 1154.39 38.37
-1 7 -2 1062.87 41.51
-1 7 -2 1122 40.44
-1 7 -2 1091.59 41.75
-1 -7 -2 1142.42 42.45
-1 7 -2 1197.53 41.4
-1 -7 -1 747.54 30.14
-1 -7 -1 843.97 34.04
-1 -7 -1 815.23 33.41
-1 -7 -1 831.44 32.16
-1 7 -1 845.04 30.4
-1 7 -1 904.23 31.78
-1 -7 -1 771.1 26.64
-1 -7 -1 829.02 31.17
-1 7 -1 820.25 31.8
-1 -7 0 3359 107.2
-1 -7 0 3801.92 104.95
-1 7 0 3815.2 101.77
-1 -7 0 3706.54 107.87
-1 -7 0 3805.75 112.46
-1 -7 0 3811.96 112.26
-1 7 0 3756.9 105.32
-1 -7 0 3667.98 106.23
-1 7 0 3990.71 109.21
-1 7 0 3605.5 107.52
-1 -7 1 843.21 30.63
-1 -7 1 910.22 35.34
-1 -7 1 851.67 31.2
-1 7 1 859.68 28.92
-1 -7 1 850.29 35.43
-1 -7 1 806.38 31.47
-1 7 1 873.26 32.64
-1 7 1 846.92 33.68
-1 7 1 893.82 29.76
-1 -7 2 1623.96 58.43
-1 -7 2 1692.73 58.7
-1 7 2 1700.81 52.4
-1 7 2 1756.5 56.01
-1 7 2 1629.35 58.25
-1 7 2 1616.3 55.61
-1 -7 2 1612.85 49.02
-1 7 2 1722.68 58.08
-1 -7 2 1670.43 57.9
-1 7 3 2302.17 67.22
-1 7 3 2265.03 67.89
-1 -7 3 2036.81 73.2
-1 -7 3 2106.91 64.94
-1 7 3 2162.27 74.07
-1 7 3 2147.63 69.54
-1 7 3 2262.36 73.26
-1 -7 3 2209.66 73.78
-1 7 4 1166.06 40.66
-1 7 4 1133.29 45.22
-1 7 4 1195.66 42.64
-1 -7 4 1163.09 47.39
-1 7 4 1229.95 48.79
-1 7 4 1180.03 46.56
-1 7 4 1221.5 42.89
-1 -7 4 1261.4 48.26
-1 7 5 1869.49 68.18
-1 7 5 1924.26 69.38
-1 -7 5 1910.13 68.3
-1 7 5 1932.09 71.02
-1 -7 5 1875.07 63.86
-1 7 5 2009.66 68.12
-1 -7 5 2004.11 70.48
-1 7 6 465.73 28.85
-1 -7 6 490.81 30.38
-1 7 6 494.8 28.55
-1 -7 6 514.37 27.94
-1 7 6 548.73 31.5
-1 -7 6 495.99 26.08
-1 -7 6 490.8 28.56
-1 -7 7 386.18 28.02
-1 7 7 344.82 25.19
-1 7 7 405.37 27.13
-1 -7 7 378.66 24.04
-1 7 7 390.61 27.74
-1 -7 7 400.12 24.72
-1 -7 7 441.39 27.17
-1 -7 8 627.79 38.87
-1 7 8 591.12 35.91
-1 7 8 576.06 37.15
-1 -7 8 595.14 33.74
-1 -7 8 641.91 35.6
-1 7 9 31.49 8.72
-1 7 9 27.45 8.63
-1 7 9 31.75 8.18
-1 -7 9 39.54 9.01
-1 -7 9 30.27 8
-1 7 10 284.86 26.38
-1 -7 10 323.05 26.6
-1 7 10 265.05 26.02
-1 7 10 243.54 21.98
-1 7 11 273.75 27.04
-1 7 11 288.05 23.89
-1 7 11 234.55 25.79
-1 -7 11 262.16 25.23
-1 -7 12 308.39 28.68
-1 9 -10 61.43 14.13
-1 -9 -10 55.72 12.92
-1 -9 -10 62.83 14.09
-1 9 -9 517.33 39.63
-1 -9 -9 543.79 39.2
-1 -9 -9 614.71 41.82
-1 9 -8 149.49 19.27
-1 -9 -8 164.56 19.67
-1 -9 -8 150.61 18.99
-1 9 -7 704.54 42.69
-1 -9 -7 729.92 43.04
-1 -9 -7 802.66 44.5
-1 9 -6 61.91 11.1
-1 -9 -6 44.14 4.44
-1 -9 -6 46.37 8.66
-1 -9 -6 35.04 8.38
-1 -9 -5 169.36 13.56
-1 9 -5 191.36 17.72
-1 -9 -5 176.52 17.18
-1 -9 -5 150.49 14.69
-1 -9 -5 176.1 17.07
-1 -9 -4 376.02 21.35
-1 9 -4 378.38 24.15
-1 -9 -4 365.78 22.13
-1 -9 -4 363.44 24.08
-1 -9 -4 361.49 23.74
-1 -9 -3 253.68 17.3
-1 9 -3 299.02 19.43
-1 -9 -3 286.54 17.95
-1 -9 -3 278.04 18.96
-1 9 -2 547.98 22.93
-1 -9 -2 495.21 24.44
-1 9 -2 573.76 26.08
-1 -9 -2 523.09 18.25
-1 -9 -2 507.67 25.69
-1 9 -2 573.93 28.45
-1 -9 -1 394.37 20.55
-1 -9 -1 434.76 23.77
-1 -9 -1 364.06 22.06
-1 -9 -1 406.66 20.95
-1 9 -1 396.69 19.15
-1 -9 -1 380.25 16.67
-1 9 -1 382.84 22.74
-1 9 0 48.89 4.1
-1 -9 0 45.03 7.26
-1 -9 0 48.63 6.12
-1 -9 0 46.84 7.54
-1 9 0 47.61 4.91
-1 -9 0 47.97 5.64
-1 9 0 67.03 7.06
-1 9 0 52.04 7.73
-1 -9 1 2851.08 82.81
-1 -9 1 2625.5 83.36
-1 9 1 2742.35 80.44
-1 -9 1 2798.88 91.03
-1 -9 1 2850.62 90.08
-1 -9 1 2633.91 84.72
-1 9 1 2752.47 81.98
-1 9 1 3026.7 91.62
-1 -9 2 554.7 24.97
-1 -9 2 561.8 23.9
-1 -9 2 548.71 28.67
-1 9 2 546.25 23.47
-1 -9 2 528.08 29.06
-1 9 2 600.08 24.54
-1 9 2 584.61 29.45
-1 -9 2 543.8 21.12
-1 -9 2 589.18 29.37
-1 9 2 589.66 29.35
-1 -9 3 1942.03 69.49
-1 -9 3 1799.3 60.58
-1 -9 3 1840.01 69.24
-1 9 3 1945.86 61.99
-1 -9 3 1838.44 58.37
-1 9 3 2100.25 70.83
-1 -9 3 1980.98 69.35
-1 9 3 1930.23 67.74
-1 9 4 525.82 28.59
-1 -9 4 597.75 32.02
-1 9 4 612.01 32.51
-1 -9 4 592.36 31.66
-1 9 4 598.26 30.59
-1 9 5 1489.37 59.59
-1 -9 5 1544.56 61.43
-1 9 5 1526.24 62.93
-1 -9 5 1539.48 54.03
-1 9 5 1605.81 60.13
-1 -9 5 1587.68 62.3
-1 9 6 246.7 20.16
-1 9 6 234.59 19.83
-1 -9 6 284.3 21.57
-1 9 6 249.47 21.66
-1 -9 6 217.07 16.4
-1 9 6 275.36 20.28
-1 -9 6 293.92 22.25
-1 9 7 420.45 28.61
-1 9 7 388.99 27.62
-1 -9 7 436.03 27.84
-1 9 7 382.02 28.89
-1 -9 7 386.35 24.27
-1 -9 7 461.23 29.45
-1 9 8 646.5 38.94
-1 -9 8 657.18 35.34
-1 9 8 620.56 40.3
-1 -9 8 747.6 40.2
-1 9 9 430.26 31.35
-1 9 9 344.17 29.94
-1 -9 9 345.91 25.95
-1 -9 9 366.89 27.88
-1 9 10 292.78 26.98
-1 -9 10 311.78 25.57
-1 9 10 350.9 31.14
-1 9 10 311.43 25.95
-1 9 11 255.62 23.84
-1 -9 11 290.35 25.84
-1 9 11 274.8 28.45
-1 11 -10 461.08 39.14
-1 -11 -10 443.15 37.89
-1 -11 -10 504.34 40.24
-1 11 -9 87.72 16.27
-1 -11 -9 75.96 15.18
-1 11 -9 57.48 10.79
-1 -11 -9 84.03 15.87
-1 11 -8 655.64 43.69
-1 -11 -8 701 44.68
-1 -11 -8 690.29 44.43
-1 11 -8 670.69 37.7
-1 11 -7 212.75 22.31
-1 -11 -7 183.18 19.29
-1 -11 -7 221.41 23.03
-1 11 -7 224.44 20.08
-1 -11 -7 219.84 22.56
-1 -11 -6 759.87 35.17
-1 11 -6 769.09 43.09
-1 -11 -6 793.02 44.14
-1 -11 -6 786.16 40.48
-1 11 -6 741.61 39.61
-1 -11 -6 732.33 42.24
-1 11 -5 53.76 9.83
-1 -11 -5 43.12 7.75
-1 -11 -5 36.31 7.74
-1 -11 -5 37.89 8.35
-1 11 -5 36.14 7.79
-1 -11 -4 1128.65 46.43
-1 11 -4 1129.39 49.13
-1 -11 -4 986.39 45.3
-1 11 -4 1103.29 49.13
-1 -11 -4 1144.43 49.33
-1 11 -3 55.01 8.16
-1 -11 -3 43.08 7.47
-1 -11 -3 44.23 8
-1 -11 -3 38.75 6.92
-1 -11 -3 49.42 8.15
-1 -11 -2 1093.35 45.08
-1 -11 -2 1045.62 43.46
-1 -11 -2 1236.04 48.44
-1 11 -2 1153.86 43.65
-1 11 -2 1083.36 33.95
-1 -11 -2 1066.4 35.01
-1 11 -2 1162.97 49.05
-1 -11 -2 1121.25 44.05
-1 -11 -1 270.63 17.99
-1 -11 -1 312.46 19.16
-1 11 -1 305.42 16.85
-1 -11 -1 312.42 15.63
-1 11 -1 341.73 22.76
-1 -11 0 1594.31 56.1
-1 -11 0 1701.17 59.54
-1 -11 0 1815.8 65.53
-1 -11 0 1606.31 56.83
-1 11 0 1648.63 52.05
-1 -11 0 1723.71 56.16
-1 11 0 1696.72 64.52
-1 11 1 226.6 12.51
-1 -11 1 230.48 14.54
-1 -11 1 279.74 20.72
-1 -11 1 249.34 19.16
-1 -11 1 220.24 13.36
-1 11 1 245.51 19.1
-1 -11 2 1959.96 72.2
-1 -11 2 1907.68 62.69
-1 11 2 2046.04 63.04
-1 -11 2 1820.23 73.17
-1 11 2 1966.5 72.73
-1 -11 2 1904.04 59.94
-1 11 2 2057 72.99
-1 -11 3 396.88 19.92
-1 -11 3 442.24 28.11
-1 -11 3 397.58 26.32
-1 11 3 416.33 27.03
-1 11 3 403.88 25.78
-1 -11 4 1814.04 70.39
-1 -11 4 1763.01 58.45
-1 -11 4 1701.47 69.73
-1 11 4 1775.95 70.06
-1 -11 4 1688.61 68.48
-1 11 4 1774.22 67.79
-1 11 5 150.54 15.67
-1 -11 5 156.4 17.07
-1 11 5 171.72 18.08
-1 -11 5 170.2 12.81
-1 11 5 167.89 16.44
-1 -11 5 194.65 18.56
-1 11 6 537.18 33.01
-1 11 6 545.86 33.44
-1 -11 6 596.04 35.27
-1 11 6 562.25 36.07
-1 -11 6 550.25 27.72
-1 11 6 553.4 32.37
-1 -11 6 610.11 35.78
-1 11 7 106.24 14.64
-1 11 7 138.66 16.37
-1 -11 7 96.47 13.87
-1 11 7 133.52 17.24
-1 -11 7 99.32 11.66
-1 -11 7 161.48 17.73
-1 11 8 180.22 19.88
-1 11 8 210.73 20.97
-1 -11 8 158.03 15.77
-1 11 8 197.52 21.96
-1 -11 8 148.46 17.93
-1 11 9 184.87 20.54
-1 11 9 140.15 19.55
-1 -11 9 146.16 16.13
-1 -11 9 178.47 20.04
-1 11 10 169.89 22.47
-1 11 11 35.43 9.47
-1 13 -9 310.82 30.58
-1 -13 -9 355.94 33
-1 13 -9 285.34 25.01
-1 -13 -9 321.81 31.52
-1 13 -8 351.21 31.07
-1 -13 -8 322.29 30.1
-1 13 -8 333.36 27.05
-1 -13 -8 292.88 28.88
-1 13 -7 389.25 31.48
-1 -13 -7 377.07 28.91
-1 13 -7 385.82 29.22
-1 -13 -7 467.49 34.3
-1 -13 -6 282.6 20.57
-1 13 -6 304.14 25.89
-1 -13 -6 297.06 23.99
-1 13 -6 300.51 25.25
-1 -13 -6 291.61 25.79
-1 -13 -5 457.39 27.43
-1 13 -5 492.52 31.53
-1 -13 -5 436.08 28.98
-1 -13 -5 454.4 31.61
-1 -13 -5 456.25 30.72
-1 13 -5 378.33 28.63
-1 -13 -4 312.39 22.78
-1 13 -4 314.44 23.33
-1 -13 -4 358.89 24.19
-1 -13 -4 354.61 26.01
-1 13 -4 323.1 25.51
-1 -13 -4 377.22 25.81
-1 -13 -3 572.64 32.29
-1 13 -3 577.72 30.32
-1 -13 -3 542.8 30.83
-1 -13 -3 562.04 32.09
-1 -13 -2 641.73 32.21
-1 -13 -2 588.27 31.29
-1 -13 -2 559.96 32.61
-1 13 -2 622.13 29.21
-1 -13 -2 569.5 33.4
-1 13 -2 573.87 20.49
-1 13 -2 577.36 34.35
-1 -13 -1 988.16 41.33
-1 -13 -1 996.85 42.79
-1 -13 -1 933.14 45.35
-1 -13 -1 979.81 36.24
-1 13 -1 951.92 34.57
-1 13 -1 1003.07 47.36
-1 -13 0 598.58 34.11
-1 -13 0 556.69 26.6
-1 -13 0 517.84 28.62
-1 13 0 575.84 33.66
-1 13 1 1089.97 37.7
-1 -13 1 1084.93 51.23
-1 -13 1 1124.12 41.6
-1 -13 1 1005.32 38.06
-1 13 1 1091.29 50.32
-1 -13 2 584.67 35.01
-1 13 2 589.13 34.63
-1 13 2 529.13 32.62
-1 -13 3 661.67 38.08
-1 13 3 593 36.01
-1 13 3 595.62 35.11
-1 -13 4 127.88 16.17
-1 -13 4 144.93 17.46
-1 -13 4 146.5 11.21
-1 13 4 174.51 18.56
-1 13 4 168.3 17.29
-1 13 5 413.79 28.73
-1 -13 5 490.41 33.05
-1 -13 5 409.14 30.59
-1 -13 5 425.57 22.21
-1 13 5 492.7 33.62
-1 13 5 427.67 29.31
-1 13 6 100.31 14.32
-1 13 6 113.19 14.87
-1 -13 6 128.22 17.09
-1 -13 6 119.2 16.06
-1 13 6 106.11 15.8
-1 -13 6 91.02 10.19
-1 13 6 107.52 14.48
-1 13 7 591.97 37.95
-1 13 7 619.47 37.95
-1 -13 7 615.49 38.77
-1 13 7 547.87 38.89
-1 -13 7 574.28 29.74
-1 13 7 563.14 35.03
-1 13 8 157.8 19.78
-1 13 8 188.06 21.19
-1 13 9 377.82 33.62
-1 13 10 124.64 20.34
-1 15 -8 293.34 28.76
-1 -15 -8 265.51 28.24
-1 -15 -8 330.55 30.93
-1 15 -8 266.04 25.68
-1 15 -7 89.28 15.54
-1 -15 -7 94.07 16.77
-1 -15 -7 112.09 15.77
-1 15 -7 106.94 16.01
-1 -15 -7 105.09 16.82
-1 -15 -6 219.65 19.41
-1 15 -6 233.91 22.95
-1 -15 -6 274.71 26.19
-1 -15 -6 238.96 22.37
-1 -15 -6 261.85 24.48
-1 15 -6 237.29 23.84
-1 -15 -5 298.5 23.26
-1 15 -5 343.81 26.15
-1 -15 -5 299.33 24.3
-1 -15 -5 309.9 26.56
-1 -15 -5 332.84 26.31
-1 15 -5 295.62 26.28
-1 -15 -4 262.29 21.82
-1 -15 -4 272.51 22.02
-1 -15 -4 238.03 22.09
-1 15 -4 253.99 24.07
-1 -15 -3 393.9 28
-1 -15 -3 421.19 28.1
-1 -15 -3 397.43 26.58
-1 -15 -2 298.5 24.41
-1 -15 -2 318.18 22.7
-1 -15 -2 317.17 22.91
-1 15 -2 331.8 26.84
-1 -15 -1 282.46 23.26
-1 -15 -1 256.84 22.83
-1 -15 -1 243.56 18.34
-1 -15 -1 260.94 20.41
-1 15 -1 281.01 24.39
-1 -15 0 382.63 28.17
-1 -15 0 379.57 25.29
-1 15 0 440.16 30.85
-1 -15 1 78.78 12.43
-1 -15 1 83.75 13.36
-1 -15 1 93.14 12.02
-1 15 1 80.09 13.08
-1 -15 2 752.92 42.94
-1 -15 2 723.81 41.22
-1 15 2 696.84 41.38
-1 15 2 674.46 40.43
-1 -15 3 32.94 8.78
-1 -15 3 12.6 6.24
-1 15 3 16.36 6.71
-1 15 3 30.87 8.53
-1 -15 4 875.27 49.03
-1 -15 4 772.31 32.43
-1 15 4 917.84 49.77
-1 15 4 888.21 46.77
-1 15 5 29.53 8.15
-1 -15 5 6.74 5.44
-1 15 5 20.6 8.15
-1 15 5 7.84 5.48
-1 15 6 501.23 34.15
-1 15 6 486.9 34.08
-1 -15 6 497.89 36.56
-1 15 6 585.22 40.02
-1 15 6 472.13 33.33
-1 15 7 88.46 14.66
-1 15 7 118.86 16.72
-1 15 7 112.78 17.74
-1 -15 7 110.04 16.88
-1 15 8 304.65 28.11
-1 15 8 350.43 32.47
-1 15 9 86.25 15.53
-1 15 9 120.98 20.56
-1 17 -8 81.6 14.88
-1 -17 -7 241.89 26.07
-1 -17 -7 224.69 22.89
-1 17 -7 218.84 24.21
-1 -17 -6 133.74 17.31
-1 -17 -6 175.11 21.59
-1 17 -6 126.34 18.74
-1 -17 -5 801 43.23
-1 -17 -5 824.8 47.45
-1 -17 -5 780.19 43.76
-1 17 -5 930.75 51.93
-1 -17 -4 44.36 10.18
-1 -17 -4 25.04 7.64
-1 -17 -4 21.01 7.16
-1 17 -4 32.74 9.81
-1 -17 -3 1163.05 55.44
-1 -17 -3 1041.34 50.79
-1 -17 -3 1114.35 52.52
-1 -17 -2 104.63 15.48
-1 -17 -2 115.14 13.54
-1 -17 -2 102.82 13.93
-1 17 -2 88.66 15.12
-1 -17 -1 820.58 46.8
-1 -17 -1 785.7 45
-1 -17 -1 812.97 38.15
-1 -17 -1 777.23 41.53
-1 17 -1 861.17 48.83
-1 -17 0 178.9 19.85
-1 -17 0 208.64 19.05
-1 17 0 176.61 20.81
-1 -17 1 415.89 30.8
-1 -17 1 365.09 30.28
-1 -17 1 333.7 25.22
-1 17 1 330.85 28.66
-1 -17 2 187.9 21.74
-1 -17 2 181.8 20.55
-1 -17 2 168.49 17.83
-1 17 2 188.59 21.29
-1 -17 3 247.01 25.52
-1 -17 3 244.45 24.38
-1 17 3 286.21 27.06
-1 17 3 273.35 25.73
-1 -17 4 158.15 20.82
-1 -17 4 154.3 19.86
-1 17 4 144.94 19.84
-1 17 4 190.35 21.58
-1 17 5 226.89 22.95
-1 -17 5 225.9 24.64
-1 -17 5 237.97 26.1
-1 17 5 238.64 26.31
-1 17 5 263.36 25.38
-1 17 6 128.15 17.66
-1 17 6 90.61 15.04
-1 -17 6 102.75 17.44
-1 -17 6 128.95 19.44
-1 17 6 123.43 19.32
-1 17 6 122.75 17.55
-1 17 7 312.01 28.72
-1 17 7 317.68 31.64
-1 -17 7 354.46 32.81
-1 -17 7 389.35 33.68
-1 17 8 11.76 6.97
-1 -19 -6 236.97 25.09
-1 -19 -6 182.71 20.87
-1 19 -6 180.64 23.53
-1 -19 -5 340.99 28.95
-1 -19 -5 267.84 24.56
-1 19 -5 295.18 29.41
-1 -19 -4 55.33 11.51
-1 -19 -4 49.81 11.19
-1 -19 -4 45.11 9.89
-1 19 -4 44.64 11.65
-1 -19 -3 297.85 27.04
-1 -19 -3 287.89 24.55
-1 -19 -3 304.7 24.92
-1 -19 -2 103.99 16.63
-1 -19 -2 120.09 15.57
-1 -19 -2 108.23 13.64
-1 19 -2 98.47 17
-1 -19 -1 244.44 24.72
-1 -19 -1 179.19 21.07
-1 -19 -1 178.88 19.09
-1 19 -1 179.92 22.52
-1 -19 0 471.34 34.95
-1 -19 0 485 36.72
-1 -19 0 522.87 33.37
-1 19 0 434.96 36.11
-1 -19 1 32.72 8.84
-1 -19 1 54.75 12.16
-1 19 1 39.66 10.98
-1 19 1 27.8 9.38
-1 -19 2 420.56 33.55
-1 -19 2 426.6 35.33
-1 -19 2 388.88 29.22
-1 19 2 422.81 34.74
-1 -19 3 81.65 13.73
-1 -19 3 75.4 14.56
-1 -19 3 101.68 17.64
-1 19 3 84.38 15.97
-1 19 3 79.99 15.36
-1 -19 4 339.08 32.17
-1 -19 4 323.55 30.64
-1 19 4 327.42 31.54
-1 19 4 330.87 30.48
-1 19 5 106.24 16.5
-1 -19 5 156.1 22.05
-1 -19 5 113.57 18.51
-1 19 5 107 18.69
-1 19 5 136.52 19.35
-1 19 6 178.36 21.67
-1 -21 -3 334.52 30.12
-1 -21 -2 49.33 12.97
-1 21 -2 71.46 15
-1 -21 -1 131.35 19.42
-1 -21 -1 108.62 15.34
-1 21 -1 113.59 19.65
-1 -21 0 60.04 11.75
-1 -21 0 77.44 15.01
-1 -21 0 64.11 14.3
-1 21 0 66.92 14.33
-1 21 0 73.29 15.58
-1 -21 1 76.66 12.98
-1 -21 1 56.92 13.04
-1 -21 1 71.74 15.26
-1 21 1 68.43 14.65
-1 21 1 64.33 14.71
-1 -21 2 193.55 21.3
-1 -21 2 174.48 22.06
-1 -21 2 175.84 23.66
-1 21 2 159.75 22.56
-1 21 2 146.85 22.15
-1 -21 3 26.06 10
-1 -21 3 37 9.56
-1 21 3 51.79 14
0 0 -12 1139.35 62.1
0 0 -12 1187.08 61.35
0 0 -11 2.31 3.95
0 0 -11 -1.63 3.22
0 0 -11 -4.36 4.81
0 0 -10 546.06 37.56
0 0 -10 615.92 36.76
0 0 -10 607.79 34.36
0 0 -10 615.33 38.29
0 0 -9 -1.86 3.18
0 0 -9 2.79 3.64
0 0 -9 -1.61 3.9
0 0 -9 1.75 3.86
0 0 -8 912.47 46.29
0 0 -8 987.72 43.32
0 0 -8 1026.07 47.37
0 0 -7 1.4 2.76
0 0 -7 1.08 2.12
0 0 -7 2.03 1.73
0 0 -7 0.69 1.53
0 0 -7 3.89 3.62
0 0 -6 112.24 10.49
0 0 -6 111.98 10.31
0 0 -6 97.62 9.14
0 0 -6 97.31 8.25
0 0 -5 -0.63 1.52
0 0 -5 0.7 2.08
0 0 -5 3.85 1
0 0 -4 2931.84 85.63
0 0 -4 3117.02 88.22
0 0 -4 2852.87 86.12
0 0 -4 2808.54 85.29
0 0 -4 2905.36 79.07
0 0 -4 2882.25 88.22
0 0 -3 -0.46 1.44
0 0 -3 0.49 1.53
0 0 -3 1.16 0.96
0 0 -3 -0.14 0.66
0 0 -3 1.53 1.74
0 0 -2 7790.07 198.11
0 0 -2 7616.34 197.58
0 0 -2 7303.95 194.08
0 0 -2 7177.39 196.77
0 0 -2 7842.64 197.21
0 0 -2 7243.59 196.52
0 0 -1 0.63 0.9
0 0 -1 0.5 0.82
0 0 -1 0.14 0.75
0 0 -1 1.21 0.66
0 0 -1 1.08 0.59
0 0 -1 2.64 1.11
0 0 1 0.33 0.81
0 0 1 0.15 0.66
0 0 1 0.14 0.47
0 0 1 0.27 0.8
0 0 2 7389.82 196.84
0 0 2 7198.9 196.83
0 0 2 7342.26 195.43
0 0 2 7469.68 196.44
0 0 2 7269.85 196.03
0 0 2 7022.66 195.03
0 0 2 7390.62 195.84
0 0 3 -0.51 1.59
0 0 3 -0.49 1.53
0 0 3 -0.18 0.65
0 0 3 0.47 1.53
0 0 3 0.38 1.24
0 0 3 0.43 1.45
0 0 3 0.43 1.39
0 0 3 -0.37 1.27
0 0 4 2965.49 87.15
0 0 4 2781.64 86.68
0 0 4 2836.52 86.09
0 0 4 2897.39 83.9
0 0 4 2810.72 83.64
0 0 5 -0.9 2
0 0 5 1.63 2.13
0 0 5 -0.64 2.28
0 0 5 4.34 2.87
0 0 5 0.62 1.37
0 0 6 257.29 18.09
0 0 6 198.67 14.77
0 0 6 249.53 17.07
0 0 6 231.09 14.6
0 0 7 1.35 2.66
0 0 7 -1.19 2.88
0 0 7 -1.08 1.84
0 0 7 0.84 1.66
0 0 8 1144.53 51.79
0 0 9 5.45 4.4
0 0 10 641.73 39.88
0 0 11 -2.27 4.49
0 0 12 1174.89 61.72
0 0 12 1102.56 54.74
0 2 -12 5.35 5.9
0 -2 -12 4.49 6.26
0 2 -12 -2.14 4.72
0 -2 -12 7.63 6.64
0 2 -11 238.73 25.56
0 -2 -11 250.96 24.28
0 -2 -11 241.31 24.42
0 2 -11 207.53 20.6
0 -2 -11 241.35 20.83
0 2 -11 256.9 23.76
0 -2 -11 268.94 26.36
0 2 -10 33.87 9.51
0 -2 -10 45.91 10.21
0 2 -10 31.23 7.84
0 -2 -10 40.75 8.56
0 -2 -10 37.92 9.5
0 2 -10 43.26 9.63
0 -2 -10 47.03 10.8
0 2 -9 832.75 47.01
0 -2 -9 933.68 46.07
0 2 -9 931.69 43.92
0 -2 -9 879.84 41.2
0 2 -9 901.93 42.6
0 -2 -9 857.57 45.73
0 2 -9 878.12 44.15
0 -2 -9 895.89 47.3
0 -2 -8 27.98 7.15
0 -2 -8 22.38 5.74
0 2 -8 33.1 7.23
0 -2 -7 1459.32 54.23
0 2 -7 1333.91 58.83
0 -2 -7 1542.69 58.22
0 2 -7 1380.01 56.06
0 -2 -7 1409.86 50.84
0 -2 -7 1457.45 49.4
0 2 -7 1434.87 42.76
0 2 -7 1487.95 56.36
0 -2 -7 1568.16 50.02
0 2 -6 21.09 4.04
0 2 -6 20.63 5.58
0 -2 -6 20.82 4.86
0 -2 -6 22.53 4.73
0 2 -6 23.03 5.1
0 2 -6 34.91 3.58
0 -2 -6 25.11 4.3
0 2 -6 21.19 4.98
0 -2 -6 26.44 6.42
0 -2 -6 24.82 4.23
0 2 -5 2410.28 72.78
0 2 -5 2548.44 68.77
0 2 -5 2306.96 81.09
0 2 -5 2624.26 76.65
0 -2 -5 2266.45 72.54
0 2 -5 2349.12 76.65
0 -2 -5 2362.31 71.57
0 -2 -5 2433.34 80.2
0 2 -5 2320.27 76.22
0 -2 -5 2470.94 72.57
0 -2 -4 219.35 13.27
0 2 -4 218.19 13.26
0 2 -4 182.7 8.58
0 2 -4 200.25 11.51
0 2 -4 209.6 12.25
0 -2 -4 174.15 10.07
0 -2 -4 190.24 10.17
0 -2 -4 180.74 9.48
0 -2 -4 200.25 13.65
0 -2 -4 193.71 10.4
0 2 -3 3000.42 83.59
0 -2 -3 2989.6 83.21
0 -2 -3 3067.89 84.82
0 2 -3 2844.22 84.18
0 2 -3 2998.78 81.77
0 -2 -3 2680.28 80.03
0 -2 -3 2794.69 78
0 -2 -3 2894.21 80.04
0 -2 -3 2996.07 85.07
0 2 -3 2866.7 83.54
0 2 -2 123.21 7.7
0 -2 -2 125.59 7.8
0 -2 -2 123.72 7.59
0 -2 -2 112.24 6.76
0 -2 -2 130.55 7.56
0 -2 -2 113.09 6.85
0 -2 -2 98.63 7.51
0 2 -2 117.03 6.94
0 2 -2 124.61 7.77
0 2 -1 1362.79 38.81
0 2 -1 1319.65 36.16
0 -2 -1 1387.35 38.99
0 -2 -1 1259.08 37.98
0 -2 -1 1322.02 37.39
0 -2 -1 1288.72 38.56
0 2 -1 1192.84 36.65
0 2 -1 1312.1 38.45
0 -2 -1 1364.05 37.96
0 -2 -1 1324.91 38.79
0 -2 0 14.89 1.49
0 -2 0 18.37 2.06
0 2 0 19.49 1.63
0 -2 0 18.25 1.59
0 2 0 20.16 2.03
0 -2 0 20.19 1.95
0 -2 0 15.4 1.97
0 2 0 18.63 1.76
0 -2 0 17.72 1.71
0 2 0 13.71 1.64
0 -2 0 15.96 1.79
0 2 1 1593 44.47
0 2 1 1553.68 43.52
0 2 1 1430.52 42.75
0 2 1 1555.18 44.04
0 2 1 1556.1 44.57
0 -2 1 1556.89 44.68
0 -2 1 1506.7 43.54
0 2 1 1542.2 43.79
0 -2 1 1509.7 44.33
0 2 1 1480.23 44.2
0 -2 1 1514.01 45.11
0 2 2 130.57 7.94
0 2 2 134.73 7.25
0 2 2 142.95 7.95
0 2 2 129.03 5.93
0 2 2 139.12 8.16
0 -2 2 142.61 8.37
0 -2 2 130.43 5.47
0 2 2 133.41 7.07
0 -2 2 133.08 7.62
0 2 2 124.56 5.88
0 -2 2 131.16 8.52
0 -2 3 3381.17 95.66
0 2 3 3475.43 94.76
0 2 3 3367.26 94.3
0 2 3 3369.38 88.87
0 2 3 3105.43 90.54
0 2 3 3460.71 94.99
0 -2 3 3286.27 93.97
0 -2 3 3294.89 89.69
0 2 3 3000.99 89.07
0 -2 3 3229.24 92.9
0 2 3 3126.66 87.79
0 -2 3 3245.39 95.56
0 -2 4 219.93 14.27
0 2 4 212.79 13.4
0 2 4 237.64 14.02
0 2 4 208.1 10.32
0 2 4 196.04 9.09
0 2 4 202.65 13.2
0 -2 4 227.49 13.42
0 2 4 216.7 10.55
0 -2 4 206.8 10.58
0 -2 4 212.31 12.14
0 -2 4 212.32 13.88
0 -2 5 2773.99 84.14
0 2 5 2615.44 81.88
0 2 5 2567.61 73.84
0 2 5 2451.63 72.37
0 2 5 2600.8 75.76
0 2 5 2578.93 82.13
0 -2 5 2507.47 75.88
0 -2 5 2575.9 78.42
0 -2 6 26.02 6
0 2 6 28.3 6.03
0 2 6 32.02 3.92
0 2 6 33.85 6.22
0 2 6 40.71 6.46
0 -2 6 28.53 5.19
0 2 6 26.43 4.89
0 2 7 1492.67 58.83
0 -2 7 1496.3 59.98
0 2 7 1391.1 55.3
0 2 7 1520.39 58.24
0 -2 7 1511.31 53.32
0 2 7 1438.03 52.12
0 -2 8 44.51 9.27
0 2 8 67.94 10.5
0 2 8 39.23 8.18
0 2 8 34.13 7.18
0 -2 8 40.5 6.94
0 2 9 819.24 43.47
0 -2 9 783.5 43.67
0 2 9 802.27 41.96
0 2 9 771.96 39.71
0 2 10 50.09 10.92
0 -2 10 57.55 11.98
0 2 11 272.6 25.64
0 -2 11 259.81 26.1
0 -2 11 218.82 20.06
0 -2 12 12.69 7.52
0 4 -12 967.77 58.64
0 -4 -12 946.46 55.32
0 4 -12 987.36 50.85
0 -4 -12 1021.85 58.87
0 4 -11 84.81 15.95
0 -4 -11 114.86 13.96
0 4 -11 111.87 15.69
0 -4 -11 115.75 15.78
0 -4 -11 121.04 17.76
0 -4 -11 115.97 18.33
0 4 -11 109.64 14.88
0 -4 -10 534.84 31.05
0 -4 -10 596.78 34.79
0 -4 -10 547.94 37.45
0 4 -10 465.96 32.17
0 4 -10 516.89 32.05
0 -4 -10 535.17 37.8
0 4 -9 307.61 27.39
0 -4 -9 322.36 23.77
0 -4 -9 316.34 22.18
0 -4 -9 382.72 28.84
0 4 -9 336.79 23.62
0 4 -8 544.14 35.81
0 -4 -8 567.36 31.5
0 -4 -8 585.73 30.5
0 4 -8 613.51 22.52
0 -4 -8 573.83 35.79
0 4 -8 578.86 30.75
0 4 -7 116.21 14.36
0 -4 -7 103.6 11.17
0 4 -7 108.61 8.99
0 -4 -7 115.7 11.37
0 -4 -7 107.66 7.61
0 -4 -7 99.46 13.12
0 4 -7 92.29 10.24
0 4 -6 26.21 4.12
0 4 -6 14.12 5.08
0 -4 -6 32.46 5.74
0 4 -6 28.29 3.57
0 -4 -6 30.25 5.53
0 -4 -6 38.64 4.42
0 -4 -6 22.72 4.26
0 -4 -6 29.29 3.55
0 4 -6 26.74 5.13
0 -4 -6 31.77 7.19
0 -4 -5 138.47 12.52
0 4 -5 126.7 7.93
0 4 -5 113.99 12.14
0 -4 -5 117.15 7.24
0 4 -5 128.77 10.18
0 4 -5 93.58 10.81
0 -4 -5 131.83 9.98
0 -4 -5 119.47 12.13
0 -4 -5 119.57 6.43
0 4 -5 129.68 10.44
0 4 -5 134.1 9.92
0 -4 -5 119.96 8.99
0 -4 -4 2155.26 67.59
0 4 -4 1976.28 67.88
0 -4 -4 2013.49 61.12
0 4 -4 2011.86 67.44
0 -4 -4 2024.02 62.7
0 4 -4 2092.04 63.1
0 4 -4 2056.91 63.76
0 4 -4 1990.16 65.99
0 -4 -4 2012.25 54.82
0 -4 -4 2100.25 61.56
0 -4 -4 2166.78 68.36
0 4 -4 2022.82 60.79
0 4 -4 2196.86 64.07
0 -4 -3 3115.38 86.42
0 4 -3 3264.72 87.05
0 -4 -3 3103.64 81.16
0 -4 -3 2942.4 80.71
0 -4 -3 3186.85 83.47
0 -4 -3 3147.21 88.24
0 -4 -2 1648.45 50.06
0 4 -2 1645.87 49.68
0 4 -2 1635.37 44.53
0 -4 -2 1551.31 49.44
0 -4 -2 1441.26 43.09
0 -4 -2 1629.11 49.59
0 4 -2 1650.75 49.19
0 -4 -2 1584.09 49.9
0 4 -2 1508.3 43.14
0 4 -1 1720.98 50.44
0 -4 -1 1919.27 56.26
0 -4 -1 1854.05 55.8
0 -4 -1 1890.01 55.63
0 4 -1 1799.4 54.57
0 4 -1 1921.06 53.76
0 4 -1 1901.19 56.48
0 -4 -1 1874.53 56.39
0 -4 -1 1960.2 55.67
0 -4 -1 2122.78 55.68
0 4 -1 1916.5 56.03
0 4 -1 1781.81 55.84
0 4 0 8498.47 226.73
0 -4 0 9735.39 228.57
0 4 0 9999 228.04
0 -4 0 8577.77 224.76
0 4 0 7308.45 223.32
0 4 0 8368.17 228.11
0 -4 0 8360.27 227.55
0 -4 0 7679.29 225.51
0 4 0 9577.09 226.11
0 -4 0 9428 226.46
0 -4 0 8232.13 224.03
0 -4 0 8035.38 226.12
0 4 0 8067.86 225.8
0 4 1 1803.56 54.23
0 4 1 1792.79 52.23
0 4 1 1964.52 53.43
0 -4 1 1836.9 53.72
0 -4 1 1787.7 52.36
0 -4 1 1611.29 51.44
0 4 1 1791.52 49.15
0 4 1 1773.89 53.6
0 4 1 1626.75 52
0 -4 1 1838.79 54.7
0 4 2 1679.11 50.05
0 4 2 1544.25 48
0 4 2 1544.16 47.37
0 4 2 1588.46 49.21
0 4 2 1576.48 47.75
0 -4 2 1551.02 50.25
0 4 2 1508.45 50.06
0 4 2 1649.92 50.93
0 4 2 1576.18 48.91
0 -4 2 1531.19 49.79
0 -4 2 1652.44 52.06
0 -4 3 2937.28 82.5
0 4 3 3013.13 85.82
0 4 3 3086.86 87.96
0 4 3 3090.77 88.51
0 4 3 3019.66 83.53
0 -4 3 2831.7 78.92
0 -4 3 3039.79 89.08
0 4 3 2994.7 89.52
0 4 3 3022.47 83.68
0 -4 3 3150.27 91.52
0 -4 3 3061.42 87.86
0 4 3 2908.23 85.68
0 -4 4 2020.44 66.41
0 -4 4 1773.08 58.02
0 4 4 1945.73 65.34
0 4 4 2018.96 63.68
0 4 4 1987.57 61.17
0 4 4 2043.47 57.49
0 4 4 1983.85 65.25
0 -4 4 1988.94 55.33
0 4 4 2030.84 60.95
0 4 4 1919.47 56.69
0 -4 4 1869.86 62.81
0 -4 5 113.16 11.44
0 4 5 126.77 11.97
0 -4 5 93.94 7.83
0 4 5 118.67 11.04
0 4 5 107.12 6.69
0 4 5 105 8.27
0 4 5 92.84 10.12
0 -4 5 103.55 6.68
0 4 5 107.41 6
0 -4 5 99.11 9.47
0 -4 6 20.61 5.86
0 4 6 31.66 6.88
0 4 6 38.64 6.84
0 4 6 20.89 3.77
0 4 6 27.86 6.1
0 -4 6 33.73 5.94
0 -4 7 115.02 13.72
0 -4 7 122.08 10.72
0 4 7 151.16 14.55
0 4 7 132.91 14
0 4 7 112.66 12.5
0 -4 7 104.29 10.99
0 4 8 685.47 36.68
0 -4 8 647.02 37.7
0 -4 8 642.25 30.45
0 4 8 671.58 35.38
0 4 8 656.58 36.23
0 -4 8 626.78 31.59
0 4 9 376.05 27.48
0 -4 9 306.44 26.45
0 -4 9 324.77 21.22
0 4 9 357.23 25.4
0 4 9 346.28 26.31
0 4 10 669.31 40.35
0 -4 10 620.74 41.15
0 -4 10 638.87 32.96
0 4 10 691.93 40.14
0 4 10 596.92 36.63
0 4 11 97.78 15.52
0 -4 12 965.17 57.25
0 6 -12 14.65 7.16
0 6 -11 99.74 15.59
0 -6 -11 143.62 19.99
0 6 -10 2.56 5.06
0 -6 -10 1.45 2.48
0 -6 -10 4.31 3.47
0 -6 -10 2.37 4.05
0 -6 -10 7.33 6.38
0 6 -10 -1.37 2.34
0 -6 -9 964.85 43.74
0 6 -9 927.25 52.59
0 -6 -9 940.09 43.02
0 -6 -9 981.76 52.24
0 -6 -9 1002.43 53.22
0 6 -9 949.99 42.42
0 -6 -8 273.62 19.72
0 6 -8 202.44 21.82
0 -6 -8 267.74 18.54
0 -6 -8 249.47 22.91
0 -6 -8 277.94 24.26
0 6 -8 257.22 17.89
0 -6 -7 1877.64 66.68
0 6 -7 1745.74 74.17
0 -6 -7 1806 63.64
0 -6 -7 2043.11 76.26
0 6 -7 1885.18 63.14
0 -6 -6 251.47 16.93
0 6 -6 207.97 12.45
0 6 -6 241.14 20.58
0 6 -6 241.89 14.31
0 -6 -5 2375.42 88.15
0 -6 -5 2557.28 84.49
0 6 -5 2815.86 92.9
0 -6 -5 2544.66 79.68
0 6 -5 2786.6 92
0 6 -5 2822.29 79.7
0 -6 -5 2869.45 91.65
0 -6 -5 2837.62 83.27
0 -6 -4 1131.86 44.75
0 -6 -4 1167.32 38.63
0 6 -4 1092.15 45.74
0 -6 -4 1138.78 36.55
0 6 -4 1240.45 47.34
0 -6 -4 1098.52 45.07
0 6 -4 1184.24 36.41
0 -6 -4 1210.14 41.13
0 -6 -3 3634.19 103.54
0 6 -3 3579.51 108.69
0 -6 -3 3567.31 97.33
0 6 -3 3667.9 110.79
0 6 -3 3442.75 108.11
0 6 -3 3583.25 97.23
0 -6 -3 3712.04 105.25
0 -6 -3 3835.15 109.46
0 6 -2 3.23 2.21
0 6 -2 7.21 1
0 6 -2 4.38 1.56
0 6 -2 4.49 2.2
0 6 -2 7.97 2.56
0 -6 -2 7.08 1.45
0 6 -2 4.51 2.35
0 -6 -2 9.43 3.05
0 6 -2 4.17 2.38
0 6 -2 7.55 2.64
0 -6 -2 8.75 2.96
0 -6 -1 2564.7 77.31
0 -6 -1 2454.09 77.06
0 6 -1 2450.96 74.56
0 6 -1 2384.04 70.21
0 6 -1 2707.92 73.95
0 -6 -1 2599.75 77.48
0 -6 -1 2590.73 72.24
0 6 -1 2554.26 76.41
0 -6 -1 2545.13 74.31
0 6 -1 2755.98 77.64
0 -6 0 202.62 10.91
0 6 0 264.46 11.46
0 -6 0 280.08 12
0 -6 0 268.01 15.19
0 6 0 266.17 10.66
0 -6 0 276.77 14.42
0 -6 0 284.87 14.47
0 -6 0 249.26 12.5
0 6 0 294.22 15.3
0 6 0 283.67 12.59
0 6 0 284.6 13.12
0 6 0 281.04 14.33
0 -6 0 282.29 11.2
0 6 1 2633.55 77.43
0 6 1 2640.74 75.68
0 -6 1 2598.31 77.56
0 -6 1 2569.38 71.08
0 6 1 2659.07 74.04
0 6 1 2707.7 74.85
0 6 1 2554.54 71.47
0 6 1 2771.04 78.11
0 -6 1 2575.68 77.5
0 6 2 19.97 4.03
0 6 2 20.28 3.86
0 6 2 14.06 3.15
0 -6 2 13.87 2.85
0 -6 2 15.34 3.63
0 6 2 19.11 1.59
0 6 2 19.63 3.73
0 -6 2 26.12 4.77
0 -6 2 20.43 4.14
0 6 3 4040.21 112.93
0 6 3 3946.76 115.47
0 6 3 3987.79 114.41
0 6 3 3995.85 111.94
0 6 3 4026.97 117.78
0 -6 3 3848.95 115.74
0 -6 3 4098.28 119.35
0 6 4 1255.41 42.26
0 6 4 1188.74 46.09
0 6 4 1178.53 44.12
0 6 4 1186.12 46.19
0 6 4 1165.21 39.38
0 -6 4 1171.2 44.82
0 6 4 1142.45 42.27
0 6 5 3013.53 96.99
0 6 5 2967.25 93.41
0 6 5 2780.06 95.44
0 -6 5 2953.85 93.42
0 6 5 2995.43 90.61
0 -6 5 2879.21 92.99
0 6 6 237.6 19.29
0 6 6 244.14 18.11
0 6 6 223.18 18.35
0 -6 6 229.81 18.05
0 -6 6 274.51 18.47
0 6 7 1858.03 72.17
0 6 7 1764.12 68.67
0 6 7 1898.13 71.6
0 -6 7 1704.8 68.78
0 -6 7 1938.48 67.54
0 -6 8 263.68 16
0 6 8 225.16 20.02
0 6 8 272.37 22.56
0 6 8 238.48 20.73
0 -6 8 247.72 21.73
0 -6 8 270.01 19.7
0 6 9 780.88 43.15
0 -6 9 832.43 34.68
0 6 9 856.23 45.58
0 6 9 816.46 43.38
0 -6 9 835.82 45.66
0 6 10 15.84 6.77
0 6 10 16.46 6.74
0 -6 10 10.83 6.76
0 6 10 7.45 5.21
0 6 11 53.63 11.51
0 -6 11 52.51 12.09
0 -6 12 7.67 6.68
0 8 -11 81.81 16.4
0 -8 -11 68.15 15.07
0 -8 -11 56.11 13.67
0 8 -10 355.69 32.95
0 -8 -10 374.19 32.68
0 -8 -10 401.14 33.86
0 8 -9 209.81 23.96
0 -8 -9 246.94 17.2
0 -8 -9 223.09 23.8
0 8 -8 313.49 27.77
0 -8 -8 323.45 18.69
0 -8 -8 301.03 26.84
0 -8 -8 318.64 27.14
0 8 -8 327.17 18.18
0 8 -7 30.57 8.49
0 -8 -7 57.46 11.02
0 -8 -7 45.77 9.78
0 8 -7 37.62 5.47
0 8 -6 385.19 27.04
0 -8 -6 328.49 15.93
0 -8 -6 371.39 26.25
0 8 -6 347.75 15.78
0 -8 -6 413.2 27.31
0 -8 -5 155.04 10.78
0 8 -5 162.08 15.92
0 -8 -5 151.95 8.05
0 -8 -5 186.25 16.64
0 8 -5 145.11 7.86
0 -8 -5 130.86 14.07
0 -8 -4 1260.85 43.96
0 8 -4 1233.73 50.38
0 -8 -4 1208.96 50.08
0 -8 -4 1295.92 50.29
0 8 -3 571.56 19.39
0 -8 -3 534.68 23.82
0 8 -3 559.75 26.8
0 -8 -3 494.89 16.2
0 -8 -3 463.82 25.26
0 -8 -2 700.36 29.89
0 8 -2 715.53 29.45
0 8 -2 703.97 27.28
0 -8 -2 698.76 23.9
0 -8 -2 735.18 29.66
0 8 -1 234.92 13.63
0 8 -1 275.48 13.84
0 -8 -1 257.86 12.95
0 8 -1 259.79 11.58
0 8 -1 281.8 13.88
0 8 -1 285.63 15.81
0 -8 -1 258.93 13.78
0 -8 0 804.33 28.66
0 -8 0 815.19 26.26
0 8 0 815.31 28.25
0 -8 0 832.56 34.82
0 8 0 809.96 26.43
0 -8 0 821.29 32.67
0 8 0 810 33.95
0 -8 0 796.61 30.13
0 8 0 805.02 29.43
0 8 0 819.59 29.08
0 8 0 809.2 30.1
0 8 0 812.67 34.05
0 -8 0 810.42 27.21
0 -8 1 261.51 11.47
0 8 1 298.2 14.57
0 -8 1 281.89 12.36
0 8 1 295.19 15.97
0 -8 1 289.69 15.96
0 -8 1 256.75 14.05
0 8 1 288.12 14.76
0 8 1 276.22 12.99
0 8 1 280.16 17.15
0 8 2 702.42 30.96
0 8 2 691.81 27.92
0 -8 2 604.73 22.38
0 8 2 749.07 27.99
0 8 2 657.1 27.81
0 -8 2 604.39 25.66
0 8 2 632.13 26.89
0 8 2 672.82 21.42
0 8 2 693.68 29.91
0 8 3 500.22 27.08
0 8 3 507.88 23.57
0 8 3 547.56 27.64
0 8 3 479.47 24.57
0 -8 4 1092.7 42.79
0 8 4 1070.7 46.87
0 8 4 1177.52 41.54
0 -8 4 1135.48 45.96
0 8 4 1227.53 44.97
0 8 5 165.47 14.32
0 8 5 179.47 16.29
0 -8 5 162.26 13.7
0 8 5 178.15 13.94
0 -8 5 157.28 14.48
0 8 6 306.59 21.19
0 8 6 277.93 21.77
0 -8 6 266.64 19.65
0 8 6 323.8 19.61
0 -8 6 289.57 20.75
0 8 7 66.27 10.31
0 8 7 70.07 11.43
0 -8 7 80.56 11.23
0 -8 7 64.22 9.8
0 8 8 372.91 26.54
0 -8 8 373.86 26.86
0 8 8 393.58 28.65
0 -8 8 344.41 24.38
0 8 9 298.97 24.95
0 8 9 312.96 26.19
0 -8 9 338.32 27.03
0 8 9 335.35 27.82
0 8 10 491.43 34.28
0 -8 10 470.22 34.3
0 8 10 512.2 36.09
0 8 11 86.55 14.62
0 -8 11 94.22 15.56
0 10 -10 143.26 21.07
0 -10 -10 167.69 22.63
0 -10 -10 124.96 19.68
0 10 -9 358.43 32.27
0 -10 -9 397.65 33.19
0 -10 -9 378.96 32.35
0 10 -8 1040.89 56.6
0 -10 -8 1173.05 59.03
0 -10 -8 1048.5 54.29
0 -10 -8 1106.97 57.24
0 10 -7 914.8 49.57
0 -10 -7 985.74 50.84
0 -10 -7 850.87 46.23
0 -10 -7 977.72 50
0 -10 -6 1068.07 36.03
0 10 -6 1081.99 50.26
0 -10 -6 1114.68 47.96
0 -10 -6 1173.12 50.84
0 -10 -6 1208.67 50.79
0 -10 -5 1099.84 42.15
0 10 -5 1172.71 51.12
0 -10 -5 1203.59 51.31
0 -10 -4 1061.67 41.21
0 10 -4 1054.79 45.87
0 -10 -4 1027.89 45.53
0 -10 -4 1046.35 45.41
0 -10 -3 1163.48 46.19
0 10 -3 1132.99 37.77
0 -10 -3 1089.27 45.75
0 -10 -3 1121.88 43.57
0 10 -3 1147.35 44.95
0 -10 -3 1033.53 32.99
0 -10 -3 1212.45 45.56
0 -10 -2 52.99 7.87
0 -10 -2 59.14 7.74
0 -10 -2 46.45 7.09
0 10 -2 57.5 7.08
0 -10 -2 49.55 7.37
0 10 -2 46.52 3.46
0 -10 -2 42.16 4.72
0 -10 -2 55.63 7.11
0 -10 -1 262.15 17.97
0 -10 -1 304.37 18.83
0 10 -1 255.36 14.32
0 10 -1 291.18 13.39
0 -10 -1 286.08 14.85
0 10 -1 265.45 14.9
0 10 -1 301.59 20.29
0 -10 -1 272.91 15.06
0 10 0 88.21 9.11
0 -10 0 76.08 7.02
0 -10 0 75.8 5.49
0 -10 0 78.36 9.25
0 -10 0 82.15 10.1
0 10 0 79.59 5.71
0 10 0 85.93 7.57
0 -10 0 84.67 8.33
0 10 0 71.77 7.31
0 10 0 78.37 7.87
0 10 0 102.34 11.18
0 -10 1 211.61 10.85
0 10 1 220.94 13.14
0 -10 1 222.55 11.52
0 -10 1 262.02 19.17
0 10 1 241.43 14.26
0 10 1 206.36 12.06
0 10 1 201.62 16.08
0 -10 2 52.74 4.85
0 10 2 61.9 8.57
0 10 3 1415.67 55.62
0 -10 3 1328.65 41.83
0 -10 3 1314.58 47.96
0 10 3 1371.02 55.49
0 10 3 1369.15 52.75
0 -10 4 1056.97 42.12
0 10 4 1077.51 48.35
0 10 4 1100.02 45.36
0 10 5 1128.56 47.22
0 -10 5 1090.73 44.81
0 10 5 1092 50.5
0 10 5 1087.67 45.88
0 10 6 1099.6 48.8
0 10 6 1235.51 54.54
0 -10 6 1065.37 46.74
0 10 6 1093.45 46.44
0 10 7 972.19 46.4
0 10 7 1040.81 51
0 -10 7 940.63 44.96
0 10 8 957.21 52.08
0 10 8 1065.59 50.44
0 -10 8 1060.07 51.38
0 10 8 979.95 52.3
0 -10 8 1058.87 49.72
0 -10 9 303.12 25.15
0 10 9 240.41 24.79
0 10 10 80.59 14.96
0 10 10 76.87 14.05
0 -10 10 100.35 15.28
0 10 11 42.79 10.94
0 -10 11 44.06 10.71
0 12 -10 236.77 27.98
0 -12 -10 223.88 26.76
0 -12 -10 231.02 26.76
0 12 -9 119.72 19.11
0 -12 -9 111.02 18.07
0 -12 -9 83.26 15.84
0 12 -8 271.38 26.71
0 -12 -8 263.96 26.49
0 -12 -8 233.5 24.22
0 -12 -8 268.52 26.43
0 12 -7 72.68 13.11
0 -12 -7 66.8 12.37
0 -12 -7 56.64 12.01
0 -12 -6 153.01 12.79
0 12 -6 138.39 16.81
0 -12 -6 137.04 16.42
0 -12 -6 129 15.97
0 -12 -5 256.61 17.49
0 12 -5 268.97 21.65
0 -12 -5 267.29 21.76
0 -12 -5 266.16 22.21
0 12 -5 205.36 10.39
0 -12 -5 267.16 21.63
0 -12 -4 500.39 27.2
0 12 -4 491.7 29.22
0 -12 -4 562.07 31.62
0 12 -4 468.69 20.48
0 -12 -4 540.03 31.4
0 -12 -4 519.78 29.69
0 -12 -3 555.05 30.83
0 -12 -3 600.71 32.72
0 -12 -3 588.13 30.58
0 12 -3 585 29.93
0 -12 -3 558.66 20.3
0 -12 -3 600.97 30.24
0 12 -2 1410.21 51.04
0 -12 -2 1455.31 54.97
0 -12 -2 1405.64 57.54
0 -12 -2 1552.04 58.38
0 12 -2 1498.04 52.82
0 -12 -2 1497.11 57.57
0 -12 -2 1453.81 47.58
0 12 -2 1458.07 60.53
0 -12 -2 1480.18 53.16
0 12 -1 653.37 31.42
0 -12 -1 728.05 31.57
0 -12 -1 787.67 36.92
0 -12 -1 747.63 35.83
0 -12 -1 673.07 35.72
0 12 -1 750.49 29.09
0 12 -1 775.87 27.98
0 -12 -1 752.02 30.2
0 12 -1 739.94 37.94
0 -12 -1 770.62 30.22
0 12 0 1663.79 61.94
0 -12 0 1654.87 50.82
0 -12 0 1778.49 65.22
0 -12 0 1678.61 63.67
0 12 0 1909.41 57.98
0 12 0 1806.49 67.68
0 -12 1 794.46 40.06
0 -12 1 762.91 36.71
0 12 1 733.49 35.84
0 -12 1 750.78 28.51
0 12 1 740.93 37.43
0 12 2 1225.09 54.42
0 -12 2 1313.87 54.91
0 -12 2 1521.14 60.52
0 -12 2 1317.4 48.68
0 12 2 1462.29 57.17
0 -12 3 611.07 35.51
0 -12 3 558.65 32.1
0 12 3 626.83 34.98
0 -12 3 548.6 27.03
0 12 3 535.82 31.19
0 -12 4 412.66 29.55
0 -12 4 413.27 23.24
0 12 4 434.12 29.53
0 12 4 432.99 26.86
0 12 5 191.49 19.15
0 -12 5 241.29 22.52
0 -12 5 224.73 17.1
0 12 5 214.32 20.8
0 12 5 250.11 19.64
0 12 6 179.28 19.09
0 12 6 191.12 18.01
0 -12 6 176.45 19.32
0 12 6 222.6 21.79
0 -12 6 159.97 15.24
0 12 6 164.52 16.08
0 12 7 65.55 12.48
0 12 7 98.37 13.83
0 12 7 93.05 14.76
0 -12 7 72.88 10.79
0 -12 7 99.71 15.18
0 12 8 306.24 27.72
0 12 8 351.12 29.87
0 -12 8 287.59 23.48
0 12 9 123.85 18.24
0 12 9 108.63 17.49
0 -12 9 149.84 17.31
0 12 10 220.99 25.5
0 12 10 239.53 25.34
0 -12 10 218.75 22.25
0 14 -9 113.78 18.75
0 14 -9 109.31 16.82
0 -14 -9 115.2 18.92
0 14 -8 361.88 31.73
0 -14 -8 373.95 31
0 14 -8 316.38 28.36
0 -14 -8 377.67 32.16
0 14 -7 344.13 29.33
0 -14 -7 306.75 27.28
0 -14 -7 330.81 29.25
0 -14 -7 335.97 28.72
0 -14 -6 624.57 32.07
0 14 -6 731.06 41.72
0 -14 -6 690.56 40.79
0 -14 -6 631.8 40.58
0 -14 -6 707.46 41.22
0 -14 -5 542.09 29.72
0 14 -5 562.79 33.83
0 -14 -5 535.12 34.2
0 -14 -5 475.32 32.95
0 -14 -5 570.22 34.24
0 14 -5 536.49 35.68
0 -14 -4 592.96 32.34
0 14 -4 601.39 32.99
0 -14 -4 568.99 34.7
0 -14 -4 557.16 33.96
0 -14 -4 619.99 34.16
0 -14 -3 256.08 20.02
0 14 -3 230.27 17.43
0 -14 -3 191.68 17.72
0 14 -3 210.84 14.31
0 -14 -3 183.07 18.12
0 14 -3 200.65 20.07
0 -14 -3 202.48 16.93
0 -14 -2 194.76 18.51
0 -14 -2 214.36 18.48
0 -14 -2 188.72 15.87
0 14 -2 183.71 14.56
0 -14 -2 199.42 18.53
0 14 -2 243.55 21.54
0 -14 -1 51.6 9.25
0 -14 -1 78.91 11.93
0 -14 -1 74.37 8.88
0 -14 -1 82.84 11.55
0 14 -1 87.07 10.33
0 14 -1 62.44 10.71
0 -14 0 7.24 4.29
0 -14 0 8.97 2.87
0 -14 0 11.76 4.82
0 14 0 9.01 3.82
0 14 0 15.23 5.79
0 -14 1 31.38 7.58
0 -14 1 46.66 9.75
0 14 1 43.67 8.56
0 14 1 36.74 8.46
0 -14 2 294.38 24.85
0 -14 2 290.21 22.53
0 -14 2 271.48 17.94
0 14 2 261.12 22.23
0 -14 3 246.57 21.61
0 -14 3 255.55 23.74
0 14 3 270 23.62
0 -14 3 292.81 18.73
0 14 3 250.1 21.62
0 -14 4 673.8 39.02
0 -14 4 725.79 42.73
0 -14 4 660.36 32.13
0 14 4 664.7 40.64
0 14 4 645.98 36.97
0 -14 5 470.82 34.19
0 -14 5 441.47 31.99
0 -14 5 470.35 26.59
0 14 5 434.73 32.71
0 14 5 460.51 30.11
0 14 6 608.88 39.83
0 14 6 735.62 39.61
0 14 6 711.25 43.58
0 -14 6 681.84 35.03
0 -14 6 674.03 42.51
0 -14 6 716.69 44.36
0 14 7 363.13 30.42
0 14 7 385.62 31.88
0 -14 7 308.88 23.27
0 -14 7 398.11 31.99
0 14 8 327.41 29.76
0 -14 8 334.51 25.04
0 14 8 308.85 29.62
0 -14 8 347.64 30.29
0 14 9 86.44 15.82
0 14 9 85.89 16.39
0 -16 -8 135.24 19.82
0 -16 -8 114.01 17.49
0 16 -8 108.3 17.23
0 -16 -7 95.23 16.33
0 -16 -7 92.16 15.22
0 16 -7 83.92 15.33
0 -16 -6 26.59 9.54
0 -16 -6 23.24 8.09
0 16 -6 14.14 7.37
0 -16 -5 230.14 19.52
0 -16 -5 192.7 20.67
0 -16 -5 194.01 20.69
0 16 -5 183.72 21.54
0 -16 -4 133.11 15.29
0 -16 -4 114.68 15.69
0 -16 -4 97.55 13.75
0 -16 -3 579.56 34.64
0 -16 -3 515.41 31.64
0 -16 -3 562.3 35.36
0 16 -3 622.31 39.63
0 -16 -2 276.99 23.89
0 -16 -2 299.88 21.2
0 16 -2 317.32 20.52
0 -16 -2 295.57 24.63
0 -16 -1 1497.35 65.24
0 -16 -1 1526.92 63.07
0 -16 -1 1458.9 54.34
0 16 -1 1408.11 57.42
0 -16 -1 1413.88 62.58
0 16 -1 1418.62 65.81
0 -16 0 432.75 29.12
0 -16 0 374.16 29.26
0 -16 0 378.89 27.58
0 16 0 412.85 30.55
0 -16 1 1325.5 58.69
0 -16 1 1250.94 61.38
0 -16 1 1276.51 58.44
0 16 1 1347.92 61.89
0 -16 2 230.87 23.68
0 -16 2 274.65 23.47
0 16 2 298.07 25.37
0 -16 3 491.78 36.17
0 -16 3 511.11 34.1
0 16 3 577.57 37.96
0 16 3 477.53 33.43
0 -16 4 73.61 13.02
0 -16 4 64 13.54
0 -16 4 58.36 8.68
0 16 4 59.51 12.27
0 16 4 67.94 12.52
0 -16 5 116.19 16.84
0 -16 5 166.99 21.41
0 -16 5 130.4 13.41
0 16 5 129.52 18.51
0 16 5 139.57 17.33
0 16 6 47.69 11.47
0 16 6 37.58 10.53
0 -16 6 58.8 12.75
0 -16 6 20.22 9.04
0 16 7 163.05 21.21
0 16 7 114.86 18.21
0 -16 7 151.54 20.57
0 -16 7 138.95 20.48
0 16 8 141.15 20.37
0 -16 8 170.2 22.47
0 -16 8 199.38 24.75
0 16 8 175.56 23.34
0 -18 -7 154.54 20.46
0 -18 -7 149.69 20.62
0 18 -7 117.46 19.27
0 -18 -6 375.12 31.22
0 -18 -6 399.95 32.5
0 18 -6 408.48 34.72
0 -18 -5 198.7 19.01
0 -18 -5 169.63 20.03
0 -18 -5 148.28 18.59
0 18 -5 161.8 21.66
0 -18 -4 529.28 33.71
0 -18 -4 497.57 34.92
0 -18 -4 488.65 32.81
0 -18 -3 98.62 15.02
0 -18 -3 110.51 15.71
0 -18 -3 94.81 13.32
0 18 -3 115.71 18.05
0 -18 -2 468.59 33.3
0 -18 -2 434.98 26.84
0 -18 -2 413.75 31.03
0 18 -2 443.37 34.71
0 -18 -1 76.9 12.75
0 -18 -1 107.61 15.9
0 -18 -1 81.22 10.02
0 -18 -1 82.83 13.66
0 18 -1 94.47 15.79
0 -18 0 93.66 14.18
0 -18 0 101.7 15.94
0 -18 0 72.19 12.84
0 18 0 102.4 16.08
0 -18 1 65.01 12.09
0 -18 1 65.28 12.14
0 18 1 57.38 12.3
0 -18 2 520.29 35.74
0 -18 2 582.02 37.55
0 -18 2 624.24 41.88
0 18 2 557.54 39.55
0 18 2 500.23 36.88
0 -18 3 118.29 16.72
0 -18 3 89.32 16.02
0 18 3 125.08 18.88
0 18 3 149.88 18.98
0 -18 4 605.22 43.42
0 -18 4 601.17 40.11
0 18 4 607.99 43
0 18 4 592.64 39.56
0 18 5 203.8 22.74
0 18 5 179.06 22.83
0 -18 5 165.14 21.08
0 -18 5 152.04 21.57
0 18 6 426.01 34.99
0 18 6 446.26 37.64
0 -18 6 478.69 37.17
0 -18 6 459.55 38.2
0 18 7 144.5 20.21
0 -20 -5 80.75 13.67
0 -20 -5 58.64 12.52
0 -20 -4 65.51 12.49
0 -20 -4 57.27 12.2
0 -20 -3 244.29 24.12
0 -20 -3 160.18 20.15
0 20 -3 219.62 25.8
0 -20 -2 4.55 5.02
0 -20 -2 8.6 5.61
0 20 -2 2.71 5.34
0 -20 -1 770.23 47.65
0 -20 -1 734.75 44.81
0 20 -1 797.26 50.3
0 -20 0 2.11 4.16
0 -20 0 2.51 4.95
0 -20 0 -2.17 6.41
0 20 0 -2.63 4.5
0 -20 1 683.4 42.66
0 -20 1 736.58 44.02
0 -20 1 735.72 47.89
0 20 1 681.28 46.7
0 20 1 622.77 44.6
0 -20 2 24.47 8.22
0 -20 2 22.46 8
0 20 2 16.34 7.61
0 20 2 12.72 7.12
0 -20 3 158.13 20.61
0 -20 3 170.62 21.37
0 -20 3 182.54 23.62
0 20 3 203.03 24.81
0 20 3 169.95 21.84
0 -20 4 63.48 13.74
0 -20 4 83.46 16.65
0 20 4 94.06 17.65
0 20 4 48.61 11.87
0 -20 5 23 8.38
0 20 5 17.52 7.83
0 -22 -2 202.24 22.68
0 -22 -1 9.08 6.72
0 -22 0 80.04 14.36
0 -22 0 78.28 14.51
0 -22 1 22.97 9.09
0 -22 1 25.46 8.87
0 -22 2 267.15 26.75
0 -22 2 285.71 27.89
1 1 -12 183.42 23.45
1 -1 -12 185.91 22.35
1 1 -12 207.91 23.15
1 -1 -12 173.56 22.12
1 1 -11 48.25 11.72
1 -1 -11 33.37 9.64
1 1 -11 54.54 9.2
1 -1 -11 34.19 9.5
1 1 -11 60.83 12.3
1 -1 -11 56.76 12.12
1 1 -10 493.96 35.74
1 -1 -10 511.26 35.39
1 1 -10 487.97 28.27
1 -1 -10 486.17 27.47
1 -1 -10 487.81 34.59
1 1 -10 605.48 36.49
1 -1 -9 404.65 23.44
1 1 -9 397.2 24.4
1 1 -9 422.81 30.81
1 -1 -9 398.94 29.27
1 -1 -9 419.18 25.82
1 1 -9 407.8 27.11
1 -1 -9 426.24 29.93
1 1 -9 467.03 30.19
1 -1 -8 1218.13 45.85
1 1 -8 1278.72 47.94
1 -1 -8 1118.42 52.26
1 -1 -8 1258.28 49.37
1 -1 -8 1170.18 35.68
1 1 -8 1125.42 50.64
1 1 -8 1138.59 37.98
1 -1 -8 1262.88 54.64
1 1 -8 1276.92 53.59
1 -1 -7 181.49 13.15
1 -1 -7 197.05 15.12
1 1 -7 191.84 8.44
1 1 -7 215.36 16.83
1 -1 -7 190.52 10.91
1 1 -7 191.54 11.07
1 -1 -7 198.57 10.35
1 1 -7 189.18 16.39
1 -1 -6 960.55 32.81
1 -1 -6 892.19 37.34
1 1 -6 894.33 39.31
1 1 -6 943.7 30.04
1 1 -6 1005.73 40.98
1 1 -6 994.64 33.67
1 -1 -6 997.78 32.47
1 -1 -5 1198.18 41.87
1 -1 -5 1384.61 45.74
1 -1 -5 1287.92 41.36
1 1 -5 1303.91 42.46
1 -1 -5 1373.04 50.12
1 -1 -5 1289.71 44.01
1 -1 -4 1015.9 34.6
1 -1 -4 1169.16 41.34
1 -1 -4 1152.06 39
1 -1 -4 1137.7 39.86
1 1 -4 1130.45 40.23
1 -1 -4 1110.21 39.7
1 1 -4 1156.89 39.88
1 -1 -4 1095.3 38.22
1 -1 -4 1067.65 35.47
1 1 -4 1088.7 36.26
1 -1 -4 1090.42 36.95
1 1 -4 1041.29 38.32
1 -1 -3 180.77 8.42
1 -1 -3 184.36 10.59
1 1 -3 214.34 11.94
1 -1 -3 208.79 12.19
1 -1 -3 202.64 11.71
1 1 -3 205.28 11.95
1 1 -3 205.06 11.75
1 -1 -2 183 9.77
1 -1 -2 177.78 8.53
1 1 -2 180.42 9.51
1 1 -2 171.38 6.19
1 -1 -2 178.23 9.6
1 1 -2 178.8 9.69
1 -1 -2 179.45 9.54
1 -1 -2 155.25 8.6
1 -1 -1 4540.04 121.6
1 1 -1 4112.18 119.92
1 -1 -1 4532.31 119.36
1 1 -1 4458.22 121.26
1 -1 -1 4460.12 122.02
1 1 -1 4291.63 120.2
1 1 -1 4542.22 121.13
1 -1 -1 4580.62 121.81
1 1 -1 4554.4 122.1
1 -1 -1 4626.76 122.28
1 1 -1 4694.04 122.68
1 -1 -1 4635.27 122.49
1 1 0 2371.19 64.84
1 1 0 2305.15 64.25
1 1 0 2387.8 64.28
1 1 0 2292.76 64.32
1 -1 0 2408.69 64.78
1 1 0 2267.27 62.69
1 -1 0 2230.47 62.56
1 -1 0 2336.25 65.08
1 1 0 2265.46 63.79
1 -1 0 2347.54 64.17
1 1 1 1634.14 48.23
1 1 1 1597.04 48.06
1 -1 1 1631.91 46.5
1 1 1 1633.46 48.07
1 -1 1 1676.87 46.15
1 1 1 1602.42 47.82
1 -1 1 1721.95 48.56
1 1 1 1656.14 47.38
1 1 1 1604.55 48.1
1 -1 1 1732.88 47.14
1 -1 1 1553.28 48.55
1 -1 1 1574.43 45.29
1 1 2 5103.01 143.53
1 -1 2 4961 142.22
1 -1 2 5432.67 145.62
1 -1 2 5223.59 146.9
1 1 2 5359.33 145.33
1 1 2 5365.99 147.19
1 1 2 5266.13 145.61
1 1 2 5353.74 145.73
1 1 2 5305.44 145.83
1 1 2 5306.64 146.15
1 -1 2 5303.47 144.4
1 -1 2 5618.85 147.6
1 1 2 5524.85 146
1 1 2 5279.42 143.61
1 -1 2 5376.52 144.86
1 1 2 5477.69 146.62
1 -1 2 5599.67 147.49
1 1 2 5382.75 145.05
1 1 2 5279.92 141.24
1 -1 2 5205.81 145.15
1 1 2 5589.52 147.02
1 1 3 3896.36 110.38
1 -1 3 3841.82 111.58
1 1 3 3981.4 111.57
1 1 3 3998.11 111.28
1 1 3 3867.36 113.38
1 1 3 3956.17 110.38
1 1 3 3854.74 110.13
1 1 3 3968.52 112.15
1 -1 3 4051.67 113.34
1 1 3 3982.88 111.72
1 -1 3 3892.42 109.94
1 1 3 3732.56 109.44
1 1 3 3977.49 111.89
1 -1 3 4167.69 114.08
1 1 3 3768.85 108.33
1 1 3 4148.9 108.72
1 -1 3 3978.86 111.48
1 1 3 4020.67 113.88
1 -1 3 3991.38 108.71
1 -1 3 4060.54 113.28
1 1 3 4064.7 110.54
1 -1 3 3901.53 111.13
1 -1 3 3784.2 106.46
1 1 3 3674.28 105.32
1 1 3 4145.95 113.06
1 1 4 5566.36 159.47
1 -1 4 5557.72 160.52
1 1 4 5694.07 160.39
1 1 4 5544.32 162.94
1 1 4 5438.21 157.11
1 1 4 5597.7 156.97
1 1 4 5666.42 160.39
1 -1 4 5687.43 157.7
1 -1 4 5636.85 150.33
1 1 4 5659.06 158.09
1 1 4 5674.15 156.34
1 1 4 5676.95 159.79
1 -1 4 5825.21 159.23
1 -1 4 5767.09 157.16
1 1 4 5682.3 154.8
1 -1 4 5742.71 154.02
1 1 4 5477.61 153
1 1 4 5791.42 161.62
1 -1 4 5818.83 159.99
1 -1 4 5729.02 161.79
1 1 4 6079.15 159
1 1 5 899.86 34.62
1 -1 5 850.8 34.84
1 1 5 791.29 30.48
1 1 5 827.85 30.22
1 -1 5 801.14 31.32
1 1 5 835.32 30.38
1 -1 5 841.09 32.61
1 1 5 744.06 31.83
1 -1 5 844.13 28.59
1 1 5 820.03 27.74
1 1 5 856.35 32.64
1 -1 5 797.63 34.28
1 1 6 1090.3 42.69
1 -1 6 1056.65 43.1
1 1 6 1004.43 40
1 -1 6 1025.36 35.01
1 1 6 1007.32 34.12
1 1 6 944.54 38.86
1 -1 6 1010.78 42.26
1 1 7 1321.8 52.93
1 -1 7 1340.36 54.28
1 1 7 1339.69 55.08
1 1 7 1297.15 50.82
1 1 8 115.64 13.63
1 -1 8 147.78 15.53
1 1 8 118.95 14.02
1 1 8 127.03 13.18
1 1 9 347.43 25.99
1 -1 9 388.43 27.82
1 1 10 41.41 9.74
1 -1 10 57.37 11.29
1 -1 10 54.87 10.7
1 -1 11 312.78 27.38
1 -1 11 230.14 22.47
1 1 12 301.03 27.69
1 3 -12 201.37 25.01
1 -3 -12 178.69 20.78
1 -3 -12 211.94 24.24
1 3 -12 199.89 21.52
1 -3 -12 188.02 23.74
1 3 -11 226.92 25.31
1 -3 -11 215.63 22.3
1 -3 -11 248.78 25.38
1 3 -11 231.16 20.15
1 3 -11 283.9 24.29
1 -3 -11 235.62 24.99
1 -3 -10 612.42 30.53
1 3 -10 536.53 39.16
1 -3 -10 616.45 37.4
1 3 -10 620.67 34.14
1 3 -10 603.08 36.24
1 -3 -10 691.65 42.19
1 -3 -9 115.26 11.36
1 -3 -9 111.87 14.3
1 -3 -9 123.11 12.02
1 3 -9 117.31 14.87
1 3 -9 128.6 14.66
1 -3 -8 1703.42 60.09
1 3 -8 1942.12 75.39
1 -3 -8 1768.56 67.66
1 -3 -8 1836.48 62.29
1 3 -8 1751.67 69.32
1 3 -8 1783.97 66.98
1 3 -8 1753.64 56.39
1 -3 -7 197.34 13.42
1 -3 -7 204.09 13.15
1 -3 -7 186.81 13.77
1 3 -7 196.9 17.31
1 3 -7 218.19 13.23
1 -3 -7 193.12 17.98
1 3 -7 173.13 15.12
1 -3 -6 1383.66 54.42
1 -3 -6 1384.93 43.64
1 -3 -6 1405.53 46.66
1 -3 -6 1314.07 44.13
1 -3 -6 1387.68 55.52
1 3 -6 1221.27 49
1 -3 -5 1353.87 51
1 -3 -5 1293.17 42.76
1 -3 -5 1269.21 42.14
1 -3 -5 1286.6 44.07
1 3 -5 1306.29 50.14
1 -3 -5 1355.12 44.92
1 -3 -5 1350.15 51
1 -3 -5 1333.14 45.82
1 -3 -5 1267.98 41.47
1 3 -4 879.99 33.89
1 -3 -4 852.89 28.7
1 3 -4 879.26 29.13
1 -3 -4 805 30.33
1 -3 -4 915.6 34.52
1 -3 -4 822.66 29.98
1 -3 -4 920.62 36.15
1 -3 -4 832.1 28.17
1 -3 -4 872.76 32.26
1 3 -3 1063.52 35.63
1 -3 -3 1072.04 35.94
1 3 -3 1027.71 35.53
1 3 -3 1088.29 36.16
1 3 -3 991.88 36.07
1 3 -2 431.51 18.07
1 -3 -2 445.06 18.3
1 -3 -2 448.57 18.59
1 -3 -2 435.96 18.24
1 3 -2 449.46 18.82
1 3 -1 2627.91 74.91
1 3 -1 2635.82 71.15
1 3 -1 2763.64 76.74
1 3 -1 2731.12 76.76
1 -3 -1 2610.83 77.05
1 -3 -1 2450.36 73.73
1 -3 -1 2690.7 76.44
1 3 -1 2843.9 76.7
1 3 0 4047.86 111.79
1 3 0 3972.74 111.6
1 3 0 4111.57 112.42
1 -3 0 4141.43 111.12
1 3 0 4090.05 111.58
1 3 0 4041.9 110.99
1 -3 0 4056.86 113.68
1 -3 0 4051.21 112.31
1 3 0 3941.05 111.53
1 -3 0 4070.13 112.41
1 3 1 3227.03 92.86
1 3 1 3285.83 92.96
1 -3 1 3165.48 87.44
1 3 1 3224.62 89.98
1 3 1 3367.1 92.95
1 3 1 3369.95 93.17
1 -3 1 3377.87 92.88
1 3 1 3271.32 89.69
1 3 1 3284.7 93.05
1 3 1 3389.44 88.69
1 -3 1 3303.77 94.06
1 3 1 3258.19 90.49
1 3 1 3355.48 93.07
1 3 2 1368.46 41.79
1 3 2 1382.72 43.59
1 3 2 1331.65 39.97
1 3 2 1382.04 44.37
1 3 2 1390.54 42.59
1 3 2 1326.84 43.49
1 -3 2 1296.95 38.75
1 -3 2 1375.6 44.27
1 3 2 1420.39 40.7
1 3 2 1342.96 43.36
1 3 2 1377.75 44.05
1 -3 2 1345.02 43.9
1 3 2 1367.52 42.59
1 -3 2 1366.31 44.56
1 -3 2 1414.52 45.52
1 3 2 1315.58 39.22
1 3 2 1373.31 39.67
1 -3 2 1360.74 39.83
1 3 3 73.88 6.56
1 3 3 70.86 7.11
1 3 3 71.03 5.91
1 3 3 59.46 6.35
1 3 3 61.18 5.7
1 3 3 72.31 7.11
1 3 3 74.26 7.2
1 3 3 69.43 3.86
1 3 3 68.69 6.48
1 -3 3 72.36 7.11
1 3 3 69.92 6.44
1 -3 3 62.46 7.34
1 3 3 66.66 4.52
1 3 3 74.27 5.23
1 -3 3 72.31 5.8
1 -3 3 71.18 5.67
1 3 4 2120.32 67.18
1 -3 4 2091.36 68.62
1 3 4 2324.12 69.77
1 3 4 2212.84 70.9
1 3 4 2142.34 65.56
1 3 4 2058.45 65.47
1 3 4 2054.12 64.07
1 3 4 2052.41 64.91
1 -3 4 2121.85 67.99
1 -3 4 2034.54 62.36
1 3 4 2149.93 66.62
1 3 4 2102.11 60.18
1 -3 4 2220.92 63.9
1 -3 4 2118.83 64.81
1 -3 4 2150.13 70.72
1 3 4 2083.88 62.28
1 -3 5 480.31 25.59
1 3 5 481.03 26.51
1 3 5 517.86 24.1
1 3 5 503.36 21.34
1 -3 5 496.25 20.65
1 3 5 510.82 24.25
1 3 5 484.74 18.6
1 -3 5 478.42 20.89
1 3 5 521.45 20.95
1 -3 5 505.48 26.81
1 3 6 425.03 23.3
1 -3 6 390.77 24.38
1 -3 6 440.4 23.58
1 3 6 396.43 25.59
1 3 6 440.68 23.72
1 3 6 438.64 18.65
1 -3 6 424.58 19.99
1 -3 6 415.33 25.22
1 3 7 1255.83 48.93
1 -3 7 1209.29 50.92
1 -3 7 1175.5 47.14
1 3 7 1096.7 41.07
1 3 7 1197.23 47.82
1 3 7 1025.82 48.57
1 -3 7 1098.43 49.65
1 3 8 348.49 23.7
1 -3 8 322.98 24.42
1 -3 8 309.1 21.83
1 3 8 288.01 23.1
1 3 8 313.24 22.25
1 3 9 402.01 28.11
1 -3 9 440.73 30.81
1 -3 9 445.45 27.95
1 3 9 470.72 31.34
1 3 9 415.44 27.54
1 -3 10 33.33 8.19
1 3 10 41.1 9.7
1 -3 11 311.48 24.51
1 -3 11 292.41 29.09
1 -3 12 348.8 33.41
1 5 -12 93.05 17.64
1 -5 -12 116.36 19.17
1 -5 -12 91.16 16.78
1 -5 -11 102.63 14.54
1 5 -11 107.96 14.47
1 -5 -11 92.65 16.05
1 5 -11 107.52 14.13
1 -5 -10 313.15 20.35
1 5 -10 307.87 29.27
1 -5 -10 339.82 25.17
1 5 -10 325.31 24.02
1 -5 -9 361.75 21.19
1 5 -9 358.98 30.13
1 -5 -9 342.59 24.14
1 5 -9 299.42 26.16
1 5 -9 353.16 18.72
1 5 -9 370.07 24.45
1 -5 -9 377.14 29.72
1 -5 -8 447.98 23.19
1 5 -8 465.36 32.59
1 -5 -8 452.59 26.69
1 -5 -8 419.31 20.99
1 5 -8 398.97 28.93
1 5 -8 410.38 21.82
1 5 -8 465.73 26.1
1 -5 -8 488.64 32.26
1 -5 -7 412.78 20.96
1 -5 -7 382.6 22.84
1 -5 -7 463.17 28.86
1 -5 -7 385.9 15.25
1 -5 -7 367.84 26.62
1 5 -7 417.96 23.1
1 -5 -6 105.26 12.3
1 5 -6 85.79 4.22
1 -5 -6 112.89 8.62
1 5 -6 120.52 13.26
1 -5 -6 89.77 5.6
1 -5 -6 105.91 12.83
1 5 -6 107.96 9.9
1 -5 -5 3299.43 104.88
1 5 -5 3222.32 90.7
1 5 -5 3412.8 106.66
1 5 -5 3315.56 95.56
1 -5 -5 3037.02 93.45
1 -5 -5 3311.2 88.73
1 -5 -5 3589.16 106.95
1 5 -5 3013.03 96.35
1 -5 -4 121.35 11.54
1 -5 -4 151.43 6.78
1 -5 -4 148.33 11.24
1 5 -4 157.7 13.32
1 -5 -4 140.46 8.68
1 -5 -4 143.33 10.9
1 -5 -4 138.93 12.29
1 -5 -4 126.32 5.89
1 -5 -3 2337.2 66.84
1 5 -3 2328.2 73.09
1 -5 -3 2344.99 73.53
1 -5 -3 2346.71 64.38
1 -5 -3 2260.37 74.58
1 5 -3 2411.63 73.8
1 5 -2 13.76 3.13
1 -5 -2 10.69 3.06
1 -5 -2 12.33 1.9
1 5 -2 11.03 3.41
1 -5 -2 9.82 2.97
1 5 -2 7.94 2.86
1 -5 -2 9.69 1.73
1 5 -2 9.8 2.91
1 5 -1 5286.68 141.16
1 -5 -1 5007.83 141.59
1 5 -1 4995.02 139.32
1 -5 -1 4830.07 137.19
1 5 -1 5041.49 142.72
1 5 -1 5251.04 143.01
1 -5 -1 5481.23 143.02
1 -5 0 1300.25 40.45
1 5 0 1340.99 41.79
1 -5 0 1306.8 40.23
1 5 0 1291.82 41.12
1 -5 0 1334.97 43.68
1 5 0 1316.6 37.82
1 5 0 1375.91 42.99
1 -5 0 1313.05 43.16
1 5 1 1192.69 38.59
1 5 1 1113.23 35.31
1 5 1 1116.36 38.66
1 5 1 1158.35 38.43
1 5 1 1158.26 39.06
1 5 1 1131.24 39.2
1 5 1 1138.94 33.22
1 5 1 1120.16 33.94
1 -5 1 1132.61 39.12
1 -5 1 1202.29 40.35
1 5 1 1167.47 37.54
1 5 2 2181.43 63.88
1 5 2 2143.44 65.66
1 5 2 2192.29 66.8
1 5 2 2119.18 65.67
1 5 2 2081.11 64.95
1 5 2 2127.11 59.36
1 -5 2 2083.67 62.25
1 5 2 2163.28 66.47
1 -5 2 2148.54 66.56
1 5 2 2176.83 67.72
1 5 2 2227.22 63.1
1 5 2 2093.21 63.1
1 -5 2 2021.34 57.89
1 -5 2 2085.2 68.82
1 5 3 4013.44 117.85
1 5 3 4093.86 115.4
1 5 3 3961.84 111.87
1 5 3 4104.54 114.44
1 5 3 4010.67 113.49
1 5 3 3861.53 115.65
1 5 3 3863.15 116.48
1 5 3 3847.14 115.96
1 -5 3 3973.58 116.86
1 -5 3 4065.69 108.61
1 5 3 4003.77 116.4
1 5 3 3911.68 106.57
1 5 3 3683.03 115.72
1 5 3 3839.18 110.72
1 -5 3 3706.26 119
1 5 4 2122.62 68.41
1 5 4 2004.15 67.75
1 5 4 1974.59 61.42
1 5 4 1926.83 60.61
1 5 4 1804.29 62.54
1 5 4 1844.01 56.28
1 5 4 2086.89 64.89
1 5 4 1912.79 64.57
1 5 4 1912.17 58.59
1 -5 4 1956.86 68.04
1 5 4 1913.65 54.4
1 5 5 1005.86 39.03
1 5 5 994.47 36.18
1 5 5 948.11 40.51
1 -5 5 993.22 37.99
1 -5 5 1052.86 44.92
1 -5 6 462.94 23.86
1 5 6 508.23 29.66
1 5 6 499.64 25.71
1 5 6 484.59 26.62
1 -5 6 480.02 23.54
1 -5 6 479.28 29.18
1 5 7 1254.27 50.91
1 -5 7 1221.38 48.35
1 5 7 1332.11 57.59
1 5 7 1268.68 52.25
1 5 7 1288.53 55.84
1 -5 7 1254.53 46.97
1 5 8 2.79 3.64
1 -5 8 1.16 2.55
1 5 8 1.47 2.9
1 5 8 -1.7 3.76
1 -5 8 1.85 3.66
1 5 9 450.04 29.21
1 -5 9 434.98 26.38
1 5 9 461 29.9
1 -5 9 411.94 31.97
1 5 9 437.13 31
1 -5 10 102.88 12.62
1 5 10 100.99 15.32
1 -5 10 106.48 16.89
1 -5 11 581.18 42.4
1 5 11 661.94 41.68
1 7 -11 219.99 26.52
1 -7 -11 240.11 26.61
1 -7 -11 230.25 26.46
1 7 -10 342.53 31.86
1 -7 -10 339.28 23.42
1 -7 -10 326.57 30.08
1 -7 -10 397 32.73
1 7 -9 26.33 9.17
1 -7 -9 16.88 5.08
1 7 -9 28.95 6.02
1 7 -9 26.54 6.27
1 -7 -9 24.55 8.26
1 7 -8 533.87 36.54
1 -7 -8 531.14 27.45
1 -7 -8 487.12 20.22
1 7 -8 582.95 27.76
1 -7 -8 525.23 35.78
1 7 -7 398.73 29.89
1 -7 -7 428.07 22.53
1 7 -7 436.86 30.11
1 -7 -7 415.95 17.85
1 7 -7 435.38 22.35
1 -7 -7 494.64 31.63
1 -7 -6 412.16 27.05
1 -7 -6 386.1 16.86
1 7 -6 457.64 28.83
1 -7 -6 486.45 29.06
1 7 -6 393.74 19.75
1 -7 -5 2171.96 75.04
1 -7 -5 2056.18 59.26
1 -7 -5 2021.09 60.63
1 7 -5 2124.05 75.77
1 7 -5 1920.04 61.24
1 -7 -5 2210.39 75.23
1 7 -5 2018.22 62.93
1 -7 -4 1067.72 44.64
1 -7 -4 1096.25 35.79
1 7 -4 1039.56 37.42
1 7 -4 1186.55 47.02
1 -7 -4 1069.88 44.17
1 -7 -3 2292.27 75.01
1 7 -3 2188.49 64.66
1 -7 -3 2326.02 67.82
1 -7 -3 2106.84 61.98
1 7 -3 2349.24 75.37
1 -7 -3 2308.41 73.63
1 -7 -3 2228.06 60.79
1 -7 -2 1667.17 55.27
1 7 -2 1707.65 55.13
1 7 -2 1682.6 50.08
1 -7 -2 1698.85 58.24
1 -7 -2 1718.84 54.59
1 -7 -2 1620.91 46.89
1 7 -2 1755.36 57.59
1 -7 -2 1663.82 55.09
1 7 -2 1663.34 56.51
1 -7 -2 1565.28 48.88
1 -7 -1 809.68 30.55
1 7 -1 853.12 31.23
1 7 -1 837.86 28.54
1 -7 -1 788.35 29.37
1 -7 -1 805.12 26.05
1 -7 -1 837.59 32.7
1 7 -1 796.68 31.42
1 7 -1 804.84 27.47
1 7 -1 787.63 25.84
1 7 -1 879.54 32.91
1 -7 -1 828.77 32.38
1 7 -1 823.25 27.18
1 -7 -1 841.6 29.6
1 7 -1 800.82 31.65
1 -7 -1 854.34 29.51
1 7 0 3672.12 106
1 -7 0 3577.07 105.86
1 -7 0 3678.96 104.16
1 7 0 3765.97 109.43
1 -7 0 3807.78 109.2
1 7 0 3788.02 106
1 7 0 3863.57 106.69
1 7 0 3853.85 102.44
1 7 0 3739.35 108.85
1 7 0 3593.39 104.54
1 -7 0 3645.08 102.64
1 7 0 3484.1 106.33
1 -7 1 687.08 21.59
1 7 1 778.51 30.45
1 7 1 764 29.92
1 7 1 762.24 28.72
1 7 1 710.97 29.8
1 7 1 718.24 21.8
1 -7 1 736.12 28.54
1 7 1 728.07 28.36
1 7 1 677.44 24.43
1 7 1 764.46 26.05
1 7 1 720.4 29.8
1 7 1 734.09 27.72
1 -7 1 743.33 20.97
1 7 1 751.61 28.84
1 7 2 1049.08 42.62
1 7 2 1085.54 34.24
1 7 2 1087.64 41.02
1 7 2 1177.35 40.92
1 -7 2 1115.86 38
1 7 2 1101.59 42.95
1 7 2 1076.07 38.37
1 7 2 1082.07 39.01
1 -7 2 1083.67 43.16
1 7 3 80.8 9.58
1 7 3 84.1 8.16
1 7 3 79.21 8.01
1 7 3 91.67 9.93
1 -7 3 74.18 6.57
1 7 3 76.07 9.06
1 7 3 73.29 3.71
1 7 3 73.57 7.32
1 7 3 76.9 3.86
1 -7 3 71.93 9.35
1 7 4 1265 50.25
1 7 4 1181.82 43.19
1 7 4 1225.33 43.24
1 7 4 1191.23 40.37
1 7 4 1136.22 46.31
1 7 4 1153.52 46.83
1 7 4 1151.87 41.69
1 -7 4 1208.49 50.28
1 7 5 183.38 16.7
1 7 5 181.59 13.63
1 7 5 177.53 15.29
1 -7 5 188.11 16.04
1 7 5 181.77 12.26
1 -7 5 235 19.24
1 7 6 633.25 35.49
1 7 6 632.32 30.98
1 7 6 662.78 34.17
1 -7 6 646.49 34.69
1 -7 6 656.62 37.17
1 7 7 554.45 35.11
1 7 7 617.27 31.9
1 7 7 685 35.38
1 -7 7 577.56 34.69
1 7 8 860.64 40.81
1 7 8 806.34 45.59
1 7 8 845.54 42.93
1 7 8 751.13 42.92
1 -7 8 800.79 44.18
1 7 9 432.17 32.07
1 7 9 474.31 31.5
1 -7 9 425.25 32.32
1 -7 10 278.03 26.81
1 7 10 211.42 22.9
1 -7 11 271.26 28.11
1 7 11 281.46 26.84
1 9 -11 248.82 28.8
1 -9 -11 241.75 27.39
1 -9 -11 198 24.88
1 9 -10 346.85 32.31
1 -9 -10 334 31.31
1 -9 -10 334.79 31.26
1 9 -9 398.96 33.47
1 -9 -9 339.83 30.37
1 -9 -9 397.91 32.6
1 9 -8 644.42 41.42
1 -9 -8 607.86 26.56
1 9 -8 588.04 26.23
1 -9 -8 648 40.45
1 -9 -7 360.78 27.76
1 9 -7 321.49 27.19
1 9 -7 402.45 29.91
1 9 -7 359.1 17.66
1 -9 -7 418.67 29.78
1 -9 -6 229.29 20.06
1 9 -6 219.99 20.22
1 -9 -6 200.19 10.71
1 9 -6 262.4 22.11
1 -9 -6 161.14 7.72
1 9 -6 203.34 11.07
1 -9 -6 197.42 18.64
1 -9 -5 1575.63 63.23
1 -9 -5 1631.05 50.48
1 -9 -5 1560.51 45.6
1 -9 -5 1524.56 45.19
1 -9 -5 1511.8 46.32
1 9 -5 1684.31 65.2
1 -9 -5 1538.62 62.05
1 9 -5 1530.13 46.69
1 -9 -4 610.3 30.78
1 -9 -4 583.5 23.25
1 -9 -4 439.63 14.17
1 -9 -4 444.94 13.99
1 9 -4 605.28 31.28
1 -9 -4 524.44 27.67
1 9 -4 514.61 16.95
1 -9 -3 2034.55 68.95
1 -9 -3 1850.12 61.24
1 9 -3 1931.63 67.91
1 9 -3 1785.49 62.07
1 9 -3 1747.84 51.96
1 -9 -3 2120.53 65.49
1 9 -2 585.15 22.42
1 -9 -2 674.86 31.49
1 -9 -2 610.83 27.96
1 9 -2 609.66 29.37
1 9 -2 588.42 28.14
1 9 -2 580.38 20.06
1 -9 -2 665.02 27.37
1 -9 -2 578.35 22.57
1 9 -1 2659.14 80.77
1 -9 -1 2780.53 89.77
1 -9 -1 2768.01 84.22
1 9 -1 2755.19 80.12
1 9 -1 2803.66 86.32
1 9 -1 2819.65 78.78
1 -9 -1 2818.88 83.28
1 9 -1 2653.49 78.37
1 -9 -1 2754.66 82.01
1 -9 -1 2817.87 83.08
1 9 -1 2606.17 85.31
1 -9 0 62.11 5.55
1 -9 0 43.74 5.97
1 9 0 51.83 5.87
1 -9 0 53.33 6.64
1 9 0 51.11 6.06
1 9 0 47.86 4.79
1 9 0 63.53 8.54
1 -9 0 59.25 4.84
1 9 0 52.05 5.44
1 -9 0 59.31 7.08
1 9 0 64.46 6.97
1 -9 1 368.81 13.16
1 9 1 362.11 21.26
1 9 1 389.38 19.3
1 -9 1 379.26 19.92
1 9 1 369.72 11.65
1 9 1 370.1 11.54
1 -9 1 349.73 19.82
1 9 1 396.56 19.56
1 9 1 354.53 16.7
1 9 1 383.95 22.86
1 9 1 358.01 20.72
1 -9 1 340.21 20.53
1 9 1 387.09 17.38
1 9 2 566.76 29.27
1 9 2 577.87 29.92
1 -9 2 551.37 26.83
1 -9 2 577.28 25.47
1 9 2 531.24 23.75
1 9 2 599.69 27.74
1 9 2 574.85 21.05
1 9 3 334.84 22.15
1 9 3 322.75 13
1 9 3 317.31 21.69
1 -9 3 264.1 18.28
1 9 3 314.55 21.1
1 9 3 351.97 19.66
1 -9 3 341.41 22.85
1 9 4 323.72 23.52
1 9 4 373.75 24.1
1 -9 4 336.96 21.49
1 9 4 337.88 22.73
1 9 4 336.12 19.56
1 -9 4 353.13 24.73
1 9 5 155.05 16.34
1 9 5 164.84 13.71
1 -9 5 146.75 14.57
1 9 5 187.32 16.72
1 -9 5 162.33 17.34
1 9 5 144.63 12.23
1 9 6 37.6 7.09
1 9 6 39.66 9.22
1 -9 6 30.95 7.48
1 9 6 58.14 10.06
1 9 7 751.58 43.04
1 9 7 734.64 36.28
1 9 7 733.19 39.98
1 -9 7 743.99 40.42
1 9 8 143.74 18.21
1 9 8 144.09 16.9
1 -9 8 135.87 16.95
1 9 9 512.21 36.41
1 9 9 543.33 35.58
1 -9 9 496.42 35.3
1 9 10 46.59 11.35
1 -9 10 66.87 13.53
1 9 11 476.39 36.65
1 -9 11 472.61 36.92
1 11 -10 241.26 27.66
1 -11 -10 213.15 26.16
1 -11 -10 234.32 26.47
1 11 -9 122.58 19.16
1 -11 -9 161.85 21.03
1 -11 -9 153.63 20.92
1 -11 -9 196.81 23.15
1 11 -8 207.31 23.03
1 -11 -8 216.44 23.11
1 -11 -8 185.71 21.93
1 11 -7 111.28 15.94
1 -11 -7 124.84 16.3
1 -11 -6 606.91 25.53
1 11 -6 691.59 39.23
1 -11 -6 668.75 37.88
1 -11 -5 165.2 12.36
1 11 -5 195.57 18.14
1 11 -5 172.38 18.09
1 -11 -5 145.88 7.12
1 -11 -5 184.18 17.14
1 -11 -4 1636.9 57.19
1 11 -4 1648.81 63.12
1 11 -4 1546.22 57.83
1 11 -4 1582.32 65.54
1 -11 -4 1622.48 49.89
1 -11 -4 1721.51 62.98
1 -11 -3 410.35 22.65
1 11 -3 356.51 22.13
1 11 -3 362.04 22.06
1 -11 -3 390.46 17.65
1 11 -3 325.99 23.86
1 -11 -3 363.27 21.94
1 -11 -2 1862.32 65.64
1 -11 -2 1939.88 68.64
1 11 -2 2002.95 65.47
1 -11 -2 1974.47 65.93
1 11 -2 1904.17 69.19
1 -11 -2 2041.96 62.28
1 11 -2 1888.93 54.33
1 -11 -2 1877.89 64.05
1 -11 -1 220.66 15.37
1 11 -1 214.91 12.93
1 -11 -1 220.4 17.27
1 11 -1 205.97 12.02
1 -11 -1 189.72 12.15
1 11 -1 190.99 10.37
1 -11 -1 211.73 13.91
1 -11 0 1622.54 51.49
1 11 0 1625.51 59.86
1 -11 0 1765.69 58.46
1 11 0 1569.64 48.68
1 11 0 1767.04 64.31
1 11 0 1738.23 54.94
1 11 0 1682.79 62.17
1 -11 0 1505.54 48.52
1 11 0 1557.02 51.71
1 -11 0 1664.16 58.5
1 -11 1 278.33 11.36
1 -11 1 292.56 18.79
1 11 1 289.21 21.5
1 -11 1 266.06 17.89
1 11 1 275.88 19.72
1 11 1 280.57 16.37
1 -11 1 308.04 20.22
1 11 2 1301.65 53.75
1 -11 2 1240.15 49.93
1 11 2 1303.68 54.68
1 -11 2 1218.06 48.71
1 11 2 1380.61 52.23
1 -11 2 1274.9 52.93
1 11 3 39.03 8.06
1 -11 3 48.98 7.7
1 11 3 46.07 8.78
1 11 3 47.13 7.86
1 11 4 1115.57 51.27
1 -11 4 996.39 44.53
1 11 4 1075.35 49.28
1 11 4 1054.91 44.23
1 -11 4 1064.08 51.13
1 11 5 44.51 7.73
1 11 5 32.99 8.3
1 -11 5 51.92 8.92
1 11 5 52.97 9.87
1 11 5 46.03 7.68
1 11 6 791.43 44.17
1 11 6 797.56 37.8
1 11 6 804.52 43.23
1 -11 6 789.42 40.61
1 11 7 280.51 25.44
1 11 7 219.03 21.55
1 -11 7 245.66 21.79
1 11 8 631.72 41.67
1 11 8 666.44 40.55
1 -11 8 618.57 38.29
1 -11 9 83.96 14.66
1 11 9 82.51 14.21
1 11 10 543.05 39.81
1 -11 10 468.49 35.54
1 13 -9 366.39 33.19
1 -13 -9 326.59 30.75
1 -13 -9 370.14 32.8
1 13 -8 213.92 23.82
1 -13 -8 176.65 21.55
1 -13 -8 211.49 23.53
1 13 -7 477.02 34.75
1 -13 -7 478.35 35.06
1 -13 -7 464.27 34.51
1 -13 -7 516.85 35.37
1 -13 -6 111.61 10.34
1 13 -6 126.46 16.1
1 -13 -6 123.03 16.42
1 -13 -6 112.29 15.87
1 -13 -6 112.84 15.24
1 -13 -5 384.13 21.99
1 13 -5 375.35 26.91
1 -13 -5 319.69 26.3
1 -13 -5 383.61 27.66
1 -13 -5 378.93 26.79
1 -13 -4 191.69 15.69
1 13 -4 185.32 16.82
1 -13 -4 178.17 17.24
1 -13 -4 163.87 15.83
1 -13 -3 598.87 31.1
1 -13 -3 573.92 30.57
1 13 -3 562.03 29.28
1 13 -3 496.11 29.65
1 -13 -3 514.3 28.1
1 -13 -2 511.22 26.7
1 13 -2 474.61 26.25
1 -13 -2 515.56 29.68
1 13 -2 506.51 25.06
1 13 -2 467.71 29.36
1 -13 -2 522.66 25.42
1 -13 -1 1201.91 43.76
1 13 -1 1065.12 46.86
1 -13 -1 1167.34 47.29
1 -13 -1 1199.69 51.92
1 13 -1 1133.98 40.47
1 13 -1 1247.04 52.88
1 13 -1 1196.61 53.02
1 -13 0 561.4 28.97
1 13 0 531.56 29.72
1 -13 0 471.95 17.35
1 13 1 945.4 44.79
1 -13 1 963.11 42.59
1 13 1 1012.9 48.2
1 -13 1 960.22 42.1
1 13 1 936.67 45.23
1 -13 2 604.72 32.55
1 -13 2 614.1 31.5
1 13 2 614.59 33.56
1 -13 3 635.32 34.18
1 13 3 654.07 37.18
1 -13 3 568.94 30.88
1 13 3 554.32 32.11
1 13 4 352.62 27.53
1 -13 4 344.96 25.15
1 -13 4 326.06 22.6
1 13 4 290 24.6
1 13 4 308.78 22.54
1 -13 5 350.88 24.97
1 13 5 399.97 29.49
1 13 5 402.34 25.6
1 13 6 334.69 27.57
1 -13 6 313.87 23.88
1 13 7 463.72 33.9
1 -13 7 430.53 30.11
1 13 8 319.59 28.25
1 -13 8 291.84 25.02
1 13 9 333.23 30.09
1 -13 9 324.39 27.62
1 -13 10 34.72 10.52
1 15 -9 115.79 18.95
1 -15 -9 107.92 18.28
1 -15 -9 97.14 17.17
1 -15 -9 73.94 15.17
1 15 -8 268.99 27.09
1 -15 -8 257.15 27.23
1 -15 -8 256.46 26.76
1 -15 -8 261.37 26.71
1 15 -7 137.63 18.32
1 -15 -7 129.45 18.39
1 -15 -7 115.01 17.29
1 -15 -7 98.34 15.7
1 15 -6 540.97 35.51
1 -15 -6 485.57 35.67
1 -15 -6 532.87 36.49
1 -15 -6 560.89 35.98
1 -15 -5 17.04 5.51
1 -15 -5 22.45 7.39
1 -15 -5 6.21 4.58
1 -15 -4 856.78 40.46
1 -15 -4 820.99 45.24
1 15 -4 708.18 33.65
1 -15 -4 824.47 42.04
1 -15 -3 24 6.98
1 15 -3 25.09 6.1
1 -15 -3 32.27 9.01
1 -15 -3 23.47 6.28
1 15 -3 42.96 10.11
1 -15 -2 798.42 41.49
1 15 -2 705.15 36.19
1 -15 -2 777.46 36.05
1 -15 -2 782.51 43.19
1 15 -2 837.4 45.15
1 -15 -1 96.17 11.9
1 -15 -1 101.23 13.89
1 15 -1 102.01 12.5
1 -15 -1 81.57 9.13
1 -15 -1 93.29 13.59
1 15 -1 113.3 15.11
1 -15 0 401.64 25.63
1 -15 0 428.28 29.87
1 15 0 331.18 24.98
1 -15 0 370.62 27.7
1 15 0 433.68 30.07
1 -15 1 307.6 22.8
1 15 1 245.26 22.04
1 15 1 327.16 25.21
1 15 2 395.5 28.94
1 -15 2 465.25 33.05
1 -15 2 403.33 27.19
1 -15 2 377.92 24.83
1 15 2 389.35 28.19
1 -15 3 359.59 26.77
1 -15 3 416.46 32.23
1 15 3 397.57 30.57
1 -15 3 450.24 27.17
1 15 3 410.91 28.43
1 -15 4 191.67 19.63
1 -15 4 213.87 22.91
1 15 4 208.17 21.76
1 -15 4 161.83 16.42
1 15 4 218.22 19.96
1 -15 5 294.98 22.79
1 15 5 311.11 27.55
1 -15 5 317.12 28.86
1 -15 5 252.04 23.98
1 -15 6 243.23 21.34
1 15 6 275.39 26.4
1 -15 6 267.94 25.5
1 -15 6 252.08 26.46
1 15 7 94.61 16.67
1 -15 7 105.73 14.66
1 15 7 91.48 16.13
1 -15 7 89.95 16.43
1 15 8 189.2 24
1 -15 8 247.71 26.95
1 15 8 226.19 25.41
1 -15 8 287.78 24.49
1 17 -8 5.3 5.23
1 -17 -7 303.71 29.45
1 -17 -7 374.48 31.84
1 17 -7 297.34 29.66
1 -17 -6 124.76 17.42
1 -17 -6 123.38 18.55
1 17 -6 110.99 18.1
1 -17 -5 218.49 18.89
1 -17 -5 217.75 23.48
1 -17 -5 253.32 23.51
1 -17 -4 199.36 18.64
1 -17 -4 177.34 20.59
1 -17 -4 142.81 16.81
1 17 -4 138.64 19.66
1 -17 -3 198.61 19.58
1 17 -3 164.35 15.36
1 -17 -3 173.5 16.95
1 -17 -3 211.11 22.28
1 17 -3 192.65 22.14
1 -17 -2 157.86 18.35
1 17 -2 166.01 16.42
1 -17 -2 202.51 16.36
1 -17 -2 158.57 19.2
1 17 -2 174.78 20.53
1 -17 -1 375.15 29.49
1 -17 -1 408.57 27.5
1 -17 -1 443.56 22.8
1 17 -1 413.71 28.03
1 -17 -1 386.88 30.35
1 17 -1 446.27 33.38
1 -17 0 162.92 16.94
1 -17 0 175.15 20.36
1 17 0 161.01 17.56
1 -17 0 178.36 20.09
1 17 0 167.93 19.71
1 -17 1 867.55 43.92
1 17 1 796.02 45.08
1 -17 1 835.23 47.19
1 17 1 835.59 46.94
1 -17 2 79 12.58
1 -17 2 82.97 15.15
1 17 2 90.06 14.64
1 17 2 103.65 15.44
1 -17 3 1300.54 65.09
1 -17 3 1191.82 57.03
1 17 3 1256.14 63.34
1 -17 3 1168.81 52.25
1 17 3 1217.95 58.41
1 -17 4 48.26 10.54
1 -17 4 38.9 11.19
1 -17 4 27.29 7.08
1 17 4 46.12 11.77
1 17 4 34.85 9.4
1 -17 5 662.73 37.88
1 17 5 712.34 46.81
1 -17 5 794.83 45.93
1 -17 5 824.25 51.3
1 17 6 165.6 21.88
1 -17 6 136.03 16.08
1 17 6 175.14 22.11
1 -17 6 158.11 20.43
1 -17 6 196.15 24.58
1 17 7 217.66 25.32
1 -17 7 215.66 26.08
1 -17 7 226.13 24.9
1 17 7 195.3 24.51
1 -19 -6 202.73 24.14
1 -19 -6 222.41 23.49
1 19 -6 179.48 23.9
1 -19 -5 84.74 14.03
1 -19 -5 68.11 13.72
1 -19 -4 292.1 24.66
1 -19 -4 310.53 29.18
1 -19 -4 307.79 24.6
1 19 -4 324.34 30.87
1 -19 -3 37.3 9.17
1 -19 -3 63.24 13.33
1 19 -3 49.99 12.51
1 -19 -2 441.81 32.79
1 19 -2 378.59 26.9
1 -19 -2 447.21 34.26
1 19 -2 421.94 34.64
1 -19 -1 65.4 13.05
1 -19 -1 69.27 14.12
1 19 -1 44.07 9.63
1 19 -1 52.34 12.13
1 -19 0 377.39 27.85
1 -19 0 401.4 32.99
1 19 0 398.7 29.63
1 -19 0 353.5 30.49
1 19 0 327.91 30.16
1 -19 1 214.1 21.29
1 -19 1 234.07 25.59
1 -19 1 213.65 23.49
1 19 1 208.99 23.53
1 -19 2 92.62 16.08
1 -19 2 95.16 14.55
1 19 2 88.78 16.28
1 19 2 106.4 16.49
1 -19 3 341.43 28.34
1 -19 3 395.58 34.57
1 19 3 324.09 30.73
1 19 3 315.06 28.43
1 19 4 62.28 14.19
1 -19 4 36.88 11.6
1 -19 4 45.96 11.29
1 19 5 337.84 31.77
1 19 5 367.36 33.59
1 -19 5 323.74 32.66
1 -19 5 353.45 30.38
1 -19 6 305.78 29.25
1 -21 -4 202.19 23.82
1 -21 -3 19.25 7.33
1 -21 -3 22.34 9.18
1 21 -3 40.18 12.03
1 -21 -2 166.3 20.97
1 -21 -2 168.51 21.9
1 21 -2 168.91 22.98
1 -21 -1 118.11 18.14
1 -21 -1 70.07 14.57
1 21 -1 82.77 16.26
1 -21 0 44.27 12.1
1 -21 0 49.93 12.61
1 21 0 37.8 11.67
1 -21 1 171.92 23.14
1 -21 1 183.24 22.62
1 21 1 170.98 22.64
1 -21 2 33.17 10.77
1 -21 2 72.6 12.86
1 -21 2 68.25 15.17
1 21 2 48.88 13.38
1 21 2 58.72 13.4
1 -21 3 405.41 32.04
1 -21 3 401.54 35.16
1 -21 4 29.79 9.35
2 0 -12 7.63 6.15
2 0 -12 2.39 4.71
2 0 -11 2.4 4.73
2 0 -11 1.77 3.91
2 0 -11 2.22 4.91
2 0 -10 549.92 38.02
2 0 -10 569.21 34.4
2 0 -10 570.91 37.34
2 0 -9 0.81 2.1
2 0 -9 3.14 3.47
2 0 -9 -0.67 1.97
2 0 -9 3.67 4.05
2 0 -8 1310.26 45.8
2 0 -8 1260.76 54.57
2 0 -8 1306.69 46.37
2 0 -8 1389.1 58.7
2 0 -7 -1.26 2.48
2 0 -7 -0.77 1.85
2 0 -6 4042.96 114.09
2 0 -6 4029.17 124.72
2 0 -6 4015.65 119.08
2 0 -5 0.72 1.74
2 0 -4 2565.48 79.63
2 0 -4 2632.97 77.11
2 0 -4 2411.92 77.26
2 0 -3 0.57 1.25
2 0 -3 0.81 1
2 0 -3 0.62 1.74
2 0 -3 0.62 1.83
2 0 -2 3572.03 95.46
2 0 -2 3614.66 98.8
2 0 -2 3325.22 93.63
2 0 -2 3595.72 97.17
2 0 -2 3663.61 98.82
2 0 -1 0.5 1.49
2 0 -1 1.39 1.23
2 0 -1 -0.37 1.28
2 0 -1 0.35 0.92
2 0 -1 -0.71 1.31
2 0 -1 -0.51 1.6
2 0 0 22.17 3.46
2 0 0 22.55 3.44
2 0 0 32.84 4.11
2 0 0 27.87 2.75
2 0 0 25.74 3.27
2 0 0 26.05 3.17
2 0 0 27.77 3.22
2 0 0 30.71 4.04
2 0 1 0.43 1.35
2 0 1 0.31 1.22
2 0 1 0.96 1.5
2 0 1 0.49 1.36
2 0 1 -0.46 1.38
2 0 1 0.87 0.96
2 0 1 -0.42 1.3
2 0 2 1263.95 41.42
2 0 2 1232.76 41.48
2 0 2 1232.61 42.55
2 0 2 1383.16 43.49
2 0 2 1267.46 43.6
2 0 2 1263.33 43.82
2 0 2 1258.41 39.66
2 0 2 1306.53 43.43
2 0 2 1288.86 42.91
2 0 3 0.58 1.61
2 0 3 0.47 1.13
2 0 3 1.32 1.59
2 0 3 -0.68 1.77
2 0 3 -0.57 1.87
2 0 3 1.74 1.05
2 0 3 -0.61 1.7
2 0 3 -0.68 1.91
2 0 3 0.93 1.49
2 0 3 -0.65 1.44
2 0 4 2649.28 79.08
2 0 4 2786.75 79.03
2 0 4 2506.15 80.37
2 0 4 2644.07 81.23
2 0 4 2545.56 75.24
2 0 4 2689.76 85.73
2 0 4 2619.93 79.36
2 0 4 2660.83 82.88
2 0 5 1.56 1.54
2 0 5 2.59 1.91
2 0 5 -0.7 1.95
2 0 5 -0.41 1
2 0 5 -1.17 1.99
2 0 5 -0.94 2.06
2 0 6 5228.22 154.08
2 0 6 5095.87 160.44
2 0 6 5299.63 156.3
2 0 7 -1.17 2.32
2 0 8 2485.11 87.33
2 0 8 2466.16 86.64
2 0 9 -1.9 4.2
2 0 10 614.94 39.55
2 0 11 -2.22 4.89
2 0 12 18.3 7.5
2 2 -12 40.95 11.83
2 -2 -12 58.22 12.67
2 2 -12 59.48 12.57
2 -2 -12 71.41 14.74
2 2 -11 459.56 36.64
2 -2 -11 385.9 31.44
2 -2 -11 411.14 27.54
2 2 -11 424.61 31.38
2 2 -11 442.26 32.19
2 -2 -11 380.56 32.46
2 2 -10 33.65 6.62
2 2 -10 49.12 11.1
2 -2 -10 26.21 8.71
2 -2 -10 39.75 8.39
2 2 -10 36.16 9.24
2 -2 -10 19.59 7.79
2 2 -10 41.51 9.71
2 2 -9 920.62 38.34
2 -2 -9 913.34 34.54
2 2 -9 880.05 46.25
2 -2 -9 869.17 42.13
2 -2 -9 907.09 33.36
2 2 -9 983.12 36.7
2 2 -9 917.02 46.21
2 -2 -8 31.42 6.86
2 2 -8 54.31 9.89
2 2 -8 46.7 6.67
2 -2 -8 32.4 5.26
2 2 -8 31.77 7.53
2 -2 -7 341.13 16.08
2 -2 -7 359.53 22.23
2 2 -7 390.91 25.53
2 2 -7 351.77 20
2 -2 -7 403.14 19.94
2 -2 -7 392.31 26.4
2 -2 -6 53.74 4.69
2 -2 -6 59.97 8.9
2 -2 -6 47.08 7.17
2 -2 -6 52.13 6.67
2 2 -6 56.5 7.22
2 -2 -6 41.31 5.85
2 -2 -5 2765.06 88.59
2 -2 -5 2600.08 74.54
2 -2 -5 2657.59 84.74
2 2 -5 2591.03 87.98
2 2 -5 2799.05 84.73
2 -2 -5 2930.53 83.81
2 -2 -4 64.08 7.72
2 -2 -4 62.99 6.49
2 2 -4 64.7 7.96
2 -2 -4 65.91 6.98
2 -2 -3 2369.03 73.42
2 -2 -3 2399.56 69.07
2 2 -3 2336.32 72.18
2 -2 -3 2227.38 64.72
2 2 -3 2393.25 66.41
2 2 -3 2297.1 69.63
2 -2 -3 2546.56 73.76
2 2 -3 2470.25 73.42
2 -2 -3 2412.31 73.24
2 -2 -2 1498.85 45.03
2 2 -2 1558.44 48.54
2 -2 -2 1555 50.2
2 2 -2 1503.56 46.71
2 -2 -2 1582.81 49.63
2 2 -2 1654.01 50.45
2 -2 -2 1579.65 50.42
2 -2 -2 1681.62 51.58
2 -2 -1 7205.14 196.92
2 -2 -1 7323.8 196.91
2 2 -1 7238.81 193.84
2 2 -1 6941.77 195.99
2 2 -1 7173.07 196.83
2 -2 -1 7193.28 196.69
2 -2 -1 7167.53 197.81
2 -2 -1 7219.06 195.31
2 -2 -1 7429.85 198.97
2 -2 -1 7220.36 197.12
2 2 0 912.16 30.46
2 2 0 877.89 29.55
2 2 0 853.26 30.32
2 2 0 721.11 28.36
2 -2 0 809.69 29.59
2 2 0 924.75 29.89
2 2 0 806.77 26.42
2 -2 0 900.17 30.82
2 -2 0 838.04 26.35
2 -2 0 913.27 31.38
2 2 0 904.53 28.73
2 -2 0 858.51 28.84
2 2 1 896.24 31.03
2 2 1 904.62 31.28
2 2 1 863.36 25.99
2 2 1 774.02 30.18
2 2 1 927.53 31.28
2 -2 1 879.25 31.12
2 2 1 870.87 29.86
2 2 1 853.32 29.21
2 -2 1 872.54 31.83
2 -2 1 858.79 32.02
2 2 1 818.52 29.86
2 2 1 891.78 27.25
2 -2 1 828.33 30.42
2 -2 1 849.95 27.92
2 2 2 88.63 7.83
2 -2 2 88.79 6.47
2 2 2 81.47 5.9
2 2 2 89.41 7.81
2 2 2 93.12 8.02
2 2 2 81.71 7.37
2 -2 2 85.94 6.16
2 2 2 88.68 7.66
2 -2 2 78.31 7.45
2 2 2 86.13 7.15
2 -2 2 89.04 7.07
2 2 2 104.71 8.37
2 -2 2 89.72 8.37
2 2 2 78.42 6.94
2 2 2 85.75 6.21
2 -2 2 89.11 7
2 -2 3 3557.41 99.87
2 2 3 3728.41 100.7
2 -2 3 3686.79 103.5
2 2 3 3683.66 104.36
2 2 3 3633.41 108.28
2 2 3 3629.92 106.61
2 -2 3 3509.45 103.24
2 2 3 3687.65 106.97
2 -2 3 3813.27 108.75
2 2 3 3630.4 106.13
2 2 3 3690.86 101.64
2 2 3 3652.42 107.38
2 -2 3 3591.54 108.9
2 2 3 3828.88 105.47
2 2 3 3280.58 99.94
2 -2 3 3677.83 105.18
2 2 3 3732.47 108.09
2 2 4 75 6.59
2 2 4 82.84 8.4
2 2 4 82.41 8.05
2 2 4 82.17 9.31
2 2 4 88.65 8.37
2 2 4 81.33 7.99
2 -2 4 65.67 6.75
2 2 4 70.07 7.95
2 2 4 76.91 6.53
2 2 4 84.93 6.67
2 -2 4 81.66 8.35
2 2 4 73.92 9.12
2 -2 4 76.41 9.35
2 -2 4 98.74 10.04
2 2 4 76.82 7.57
2 2 4 79.49 4.11
2 -2 4 83.84 7.97
2 2 5 262.02 15.97
2 2 5 300.49 18.41
2 2 5 339.06 21.45
2 2 5 317.79 21.38
2 2 5 346.05 17.03
2 2 5 341.27 16.87
2 -2 5 324.94 20.81
2 2 5 315.91 17.83
2 2 6 68.92 8.28
2 -2 6 57.2 8.77
2 2 6 67.85 6.81
2 2 6 70.17 7.86
2 2 6 75.01 10.68
2 -2 6 85.12 10.64
2 2 6 64.72 8.51
2 2 7 536.69 27.5
2 -2 7 504.97 29.84
2 2 7 465.12 24.65
2 2 7 523.98 26.5
2 -2 7 483.89 29.42
2 2 8 2.56 2.83
2 -2 8 1.6 3.86
2 2 8 3.62 3.99
2 -2 8 6.34 4.14
2 -2 9 421.45 29.37
2 -2 9 406.86 32.22
2 2 9 341.29 28.36
2 -2 10 1.92 3.28
2 -2 10 2.56 5.04
2 2 11 750.37 47.82
2 -2 11 811.39 46.19
2 -2 11 887.19 54.29
2 2 12 27.27 9.5
2 4 -12 17.28 8.06
2 -4 -12 31.15 9.41
2 -4 -12 29.64 9.97
2 4 -11 32.63 10.75
2 -4 -11 15.81 6.78
2 4 -11 20.17 7.99
2 4 -11 22.37 7.6
2 -4 -11 25.21 9.32
2 4 -10 291.78 20.77
2 -4 -10 327.06 26.04
2 -4 -10 297.75 20.76
2 4 -10 299.43 26.87
2 4 -10 329.09 25.39
2 -4 -9 181.95 15.56
2 4 -9 204.01 20.65
2 4 -9 161.87 13.45
2 -4 -9 188.93 20.61
2 4 -9 187.52 17.99
2 -4 -8 767.03 35.23
2 4 -8 710.65 41.01
2 4 -8 757.04 34.07
2 4 -8 798.48 39.13
2 -4 -8 852.39 44.88
2 -4 -7 91.36 12.51
2 -4 -7 101.82 9.62
2 -4 -7 89.81 9.98
2 4 -7 108.26 10.87
2 -4 -7 106.59 14.15
2 -4 -6 3375.48 107.67
2 -4 -6 3190.33 98.36
2 -4 -6 3046.35 98.53
2 4 -6 3297.84 107.93
2 -4 -6 3449.7 109.42
2 -4 -6 3152.85 94.41
2 -4 -5 467.97 25.92
2 4 -5 411.02 13.72
2 4 -5 485.16 26.7
2 -4 -5 460.99 22.35
2 -4 -4 3222.69 100.91
2 4 -4 3219.12 89.56
2 4 -4 3309.5 102.05
2 4 -4 3208.66 88.62
2 -4 -4 3079.44 96.94
2 -4 -3 193.37 13.88
2 4 -3 208.32 12.9
2 4 -3 192.32 10.59
2 4 -3 216.17 15.01
2 4 -3 196.57 13.38
2 -4 -3 218.12 13.82
2 4 -3 214 14.14
2 -4 -3 231.88 14.21
2 -4 -2 2365.18 74.06
2 -4 -2 2654.53 79.8
2 4 -2 2532.41 75.43
2 4 -2 2500.39 74.97
2 4 -2 2602.59 79.73
2 -4 -2 2509.26 77.15
2 -4 -2 2577.8 79.26
2 4 -2 2652.77 78.82
2 -4 -2 2662.77 78.29
2 4 -1 1461.74 45.39
2 4 -1 1552.95 50.93
2 4 -1 1487.46 49.11
2 -4 -1 1575.76 51.49
2 4 -1 1531.98 46.44
2 4 -1 1598.39 50.7
2 -4 -1 1503.26 47.9
2 4 -1 1537.53 49.64
2 4 -1 1581.64 50.7
2 -4 -1 1569.19 52.09
2 -4 -1 1561.39 50.17
2 4 -1 1574.67 50.16
2 4 0 142.79 6.8
2 4 0 163.52 10.3
2 4 0 152.47 10.28
2 4 0 171.41 10.34
2 4 0 144.64 9.94
2 4 0 136.47 9.87
2 4 0 153.82 9.44
2 4 0 134.47 6.01
2 -4 0 152.58 10.91
2 -4 0 151.15 10.35
2 -4 0 154.71 9.83
2 4 0 156.18 9.46
2 4 1 182.54 6.51
2 4 1 179.54 11.55
2 4 1 162.33 10.94
2 4 1 170.22 7.55
2 4 1 169.83 11.29
2 4 1 181.55 11.65
2 4 1 182.27 9.92
2 4 1 182.11 11.55
2 4 1 181.32 9.54
2 -4 1 180.13 12.02
2 -4 1 180.56 12.22
2 -4 1 183.8 10.61
2 4 1 194.01 9.89
2 4 2 1522.5 51.13
2 -4 2 1568.33 45.08
2 4 2 1574.96 51.38
2 4 2 1351.97 42.2
2 4 2 1551.02 46.07
2 4 2 1615.22 51.26
2 4 2 1523.73 51.25
2 -4 2 1630.66 51.81
2 4 2 1580.66 47.93
2 4 2 1558.49 51.45
2 4 2 1514.75 45.02
2 -4 2 1521.47 53.41
2 -4 2 1549.64 47.06
2 4 3 1122.19 37.97
2 4 3 1119.97 42.52
2 4 3 1135.84 34.44
2 4 3 1148.86 40.62
2 -4 3 1018.88 34.72
2 4 3 1109 38.1
2 -4 3 1091.81 43.77
2 4 3 1105.1 38.74
2 -4 3 1145.15 44.18
2 4 3 1083.41 33.62
2 4 3 1103.12 37.2
2 -4 3 1129.28 37.4
2 4 3 1159.12 33.32
2 4 4 1455.55 45.93
2 4 4 1508.88 49.6
2 4 4 1426.72 53.32
2 -4 4 1471.27 52.44
2 4 4 1479.87 54.74
2 4 4 1500.64 50.46
2 -4 4 1425.78 45.91
2 4 4 1512.55 49.6
2 4 4 1484.29 50.96
2 4 4 1396.58 42.47
2 -4 4 1526.27 55.92
2 -4 4 1560.02 56.39
2 4 4 1468.65 47.27
2 4 4 1360.32 41.38
2 4 4 1426.85 43.03
2 -4 4 1465.48 47.88
2 4 5 480.1 21.3
2 4 5 484.12 26.04
2 -4 5 387.75 23.24
2 4 5 430.05 26.14
2 4 5 465.15 22.45
2 4 5 473.31 27.34
2 -4 5 422.91 26.48
2 4 5 439.96 22.66
2 4 5 425.67 20.11
2 -4 5 505.91 28.23
2 4 6 2264.34 74.35
2 -4 6 2180.12 78.65
2 4 6 2313.31 83.56
2 4 6 2307.71 74.93
2 4 6 2378.07 76.66
2 4 6 2330.38 84.22
2 -4 6 2290.45 84.48
2 -4 6 2430.03 84.8
2 4 6 2287.29 72.42
2 4 7 332.52 20.27
2 -4 7 282.81 21.39
2 4 7 346.06 21.1
2 -4 7 334.53 25.77
2 -4 7 298.07 23.84
2 -4 8 945.64 44.21
2 4 8 854.11 46.52
2 -4 8 879.6 48.53
2 -4 8 908.05 46.95
2 -4 9 147.95 16.37
2 4 9 189.98 20.63
2 -4 10 289.08 23.89
2 4 10 240.42 24.78
2 -4 11 101.2 14.61
2 6 -11 665.55 47.16
2 6 -10 244.63 26.66
2 -6 -10 236.05 20.64
2 6 -10 264.53 25.91
2 6 -10 213.66 19.3
2 -6 -10 226.21 24.64
2 6 -9 1113.19 56.79
2 -6 -9 947.47 44.67
2 6 -9 929.15 51.13
2 -6 -9 894.32 38.24
2 6 -9 961.25 41.49
2 -6 -9 915.27 51.3
2 6 -9 976.75 44.34
2 -6 -8 46.36 9.96
2 -6 -8 44.2 6.87
2 6 -8 43.6 7.78
2 -6 -8 33.55 9.79
2 6 -8 30.93 6.87
2 -6 -7 118.91 14.89
2 -6 -7 137.71 11.43
2 6 -7 123.8 15.27
2 6 -7 137.53 8.54
2 -6 -7 119.55 7.46
2 -6 -7 146.22 16.62
2 6 -7 112.62 11.74
2 -6 -6 59.5 9.6
2 -6 -6 47.17 6.55
2 6 -6 61.34 10.26
2 -6 -6 65.49 10.28
2 -6 -6 46.51 4.61
2 -6 -5 301.84 20.8
2 -6 -5 265.83 17.31
2 6 -5 250.58 19.85
2 -6 -5 239.88 19.24
2 -6 -4 59.12 8.43
2 -6 -4 47.09 4.16
2 6 -4 54.73 8.42
2 -6 -4 51.96 7.34
2 -6 -4 61.86 5.28
2 -6 -3 2379.29 79.03
2 6 -3 2329.39 79.22
2 -6 -3 2386.18 70.21
2 6 -2 598.48 24.83
2 6 -2 629.54 24.81
2 -6 -2 573.91 21.3
2 -6 -2 630.42 28.8
2 -6 -2 642.9 23.36
2 6 -2 614.25 27.8
2 -6 -2 561.65 27.55
2 -6 -2 584.44 23.45
2 6 -1 6046.81 169.35
2 6 -1 6295.85 171.75
2 -6 -1 6037.44 176.04
2 -6 -1 5958.05 164.94
2 6 -1 6178.73 175.05
2 -6 -1 6195.24 169.75
2 -6 -1 6384.9 177.15
2 6 -1 6168.99 173.6
2 -6 -1 6244.28 175.79
2 -6 -1 6222.05 171.57
2 -6 -1 6132.37 173.92
2 6 -1 6285.76 173.72
2 6 0 289.53 12.9
2 6 0 306.19 15.99
2 -6 0 297.35 13.99
2 6 0 290.09 15.58
2 6 0 308.97 16.43
2 -6 0 272.46 12.16
2 -6 0 320.41 15.32
2 6 0 291.26 14.75
2 6 0 281.75 9.78
2 6 0 296.55 15.65
2 -6 0 298.45 16.18
2 6 0 274.34 15.15
2 6 1 4350.13 122.68
2 -6 1 4237.7 115.3
2 6 1 4286.77 120.51
2 6 1 4045.13 122.14
2 6 1 4076.89 123.13
2 -6 1 4324.74 121.75
2 6 1 4132.78 117.05
2 6 1 4256.64 117.18
2 -6 1 4165.65 124.17
2 -6 1 4252.97 125.09
2 6 1 4026.47 119.55
2 -6 2 969.46 29.14
2 6 2 972.08 33.04
2 6 2 1021.75 38.36
2 6 2 1013.43 32.73
2 6 2 998.32 30.27
2 -6 2 958.36 40.01
2 -6 2 936.03 39.68
2 6 2 971.68 33.87
2 6 2 962.84 34.28
2 -6 2 991.51 31.61
2 6 3 3439.98 100.39
2 6 3 3471.75 96.73
2 6 3 3345.99 107.56
2 6 3 3403.47 98.14
2 6 3 3521.38 106.93
2 -6 3 3202.49 107.77
2 6 3 3527.37 103.92
2 -6 3 3506.71 109.44
2 6 3 3528.15 97.92
2 6 3 3265.15 97.8
2 -6 3 3384.03 96.54
2 6 3 3518.94 98.17
2 6 4 262.82 18.76
2 6 4 221.59 17.84
2 6 4 254.41 13.07
2 6 4 235.26 16.82
2 -6 4 243.68 18.33
2 6 4 238.81 15.92
2 6 4 223.24 11.64
2 6 4 214.41 11.23
2 -6 4 246.03 19.29
2 6 5 337.27 23.06
2 6 5 353.23 24.51
2 6 5 295.57 16.73
2 6 5 344.23 20.69
2 -6 5 351.23 24.04
2 6 5 366.2 21.91
2 -6 5 412.01 26.49
2 6 6 47.04 6.59
2 6 6 59.23 10.31
2 6 6 44.44 8.61
2 6 6 51.06 8.29
2 6 6 43.37 7.39
2 -6 6 53.36 10.35
2 6 7 638.75 37.93
2 6 7 636.77 32.63
2 -6 7 727.21 40.19
2 -6 8 55.93 9.34
2 -6 8 55.24 11.51
2 6 9 729.14 45.15
2 -6 9 871.78 49.27
2 6 10 66.4 13.51
2 -6 10 45.71 11.84
2 -6 11 818.95 53.29
2 6 11 846.63 51.33
2 8 -11 53.19 13.73
2 -8 -11 46.94 12.25
2 8 -10 209.33 25.29
2 8 -10 197.53 23.47
2 -8 -10 189.05 23.27
2 8 -9 347.36 30.8
2 -8 -9 324.9 21.56
2 -8 -9 313.59 28.52
2 8 -9 312.91 22.61
2 8 -9 353.61 22.01
2 -8 -9 315.21 28.75
2 -8 -8 504.76 34.86
2 -8 -8 490.24 26.37
2 8 -8 557.28 37.29
2 -8 -8 518.46 23.38
2 -8 -8 561.08 36.75
2 8 -8 482.48 26.25
2 -8 -7 179.82 19.23
2 -8 -7 201.62 13.26
2 8 -7 214.16 21.46
2 8 -7 202.83 11.54
2 -8 -7 199.79 20.29
2 8 -7 224.57 15.57
2 -8 -6 1528.72 65.55
2 8 -6 1580.2 66.99
2 -8 -6 1596.59 65.52
2 -8 -5 520.25 31.01
2 -8 -5 522.12 18.97
2 8 -5 534.64 31.98
2 -8 -5 518.63 16.72
2 -8 -5 584.91 31.77
2 -8 -4 2199.47 78.36
2 -8 -4 2224.2 65.98
2 -8 -4 2175.57 65.1
2 8 -4 2150.36 78.29
2 -8 -4 2115.43 62.58
2 -8 -4 2114.16 76.02
2 -8 -3 547.88 29.68
2 -8 -3 538.32 20.73
2 8 -3 550.5 28.98
2 -8 -3 503.42 20.75
2 8 -2 1093.8 38.04
2 8 -2 1017.12 30.44
2 -8 -2 1096.2 44.95
2 -8 -2 1082.54 35.32
2 8 -2 1115.07 43.33
2 -8 -2 1061.64 37.26
2 8 -1 492.47 22.07
2 -8 -1 537.26 23.2
2 8 -1 493.22 22.35
2 -8 -1 502.86 26.92
2 -8 -1 481.73 19.56
2 -8 -1 520.08 20.86
2 8 -1 517.97 24.51
2 -8 -1 461.7 26.01
2 -8 -1 506.03 23.11
2 8 -1 501.72 21.74
2 -8 0 440.09 19.14
2 8 0 419.19 18.76
2 -8 0 414.38 18.17
2 -8 0 466.99 20.15
2 8 0 450.76 20.68
2 8 0 460.13 20.73
2 8 0 404.04 14.23
2 -8 0 413 23.78
2 -8 0 427.99 22.21
2 8 1 63.13 6.62
2 -8 1 64.48 7.29
2 8 1 62.76 5.28
2 8 1 64.04 8.81
2 8 1 65.19 6.01
2 -8 1 58.57 8.01
2 8 1 63.21 7.31
2 8 2 1742.21 55.05
2 -8 2 1813.66 57.12
2 8 2 1728.58 49.36
2 8 2 1762.82 63.58
2 -8 2 1845.76 63.86
2 8 2 1699.36 56.08
2 8 2 1817.16 57.89
2 8 3 833.28 38.12
2 8 3 751.84 36.48
2 8 3 742.83 30.43
2 -8 3 741.84 37.34
2 8 4 948.4 43.47
2 8 4 895.36 33.43
2 8 4 869.17 39.34
2 8 4 939.8 42.34
2 8 4 875.5 33.81
2 -8 4 947.26 44.38
2 8 5 167.57 17.14
2 8 5 204.77 18.65
2 8 5 211.38 13.64
2 8 5 191.15 16.8
2 8 5 209.42 16.97
2 -8 5 191.06 18.91
2 8 6 778.7 42.8
2 8 6 843.26 43.95
2 8 6 811.99 39.32
2 8 6 847.91 40.35
2 -8 6 783.17 41.97
2 -8 6 787.56 44.16
2 8 7 292.41 25.55
2 8 7 283.14 21.66
2 -8 7 271.34 23.82
2 -8 7 264.89 24.82
2 8 8 240.16 24.27
2 -8 8 277.95 25.23
2 8 9 39.61 10.59
2 -8 9 41.92 11.07
2 8 10 138.94 19.58
2 -8 10 126.82 19.04
2 8 11 72.75 15.07
2 10 -10 407.8 36.65
2 -10 -10 417.47 35.48
2 -10 -9 519.6 38.53
2 10 -9 594.21 42.11
2 10 -9 566.07 40.68
2 -10 -9 495.63 37.72
2 -10 -8 191.55 21.6
2 10 -8 209.33 23.21
2 10 -8 184.01 21.72
2 -10 -8 220.98 23.03
2 -10 -7 79.04 13.17
2 10 -7 105.39 15.48
2 10 -7 101.15 8.97
2 -10 -7 70.12 12.82
2 -10 -6 12.86 5.76
2 -10 -6 22.33 2.74
2 10 -6 34.91 8.79
2 10 -6 26.2 5.3
2 -10 -6 37.74 8.97
2 10 -6 17.74 3.84
2 -10 -5 60.36 10.43
2 -10 -5 59.2 6.15
2 10 -5 64.47 10.83
2 10 -5 44 7.04
2 -10 -5 62.59 10.5
2 -10 -4 268.1 21.42
2 -10 -4 276 16.13
2 -10 -4 272.11 11.98
2 10 -4 274.72 21.82
2 10 -4 241.85 17.55
2 -10 -4 317.37 21.37
2 -10 -4 245.9 11.07
2 -10 -3 689.58 35.62
2 -10 -3 589.84 28.64
2 -10 -3 626.53 22.27
2 10 -3 647.02 34.11
2 10 -3 637.75 31.57
2 -10 -3 665.32 31.45
2 -10 -3 596.08 24.17
2 -10 -2 1691.35 65.25
2 -10 -2 1683.6 51.6
2 10 -2 1683.98 62.35
2 10 -2 1703.56 62.9
2 10 -2 1658.87 53.57
2 -10 -2 1711.31 58.73
2 -10 -2 1677.69 55.89
2 -10 -1 1577.81 61.41
2 -10 -1 1558.48 51.78
2 -10 -1 1561.7 50.27
2 10 -1 1555.37 56.8
2 -10 -1 1646.23 53.15
2 -10 -1 1584.13 55.21
2 -10 0 2836.98 84.65
2 -10 0 2757.53 85.19
2 10 0 2897.48 86.57
2 10 0 2830.73 94.88
2 10 0 2707.23 85.07
2 -10 0 2768.43 81.41
2 -10 0 2725.25 89.83
2 -10 1 1866.32 53.74
2 -10 1 1874.92 62.32
2 10 1 1880 59.11
2 10 1 1915.38 71.42
2 -10 1 1874.11 53.67
2 -10 1 1936.03 68.78
2 10 2 1624.64 52.51
2 10 2 1687.36 63.83
2 10 2 1594.24 64.09
2 10 2 1583.88 58.39
2 10 3 1087.07 48.45
2 -10 3 964.3 44.59
2 10 3 1048.65 47.88
2 10 3 1031.42 41.38
2 -10 3 1033.84 48.18
2 10 4 113.15 14.02
2 -10 4 87.99 11.7
2 10 4 101.24 12.31
2 10 4 71.52 11.41
2 10 4 84.37 9.33
2 -10 4 100.97 13.92
2 10 5 131.66 15.88
2 10 5 117.15 14.73
2 10 5 106.59 13.83
2 -10 5 108.73 13.6
2 10 5 100.65 12.98
2 -10 5 116.29 15.67
2 10 6 23.56 7.54
2 10 6 25.78 8.33
2 -10 6 31.6 8.16
2 10 6 31.56 7.66
2 -10 6 27.43 8.86
2 10 7 49.69 11.38
2 -10 7 48.76 10.47
2 10 7 60.64 10.87
2 -10 7 83.44 14.72
2 10 8 94.46 15.81
2 -10 8 90.5 15.07
2 10 9 321.34 30.31
2 10 9 304.11 28.83
2 -10 9 253.7 26.28
2 -10 10 186.61 22.89
2 10 10 133.26 20.05
2 12 -10 367.87 34.91
2 -12 -10 354.79 33.57
2 -12 -10 332.63 32.25
2 12 -9 342.12 32.06
2 -12 -9 320.57 30.19
2 -12 -8 474.65 36.14
2 12 -8 465.71 36.06
2 12 -8 466.92 37.12
2 -12 -8 457.86 34.77
2 -12 -7 476.28 34.55
2 12 -7 438.05 33.45
2 12 -7 430.46 34.16
2 -12 -7 456.49 32.87
2 -12 -6 676.19 41.15
2 12 -6 704.62 40.84
2 12 -6 634.52 30.63
2 12 -6 743.27 43.36
2 -12 -6 635.46 38.16
2 -12 -5 609.02 36.96
2 -12 -5 583.9 25.9
2 12 -5 558.4 29.33
2 12 -5 625.78 37.43
2 -12 -5 630.93 34.65
2 12 -5 502.11 18.54
2 -12 -4 472.15 31.47
2 -12 -4 443.74 24.08
2 12 -4 462.68 30.53
2 12 -4 459.03 27.16
2 -12 -4 421.29 26.85
2 -12 -3 384.89 27.24
2 -12 -3 382.84 22.99
2 12 -3 368.23 25.32
2 12 -3 318.54 22.89
2 12 -3 351.5 15.47
2 -12 -3 369.85 22.67
2 -12 -3 354.12 17
2 -12 -2 241.46 21.1
2 -12 -2 307.65 21.17
2 12 -2 239.31 19.09
2 12 -2 275.74 21.48
2 12 -2 266.37 13.98
2 -12 -2 311.96 18.39
2 -12 -2 285.97 16.88
2 -12 -1 179.92 17.54
2 -12 -1 164.41 12.63
2 12 -1 200.23 15.7
2 -12 -1 175.32 14.04
2 -12 0 335.57 16.59
2 -12 0 357.92 20.28
2 12 0 407.15 21.56
2 12 0 380.48 26.35
2 -12 0 380.99 24.69
2 -12 0 403.41 23.72
2 -12 1 102.01 5.3
2 -12 1 120.81 11.4
2 12 1 128.31 14.96
2 -12 1 105.72 12.5
2 12 1 113.13 12.84
2 -12 1 125.84 13.58
2 12 2 768.94 39.83
2 -12 2 706.94 33.77
2 12 2 749.75 40.72
2 -12 2 681.66 36.13
2 12 2 681.39 34.72
2 -12 2 772.96 39.37
2 12 3 763.73 40.89
2 12 3 701.16 40.04
2 -12 3 638.23 35.6
2 12 3 757.28 35.58
2 12 4 699.75 40.26
2 12 4 716.3 40.27
2 -12 4 666.27 36.85
2 12 4 656.67 37.44
2 12 4 621.91 31.84
2 12 5 738.67 42.53
2 -12 5 619.9 36.78
2 12 5 655.03 38.04
2 -12 5 662 41.32
2 12 6 1077.04 56.12
2 -12 6 1055.63 52.46
2 12 6 1124.98 53.5
2 -12 6 1114 58.71
2 12 7 439.77 34.12
2 12 7 471.72 32.48
2 -12 7 405.56 30.96
2 12 8 503.85 38.96
2 -12 8 547.51 37.45
2 12 9 119.06 19.06
2 -12 9 105.17 16.83
2 12 9 82.47 15.96
2 14 -9 132.84 20.28
2 -14 -9 103.63 18.34
2 -14 -9 142.76 20.42
2 14 -8 274.11 27.36
2 -14 -8 254.81 26.65
2 -14 -8 216.09 24.74
2 14 -7 72.21 13.87
2 -14 -7 89.35 15.62
2 -14 -7 70.18 13.25
2 14 -6 31.99 9.27
2 -14 -6 14.34 7.02
2 -14 -6 18.83 7.22
2 -14 -5 179.01 14.73
2 14 -5 231.39 21.05
2 14 -5 214.23 18.08
2 -14 -5 205.13 19.27
2 -14 -4 104.71 13.6
2 -14 -4 139.21 13.67
2 14 -4 133.47 14.73
2 14 -4 139.22 15.15
2 14 -4 141.96 16.83
2 -14 -4 123.32 13.89
2 -14 -3 302.99 21.77
2 -14 -3 310.04 26.24
2 14 -3 293.08 23.31
2 -14 -3 344.58 23.32
2 -14 -2 632.41 31.38
2 -14 -2 647.22 38.99
2 -14 -2 715.37 37.84
2 14 -2 657.91 37.63
2 -14 -1 387.86 20.86
2 -14 -1 404.55 29.77
2 -14 -1 457.15 29.6
2 -14 -1 404.63 22.84
2 14 -1 383.79 28.24
2 -14 -1 417.45 24.29
2 -14 0 981.81 41.4
2 -14 0 977.82 49.73
2 14 0 860.03 44.98
2 -14 0 979.2 44.25
2 14 1 500.25 31.9
2 -14 1 455.7 26.32
2 14 1 460.31 32.34
2 -14 1 450.79 29.41
2 14 1 542.61 32.01
2 -14 1 463.09 29.35
2 -14 2 726.86 36.17
2 14 2 793.25 44.19
2 -14 2 641.23 37.06
2 14 2 733.14 38.32
2 -14 2 748.43 40.84
2 14 3 294.15 25.34
2 -14 3 251.4 20.42
2 14 3 272.39 25.02
2 -14 3 269.12 22.17
2 14 3 253.68 20.85
2 -14 3 297.05 25.38
2 14 4 296.67 26.84
2 -14 4 295.92 23.23
2 14 4 257.06 23.91
2 -14 4 307.07 24.13
2 -14 4 313.39 27.29
2 14 5 79.86 14.77
2 -14 5 73.46 12
2 14 5 63.16 12.04
2 14 6 4.8 5.8
2 -14 6 17.28 6.56
2 14 6 -2.11 5.52
2 14 7 -2.55 5.62
2 -14 7 -4.11 5.74
2 14 7 4.37 4.82
2 14 8 64.76 14.42
2 -14 8 56.86 12.3
2 -14 9 11.48 6.8
2 -16 -8 126.48 19.19
2 -16 -8 137.6 20.56
2 -16 -7 636.7 44.16
2 -16 -7 647.87 43.12
2 -16 -6 179.31 21.87
2 -16 -6 166.26 19.79
2 -16 -5 827.88 44.01
2 16 -5 762.08 36.12
2 -16 -4 137.32 15.7
2 16 -4 135.58 14.41
2 -16 -4 134.27 14.67
2 -16 -3 659.68 34.38
2 16 -3 615.65 34.24
2 -16 -3 637.42 36.08
2 16 -3 563.95 36.21
2 -16 -2 62.26 9.14
2 16 -2 77.82 11.9
2 -16 -2 78.01 12.41
2 16 -2 90.31 13.98
2 16 -2 105.45 15.59
2 16 -1 158.72 17.28
2 -16 -1 171.7 12.69
2 -16 -1 177.07 19.45
2 -16 -1 141.95 13.96
2 16 -1 164.62 19.08
2 16 -1 162.97 19.12
2 -16 0 208.52 17.11
2 -16 0 173.04 19.75
2 16 0 197.37 19.91
2 16 0 147.71 18.02
2 16 1 244.89 22.89
2 -16 1 223.78 18.7
2 -16 1 201.09 22.04
2 16 1 216.61 23.33
2 16 1 244.87 22.46
2 16 2 172.44 19.81
2 -16 2 142.22 15.15
2 16 2 118.1 17.04
2 -16 2 151.19 16.58
2 16 2 134.33 16.34
2 -16 3 417.51 28.46
2 16 3 398.38 32.21
2 -16 3 418.24 29.24
2 16 3 456.11 30.46
2 16 4 116.92 18.1
2 -16 4 108.16 14.89
2 16 4 142.62 18.95
2 -16 4 120.89 15.41
2 -16 5 892.76 47.34
2 16 5 889 51.43
2 -16 5 916.8 48.5
2 16 6 313.51 30.1
2 -16 6 295.1 25.67
2 16 6 254.62 26.46
2 -16 6 284.85 26.17
2 16 7 543.38 39.95
2 -16 7 617.5 39.46
2 -16 7 638.63 41.91
2 -16 8 129.17 18.33
2 -18 -7 35.64 11.28
2 -18 -6 90.54 15.15
2 -18 -6 141.95 20.29
2 -18 -5 24.86 8.04
2 -18 -5 28.07 9.45
2 18 -5 35.32 11.08
2 -18 -4 219.37 20.17
2 -18 -4 181.93 22.3
2 -18 -4 244.95 21.41
2 18 -4 213.09 24.85
2 -18 -3 71.12 12.17
2 -18 -3 69.06 10.67
2 18 -3 59.19 10.58
2 -18 -3 66.33 13.8
2 18 -3 35.56 10.44
2 -18 -2 374.1 29.52
2 18 -2 387.75 28.13
2 -18 -2 378.95 32.32
2 18 -2 359.35 31.4
2 -18 -1 186.21 21.1
2 18 -1 185.08 19.63
2 -18 -1 177.14 21.61
2 18 -1 152.43 19.89
2 -18 0 395.06 25.7
2 -18 0 407.14 32.31
2 18 0 354.25 28.75
2 -18 0 322.88 29.68
2 18 0 400.93 32.01
2 -18 1 165.76 16.73
2 -18 1 152.06 20.36
2 18 1 137.85 18.26
2 -18 1 171.87 21.34
2 18 1 149.72 19.1
2 -18 2 364.87 26.16
2 18 2 330.27 29.72
2 18 2 308.33 27.05
2 18 3 174 21.67
2 -18 3 159.56 21.92
2 -18 3 183.59 19.24
2 18 3 163.69 21.64
2 -18 3 136.42 17
2 -18 4 444.99 37.76
2 -18 4 469.01 32.22
2 18 4 413.19 34.89
2 -18 4 412.35 30.31
2 -18 5 66.64 12.59
2 -18 5 61.1 14.72
2 -18 5 53.89 11.34
2 18 5 54.49 13.14
2 -18 6 75.97 14.14
2 -18 6 114.93 16.06
2 18 6 86.34 16.7
2 -20 -4 23.89 8.71
2 20 -4 25.77 9.8
2 -20 -3 444.4 32.57
2 -20 -3 441.09 36.41
2 20 -3 506.72 39.91
2 -20 -2 39.54 10.68
2 -20 -2 47.61 12.29
2 20 -2 39.02 9.06
2 20 -2 64.6 14.35
2 -20 -1 59.3 13.15
2 -20 -1 60.78 14.15
2 20 -1 85.57 14.18
2 20 -1 67.78 14.2
2 -20 0 12.65 8.28
2 -20 0 7.87 6.35
2 20 0 15.47 7.24
2 20 0 20.15 8.96
2 -20 1 64.37 14.33
2 -20 1 63.54 13.9
2 20 1 54.7 12.5
2 20 1 48.7 12.1
2 -20 2 56.55 13.63
2 20 2 43.3 11.61
2 -20 2 58.97 14.2
2 20 2 55.36 13.73
2 20 2 77.25 14.31
2 20 3 139.08 21.39
3 1 -12 169.08 23.05
3 -1 -12 157.39 21.37
3 1 -12 160.91 19.71
3 1 -12 165.97 21.34
3 -1 -12 152.1 21.04
3 1 -11 600.03 42.3
3 -1 -11 461.75 36.87
3 -1 -11 552.91 35.34
3 1 -11 536.24 36.22
3 -1 -11 495 37.23
3 1 -11 529.57 37.35
3 1 -10 27.87 8.41
3 -1 -10 52.27 10.58
3 -1 -10 53.37 11.87
3 1 -10 52.24 11.53
3 -1 -9 779.74 41.85
3 1 -9 807.85 44.13
3 -1 -9 786.66 35.47
3 1 -9 793.88 36.15
3 -1 -9 821.06 45.83
3 1 -9 862.34 45.69
3 1 -8 159.02 9.59
3 -1 -8 161.07 16.34
3 1 -8 171.39 17.64
3 -1 -8 140.08 13.07
3 1 -8 175.26 14.66
3 1 -7 748.8 26.24
3 -1 -7 763.32 38.13
3 1 -7 728.81 38.82
3 1 -7 772.26 35.22
3 -1 -7 758.77 34.71
3 -1 -6 745.28 35.92
3 -1 -6 734.19 35.93
3 -1 -6 740.77 33.73
3 1 -6 714.09 33.78
3 -1 -5 418.13 23.61
3 1 -5 406.8 24.6
3 1 -5 414.93 23.25
3 -1 -5 408.47 22.84
3 -1 -4 1226.11 43.21
3 1 -4 1113.51 40.9
3 -1 -4 1115.77 38.25
3 1 -4 1055.54 32.72
3 -1 -4 1116.43 35.03
3 1 -4 1107.68 37.06
3 1 -4 1200.78 45.98
3 -1 -4 1042.65 43.67
3 -1 -3 668.6 27.05
3 1 -3 641.15 25.13
3 1 -3 615.95 20.85
3 -1 -3 640.15 23.02
3 -1 -3 624.61 23.45
3 1 -3 613.4 24.45
3 -1 -3 661.69 27.53
3 1 -3 666.21 30.34
3 1 -3 667.61 29.52
3 -1 -3 666.77 29.53
3 -1 -2 4205.72 119.31
3 1 -2 4197.76 116.5
3 1 -2 4251.62 115.37
3 -1 -2 3952.57 118.35
3 1 -2 4149.73 119.58
3 1 -2 4276.14 119.26
3 -1 -2 4341.54 120.5
3 1 -2 4124.72 120.43
3 -1 -2 4087.66 121.93
3 -1 -2 4221.74 124.58
3 1 -2 4284.2 124.82
3 1 -1 1577.92 46.55
3 1 -1 1542.65 48.92
3 -1 -1 1637.12 50.28
3 1 -1 1585.98 49.19
3 -1 -1 1414.41 50.73
3 1 -1 1565.15 51.87
3 -1 -1 1674.17 53.4
3 -1 -1 1604.77 49.64
3 1 -1 1656.89 50.44
3 -1 -1 1549.1 51.97
3 1 -1 1683.39 49.78
3 -1 -1 1580.85 51.72
3 -1 -1 1657.21 55.18
3 1 -1 1734.88 55.59
3 1 0 888.78 33.37
3 1 0 865.26 27.2
3 -1 0 862.46 25.89
3 -1 0 872.63 28.78
3 1 0 890.58 33.48
3 1 0 868.64 31
3 -1 0 932.55 33.86
3 1 0 930.67 33.76
3 -1 0 870.66 28.08
3 1 0 863.74 29.03
3 1 0 875.08 31.53
3 1 0 869.95 31.04
3 -1 0 896.5 33.29
3 -1 0 939.41 35.1
3 1 0 926.61 34.67
3 -1 0 933.77 31.58
3 1 1 1213.19 42.38
3 1 1 1220.6 43.81
3 -1 1 1203.25 41.4
3 -1 1 1189.99 36.78
3 1 1 1183.04 41.01
3 -1 1 1302.41 43.76
3 1 1 1230.4 42.68
3 -1 1 1147.22 39.23
3 1 1 1214.67 42.4
3 1 1 1159.11 40.83
3 -1 1 1272.66 43.22
3 1 1 1146.72 35.6
3 -1 1 1226.38 42.76
3 1 1 1175.8 37.65
3 1 1 1239.73 42.82
3 -1 1 1254.75 44.83
3 -1 1 1239.91 38.52
3 -1 2 1484.63 47.72
3 1 2 1414.91 51.32
3 -1 2 1430.97 51.75
3 1 2 1524.88 47.4
3 1 2 1428.51 48.48
3 1 2 1474.1 50.71
3 1 2 1482.3 49.59
3 -1 2 1446.5 50.78
3 1 2 1269.34 39.21
3 -1 2 1516.05 51.75
3 -1 2 1447.25 47.95
3 1 2 1445.37 50.48
3 1 2 1401.96 46.79
3 -1 2 1386.9 48.64
3 -1 2 1462.47 42.2
3 1 2 1396.33 40.64
3 -1 3 857.72 32.07
3 1 3 855.4 36.47
3 -1 3 822.05 35.78
3 1 3 776.64 32.25
3 -1 3 835.25 31.12
3 1 3 731.81 23.13
3 1 3 770.39 33.88
3 1 3 850.36 35.87
3 -1 3 820.6 35.27
3 -1 3 810.96 34.79
3 1 3 746.41 33.49
3 1 3 794.71 28.98
3 -1 3 810.46 30.07
3 -1 4 290.19 14.94
3 1 4 272.07 19.78
3 -1 4 306.21 20.53
3 1 4 284.65 18.33
3 1 4 310.19 17.46
3 -1 4 271.86 19.69
3 -1 4 307.75 14.66
3 1 4 271.79 11.09
3 1 4 285.39 19.69
3 1 4 299.67 20.57
3 -1 4 305.75 20.28
3 1 4 298.84 18.67
3 1 4 282.7 13.34
3 1 5 594.22 27.43
3 1 5 617.1 33.27
3 -1 5 556.88 24.43
3 -1 5 558.61 32.31
3 1 5 665.27 34.17
3 -1 5 615.47 31.53
3 1 5 609.82 29.72
3 1 6 581.32 34.57
3 -1 6 545.67 33.97
3 1 6 669.55 36.55
3 -1 6 621.03 32.98
3 1 6 597.58 31.04
3 -1 7 424.91 29.49
3 -1 7 449.86 31.91
3 1 7 427.51 30.39
3 -1 7 479.29 29.47
3 1 7 484.06 28.06
3 1 8 372.94 29.38
3 -1 8 382.64 29.14
3 -1 8 407.89 31.57
3 -1 8 427.14 28.67
3 1 9 170.48 20.71
3 -1 9 179.7 20.76
3 1 9 204.52 23.29
3 -1 9 188.95 22.31
3 1 10 773.98 47.68
3 -1 10 774.13 46.52
3 1 10 726.15 48.89
3 -1 10 747.88 49.48
3 1 11 198.57 23.87
3 -1 11 222.57 24.41
3 1 11 237.16 27.88
3 -1 11 263.63 29.35
3 3 -12 153.11 22.24
3 -3 -12 150.47 20.03
3 3 -12 138.24 19.18
3 3 -12 161.51 20.24
3 3 -11 489.27 39.31
3 -3 -11 488.42 35.67
3 3 -11 572.24 38.73
3 -3 -11 510.04 38.42
3 3 -11 508.38 35.39
3 -3 -10 372.15 26.53
3 3 -10 342.15 29.38
3 3 -9 651.84 28.27
3 -3 -9 646.88 35.78
3 3 -9 655.17 40.49
3 -3 -9 665.3 31.4
3 3 -9 650 32.88
3 3 -9 760.73 40.83
3 -3 -8 29.42 6.95
3 3 -8 23.97 7.53
3 -3 -8 28.11 6.17
3 3 -8 31.57 6.6
3 -3 -8 23.19 7.66
3 -3 -7 716.59 38.95
3 -3 -7 775.39 37.52
3 3 -7 779.55 36.57
3 -3 -7 789.16 35.47
3 -3 -6 849.22 40.39
3 -3 -6 810.39 38.03
3 3 -6 850.35 41.93
3 3 -6 849.21 38.12
3 -3 -6 852.64 37.42
3 -3 -5 1215.09 49.03
3 -3 -5 1122.68 47.08
3 3 -5 1304.24 52.11
3 -3 -5 1220.5 47.48
3 3 -5 1208.19 48.27
3 -3 -4 934.55 37.39
3 -3 -4 847.28 26.93
3 3 -4 804.78 28.54
3 3 -4 854.89 38.46
3 -3 -3 258.89 15.89
3 3 -3 227.53 13.85
3 -3 -3 228.83 11.54
3 3 -3 224.07 11.85
3 3 -3 214.62 12.2
3 3 -3 233.07 16.54
3 -3 -3 229.3 16.13
3 3 -3 240.43 16.52
3 3 -2 6367.27 171.36
3 3 -2 6577.18 179.91
3 3 -2 6021.54 171.9
3 -3 -2 6137.22 176.55
3 3 -2 6204.36 173
3 -3 -2 6409.75 175.28
3 3 -2 6819.7 179.82
3 3 -2 5820.64 166.36
3 3 -2 6317.27 175.13
3 -3 -2 6329.32 174.09
3 -3 -2 6532.48 179.5
3 3 -1 1078.75 41.24
3 3 -1 1006.68 36.39
3 -3 -1 1037.2 38.36
3 3 -1 1002.66 36.98
3 3 -1 1066.69 38.36
3 -3 -1 1065.86 35.95
3 -3 -1 1084.33 40.07
3 3 -1 1094.37 32.67
3 -3 -1 1064.74 41.22
3 -3 -1 1076.37 38.47
3 3 0 2467.1 77.19
3 3 0 2538.78 79.03
3 3 0 2509.99 76.68
3 3 0 2570.41 76.05
3 3 0 2398.78 77.07
3 3 0 2489.35 77.85
3 -3 0 2471.64 77.07
3 3 0 2421.98 76.26
3 -3 0 2436.58 68.94
3 3 0 2532.41 71.37
3 -3 0 2368.46 77.89
3 -3 0 2578.35 79.35
3 -3 0 2514.44 79.19
3 3 0 2522.82 78.63
3 -3 0 2484.62 75.19
3 3 1 2311.15 64.09
3 -3 1 2378.8 71.11
3 3 1 2410.39 75.31
3 3 1 2131.62 74.18
3 3 1 2317.32 74.42
3 3 1 2430.41 72.87
3 3 1 2224.24 73.54
3 3 1 2427.12 70.35
3 -3 1 2417.3 76.03
3 -3 1 2517.22 77.29
3 -3 1 2443.82 75.65
3 3 1 2426.74 74.11
3 -3 1 2222.57 69.89
3 3 2 2131.29 61.62
3 -3 2 2086.56 64.89
3 3 2 2155.37 71.43
3 3 2 2234.17 67.84
3 3 2 2132.05 70
3 3 2 2150.06 67.39
3 -3 2 2133.26 71.51
3 -3 2 2038.57 68.1
3 -3 2 2166.83 71.88
3 3 2 2078.32 66.6
3 -3 2 2031.28 62.98
3 3 3 1129.94 38.4
3 -3 3 1122.37 39.16
3 -3 3 1143.76 45.42
3 3 3 1037.53 43.02
3 -3 3 1104.52 38.37
3 -3 3 1184.22 41.73
3 3 3 1152.82 46.01
3 -3 3 1164.1 46.42
3 3 3 1107.62 36.8
3 -3 3 1178.95 46.51
3 3 3 1154 39.31
3 3 3 1191.8 43.01
3 -3 3 1132.32 41.28
3 -3 4 105.89 6.58
3 3 4 82.95 10.23
3 3 4 106.7 10.74
3 3 4 106.67 7.75
3 3 4 102.8 11.78
3 -3 4 122.55 12.82
3 -3 4 115.33 12.34
3 3 4 105.25 10.06
3 3 4 93.98 7.05
3 3 5 512.94 26.89
3 3 5 462.48 27.83
3 3 5 462.29 20.72
3 3 5 513.62 25.34
3 3 5 540.57 30.83
3 -3 5 515.85 30.34
3 -3 5 486.59 28.93
3 3 5 492.51 24.94
3 3 6 907.89 40.57
3 -3 6 837.7 42.51
3 3 6 871.12 43.74
3 3 6 962.58 46.37
3 -3 6 903.5 45.77
3 3 6 934.73 37.4
3 -3 6 901.19 44.22
3 3 6 895.75 38.38
3 -3 7 311.39 24.18
3 3 7 293.47 25.01
3 -3 7 330.53 26.75
3 -3 7 295.37 24.03
3 -3 8 400.62 29.3
3 -3 8 381.13 31.2
3 -3 8 439.9 30.84
3 3 9 23.42 8.34
3 -3 9 15.71 7
3 3 9 6.92 5.1
3 -3 9 24.75 8.81
3 3 10 608.7 42.62
3 -3 10 548.53 37.55
3 -3 10 610.8 43.88
3 3 11 34.64 10.85
3 -3 11 15.06 7.06
3 3 11 11.67 9.11
3 -3 11 29.17 10.78
3 5 -12 186.39 23.19
3 -5 -11 236.74 23.17
3 5 -11 216.29 24.74
3 5 -11 280.47 24.27
3 -5 -10 26.39 6.61
3 5 -10 26.15 9.41
3 -5 -10 36.84 10.31
3 5 -10 30.14 8.05
3 5 -9 341.88 29.76
3 -5 -9 419.76 26.13
3 5 -9 422.97 26.32
3 -5 -9 389.18 31.47
3 5 -9 455.8 29.59
3 -5 -8 104.06 14.78
3 -5 -8 123.41 13.2
3 -5 -8 119.6 12.52
3 5 -8 108.01 12.71
3 -5 -8 115.9 15.95
3 -5 -7 742.01 40.94
3 -5 -7 765.95 36.45
3 5 -7 843.98 44.29
3 -5 -7 755.94 36.12
3 5 -7 803.17 38.4
3 -5 -6 408.79 26.84
3 -5 -6 419.15 24.5
3 5 -6 401.34 27.37
3 -5 -6 383.44 23.11
3 5 -6 394.97 24.84
3 -5 -5 994.16 44.55
3 -5 -5 1017.86 42.16
3 5 -5 1086.13 47.3
3 -5 -5 981.23 42.57
3 -5 -4 877.69 37.44
3 -5 -4 731.85 25.59
3 5 -4 893.1 38.81
3 -5 -4 672.16 33.78
3 5 -3 710.49 29.55
3 -5 -3 741.64 33.66
3 5 -3 714.31 28.49
3 -5 -3 765.23 30
3 5 -3 747.53 34.38
3 -5 -3 672.38 33
3 -5 -2 1064.67 40.94
3 5 -2 953.37 34.84
3 5 -2 903.87 36.54
3 5 -2 948.56 35.99
3 -5 -2 1029.05 37.23
3 5 -2 1030.94 40.87
3 -5 -2 1017.1 37.61
3 -5 -2 1052.3 38.39
3 -5 -2 989.31 41.25
3 5 -1 720.89 29.9
3 5 -1 704.02 27.7
3 5 -1 748.91 33.09
3 -5 -1 790.33 32.98
3 5 -1 730.67 26.15
3 5 -1 726.05 31.26
3 -5 -1 822.34 30.88
3 5 -1 830.15 32.46
3 -5 -1 767.22 33.25
3 -5 -1 703.72 33.29
3 5 -1 813.33 31.71
3 5 0 297.52 16.24
3 5 0 309.24 18.33
3 5 0 260.66 10.75
3 -5 0 324.85 17.28
3 5 0 297.24 15.89
3 5 0 264.91 15.67
3 -5 0 319.52 19.37
3 5 0 293.87 11.17
3 -5 0 303.46 18.58
3 -5 0 309.38 18.5
3 5 0 307.44 16.27
3 -5 0 296.29 16.41
3 5 1 1576.82 56.88
3 5 1 1698.34 53.78
3 -5 1 1546 57.94
3 5 1 1739.64 53.49
3 5 1 1623.34 50.33
3 -5 1 1599.24 58.56
3 -5 1 1679.61 59.14
3 -5 1 1601.99 53.71
3 5 1 1615.99 52.28
3 -5 2 12.61 2.69
3 5 2 18.22 2.69
3 5 2 18.34 3.9
3 -5 2 16.21 4.79
3 -5 2 27.59 5.88
3 5 2 19.86 3.27
3 -5 3 2597.59 74.97
3 5 3 2505.46 78.56
3 -5 3 2511.81 86.18
3 5 3 2470 77.99
3 -5 3 2638.15 87.15
3 5 3 2595.71 79.19
3 5 3 2524.69 77.94
3 -5 3 2528.63 77.61
3 5 3 2481.03 71.57
3 5 4 16.7 5
3 5 4 13.75 4.78
3 -5 4 5.52 3.86
3 5 4 7.97 2.87
3 -5 4 4.16 3.62
3 5 4 8.43 3.21
3 5 4 5.56 2.4
3 5 5 1328.35 55.38
3 5 5 1355.25 57
3 5 5 1378.03 48.99
3 5 5 1416.82 53.88
3 5 5 1337.48 58.34
3 -5 5 1365.22 58.53
3 -5 5 1505.08 60.4
3 5 5 1407.39 49.39
3 5 6 122.2 13.65
3 -5 6 75.91 11
3 5 6 67.2 11.08
3 5 6 99.97 13.81
3 5 6 80.4 10.31
3 -5 6 97.85 13.67
3 -5 6 87.08 12.83
3 -5 7 500.89 31.35
3 5 7 502.51 33.68
3 5 7 539.82 35.37
3 -5 7 587.23 37.07
3 -5 7 553.14 35.39
3 -5 8 285.16 23.69
3 -5 8 315.87 28
3 -5 8 341 27.85
3 -5 9 180.9 19.31
3 -5 9 220.06 24.51
3 -5 9 225.85 23.85
3 -5 10 297.09 30.4
3 5 10 389.79 33.11
3 7 -11 321.68 32.38
3 7 -11 243.46 27.3
3 -7 -11 308.09 30.89
3 -7 -10 570.11 34.4
3 7 -10 648.29 44.15
3 -7 -10 614.16 42.86
3 7 -10 662.88 36.02
3 -7 -9 126.51 18.16
3 -7 -9 133.36 13.49
3 7 -9 159.87 16.44
3 -7 -9 190.64 21.89
3 7 -9 171.76 16.79
3 -7 -8 538.55 36.89
3 7 -8 609.03 39.77
3 -7 -8 553.61 29.1
3 7 -8 567.79 32.95
3 -7 -8 532.95 36.8
3 -7 -7 173.03 18.82
3 -7 -7 167.25 14.47
3 7 -7 152.07 18.14
3 -7 -7 149.01 9.87
3 -7 -7 183.63 19.41
3 -7 -6 1450.63 60.76
3 -7 -6 1331.76 52.14
3 -7 -6 1330.53 55.18
3 7 -6 1425.46 61.82
3 -7 -6 1373 45.85
3 -7 -5 775.19 38.53
3 -7 -5 657.42 22.02
3 -7 -5 717.89 22.3
3 7 -5 749.35 38.7
3 -7 -5 698.14 34.98
3 -7 -5 672.13 27.55
3 -7 -4 652.51 34.34
3 -7 -4 638.89 33.19
3 7 -4 725.64 36.32
3 -7 -4 674.46 27.64
3 -7 -3 32.68 6.85
3 -7 -3 32.17 5.14
3 7 -3 37.9 7.2
3 -7 -3 40.6 5.72
3 -7 -2 1698.21 56.07
3 -7 -2 1702.42 64.42
3 7 -2 1746.88 57.44
3 -7 -2 1882.69 58.56
3 7 -2 1793.85 63.87
3 -7 -2 1874.47 66.41
3 -7 -2 1758.49 59.64
3 7 -1 75.99 6.75
3 -7 -1 69.13 9.21
3 7 -1 62.97 6.22
3 -7 -1 74.43 7.88
3 7 -1 91.58 9.46
3 -7 -1 76.87 10.09
3 -7 -1 83.7 9.98
3 -7 -1 84.03 8.95
3 7 0 448.89 17.99
3 7 0 502.82 25.17
3 -7 0 473.36 17.39
3 7 0 504.25 22.29
3 7 0 518.01 23.31
3 -7 0 521.85 27.22
3 7 1 2968.15 92.83
3 7 1 2917.3 87.83
3 7 1 3032.64 88.63
3 7 1 2985.34 84.08
3 -7 1 3005.03 96.66
3 -7 1 2852.09 95.69
3 7 1 2819.86 89.06
3 -7 2 1331.25 42.84
3 7 2 1427.62 51.73
3 7 2 1416.64 44.94
3 -7 2 1520.53 56.38
3 -7 2 1426.13 55.86
3 -7 3 1382.55 42.53
3 -7 3 1488.15 57.85
3 -7 3 1446.44 58.43
3 7 3 1412.85 46.03
3 7 4 384.51 25.64
3 7 4 463.11 27.7
3 7 4 366.32 24.47
3 -7 4 426.51 27.27
3 7 4 390.11 22.2
3 -7 4 402.09 27.18
3 7 4 365.27 18.96
3 7 5 564.96 33.34
3 7 5 557.73 33.73
3 -7 5 594.44 35.12
3 7 5 583.49 32.22
3 7 5 648.56 30.13
3 -7 5 547.64 35.13
3 7 6 1050.28 50.35
3 7 6 1041.2 51.5
3 7 6 998.63 51.86
3 -7 6 1115.86 53.53
3 7 6 1076.22 47.34
3 -7 6 1018.29 52.4
3 7 7 345.15 27.98
3 7 7 358.58 28.89
3 -7 7 303.49 27
3 -7 7 340.35 29.04
3 7 8 422.27 32.72
3 7 8 385.93 31.74
3 -7 8 389.2 31.81
3 -7 9 34.52 10.36
3 7 10 437.57 36.24
3 -7 10 384.35 34.43
3 9 -11 182.61 23.86
3 9 -10 37.28 11.71
3 -9 -10 42.43 11.45
3 -9 -9 530.32 39.25
3 9 -9 547.19 40.29
3 9 -9 571.69 34.41
3 -9 -9 527.5 38.78
3 -9 -8 6.72 4.95
3 -9 -8 10.89 3.79
3 9 -8 11.95 6.24
3 -9 -8 8.9 5.38
3 9 -8 9.38 4.34
3 -9 -7 916.07 50.12
3 -9 -7 934.21 39.4
3 9 -7 932.03 38.23
3 9 -7 952.22 52.16
3 -9 -7 962.42 50.28
3 -9 -6 51.87 10.27
3 -9 -6 51.72 7.69
3 9 -6 39.41 9.82
3 -9 -6 59.57 5.04
3 -9 -6 42.72 9.56
3 -9 -5 1150.01 52.15
3 -9 -5 1006.25 35.45
3 9 -5 1100.48 52.29
3 -9 -5 1092.56 36.82
3 -9 -5 1165.82 51.1
3 -9 -4 392.01 26.76
3 -9 -4 386.5 19.08
3 9 -4 437.59 28.2
3 -9 -4 373.02 18.77
3 -9 -3 710.93 37.96
3 -9 -3 760.52 29.93
3 9 -3 728.16 37.69
3 -9 -3 786.27 31.46
3 -9 -2 681.5 25.99
3 -9 -2 693.73 36.04
3 -9 -2 727.34 28.92
3 9 -2 734.65 34.69
3 -9 -2 672.33 30.62
3 9 -1 832.81 30.37
3 -9 -1 854.6 40.03
3 9 -1 723.36 34.61
3 -9 -1 853.5 39.55
3 -9 -1 813.54 35.59
3 -9 0 940.31 32.33
3 9 0 977.24 38.24
3 -9 0 1032.54 44.41
3 -9 0 953.68 41.54
3 9 1 1287.7 47.9
3 -9 1 1194.71 42.57
3 9 1 1310.11 44.38
3 -9 1 1281 52.72
3 -9 2 326.4 12.29
3 9 2 316.24 19.23
3 -9 2 348.54 23.66
3 9 2 309.05 18.66
3 9 3 1620.28 57.49
3 9 3 1700.59 66.13
3 9 3 1636.87 65.43
3 -9 3 1581.25 64.56
3 -9 3 1574.31 65.58
3 9 3 1591.89 54.75
3 9 4 194.1 18.73
3 9 4 181.87 17.93
3 9 4 206.86 16.88
3 -9 4 212.33 20.35
3 9 5 1145.02 54.07
3 9 5 1138.14 54.15
3 9 5 1147.54 52.27
3 9 5 1083.92 47.79
3 -9 5 1163.08 56.12
3 9 6 254.44 23.39
3 9 6 279.43 24.93
3 9 6 260.56 22.06
3 -9 6 265.44 25.06
3 9 7 461 33.39
3 9 7 393.03 31.55
3 -9 7 438.91 33.87
3 9 8 218.17 23.8
3 9 8 227.87 24.77
3 -9 8 249.88 25.22
3 -9 8 215.37 24.44
3 -9 9 115.96 18.41
3 -9 10 109.78 19.19
3 9 10 121.22 19.64
3 -11 -10 269.01 29.1
3 11 -10 259.16 29.55
3 11 -10 252.47 29
3 -11 -10 258.91 28.37
3 -11 -9 179.17 22.3
3 11 -9 174.32 23.04
3 11 -9 131.71 20.16
3 11 -9 165.93 18.92
3 -11 -9 171.47 21.96
3 -11 -8 472.05 36.13
3 11 -8 485.59 37.66
3 -11 -8 492.08 36.08
3 -11 -7 107.26 16.07
3 -11 -7 98.94 10.05
3 11 -7 91.91 15.25
3 11 -7 79.21 9.75
3 -11 -7 79.09 13.67
3 -11 -6 1083.95 54.36
3 -11 -6 1027.31 41.59
3 11 -6 1049.38 54.45
3 11 -6 1000.49 43.67
3 -11 -6 963.01 50.1
3 -11 -5 187.16 19.46
3 -11 -5 140.3 10.56
3 11 -5 159.74 15.44
3 11 -5 168.23 18.44
3 -11 -5 157.06 16.72
3 -11 -5 154.22 8.85
3 -11 -4 645.26 38.95
3 -11 -4 701.2 31.42
3 11 -4 676.56 35.75
3 11 -4 719.96 39.8
3 -11 -4 700.27 27.93
3 -11 -4 778.52 38.14
3 -11 -3 133.18 15.88
3 11 -3 144.14 15.22
3 11 -3 150.99 15.62
3 -11 -3 129.2 11
3 -11 -3 141.59 13.89
3 -11 -2 518.75 31.35
3 -11 -2 444 21.01
3 11 -2 447.78 28.51
3 11 -2 409.67 26.2
3 -11 -2 437.02 23.69
3 -11 -1 125.76 8.83
3 -11 -1 136.1 15.19
3 -11 -1 123.81 8.37
3 11 -1 124.91 12.66
3 -11 -1 129.75 12.53
3 -11 0 315.77 16.12
3 11 0 318.02 24.28
3 11 0 316.09 19.26
3 -11 0 370.02 23.4
3 -11 1 379.43 19.94
3 11 1 424.05 28.73
3 -11 1 420.24 26.83
3 11 2 1044.23 42.22
3 -11 2 1100.54 43.14
3 11 2 1183.16 54.06
3 11 2 1177.12 46.53
3 -11 2 1133.31 51.92
3 11 3 138.9 16.42
3 11 3 183.45 18.8
3 11 3 154.34 13.39
3 11 4 1030.29 53.56
3 -11 4 1083.32 52.54
3 11 4 1160.39 51.05
3 11 4 1170.86 55.15
3 -11 4 1202.2 57.04
3 11 5 145.95 18.1
3 11 5 178.89 20.03
3 11 5 179.21 19.12
3 -11 5 150.12 17.83
3 11 5 173.97 17.29
3 -11 5 189.61 21.08
3 11 6 889.52 49.24
3 11 6 864.86 49.03
3 11 6 861.17 43.36
3 11 6 875.49 46.72
3 -11 6 831.06 47.07
3 -11 6 758.06 47.88
3 11 7 303.79 28.42
3 -11 7 242.94 24.94
3 -11 7 280.1 27.99
3 11 8 269.77 27.89
3 11 8 344.84 31.22
3 -11 8 252.21 26.55
3 -11 8 325.09 31.21
3 11 9 10.97 7.17
3 -11 9 28.4 9.87
3 -13 -9 430.43 36.27
3 13 -9 475.04 38.7
3 13 -9 395.18 36.47
3 -13 -9 453.8 36.35
3 -13 -8 288.44 28.92
3 13 -8 292.91 28.72
3 13 -8 270.02 28.54
3 -13 -8 278.84 27.09
3 -13 -7 463.08 36.13
3 13 -7 515.13 38.26
3 -13 -7 481.92 34.66
3 -13 -6 288.83 26.72
3 13 -6 300.61 27.32
3 13 -6 246.63 19.75
3 -13 -6 259.37 23.64
3 -13 -5 500.57 35.68
3 -13 -5 515.32 25.1
3 13 -5 451.02 33.5
3 13 -5 481.97 30.14
3 -13 -5 548.06 33.15
3 -13 -4 249.04 18.38
3 13 -4 267.71 23.65
3 13 -4 289.92 22.76
3 -13 -4 296.37 22.01
3 -13 -4 274.94 14.57
3 -13 -3 892.89 47.79
3 -13 -3 865.35 40.42
3 13 -3 922.34 44.9
3 13 -3 777.99 42.42
3 -13 -3 817.06 34.69
3 -13 -2 204.67 21.07
3 13 -2 238.93 19.92
3 13 -2 247.63 21.88
3 -13 -2 241.46 17.59
3 -13 -1 731.62 41.64
3 -13 -1 724.2 27.87
3 13 -1 738.07 35.18
3 -13 -1 798.51 36.31
3 -13 0 224.02 21.59
3 -13 0 201.38 13.63
3 13 0 225.12 21.76
3 -13 0 213.11 19.97
3 -13 0 224.42 19.01
3 -13 1 510.51 25.62
3 13 1 569.38 36.25
3 -13 1 562.8 33.86
3 13 1 519.08 31
3 -13 1 524.71 32.48
3 13 2 108.84 14.92
3 -13 2 111.45 11.52
3 13 2 123.21 16.49
3 -13 2 128.84 15.58
3 13 2 119.1 13.39
3 -13 2 138.91 16.51
3 13 3 384.71 30.29
3 -13 3 423.04 25.52
3 -13 3 384.49 28.51
3 13 3 448.59 32.48
3 -13 3 413.02 30.79
3 13 4 212.94 22.45
3 13 4 178.69 20.23
3 13 4 174.51 18.52
3 -13 4 158.3 18.15
3 13 5 501.82 36.54
3 13 5 490.4 36.16
3 13 5 470.23 34.52
3 -13 5 448.66 33.07
3 13 5 502.42 33.14
3 -13 5 485.72 36.68
3 13 6 396.64 33.32
3 13 6 413.83 33.8
3 -13 6 373.32 30.32
3 -13 6 342.71 31.79
3 13 7 380.13 33.66
3 -13 7 390.87 32.22
3 -13 7 451.53 37.67
3 13 8 177.77 23.05
3 13 8 214.08 25.71
3 -13 8 232.67 25.11
3 -15 -8 256.93 27.2
3 -15 -8 273.1 29.06
3 15 -8 304.41 29.45
3 -15 -7 123.71 18.98
3 15 -7 112.75 18.61
3 -15 -6 404.43 33.48
3 15 -6 364.7 25.49
3 15 -6 361.35 31.74
3 -15 -5 137.28 19.27
3 15 -5 182.14 18.27
3 15 -5 135.22 18.36
3 -15 -4 393.5 32.37
3 15 -4 440.3 31.7
3 15 -4 394.82 29.05
3 -15 -4 438.61 26.66
3 -15 -3 270.93 25.81
3 -15 -3 253 21.18
3 15 -3 270.17 23.33
3 15 -3 243.89 23.02
3 -15 -2 418.94 24.42
3 -15 -2 434.64 33.09
3 -15 -2 427.06 29.37
3 15 -2 463.94 29.37
3 15 -2 438.46 31.9
3 -15 -2 396.88 24.14
3 -15 -1 146.96 11.88
3 -15 -1 163.39 19.64
3 15 -1 161.12 18.9
3 -15 -1 160.42 15.59
3 -15 0 527.49 25.99
3 -15 0 571.86 38.1
3 15 0 550.4 35.53
3 15 0 561.67 35.14
3 -15 0 491.41 31.22
3 15 1 4.08 4.52
3 -15 1 13.67 4.41
3 -15 1 22.63 7.45
3 15 1 22.36 8.26
3 15 1 13.9 6.19
3 -15 1 14.21 6.33
3 -15 2 535.06 29.67
3 15 2 602.26 40.1
3 -15 2 613.71 37.59
3 15 2 571.25 34.06
3 -15 2 581.83 37.24
3 15 3 50.42 11.6
3 -15 3 49.63 9.01
3 -15 3 55.21 11.25
3 15 3 40.17 10.5
3 -15 3 50.22 11.87
3 15 4 577.57 40.95
3 -15 4 661.28 36.19
3 15 4 673.84 43.74
3 15 4 613.71 39.58
3 -15 4 642.14 40.05
3 -15 4 617.65 42.44
3 15 5 46.69 11.78
3 -15 5 40.71 9.47
3 -15 5 36.5 10
3 15 5 46.89 10.98
3 -15 5 52.02 12.62
3 15 6 297.03 29.72
3 -15 6 274.5 26.38
3 15 7 47.13 12.9
3 -15 7 61.21 13.01
3 -17 -7 307.21 28.82
3 -17 -6 122.05 17.33
3 -17 -5 453.88 31.54
3 17 -5 402.48 30.18
3 -17 -4 63.95 11.23
3 -17 -4 64.17 13.98
3 17 -4 88.5 14.15
3 -17 -4 64.88 10.78
3 -17 -3 670.86 35.72
3 -17 -3 759.36 47.72
3 -17 -3 779.04 41.53
3 17 -3 715.6 43.61
3 17 -2 7.69 5.37
3 -17 -2 10.02 6.06
3 -17 -2 13.6 6.06
3 17 -2 2.25 4.97
3 17 -2 9.37 6.54
3 -17 -1 383.83 32.7
3 17 -1 377.97 29.78
3 -17 -1 394.36 30.92
3 17 -1 411.02 32.78
3 17 -1 377.24 31.08
3 -17 0 238.48 24.41
3 17 0 230.14 23.39
3 -17 0 229.18 24.88
3 17 0 207.19 22.15
3 -17 0 215.26 20.27
3 17 1 227.02 24.13
3 -17 1 207.17 23.98
3 17 1 246.71 26.13
3 17 1 229.63 22.81
3 -17 1 229.69 22.25
3 17 2 206.55 22.97
3 17 2 168.52 22.09
3 -17 2 151.11 18.5
3 -17 2 128.23 17.74
3 -17 3 151.53 15.97
3 -17 3 125.93 17.36
3 17 3 157.03 21.34
3 17 3 123.02 18.02
3 -17 3 171.71 21.22
3 17 4 113.15 18.48
3 -17 4 109.89 16.35
3 17 4 121.3 18.14
3 -17 4 128.77 15.7
3 17 5 335.46 32.29
3 -17 5 291.34 27.17
3 17 5 261.57 26.54
3 -17 5 307.15 25.35
3 17 6 19.89 8.43
3 -17 6 18.35 7.85
3 -19 -5 106.27 18.51
3 19 -4 89.71 16.98
3 -19 -3 257.34 23.78
3 19 -3 302.11 26
3 19 -3 316.79 30.9
3 -19 -2 169.93 20.07
3 19 -2 163.05 19.43
3 19 -2 200.03 24.2
3 19 -1 244.18 24.75
3 19 -1 205.92 24.24
3 -19 0 289.21 28.31
3 19 0 282.13 27.49
3 19 0 299.57 28.27
3 -19 1 98.12 17.51
3 19 1 86.42 15.77
3 19 1 83.06 14.87
3 19 2 339.63 31.51
3 -19 2 359.88 33.7
3 19 3 55.15 13.41
3 19 3 57.98 13.84
3 19 4 218.15 25.83
3 -19 4 234.05 24.29
3 -19 5 24.54 9.36
3 -21 -2 2.25 4.97
3 21 -1 346.68 30.29
3 -21 -1 366.23 32.05
3 21 0 208.51 24.09
4 0 -12 365.32 30.51
4 0 -11 2.2 4.34
4 0 -11 2.46 5.43
4 0 -10 1473.91 68.34
4 0 -10 1535.14 71.96
4 0 -9 -1.98 4.78
4 0 -9 1.4 3.37
4 0 -8 862.77 46.01
4 0 -8 880.87 42.15
4 0 -7 -1.69 3.33
4 0 -7 1.38 3.34
4 0 -6 204.02 17.53
4 0 -5 -1.01 2.44
4 0 -5 -0.52 1.55
4 0 -5 -1.41 2.78
4 0 -5 -2.58 2.85
4 0 -4 754.23 32.17
4 0 -4 801.79 38.21
4 0 -3 -1.15 2.26
4 0 -3 0.66 1.46
4 0 -3 -1.17 3.27
4 0 -2 3416.74 101.4
4 0 -2 3706.11 112.16
4 0 -2 3562.58 105.55
4 0 -2 3515.36 104.97
4 0 -2 3588.66 111.82
4 0 -1 1.06 2.35
4 0 -1 0.47 1.3
4 0 -1 0.72 1.59
4 0 -1 1.1 1.72
4 0 -1 -1.05 2.54
4 0 0 3531.92 97.55
4 0 0 3524.59 99.83
4 0 0 3383.21 100.96
4 0 0 3389.59 98.61
4 0 0 3713.76 105.53
4 0 0 3577.73 103.12
4 0 0 3506.71 108.76
4 0 1 0.45 1.17
4 0 1 1.71 1.89
4 0 1 -0.61 0.93
4 0 1 -0.52 1.84
4 0 2 3684.78 121.76
4 0 2 3923.26 113.21
4 0 2 3958.06 120.14
4 0 2 3965.64 121.99
4 0 2 3958.14 117.28
4 0 3 3.98 2.93
4 0 3 0.79 1.56
4 0 3 1.16 2.3
4 0 3 -1.2 2.64
4 0 3 3.22 2.51
4 0 4 429.43 27.27
4 0 4 369.63 24.83
4 0 4 394.39 24.97
4 0 4 408.3 20.07
4 0 5 1.67 2.85
4 0 5 0.87 2.1
4 0 5 -1.58 3.12
4 0 5 1.39 2.74
4 0 6 174.2 18.8
4 0 6 171.32 18.6
4 0 6 198.27 18.1
4 0 7 -2.08 4.58
4 0 7 1.63 4.54
4 0 8 208.22 22.45
4 0 8 217.53 23.62
4 0 9 2.6 4.44
4 0 10 616.64 42.85
4 0 10 547.7 42.49
4 -2 -12 2.53 4.32
4 2 -12 21.75 8.26
4 -2 -11 337.77 27.9
4 2 -11 343.84 30.55
4 -2 -11 373.11 32.84
4 2 -11 312.24 29.23
4 -2 -10 11.62 6.05
4 2 -10 13.73 6.39
4 -2 -10 12.16 7.2
4 2 -10 10.97 6.5
4 -2 -9 464.47 31.84
4 2 -9 439.34 33.32
4 -2 -9 511.46 29.5
4 2 -9 474.9 29.37
4 -2 -8 42.87 9.22
4 2 -8 55.03 11.23
4 -2 -8 50.58 9.51
4 2 -8 77.84 11.41
4 -2 -7 2345.37 73.71
4 -2 -7 2273.47 73.69
4 -2 -7 2305.9 70.99
4 2 -7 2389.72 72.68
4 -2 -6 273.7 20.31
4 2 -6 227.7 9.72
4 -2 -6 283.51 21.52
4 2 -6 307.15 23.23
4 -2 -6 239.92 19.14
4 2 -6 266.92 20.38
4 2 -5 1226.41 38.43
4 -2 -5 1350.31 51.61
4 -2 -5 1288.22 40.28
4 2 -5 1426.57 56.99
4 -2 -5 1331.75 53.36
4 2 -4 259 11.84
4 -2 -4 265.41 17.75
4 -2 -4 273.37 14
4 2 -4 250.53 15.4
4 2 -4 297.13 21.11
4 2 -4 272.79 19.98
4 -2 -3 2511.8 80.11
4 2 -3 2477.71 73.17
4 2 -3 2528.36 78.87
4 2 -3 2515.44 77.42
4 2 -3 2430.84 85.51
4 2 -3 2589.01 86.03
4 -2 -3 2469.48 84.93
4 2 -2 85.23 7.14
4 2 -2 79.22 5.58
4 2 -2 79.76 9.89
4 -2 -2 72.59 7.8
4 -2 -2 76.72 7.96
4 -2 -2 82.14 8
4 -2 -2 73.58 9.76
4 2 -2 70.43 9.19
4 2 -1 603.11 25.11
4 2 -1 633.97 19.26
4 2 -1 635.19 31.01
4 -2 -1 594.62 25.86
4 2 -1 546.1 24.47
4 -2 -1 575.05 27.83
4 2 -1 616.66 24.36
4 -2 -1 594.54 24
4 -2 -1 613.78 30.09
4 2 -1 601.98 29.96
4 2 0 61.08 8.39
4 2 0 51.43 3.24
4 -2 0 55.09 4.93
4 2 0 52.65 5.54
4 2 0 62.95 6.98
4 2 0 62.54 6.5
4 -2 0 66.14 8.03
4 -2 0 53.79 4.8
4 -2 0 54.82 8.03
4 2 0 45.39 7.18
4 -2 0 54.77 6.6
4 2 1 1874.67 64.75
4 -2 1 1694.32 56.41
4 2 1 1755.42 60.21
4 2 1 1847.93 62.24
4 2 1 1797.38 54.25
4 2 1 1918.7 60.11
4 -2 1 1854.61 63.55
4 2 1 1771.12 56.31
4 2 1 1927.16 63.92
4 -2 1 1797.74 63.85
4 -2 1 1861.46 66.42
4 -2 1 1827.27 57.7
4 2 2 74.92 9.97
4 2 2 83.37 8.4
4 2 2 74.21 9.36
4 2 2 77.68 8.84
4 -2 2 80.2 9.81
4 -2 2 85.46 10.43
4 -2 2 88.97 9.48
4 2 2 73.36 9.33
4 2 2 84.35 9
4 2 3 1529.55 59.51
4 -2 3 1546.81 59.23
4 2 3 1462.4 53.45
4 -2 3 1270.53 51.41
4 2 3 1504.36 58.15
4 2 3 1460.1 54.87
4 -2 3 1517.86 58.52
4 -2 3 1501.05 58.53
4 2 3 1545.3 56.75
4 2 3 1511.08 51.41
4 2 4 81.05 11.79
4 -2 4 104.11 12.72
4 2 4 85.64 10.22
4 -2 4 111.26 9.97
4 2 4 90.28 11.18
4 2 4 113.52 13.26
4 -2 4 84.26 11.59
4 -2 4 132.14 14.11
4 2 4 111.03 11.83
4 2 4 104.74 8.93
4 2 5 2610.9 87.32
4 2 5 2524.03 95.19
4 2 5 2547.52 89.72
4 2 5 2624.55 93.2
4 2 5 2733.27 96.17
4 -2 5 2689.08 95.49
4 -2 5 2694.69 93.86
4 2 5 2574.53 88.76
4 2 6 78.81 10.07
4 2 6 78.72 13.02
4 2 6 77.33 12.8
4 2 6 83.3 12.79
4 -2 6 94.27 13.96
4 2 6 84.66 11.22
4 -2 6 76.78 12.06
4 2 7 674.79 41.56
4 -2 7 608.11 38.68
4 2 7 654.59 40.27
4 -2 7 700.4 42.46
4 2 7 692.12 42.09
4 -2 7 627.79 38.01
4 -2 8 38.52 10.15
4 2 8 29.92 9.11
4 -2 8 26.22 8.83
4 -2 8 27.34 8.43
4 2 9 515.55 38.96
4 -2 9 510.22 36.98
4 2 9 530.09 39.18
4 -2 9 473.36 37.96
4 2 10 24.11 9.16
4 -2 10 16.79 7.49
4 2 10 2.79 5.52
4 -2 10 11.41 7.45
4 4 -11 95 16.67
4 4 -11 128.61 17.8
4 -4 -10 986.69 49.7
4 4 -10 1009.42 56.76
4 4 -10 1015.47 47.37
4 4 -10 1071.57 53.99
4 -4 -9 13.56 5.8
4 4 -9 2.3 4.55
4 -4 -9 9.82 4.99
4 4 -9 9.41 4.65
4 -4 -9 9.42 6.15
4 -4 -8 445.24 31.42
4 -4 -8 388.7 27.62
4 -4 -8 448.19 27.93
4 4 -8 450.34 28.97
4 -4 -7 143.44 16.31
4 -4 -7 147.15 15.66
4 4 -7 175.28 19.06
4 -4 -7 145.08 15.35
4 4 -7 183.11 17.46
4 -4 -6 365.13 25.39
4 -4 -6 337.03 24.13
4 4 -6 417.02 28.79
4 -4 -6 413.02 26.26
4 4 -6 398.95 26.49
4 -4 -5 217.13 17.81
4 4 -5 211.04 12.4
4 -4 -5 221.79 10.25
4 4 -5 261.77 21.16
4 -4 -5 240.86 19.31
4 -4 -4 437.59 25.78
4 4 -4 477.99 20.53
4 -4 -4 447.86 19.52
4 4 -4 495.73 29.2
4 4 -4 441.29 27.43
4 4 -3 151.91 10.44
4 -4 -3 141.36 12.6
4 -4 -3 144.66 13.01
4 4 -3 130 13.77
4 4 -3 119.74 13.18
4 4 -2 1901.39 62.56
4 -4 -2 1799.12 66.26
4 4 -2 1997.55 71.52
4 -4 -2 2056.1 67.91
4 4 -2 1991.91 70.21
4 4 -2 1985.72 58.1
4 -4 -2 1940.55 71.07
4 4 -2 2091.22 71.89
4 -4 -1 541.29 27.44
4 4 -1 570.26 29.42
4 -4 -1 544.13 26.33
4 4 -1 579.58 28.42
4 4 -1 523.94 22.51
4 -4 -1 543.8 22.9
4 -4 -1 545.42 28
4 4 -1 522.05 19.78
4 -4 -1 532.12 28.72
4 4 0 2630.25 83.08
4 4 0 2440.23 78.01
4 -4 0 2328.87 67.08
4 4 0 2405.57 76.08
4 4 0 2311.95 70.61
4 -4 0 2526.37 81.39
4 -4 0 2607.77 82.69
4 -4 0 2483.18 82.41
4 4 0 2411.76 81.2
4 4 1 624.38 31.44
4 4 1 690.06 31.21
4 4 1 691.52 27.39
4 -4 1 666.97 32.97
4 -4 1 710.39 34.42
4 -4 1 761.03 34.34
4 4 1 625.27 31.12
4 -4 1 735.6 28.94
4 4 2 3390.54 112.01
4 4 2 3624.1 111.23
4 4 2 3431.05 105.63
4 -4 2 3381.16 112.65
4 -4 2 3793.07 111.34
4 -4 2 3409.8 113.85
4 4 2 3553.94 108.53
4 4 3 59.8 9.52
4 4 3 54.03 8.2
4 -4 3 56.99 9.32
4 -4 3 70.85 8.9
4 4 3 51.12 8.61
4 4 3 58.26 5.89
4 4 3 56.47 7.91
4 4 3 54.42 7.26
4 -4 3 67.96 10.37
4 4 3 51.36 7.76
4 4 4 897.45 43.29
4 4 4 803.34 38.44
4 4 4 823.2 41.36
4 4 4 816.11 38.41
4 -4 4 837.06 42.25
4 -4 4 803.21 41.38
4 4 4 845.49 37.28
4 4 4 807.21 32.27
4 4 5 62.46 11.1
4 4 5 64.2 9.64
4 4 5 62.75 9.88
4 -4 5 52.81 10.53
4 4 5 41.31 9.11
4 4 5 67.83 10.5
4 -4 5 59.24 10.54
4 4 5 62.62 9.05
4 4 6 254.09 20.36
4 4 6 268.03 24.43
4 -4 6 266.32 22.82
4 4 6 285.53 23.12
4 4 6 264.6 22.55
4 4 6 307.49 25.83
4 -4 6 278.42 24.61
4 -4 6 294.4 24.54
4 4 7 73.27 13.67
4 -4 7 85.64 13.57
4 4 7 98.05 15.2
4 4 7 89.79 14.08
4 -4 7 70.53 13.22
4 -4 7 76.96 13.12
4 4 8 180.6 22.12
4 -4 8 212.97 21.88
4 4 8 181.22 21.21
4 -4 8 244.58 25.35
4 4 8 203.49 22.97
4 -4 8 160.23 19.88
4 -4 9 130.28 17.96
4 4 9 114.13 18.56
4 4 9 121.26 18.43
4 -4 9 128.67 19.52
4 4 10 406.5 35.62
4 4 10 391.72 35.21
4 -4 10 386.67 35.68
4 6 -11 43.76 11.81
4 -6 -11 41.77 12.34
4 6 -10 31.51 10.39
4 6 -10 31.32 8.17
4 -6 -10 42.11 12.21
4 6 -10 26.17 8.08
4 -6 -9 230.46 23.91
4 -6 -9 215.83 19.06
4 -6 -9 214.18 19.47
4 6 -9 268.2 22.56
4 -6 -9 205.5 23.27
4 -6 -8 43.26 10.24
4 -6 -8 60.45 10.19
4 6 -8 61.56 12.59
4 -6 -8 48.47 9.42
4 6 -8 44.37 9.61
4 -6 -8 40.28 10.66
4 -6 -7 1207.68 59.62
4 -6 -7 1318.96 55.94
4 6 -7 1416.64 64.51
4 -6 -7 1354.15 57.49
4 6 -7 1435.49 60.34
4 -6 -6 481.31 30.97
4 -6 -6 418.56 26.92
4 6 -6 466.92 31.95
4 -6 -6 483.16 29.7
4 6 -6 438.26 29.44
4 -6 -5 1207.78 53.55
4 -6 -5 1223.94 38.28
4 6 -5 1293.16 56.97
4 -6 -5 1241.66 53.77
4 -6 -4 516.5 30.01
4 6 -4 508.31 31.01
4 -6 -3 1699.02 59.55
4 6 -3 1877.79 67.29
4 -6 -3 1706.32 66.19
4 -6 -3 1745.44 61.39
4 -6 -2 310.39 18.97
4 -6 -2 325.18 21.52
4 6 -2 313.74 21.26
4 -6 -2 346.11 23.34
4 -6 -2 307.33 19.99
4 6 -1 442.37 25.97
4 6 -1 411.63 20.7
4 -6 -1 414.42 24.65
4 6 -1 414.34 23.81
4 -6 -1 488.71 27.95
4 -6 -1 432.08 25.73
4 -6 -1 384.45 23.63
4 6 0 32.51 6.55
4 6 0 41.67 6.43
4 -6 0 27.4 2.02
4 -6 0 30.2 2.16
4 -6 0 24.01 5.9
4 6 0 40.27 6.46
4 6 0 34.01 3.25
4 -6 0 20.92 5.96
4 -6 1 341.99 17.75
4 6 1 307.87 20.45
4 6 1 364.17 22.74
4 6 1 336.24 19.2
4 6 1 315.92 15.44
4 -6 1 359.79 23.34
4 -6 1 343.55 22.97
4 -6 1 405.95 24.88
4 -6 2 217.99 13.2
4 6 2 211.57 17.38
4 -6 2 178.87 16.03
4 6 2 232.15 14.53
4 6 2 200.3 13.27
4 -6 2 212.5 18.29
4 -6 2 214.02 18.47
4 6 2 214.09 16.24
4 -6 3 605.91 24.55
4 6 3 535.69 31.69
4 6 3 510.99 23.74
4 6 3 626.3 33.29
4 6 3 517.88 26.74
4 -6 3 618.61 34.17
4 -6 3 602.89 34.28
4 6 3 577.07 28.62
4 6 3 598.64 28.19
4 6 4 35.29 7.72
4 6 4 26.27 6.64
4 -6 4 33.62 7.99
4 6 4 27.55 7.54
4 6 4 35.64 7.07
4 -6 4 22.18 7.38
4 6 4 29.6 6.09
4 6 5 1814.33 70.43
4 6 5 1659.29 69.61
4 6 5 1832.85 69.51
4 6 5 1785.5 73.5
4 -6 5 1779.49 73.99
4 -6 5 1749.19 73.54
4 6 6 268.56 22.37
4 6 6 245.37 22.27
4 6 6 236.62 23.25
4 6 6 259.71 20.58
4 -6 6 238.91 23.38
4 -6 6 244.12 23.63
4 6 7 1101.34 52.41
4 6 7 1061.35 54.34
4 6 7 1052.24 56.11
4 -6 7 1057.97 56.35
4 -6 7 1033.84 55.55
4 6 8 74 14.66
4 -6 8 126.18 18.45
4 6 8 84.26 15.45
4 -6 8 95.11 16.26
4 6 9 713.23 48.12
4 6 9 666.4 45.18
4 6 9 683.03 46.7
4 -6 9 725.68 48.27
4 -6 9 735.79 47.26
4 6 10 100.3 17.93
4 -8 -10 389.44 34.53
4 -8 -9 99.68 16.4
4 8 -9 79.17 15.54
4 8 -9 70.87 12.65
4 -8 -9 68.06 14
4 8 -9 84.7 12.59
4 -8 -8 91.71 15.07
4 -8 -8 133.55 14.35
4 8 -8 95.73 15.94
4 8 -8 116.16 15.72
4 -8 -8 97.43 15.94
4 -8 -7 224.88 22.37
4 -8 -7 235.5 20.77
4 -8 -7 212.67 18.32
4 8 -7 251.89 24.77
4 -8 -7 202.3 13.65
4 8 -7 215.92 21.07
4 -8 -7 238.04 23.48
4 -8 -6 244.12 22.43
4 -8 -6 241.99 19.56
4 -8 -6 257.28 21.71
4 8 -6 250.95 23.89
4 -8 -6 231.67 15.34
4 -8 -5 157.64 17.06
4 8 -5 150.59 17.4
4 -8 -5 125.9 15.24
4 -8 -5 141.43 12.18
4 -8 -4 554.37 32.91
4 8 -4 513.74 32.5
4 -8 -4 554.67 27.25
4 -8 -3 756.4 39.13
4 8 -3 717.48 38.1
4 -8 -3 762.15 39.98
4 -8 -3 733.29 33.69
4 -8 -2 1071.17 41.89
4 -8 -2 1123.84 49.81
4 8 -2 1146.11 48.27
4 -8 -2 1147.52 51.45
4 -8 -2 1094.65 45.36
4 8 -1 487.83 23.24
4 -8 -1 526.22 30.35
4 8 -1 542.67 28.45
4 -8 -1 482.64 30.44
4 -8 -1 538.8 31.17
4 -8 -1 542.99 29.12
4 8 0 1248.49 45.51
4 8 0 1296.4 50.35
4 8 0 1320.06 47.06
4 -8 0 1250.69 52.15
4 -8 0 1239.31 50.19
4 8 1 586.86 29.81
4 8 1 576.98 30.66
4 8 1 566.01 26.54
4 -8 1 519 31.63
4 -8 2 1607.92 51.04
4 8 2 1599.68 61.02
4 -8 2 1538.29 64.84
4 -8 2 1583.71 64.97
4 8 3 139.84 13.97
4 -8 3 135.66 15.59
4 -8 3 106.86 14.41
4 8 4 775.78 40.42
4 8 4 705.43 39.6
4 8 4 665.42 38.16
4 -8 4 698.23 39.94
4 -8 4 728.54 41.6
4 8 5 273.15 23.14
4 8 5 253.82 22.64
4 8 5 238.68 22.78
4 8 5 223.55 20.59
4 -8 5 232.81 22.62
4 -8 5 271.98 24.83
4 8 6 302.36 25.33
4 8 6 258.83 24.38
4 8 6 207.2 22.63
4 -8 6 274.35 25.48
4 8 6 290.15 23.29
4 -8 6 296.46 27.06
4 8 7 2.21 4.88
4 8 7 6.19 4.98
4 -8 7 -4.76 5.25
4 8 7 2.39 3.33
4 -8 7 9.73 6.79
4 8 8 237.06 25.37
4 8 8 248.29 26.41
4 -8 8 243.15 26.29
4 -8 8 240.62 26.3
4 8 9 123.26 19.8
4 8 9 105.16 18.33
4 -8 9 100.75 17.84
4 -10 -10 102.07 18.04
4 10 -10 96.56 18.22
4 -10 -10 107.55 18.64
4 -10 -9 158.12 21.34
4 10 -9 173.76 23.18
4 10 -9 181.84 20.58
4 -10 -9 129.38 20.21
4 -10 -8 101.76 16.55
4 10 -8 91.51 16.88
4 10 -8 72.16 13.39
4 -10 -8 102.53 16.63
4 -10 -7 740.36 44.91
4 -10 -7 686.36 35.54
4 10 -7 761.64 46.93
4 -10 -7 670.94 42.55
4 -10 -6 285.67 25.94
4 10 -6 292.14 26.7
4 -10 -6 277.39 24.68
4 -10 -5 1059.72 53.33
4 -10 -5 1042.14 38.51
4 10 -5 1140.26 55.69
4 -10 -5 1096.23 41.17
4 -10 -4 396.62 29.36
4 10 -4 430.2 29.76
4 -10 -4 390.27 22.08
4 -10 -3 968.21 47.94
4 10 -3 956.78 45.79
4 -10 -3 886.45 39.3
4 -10 -2 421.91 29.34
4 10 -2 477.78 28.59
4 -10 -2 467.16 26.63
4 -10 -1 407.86 21.46
4 -10 -1 410.3 28.09
4 10 -1 432.23 25.46
4 -10 -1 375.76 27.09
4 -10 -1 374.06 24.68
4 10 0 49.24 7.45
4 -10 0 51 3.76
4 -10 0 67.53 11.11
4 10 0 60.85 8.4
4 -10 0 60.62 9.86
4 10 1 182.24 15.41
4 10 1 173.66 15.52
4 -10 1 163.76 10.48
4 -10 1 196.9 18.89
4 -10 1 177.32 17.7
4 10 2 103.93 11.96
4 -10 2 90.78 13.29
4 10 2 116.91 11.41
4 10 3 184.09 16.01
4 10 3 171.69 18.62
4 -10 3 152.73 17.74
4 -10 3 204.1 20.44
4 10 4 400.12 29.66
4 10 4 387.22 29
4 -10 4 391.76 29.82
4 10 4 365.7 24.36
4 -10 4 389.47 30.34
4 10 5 692.58 42.51
4 10 5 657.65 41.21
4 10 5 710.34 41.02
4 -10 5 617.68 40.24
4 -10 5 664.92 42.88
4 10 6 836 49.43
4 10 6 935.7 51.94
4 10 6 1030.3 51.1
4 10 6 909.96 52.42
4 -10 6 974.2 54.77
4 10 7 627.16 41.45
4 10 7 598.64 41.55
4 10 7 541.01 40.66
4 -10 7 649.16 44.44
4 10 8 489.3 37.95
4 10 8 486.35 38.79
4 -10 8 497.46 38.69
4 -10 8 517.36 41.03
4 -10 9 332.73 32.04
4 -12 -9 109.96 18.72
4 12 -9 131.51 20.68
4 12 -9 135.61 18.67
4 -12 -9 159.6 21.87
4 -12 -8 91.26 16.52
4 12 -8 121.62 19.3
4 -12 -8 123.69 18.29
4 -12 -7 120.22 18.03
4 12 -7 110.59 17.82
4 12 -7 111.47 13.23
4 -12 -7 111.11 16.52
4 -12 -6 124.94 17.64
4 12 -6 139.5 18.76
4 12 -6 105.61 13.61
4 -12 -6 104.71 15.55
4 -12 -5 181.94 21.18
4 -12 -5 204.22 14.2
4 12 -5 198.21 19.19
4 12 -5 204.76 21.81
4 -12 -5 220.11 20.97
4 -12 -4 417.56 31.5
4 12 -4 400.59 29.95
4 -12 -4 385.01 21.84
4 -12 -4 416.28 27.8
4 -12 -3 564.9 37.11
4 12 -3 548.92 34.17
4 -12 -3 545.24 28.77
4 -12 -2 668.25 40.54
4 12 -2 696.54 37.25
4 -12 -2 675 34.36
4 -12 -1 509.7 23.78
4 -12 -1 506.29 34.28
4 12 -1 524.51 29.88
4 -12 -1 531.66 30.75
4 -12 0 1084.72 54.27
4 -12 0 1049.04 34.19
4 12 0 1146.77 55.97
4 -12 0 1168.32 54.72
4 -12 0 1179.8 51.77
4 -12 1 445.57 20.63
4 12 1 513.09 34.21
4 -12 1 439.37 31.3
4 -12 1 495.55 31.85
4 -12 2 329.7 18.86
4 12 2 311.76 27.03
4 -12 2 354.45 27.78
4 12 3 220.78 22.69
4 12 3 217.78 22.53
4 12 4 82.79 14.3
4 12 4 82.69 12.1
4 12 5 147.4 19.54
4 12 5 105.47 16.42
4 -12 5 108.27 16.17
4 12 5 120.99 16.93
4 -12 5 96.87 16.34
4 12 6 64.24 13.42
4 12 6 73.51 14.36
4 -12 6 52.84 12.38
4 12 6 52.73 11.75
4 -12 6 29.31 10.27
4 12 7 15.61 7.71
4 12 7 18.17 7.69
4 -12 7 10.19 6.66
4 12 7 10.8 6.54
4 -12 7 19.86 8.86
4 12 8 205.34 25.29
4 12 8 216.66 26.29
4 -12 8 182.2 23.62
4 -12 8 194.52 25.58
4 -14 -8 361.22 33.3
4 14 -8 345.23 33.8
4 -14 -8 365.21 32.06
4 -14 -7 201.81 24.37
4 14 -7 177.88 23.25
4 -14 -6 634.89 44
4 14 -6 711.31 45.54
4 14 -6 629.49 37.31
4 -14 -5 451.05 35.39
4 14 -5 452.76 34.32
4 14 -5 393.24 29.45
4 -14 -4 766.22 46.5
4 -14 -4 687 35.48
4 14 -4 734.79 43.26
4 14 -4 703.88 41.85
4 -14 -3 269.91 26.06
4 14 -3 296.34 24.79
4 14 -3 294.39 26.06
4 -14 -3 292.84 19.93
4 -14 -2 511.02 36.28
4 14 -2 460.32 30.1
4 14 -2 454.24 33.48
4 -14 -2 496.14 29.11
4 -14 -1 124.64 17.59
4 -14 -1 122.28 14.68
4 -14 0 116.04 16.76
4 14 0 107.42 16.06
4 14 1 168.09 20.31
4 -14 1 174.25 19.72
4 14 1 171.44 17.63
4 -14 1 180.01 19.61
4 14 2 128.09 17.37
4 -14 2 82.63 9.48
4 -14 2 93.17 15.29
4 14 2 129.81 18.08
4 -14 2 115.67 16.28
4 14 3 236.12 24.79
4 -14 3 235.62 17.54
4 -14 3 181.78 21.09
4 14 3 216.57 23.97
4 -14 3 245.18 24.72
4 14 4 388.72 32.93
4 -14 4 381.89 25.28
4 14 4 410.02 33.57
4 -14 4 433.48 33.62
4 -14 4 439.3 35.03
4 14 5 293.69 29.12
4 14 5 326.23 30.09
4 14 5 263.19 27.03
4 -14 5 302.81 28.3
4 14 6 453.8 37.22
4 14 6 391.35 34.58
4 14 6 452.63 35.45
4 -14 6 406.14 33.96
4 -14 6 396.3 36.03
4 14 7 163.97 23.23
4 14 7 171.41 23.68
4 -14 7 176.98 22.84
4 -14 7 187.13 24.62
4 -16 -7 25.46 9.7
4 16 -7 33.53 11.72
4 -16 -6 101.62 17.84
4 16 -6 148.14 20.91
4 16 -5 23.86 8.49
4 16 -5 11.94 5.89
4 -16 -4 131.04 19.3
4 16 -4 144.77 18.4
4 16 -4 117.49 16.94
4 -16 -3 321.2 30.1
4 -16 -3 284.63 23.79
4 16 -3 272.51 26.16
4 -16 -2 283.01 28.13
4 -16 -2 274.15 24.52
4 16 -2 291.24 27.59
4 -16 -2 307.9 22.09
4 -16 -1 756.12 47.52
4 16 -1 680.39 44.75
4 -16 -1 697.47 38.35
4 -16 0 463.5 36.36
4 16 0 427.04 33.46
4 16 0 457.85 32.5
4 -16 0 409.17 30
4 -16 1 742.44 48.55
4 16 1 796.56 49.81
4 -16 1 727.19 45.65
4 -16 1 819.12 45.99
4 -16 2 127.97 18.15
4 16 2 151.96 20.86
4 -16 2 157.15 19.8
4 16 3 439.87 36.66
4 16 3 530.54 39.94
4 -16 3 546.47 38.35
4 -16 3 491.43 37.39
4 16 4 16.3 8.05
4 -16 4 14.44 7.13
4 16 4 13.5 8
4 -16 4 26.4 9.4
4 16 5 56.76 13.84
4 16 5 68.72 15.21
4 -16 5 64.53 13.76
4 16 5 103.23 18.27
4 -16 5 73.62 15.41
4 -16 6 38.36 11.33
4 -18 -5 31.48 11.33
4 18 -5 40.12 10.46
4 -18 -4 453.28 38.45
4 18 -4 459.73 34.88
4 -18 -3 109.72 19.06
4 18 -3 119.1 18.19
4 -18 -2 214.6 25.61
4 18 -2 212.05 23.29
4 -18 -2 226.23 22.95
4 18 -2 183.49 22.81
4 18 -2 170.18 22.01
4 -18 -1 30.56 10.63
4 18 -1 28.36 9.05
4 -18 -1 13.81 6.84
4 18 -1 23.83 9.06
4 18 -1 21.34 8.77
4 18 0 56.92 13
4 18 0 44.51 10.86
4 -18 0 54.99 11.01
4 -18 1 84.34 16.3
4 18 1 67.12 14.33
4 18 1 87 16.74
4 -18 1 78.89 13.94
4 -18 2 82.97 17.02
4 18 2 140.09 20.34
4 18 2 146.22 21.42
4 -18 2 160.26 20.67
4 18 3 26.23 9.98
4 -18 3 19.56 8.38
4 18 3 19.74 8.8
4 -18 3 30.76 10.13
4 -18 4 393.41 33.53
4 20 -3 156.93 19.69
4 20 -2 63.41 13.41
4 -20 -1 559.52 40.2
4 20 -1 520.18 38.9
4 20 -1 520.09 39.58
4 20 0 2.6 5.14
5 -1 -11 111.47 17.28
5 1 -11 127.49 19.2
5 -1 -11 104.29 18.16
5 1 -11 140.45 19.92
5 -1 -10 99.55 16.01
5 1 -10 106.19 17.04
5 1 -10 99.01 13.94
5 -1 -10 104.8 17.85
5 -1 -9 36.74 10.04
5 1 -9 41.27 10.64
5 -1 -9 31.18 8.06
5 1 -9 29.74 8.32
5 -1 -8 509.95 35.65
5 1 -8 505.03 36.09
5 1 -8 522.7 33.52
5 -1 -7 505.06 33.94
5 -1 -7 540.67 33.38
5 1 -7 508.31 32.72
5 -1 -6 589.8 31.61
5 1 -6 598.81 37.07
5 1 -6 557.01 34.08
5 -1 -6 578.1 34.36
5 -1 -5 669.59 32.19
5 -1 -5 611.49 26.43
5 -1 -5 660.03 37.5
5 1 -5 658.6 37.57
5 -1 -4 313.62 19.12
5 1 -4 295.49 17.41
5 1 -4 350.61 25.01
5 -1 -4 331.51 24.24
5 1 -4 334.79 24.55
5 -1 -3 2328.13 72.95
5 1 -3 2140.43 68.49
5 1 -3 2239.3 82.23
5 -1 -3 2276.56 82.23
5 1 -3 2321.45 83.1
5 -1 -2 47.7 6.28
5 1 -2 59.63 5.55
5 1 -2 56.01 9.28
5 -1 -2 49.62 8.62
5 1 -2 45.48 8.52
5 -1 -1 816.01 38.89
5 1 -1 836.25 39.42
5 -1 -1 733.59 29.63
5 -1 -1 726.81 33.71
5 1 -1 673.07 30.82
5 -1 -1 767.71 37.8
5 1 -1 796.93 38.32
5 1 0 478.45 28.76
5 -1 0 460.68 21.41
5 -1 0 461.96 20.26
5 1 0 447.85 21.89
5 1 0 456.05 23.7
5 -1 0 492.42 25.98
5 -1 0 498.93 28.24
5 1 0 494.75 28.1
5 1 1 891.38 32.16
5 -1 1 798.82 32.8
5 1 1 837.28 36.6
5 -1 1 901.5 39.19
5 -1 1 836.76 39.28
5 -1 1 943.2 42.9
5 1 1 868.87 39.46
5 1 2 786.16 39.82
5 1 2 750.11 31.25
5 1 2 797.95 36.4
5 -1 2 712.86 36.44
5 -1 2 775.26 39.46
5 -1 2 761.92 36.48
5 1 2 853.48 40.43
5 1 2 881.42 37.66
5 1 3 58.42 10.27
5 1 3 61 7.87
5 1 3 69.92 9.98
5 -1 3 70.43 10.56
5 1 3 71.35 9.25
5 -1 3 78.95 11.56
5 1 3 63.13 10.29
5 -1 3 63.04 9.03
5 1 4 1363.8 60.79
5 -1 4 1252.27 58.83
5 1 4 1334.9 56.97
5 -1 4 1351.84 58.36
5 -1 4 1453.74 60.24
5 1 4 1316.59 57.02
5 1 5 448.67 32.45
5 -1 5 483.18 33.23
5 1 5 484.01 31.53
5 -1 5 450.35 31.35
5 -1 5 463.82 30.91
5 1 5 460.92 29.89
5 1 6 497.15 35.41
5 -1 6 546.95 36.65
5 1 6 406.09 31.32
5 -1 6 528.35 35.75
5 -1 6 505.67 33.56
5 1 6 550.14 33.42
5 1 7 237.42 24.59
5 1 7 186.2 21.33
5 -1 7 239.03 24.49
5 -1 7 241.76 22.87
5 -1 8 83.65 15.34
5 1 8 93.51 16.09
5 -1 8 96.3 16.75
5 1 9 295.31 30.36
5 -1 9 398.69 33.89
5 1 9 333.45 32.07
5 -1 9 416.23 36.14
5 -3 -11 187.65 21.19
5 3 -11 173.46 23.02
5 3 -11 204.3 23.63
5 -3 -10 536.64 36.27
5 3 -10 455.62 36.99
5 3 -10 497.36 32.45
5 -3 -9 44.85 10.33
5 3 -9 60.82 13.2
5 -3 -9 59.03 10.9
5 3 -9 36.47 8.9
5 -3 -8 1095.52 55.67
5 -3 -8 1205.94 55.04
5 3 -8 1159.01 55.05
5 -3 -7 114.47 14.32
5 -3 -7 109.16 15.06
5 3 -7 88.39 14.32
5 -3 -7 92.17 13.65
5 3 -7 100.94 14.14
5 -3 -6 698.49 36.17
5 -3 -6 635.61 37.57
5 3 -6 653.17 39.4
5 -3 -6 643.39 37.15
5 3 -6 589.71 36.5
5 -3 -5 615.7 32.4
5 3 -5 682.3 38.32
5 -3 -4 568.68 29.61
5 3 -4 563.83 22.99
5 3 -4 616.64 35.38
5 -3 -4 598.8 34.75
5 3 -4 607.85 34.96
5 -3 -3 1600.25 57.72
5 3 -3 1539.6 51.43
5 -3 -3 1585.99 61.97
5 3 -3 1591.1 64.25
5 3 -3 1571.94 64.8
5 -3 -3 1557.97 64.13
5 -3 -2 142.52 14.34
5 3 -2 161 16.2
5 -3 -2 143.74 12.53
5 3 -2 149.46 15.38
5 -3 -2 154.09 15.9
5 3 -2 172.91 16.58
5 3 -1 992.69 46.49
5 -3 -1 1070.06 40.72
5 -3 -1 923.93 42.16
5 3 -1 982.1 36.08
5 -3 -1 978.91 45.54
5 3 -1 1044.01 46.14
5 3 0 651.01 34.72
5 -3 0 655.37 29.44
5 -3 0 566.29 21.78
5 3 0 631.33 28.59
5 3 0 631.01 26.71
5 -3 0 578.7 31.26
5 -3 0 628.35 33.56
5 -3 0 685.59 35.19
5 3 0 590.64 32.55
5 3 1 1057.43 45.9
5 -3 1 971.67 35.62
5 3 1 974.3 42.19
5 3 1 986.47 39.37
5 -3 1 1024.91 45.29
5 -3 1 1024.45 45.51
5 -3 1 1068.89 47.78
5 3 1 1086.47 45.52
5 3 2 760.93 39.71
5 3 2 790.96 34.65
5 3 2 827.11 39.03
5 3 2 820.35 35.93
5 -3 2 784.16 40.08
5 -3 2 881.67 42.67
5 -3 2 797.75 38.52
5 3 2 858.85 38.1
5 3 3 214.43 19.52
5 3 3 197.7 15.63
5 3 3 191.15 17.93
5 3 3 181.51 15.76
5 -3 3 213.33 19.13
5 -3 3 193.86 16.23
5 -3 3 203.01 19.25
5 3 3 204.5 15.71
5 3 3 173.12 16.64
5 3 4 1440.49 63.42
5 3 4 1349.38 55.93
5 3 4 1392.34 61.83
5 3 4 1446.96 58.69
5 -3 4 1388.45 61.99
5 -3 4 1517.46 64.02
5 3 4 1484.65 59.57
5 3 5 95.83 14.63
5 3 5 129.99 14.39
5 3 5 98.36 12.38
5 -3 5 107.05 15.13
5 3 5 106.66 15.08
5 3 5 87.36 12.9
5 -3 5 128.44 16.05
5 3 5 107.44 13.62
5 3 6 839.21 48
5 3 6 859.33 45.46
5 3 6 778.38 45.98
5 -3 6 690.38 43.89
5 -3 6 758.77 44.17
5 3 7 460.82 35.98
5 3 7 435.2 33.14
5 -3 7 457.33 35.64
5 -3 7 567.06 37.4
5 3 8 344.16 31.76
5 3 8 349.23 30.62
5 -3 8 301.43 29.5
5 -3 8 330.45 29.12
5 3 9 532.24 40.34
5 -3 9 520.6 41.14
5 5 -11 219.56 23.75
5 -5 -10 130.27 17.06
5 5 -10 109.48 18.63
5 5 -10 140.81 17.31
5 -5 -10 139.64 20.67
5 -5 -9 3.84 3.79
5 -5 -9 14.17 6.06
5 5 -9 7.74 5.06
5 -5 -8 403.87 30.71
5 -5 -8 448.97 30.99
5 -5 -8 401.16 30.01
5 5 -8 449.84 34.93
5 5 -8 415.29 30.64
5 -5 -7 429.01 30.44
5 -5 -7 462.52 31.25
5 5 -7 456.21 34.08
5 -5 -7 466.14 31.41
5 5 -7 415.24 30.55
5 -5 -6 587.37 34.97
5 -5 -6 605.49 36.24
5 5 -6 599.5 38.85
5 -5 -6 664.33 37.72
5 5 -6 576.18 36.27
5 -5 -5 378.72 26.11
5 5 -5 443.31 30.7
5 -5 -5 385.33 27.87
5 -5 -4 151.38 15.04
5 5 -4 111.79 14.83
5 5 -4 150.5 16.66
5 -5 -3 1212.32 50.93
5 -5 -3 1293.69 52.04
5 5 -3 1250.24 55
5 -5 -3 1193.08 54.99
5 5 -3 1284.74 56.09
5 -5 -2 92.11 11.14
5 5 -2 91.43 12.63
5 -5 -2 81.74 10.44
5 5 -2 96.5 12.34
5 -5 -2 65.86 10.1
5 -5 -2 84.41 12.37
5 5 -2 84.2 11.92
5 -5 -1 311.59 21.94
5 5 -1 328.99 24.19
5 -5 -1 350.7 21.86
5 5 -1 291.93 21.54
5 5 -1 353.23 18.58
5 -5 -1 332.92 23.46
5 -5 -1 319.98 23.92
5 5 -1 349.92 24.47
5 5 0 655.27 35.93
5 5 0 709.99 33.26
5 -5 0 644.45 32.34
5 5 0 652.77 32.96
5 5 0 618.47 29.86
5 -5 0 701.41 35.93
5 -5 0 637.25 35.35
5 -5 0 623.34 35.19
5 5 0 661.53 35.09
5 5 1 1057.29 47.36
5 5 1 955.93 43.58
5 -5 1 877.4 32.2
5 -5 1 955.63 45.08
5 5 1 985.26 42.28
5 -5 1 994.05 45.96
5 -5 1 1095.41 48.19
5 5 1 980.42 44.02
5 5 2 397.28 26.51
5 -5 2 362.64 18.95
5 -5 2 412.94 26.17
5 5 2 363.75 24.59
5 5 2 398.55 21.33
5 -5 2 346.36 25.53
5 -5 2 383.07 27.33
5 5 2 397.93 24.34
5 5 3 296.91 23.78
5 5 3 290.16 21.03
5 -5 3 312.07 22.02
5 5 3 294 22.76
5 5 3 278.66 19.18
5 -5 3 267.92 22.88
5 -5 3 316.01 25.14
5 5 3 268.42 20.8
5 5 3 319.93 20.62
5 5 4 491.38 33.11
5 5 4 503.86 29.87
5 5 4 425.72 31.3
5 5 4 538.85 29.71
5 -5 4 506.68 33.73
5 -5 4 511.06 33.73
5 5 4 491.61 29.19
5 5 5 452.14 33.62
5 5 5 559.12 32.85
5 5 5 545.04 32.48
5 5 5 491.48 34.02
5 5 5 456.64 29.87
5 -5 5 550.17 36.32
5 -5 5 421.24 32.2
5 5 6 233.26 21.01
5 5 6 266.98 25.63
5 5 6 186.84 19.93
5 5 6 225.96 21.41
5 5 6 266.93 25.6
5 -5 6 226.59 23.83
5 -5 6 298.46 26.7
5 5 7 142.17 20.29
5 5 7 153.91 19.02
5 5 7 152.78 20.45
5 -5 7 168.8 21.32
5 -5 7 162.89 20.44
5 5 8 13.69 7.15
5 -5 8 2.7 5.33
5 5 8 10.67 6.45
5 5 8 9.31 5.63
5 -5 8 2.48 4.9
5 5 9 476.43 39.95
5 5 9 481.43 38.04
5 -5 9 490.73 40.33
5 7 -10 299.1 31.57
5 7 -10 392.96 29.88
5 -7 -10 293.95 30.43
5 7 -10 368.67 28.99
5 -7 -9 59.86 12.81
5 -7 -9 59.15 11.43
5 7 -9 49.3 12.48
5 -7 -9 67.4 12.02
5 7 -9 59.99 12.17
5 -7 -9 63.41 14.59
5 -7 -8 568.95 38.78
5 -7 -8 523.6 34.55
5 7 -8 626.58 42.99
5 -7 -8 649.74 38.39
5 7 -8 566.86 37.55
5 -7 -7 105.56 15.16
5 -7 -7 94.39 13.77
5 7 -7 61.5 13.4
5 -7 -7 99.44 11.18
5 -7 -7 95.38 14.39
5 7 -7 71.39 12.77
5 -7 -6 303.08 25
5 -7 -6 293.31 23.91
5 7 -6 308.38 27.04
5 -7 -6 284.15 24.66
5 -7 -6 279.75 19.93
5 7 -6 262.4 24.23
5 -7 -5 600.95 35.03
5 7 -5 551.36 36.18
5 -7 -5 516.96 34.19
5 -7 -5 524.32 29.43
5 -7 -4 629.65 35.9
5 7 -4 621.2 37.68
5 -7 -4 658.32 33.79
5 7 -4 633.1 38.57
5 -7 -3 328.92 21.53
5 -7 -3 343.91 24.43
5 -7 -3 362.99 26.92
5 7 -3 309.81 24.28
5 -7 -3 322.79 22.7
5 7 -3 279.67 24.22
5 -7 -2 853.03 39.94
5 -7 -2 926.62 43.96
5 7 -2 1014.12 45.56
5 -7 -2 1007.72 48.04
5 -7 -2 873.38 42.35
5 7 -2 863.01 45.04
5 -7 -1 167.81 15.47
5 7 -1 186.19 18.13
5 -7 -1 196.26 17.58
5 7 -1 189.79 16.98
5 7 -1 210.46 14.69
5 -7 -1 240.77 21.17
5 -7 -1 208.76 19.08
5 -7 -1 171.37 16.81
5 7 -1 188.69 18.56
5 7 0 1716.36 68.39
5 7 0 1742.95 63.17
5 -7 0 1575.55 65.18
5 -7 0 1852.55 71.44
5 7 0 1725.06 63.87
5 7 0 1695.71 61.98
5 -7 0 1612.87 67.83
5 7 0 1725.48 68.12
5 7 1 292.74 22.6
5 7 1 297.08 21.3
5 -7 1 261.38 12.14
5 7 1 294.45 19.69
5 -7 1 268.47 22.21
5 7 1 313.5 21.46
5 -7 1 285.48 23.09
5 -7 1 286.7 23.35
5 7 1 262.8 20.89
5 7 2 745.7 39.72
5 7 2 785.51 41.04
5 7 2 796.21 40.19
5 -7 2 843.55 43.6
5 -7 2 785.06 42.9
5 7 2 851.08 40.13
5 7 3 47.42 9.39
5 7 3 59.17 10.83
5 -7 3 58.04 11.03
5 7 3 70.55 11.46
5 -7 3 59.52 11.62
5 7 3 51.56 8.88
5 7 3 67.58 9.66
5 7 4 535.18 35.45
5 7 4 502.08 32.28
5 7 4 540.09 35.12
5 -7 4 555.53 36.47
5 -7 4 613.08 38.47
5 7 5 15.22 7.13
5 7 5 39.38 9.45
5 7 5 22.05 7.04
5 -7 5 26.29 8.39
5 7 5 17.94 6.64
5 7 5 16.85 6.59
5 -7 5 11.1 6.95
5 7 6 240.02 22.86
5 7 6 259.17 25.96
5 7 6 250.08 23.73
5 7 6 209.28 23.7
5 -7 6 274.1 26.43
5 -7 6 242.39 25.2
5 7 7 374.69 33.42
5 7 7 379.57 31.08
5 7 7 422.9 34.83
5 -7 7 422.08 35.25
5 -7 7 396.36 33.84
5 7 8 259.88 28.18
5 7 8 201.28 25.01
5 -7 8 270.81 28.27
5 -7 8 262.76 27.85
5 -9 -9 327.5 30.63
5 9 -9 299.17 31.21
5 9 -9 313.43 28.32
5 -9 -9 366.03 32.86
5 -9 -8 367.67 31.3
5 -9 -8 313.66 24.84
5 9 -8 404.64 34.56
5 9 -8 318.43 28.51
5 -9 -8 286.89 28.75
5 -9 -7 364.56 30.15
5 -9 -7 342 26
5 9 -7 364.7 31.99
5 9 -7 317.41 28.37
5 -9 -6 416.64 31.64
5 -9 -6 483.36 33.8
5 9 -6 422.73 33.43
5 -9 -6 452.8 25.2
5 9 -6 409.31 32.09
5 -9 -5 284.7 24.65
5 9 -5 263.85 24.83
5 -9 -5 251.97 23.72
5 -9 -5 268.28 19.3
5 -9 -4 5.56 3.67
5 9 -4 17.27 6.83
5 -9 -4 16.63 5.51
5 -9 -3 902.67 38.88
5 -9 -3 885.67 46.3
5 9 -3 929.3 46.35
5 -9 -3 884.29 48.11
5 -9 -3 879.09 41.88
5 -9 -2 13.82 5.92
5 -9 -2 14.5 4.81
5 9 -2 20.32 6.37
5 -9 -2 21.84 6.28
5 -9 -2 11.56 6.86
5 -9 -1 904.43 40.79
5 -9 -1 884.38 45.44
5 -9 -1 894.69 48.06
5 9 -1 958.72 43.93
5 -9 -1 942.15 47.64
5 -9 -1 927.57 45.22
5 9 0 278.25 19.31
5 9 0 233.78 20.72
5 -9 0 302.53 23.87
5 9 0 276.37 19.95
5 -9 0 288.92 24.14
5 -9 0 302 23.76
5 9 1 1227.26 51.21
5 9 1 1224.52 53.88
5 -9 1 1155.54 35.54
5 -9 1 1270.46 57.69
5 9 2 129.42 14.97
5 9 2 130.22 15.14
5 -9 2 145.41 17.6
5 9 2 157.33 16.26
5 9 3 404.47 28.85
5 9 3 411.36 27.68
5 9 3 345.51 27.2
5 -9 3 377.72 30.03
5 -9 3 403.44 30.73
5 9 4 269.1 24.66
5 9 4 261.8 22.23
5 9 4 293.02 24.78
5 9 4 266.54 24.62
5 9 4 240.21 23.37
5 9 4 303.02 26.12
5 -9 4 272.33 25.33
5 -9 4 277.38 26.05
5 9 5 393.31 30.92
5 9 5 435.25 33.17
5 9 5 374.27 29.82
5 9 5 466.44 32.68
5 9 5 410.77 32.44
5 -9 5 393.44 32.39
5 -9 5 420.38 34.07
5 9 6 265.62 26.01
5 9 6 333.1 30.43
5 9 6 306.15 27.66
5 9 6 277.01 27.71
5 -9 6 373.48 31.83
5 -9 6 345.51 31.29
5 9 7 238.15 26.82
5 9 7 289.32 27.05
5 9 7 242.45 25.58
5 9 7 278.63 28.7
5 -9 7 271.79 28.09
5 -9 7 310.36 30.62
5 9 8 31.93 10.33
5 9 8 10.19 6.17
5 -9 8 14.15 8.38
5 9 8 14.19 7.42
5 -9 8 31.51 10.95
5 -11 -9 65.2 14.99
5 11 -9 62.79 14.82
5 11 -9 51.95 12.19
5 -11 -9 51.49 13.18
5 -11 -8 145.11 20.6
5 11 -8 173.18 23.67
5 11 -8 172.5 21.59
5 -11 -8 182.69 23.08
5 -11 -7 44.05 11.4
5 -11 -7 59.01 10.69
5 11 -7 63.86 14.2
5 11 -7 47.7 11.61
5 -11 -7 49.49 11.7
5 -11 -6 192.23 21.99
5 11 -6 196.72 23.16
5 11 -6 178.47 21.67
5 -11 -5 241.82 24.76
5 11 -5 245.19 24.8
5 -11 -5 264.08 18.67
5 11 -4 412.81 31.03
5 -11 -4 447.15 26.04
5 -11 -3 255.97 24.25
5 11 -3 226.7 21.46
5 -11 -3 250.9 20.14
5 -11 -2 493 25.59
5 -11 -2 481.57 33.86
5 11 -2 502.27 31.85
5 -11 -2 501.99 30.62
5 -11 -1 187.06 15.55
5 -11 -1 199.01 20.44
5 11 -1 200.55 17.85
5 -11 -1 198.89 21.2
5 -11 -1 171.3 17.9
5 -11 0 873.35 46.82
5 -11 0 817.26 46.21
5 -11 0 787.16 43.46
5 11 1 42.7 8.78
5 -11 1 51.67 11.05
5 -11 1 55.93 11.17
5 11 2 601.19 34.32
5 11 2 509.15 31.73
5 11 2 558.86 38.27
5 -11 2 539.8 37.16
5 -11 2 551.7 36.91
5 11 3 33.48 8.64
5 -11 3 28.95 9.35
5 11 3 29.03 9.38
5 11 4 426.12 33.33
5 11 4 421.44 32.14
5 11 4 454.38 33.44
5 11 4 405.39 32.13
5 11 4 430.74 33.39
5 -11 4 497.54 36.47
5 -11 4 436.26 34.8
5 11 5 95.62 16.1
5 11 5 76.21 14.28
5 11 5 77.88 14.29
5 -11 5 103.83 16.7
5 11 5 88.91 15.53
5 11 5 86.21 15.02
5 -11 5 91.69 16.5
5 11 6 82.02 15.38
5 11 6 101.24 16.89
5 11 6 106.87 17.3
5 -11 6 75.9 15.26
5 11 6 88.27 16.19
5 11 6 120.73 17.55
5 -11 6 114 18.77
5 11 7 69.35 15.34
5 11 7 74.11 14.81
5 11 7 66.77 14.45
5 11 7 91.53 17.62
5 -11 7 55.5 13.94
5 -13 -8 71.93 16.01
5 13 -8 55.73 15.14
5 13 -8 58.92 13.73
5 -13 -8 96.17 16.66
5 -13 -7 312.96 30.17
5 13 -7 320.91 31.5
5 13 -7 313.99 30.2
5 -13 -7 260.95 27.08
5 -13 -6 68.75 13.93
5 13 -6 95.12 14.33
5 13 -6 85 15.81
5 -13 -5 240.37 25.42
5 13 -5 204.66 21.52
5 13 -5 206.26 23.59
5 -13 -4 250.56 25.81
5 13 -4 246.43 23.99
5 -13 -4 204.08 17.22
5 -13 -3 391.43 32.22
5 13 -3 399.29 30.3
5 -13 -3 423.83 26.82
5 -13 -2 503.41 36.74
5 -13 -2 551.97 32.77
5 -13 -1 638.6 30.49
5 -13 -1 721.13 44.14
5 -13 -1 717.32 39.68
5 -13 0 398.88 23.88
5 -13 0 367.77 30.81
5 13 0 401.31 32.75
5 -13 0 433.06 33.04
5 -13 0 383.12 29.15
5 -13 1 629.88 41.78
5 13 1 654.15 43.19
5 -13 1 634.53 41.76
5 -13 1 686.9 41.56
5 13 2 134.6 19.09
5 -13 2 160.3 20.08
5 -13 2 144.63 19.04
5 13 3 476.91 36.84
5 13 3 492.94 37.74
5 -13 3 501.08 37.37
5 13 4 164.94 21.44
5 13 4 120.81 17.19
5 13 4 173.46 22.1
5 13 5 307.47 30.17
5 13 5 256.48 26.45
5 13 5 284.68 28.24
5 13 5 269.8 27.86
5 13 5 302.74 29.02
5 -13 5 320.54 31.29
5 13 6 117.93 18.96
5 13 6 157.86 21.68
5 13 6 157.21 21.5
5 -13 6 121.94 19.03
5 13 6 104.21 18.27
5 13 6 130.32 18.95
5 -13 6 152.89 22.17
5 -15 -6 330.73 31.95
5 15 -6 288.35 29.51
5 15 -6 323.44 27.18
5 -15 -5 72.58 15.11
5 15 -5 68.5 13.77
5 15 -5 69.46 13.5
5 -15 -4 438.74 36.03
5 15 -4 440.95 33.75
5 15 -4 366.01 31.08
5 -15 -3 104.25 17.43
5 15 -3 90.64 15.99
5 -15 -2 395.8 33.85
5 15 -2 404.47 33.42
5 -15 -2 405.29 28.18
5 -15 -1 191.11 22.85
5 -15 -1 178.04 19.33
5 -15 0 322.06 30.19
5 15 0 343.37 31.74
5 -15 0 314.66 27.02
5 -15 1 137.25 19.94
5 15 1 138.25 19.95
5 -15 1 133.07 18.26
5 15 2 297.83 29
5 15 2 289.56 29.25
5 -15 2 276.84 27.67
5 -15 2 297.97 28.07
5 15 3 171.67 22.53
5 15 3 142.18 20.79
5 -15 3 168.47 21.62
5 -15 3 157.67 21.28
5 15 4 440.21 36.6
5 15 4 328.33 31.93
5 -15 4 376.18 33.14
5 -15 4 419.33 36.18
5 15 5 156.87 22.42
5 15 5 133.67 20.78
5 -15 5 127.16 19.73
5 15 5 122.28 19.63
5 -15 5 122.61 20.25
5 17 -5 213.53 23.42
5 -17 -4 160.04 22.69
5 17 -4 131.71 19.16
5 -17 -3 116.46 19.39
5 17 -3 89.81 16.42
5 -17 -2 151.33 21.94
5 17 -2 128.24 19.7
5 -17 -1 177.55 23.86
5 17 -1 170.81 22.71
5 -17 0 61.93 14.86
5 17 0 88.52 16.19
5 -17 0 108.35 15.94
5 -17 1 350.15 33.59
5 17 1 368.89 34.33
5 -17 1 398.75 32.18
5 -17 2 124.31 20.2
5 17 2 139.61 20.84
5 -17 2 108.23 17.93
5 17 2 119.68 20.19
5 -17 2 107.07 17.81
5 17 3 547.05 42.66
5 17 3 492.86 41.2
5 -17 3 551.32 41.37
5 -17 3 615.81 43.61
5 -19 -1 41.3 11.29
6 0 -10 56.51 13.25
6 0 -9 2.49 4.91
6 0 -9 2.07 3.54
6 0 -8 390.86 32.71
6 0 -8 404.05 31.12
6 0 -7 2.04 3.49
6 0 -6 298.47 27.2
6 0 -6 351.92 27.79
6 0 -5 4.04 4.45
6 0 -4 2160.98 85.52
6 0 -4 2126.11 84.92
6 0 -3 -1.81 3.99
6 0 -2 1098.79 52.32
6 0 -2 1083.48 52.21
6 0 -1 3.5 3.45
6 0 -1 1.13 2.73
6 0 -1 -3.34 4.35
6 0 0 784.01 43.53
6 0 0 884.7 39.57
6 0 0 912.89 44.38
6 0 1 3.87 2.85
6 0 1 -1.75 3.45
6 0 1 -1.52 3.68
6 0 2 175.13 16.52
6 0 2 187.76 19.13
6 0 2 161.26 16.21
6 0 3 6.33 4.13
6 0 3 5.52 4.45
6 0 3 -1.35 3.26
6 0 4 1005.63 50.15
6 0 4 1071.97 52.69
6 0 5 -4.55 5.02
6 0 5 5.96 4.8
6 0 5 1.98 4.38
6 0 6 819.59 49.41
6 0 6 770 46.16
6 0 6 784.21 45.28
6 0 7 -2.61 4.46
6 0 7 -2.43 4.15
6 0 8 1197.38 64.71
6 -2 -10 4.86 4.79
6 2 -10 -2.7 4.62
6 2 -10 -2.05 4.52
6 -2 -9 406.1 33.2
6 2 -9 395.69 34.23
6 -2 -9 353.21 29.24
6 2 -9 411.81 31.3
6 -2 -8 4.59 4.53
6 -2 -8 2.08 4.11
6 2 -8 12.67 6.91
6 -2 -7 265.56 25.23
6 2 -7 252.43 25.54
6 -2 -7 235.68 23.6
6 2 -7 231.86 23.47
6 -2 -6 30.23 8.92
6 2 -6 18.38 7.02
6 -2 -5 291.82 26.19
6 2 -5 384.15 29.67
6 2 -4 106.33 14.72
6 -2 -4 79.61 13.7
6 2 -4 93.64 14.44
6 -2 -3 854.13 45.22
6 2 -3 914.06 47.7
6 2 -3 886 47.57
6 -2 -3 965.84 48.35
6 2 -3 1019.75 49.42
6 2 -2 38.16 9.2
6 -2 -2 37.15 8.61
6 2 -2 45.82 9.42
6 2 -1 1718.5 71.75
6 -2 -1 1684.66 64.62
6 -2 -1 1647.53 69.01
6 2 -1 1675.51 68.98
6 2 0 135.93 16.39
6 -2 0 113.82 13.22
6 2 0 117.84 11.53
6 -2 0 112.71 14.31
6 -2 0 120.61 15.25
6 2 0 118.88 14.51
6 2 1 1783.76 71.95
6 2 1 1621.14 61
6 -2 1 1591.76 65
6 -2 1 1625.11 69.49
6 -2 1 1729.46 68.27
6 2 1 1720.88 67.26
6 2 2 66.84 9.94
6 -2 2 76.26 11.32
6 -2 2 64.84 11.68
6 2 2 73.22 11.91
6 -2 2 50.01 9.37
6 2 2 66.95 10.56
6 2 3 810.31 44.57
6 2 3 768.11 39.1
6 -2 3 753.47 41.54
6 -2 3 778.69 43.88
6 -2 3 796.43 39.64
6 2 3 789.79 42.64
6 2 4 103.48 15.42
6 2 4 100.36 13.48
6 -2 4 110.87 15.11
6 2 4 114.04 15.1
6 -2 4 109.13 15.57
6 2 5 382.07 31.18
6 2 5 377.01 28.24
6 -2 5 351.67 28.99
6 -2 5 313.67 27.7
6 2 5 352.12 27.65
6 2 6 7.47 5.49
6 2 6 6.29 4.63
6 -2 6 13.92 6.87
6 -2 6 2.22 4.89
6 2 7 74.93 14.83
6 2 7 72.02 14.08
6 -2 7 91.13 15.91
6 -2 7 64.62 13.42
6 2 8 16.94 8.81
6 -2 8 10.92 8.08
6 2 8 5.07 6.62
6 -4 -10 89.16 15.32
6 4 -10 73.91 15.8
6 4 -10 114.16 16.6
6 -4 -9 63.58 13.3
6 -4 -9 52.14 11.51
6 4 -9 28.32 8.67
6 -4 -8 729.06 45.05
6 4 -8 774.77 49.31
6 -4 -8 804.73 46.04
6 4 -8 757.07 45.53
6 -4 -7 79.83 12.6
6 -4 -7 44.95 10.68
6 4 -7 63.11 13.43
6 -4 -7 56.93 12.06
6 4 -7 69.38 13.11
6 -4 -6 868.12 43.7
6 -4 -6 892.69 48.75
6 4 -6 886.74 50.06
6 -4 -6 855.61 48.2
6 4 -6 837.67 48.05
6 -4 -5 75.52 10.97
6 4 -5 65.74 12.85
6 4 -5 65.82 12.8
6 -4 -4 1969.56 72.76
6 4 -4 1958.97 80.91
6 -4 -4 1989.85 81.71
6 4 -4 1972.7 81.03
6 -4 -3 102.07 11.82
6 -4 -3 104.22 13.66
6 4 -3 99.46 14.17
6 -4 -3 76.73 13.06
6 4 -3 80.03 13.64
6 -4 -2 587.41 35.07
6 4 -2 624.08 38.31
6 -4 -2 633.32 31.82
6 4 -2 598.94 36.79
6 -4 -2 651.76 38.77
6 4 -2 701.36 39.33
6 -4 -1 89.56 12.77
6 4 -1 70.54 12.08
6 -4 -1 84.27 10.37
6 4 -1 95.01 12.82
6 -4 -1 95.37 12.53
6 -4 -1 86.66 13.04
6 4 -1 85.56 12.74
6 -4 0 460.79 31.18
6 4 0 505.07 33.44
6 -4 0 492.41 27.31
6 -4 0 531.53 31.79
6 -4 0 523.5 33.65
6 -4 0 489.53 32.49
6 4 0 559.79 33.23
6 4 1 80.89 13.01
6 -4 1 89.47 12.71
6 4 1 70.14 10.28
6 -4 1 89.18 13.24
6 -4 1 86.34 12.76
6 4 1 54.85 9.85
6 4 2 259.32 23.69
6 4 2 230.48 21.43
6 4 2 228.16 19.87
6 -4 2 260.32 21.88
6 -4 2 270.75 22.84
6 -4 2 267.44 23.87
6 4 2 267.88 22.48
6 4 2 250.35 20.42
6 4 3 27.24 8.18
6 -4 3 30.35 8.41
6 4 3 31.44 8.12
6 -4 3 40.76 10.09
6 -4 3 41.65 8.91
6 4 3 25.71 7.61
6 4 4 903.99 49.58
6 4 4 888.97 47.88
6 -4 4 847.13 47.62
6 -4 4 878.04 48.8
6 4 4 836.57 44.37
6 4 5 154.92 20.08
6 -4 5 208.4 22.17
6 -4 5 185.67 21.6
6 4 6 541.15 40.03
6 -4 6 579.91 41.01
6 -4 6 583.05 40.32
6 4 7 109.71 18.35
6 -4 7 102.71 17.83
6 -4 7 99.99 16.58
6 4 8 750.19 51.47
6 -4 8 906.02 55.36
6 6 -10 37.57 10.04
6 -6 -9 437.27 32.92
6 -6 -9 452.26 33.61
6 6 -9 465.18 38.61
6 6 -9 388.29 32.35
6 -6 -8 107.03 16.01
6 -6 -8 100.56 15.86
6 6 -8 99.93 17.66
6 -6 -8 102.32 15.99
6 6 -8 82.92 14.95
6 -6 -7 421.52 30.99
6 -6 -7 411.77 31.93
6 6 -7 387.69 33.65
6 -6 -7 478.86 34.45
6 6 -7 455.68 34.38
6 -6 -6 3.65 4.42
6 -6 -6 18.64 6.78
6 6 -6 11.8 6.17
6 -6 -6 19.52 7.72
6 6 -6 11.13 6.59
6 -6 -5 3.37 3.72
6 6 -5 2.2 4.34
6 -6 -5 3.22 3.89
6 6 -5 2.16 3.68
6 -6 -4 114.77 14.07
6 6 -4 114.13 15.57
6 -6 -4 116.59 14.76
6 -6 -4 83.43 14.08
6 6 -4 110.41 16.16
6 -6 -3 290.94 22.39
6 -6 -3 263.46 21.12
6 6 -3 245.42 22.65
6 -6 -3 230.22 23.44
6 -6 -3 246.08 21.75
6 6 -3 254.44 24.24
6 -6 -2 20.35 6.57
6 6 -2 5.86 4.74
6 -6 -2 24.89 6.79
6 6 -2 33.15 8.27
6 -6 -2 15.56 6.4
6 -6 -2 23.83 8.09
6 6 -2 30.74 8.49
6 -6 -1 1416 59.95
6 6 -1 1434.7 63.68
6 -6 -1 1424.78 57.61
6 6 -1 1411.77 59.87
6 -6 -1 1392.12 63.2
6 -6 -1 1345.19 60.49
6 -6 -1 1371.07 61.23
6 6 -1 1241.12 59.79
6 6 0 356.76 27.31
6 -6 0 304.18 22.21
6 6 0 299.52 22.89
6 -6 0 290.73 24.77
6 -6 0 269.27 23.73
6 6 0 256.87 22.66
6 6 1 1509.41 66.01
6 6 1 1483.09 61.59
6 6 1 1472.18 59.31
6 -6 1 1458.12 64.25
6 6 1 1450.55 58.56
6 -6 1 1458.53 64.63
6 -6 1 1507.78 66.4
6 6 1 1388.32 61.23
6 6 2 140.08 17.29
6 6 2 166.07 17.86
6 6 2 129.94 14.11
6 -6 2 155.49 17.44
6 6 2 166 17.19
6 -6 2 151.29 17.87
6 -6 2 198.51 20.57
6 6 2 128.18 14.82
6 6 3 630.03 39.42
6 6 3 617.94 38.56
6 6 3 600.75 34.05
6 6 3 677.26 38.79
6 -6 3 658.62 40.47
6 -6 3 629.15 40.63
6 6 3 625.88 36.39
6 6 4 273.41 25.86
6 6 4 240.35 23.45
6 -6 4 274.61 25.79
6 -6 4 240.09 24.48
6 6 5 155.88 20.06
6 6 5 191.18 19.94
6 6 5 132.2 18.44
6 -6 5 145.01 19.62
6 -6 5 155 20.53
6 6 6 20.89 8.93
6 -6 6 7.66 6.18
6 6 6 17.5 7.8
6 -6 6 5.1 5.04
6 6 7 67.34 15.05
6 -6 7 84.86 16.34
6 6 7 94.79 17.03
6 -6 7 78.09 15.63
6 -8 -9 101.56 16.91
6 -8 -9 74.86 13.29
6 8 -9 89.35 17.53
6 8 -9 103.31 17.41
6 -8 -9 81.78 16.62
6 -8 -8 670.57 44.13
6 -8 -8 768.24 44.1
6 -8 -8 685.61 43.84
6 8 -8 734 49.76
6 8 -8 693.16 45.12
6 -8 -7 401.53 31.74
6 -8 -7 379.07 30.29
6 8 -7 397.49 34.66
6 -8 -7 422.29 33.35
6 8 -7 394.01 33.12
6 -8 -6 998.64 52.22
6 -8 -6 908.99 52.57
6 -8 -6 1065.82 54.25
6 8 -6 1028.58 56.73
6 -8 -6 977.64 46.18
6 -8 -5 420.21 30.43
6 8 -5 374.8 31.18
6 -8 -5 382.65 31.24
6 -8 -5 371.96 26.12
6 8 -5 344.73 30.16
6 -8 -4 1084.69 51.21
6 8 -4 978.36 52.09
6 -8 -4 869.52 51.4
6 -8 -4 915.57 46.28
6 8 -4 1059.14 54.78
6 -8 -3 175.94 16.81
6 -8 -3 175.48 18.54
6 8 -3 245.18 22.71
6 -8 -3 203.68 22.4
6 -8 -3 192.28 18.99
6 8 -3 195.19 21.76
6 -8 -2 207.95 18.41
6 -8 -2 188.7 19
6 8 -2 182.04 18.98
6 -8 -2 212.41 22.06
6 -8 -2 167.15 18.16
6 8 -2 210.09 21.61
6 -8 -1 122.91 14.59
6 8 -1 104.14 14.91
6 -8 -1 100.28 13.61
6 -8 -1 102.35 14.93
6 8 -1 117.61 14.51
6 -8 -1 128.04 17.19
6 -8 -1 95.77 14.01
6 8 -1 106.4 15.2
6 8 0 104.65 15.01
6 -8 0 104.23 13.94
6 8 0 129.35 14.49
6 -8 0 141.44 17.79
6 -8 0 127.34 16.72
6 8 0 135.04 16.64
6 -8 0 108.66 15.15
6 8 1 119.07 14.23
6 8 1 104.27 14.74
6 -8 1 65.62 12.57
6 8 1 103.25 12.78
6 -8 1 107.79 15.35
6 8 1 104.59 14.44
6 8 2 275.17 24.42
6 8 2 268.05 23.23
6 8 2 264.72 22.49
6 -8 2 273.33 25.33
6 -8 2 299.48 26.59
6 8 2 275.96 22.73
6 8 3 218.45 21.94
6 8 3 178.66 20.12
6 8 3 219.51 20.45
6 8 3 191.73 20.19
6 -8 3 208.35 22.52
6 -8 3 214.26 23.01
6 8 4 607.46 38.76
6 8 4 615.62 40.39
6 8 4 612.52 37.57
6 8 4 644.03 40.58
6 -8 4 615.57 41.91
6 -8 4 615.66 42.08
6 8 5 386.08 31.08
6 8 5 462.69 33.09
6 8 5 387.67 32.8
6 8 5 391.25 30.2
6 8 5 424.1 31.94
6 8 5 374.33 31.79
6 -8 5 366.62 32.57
6 -8 5 413.71 34.49
6 8 6 448.39 33.79
6 8 6 359.82 33.15
6 8 6 408.76 34.62
6 -8 6 399.66 34.78
6 -8 6 397.56 35.17
6 8 7 102.93 18.54
6 -8 7 101.88 18.35
6 8 7 133.7 20.79
6 -8 7 146.18 22.3
6 -10 -8 448.35 35.91
6 -10 -8 404.05 30.7
6 10 -8 444.24 38.14
6 10 -8 365.22 32.96
6 -10 -8 410.41 35.25
6 -10 -7 281.73 27.43
6 -10 -7 244.04 23.59
6 10 -7 213.01 25.83
6 10 -7 255.31 26.96
6 -10 -6 16.01 7.14
6 10 -6 10.31 6.24
6 -10 -5 128.75 17.43
6 10 -5 95.32 15.82
6 -10 -5 106.37 13.62
6 -10 -5 98.59 16.48
6 10 -5 86.16 15.78
6 -10 -4 134.56 17.48
6 10 -4 136.06 17.96
6 -10 -4 97.04 13.46
6 10 -4 97.99 16.6
6 -10 -3 190.82 20.47
6 -10 -3 162.39 20.51
6 10 -3 180.76 19.96
6 -10 -3 184.95 18.7
6 10 -3 170.74 20.76
6 -10 -2 248.27 19.69
6 -10 -2 230.83 22.9
6 10 -2 253.66 22.69
6 -10 -2 256.27 22.74
6 10 -2 242.2 24.47
6 -10 -1 792.93 40.34
6 -10 -1 804.01 45.25
6 10 -1 854.31 43.15
6 -10 -1 754.59 46.03
6 -10 -1 852.89 45.95
6 10 -1 852.37 47.81
6 -10 0 332.51 24.91
6 10 0 360.36 28.3
6 -10 0 295.04 26.01
6 -10 0 372.27 30.12
6 -10 0 368.48 29.03
6 10 0 353.63 28.36
6 10 1 963.82 48.91
6 -10 1 854.02 47.84
6 -10 1 847.08 49.6
6 -10 1 842.28 48.41
6 10 1 853.46 46.69
6 10 2 190.98 19.79
6 10 2 253.24 23.08
6 10 2 253.26 22.8
6 -10 2 214.38 23.5
6 10 3 621.53 39.12
6 10 3 603.97 37.68
6 10 3 579.86 37.31
6 10 3 611.02 38.64
6 -10 3 572.75 40.56
6 -10 3 572.64 40.78
6 10 4 199.78 22.4
6 10 4 233.71 23.41
6 10 4 189.25 22.33
6 10 4 197.52 22.94
6 10 4 221.93 23.44
6 -10 4 215.68 25.01
6 -10 4 220.98 24.94
6 10 5 181.83 22.48
6 10 5 187.12 23.1
6 10 5 169.45 20.65
6 10 5 207.02 23.28
6 10 5 207.84 23.68
6 -10 5 205.25 25.03
6 -10 5 182.77 23.86
6 10 6 10.82 6.54
6 10 6 2.47 3.44
6 10 6 4.72 5.2
6 -10 6 2.8 5.52
6 10 6 8.03 6.47
6 -10 6 11.66 8.13
6 -12 -7 313.23 30.33
6 -12 -7 310.02 26.46
6 12 -7 374.61 34.32
6 12 -7 324.76 31.48
6 -12 -7 312.6 29.78
6 -12 -6 196.3 23.67
6 12 -6 225.53 25.99
6 -12 -5 461.02 36.09
6 12 -5 566.66 39.98
6 12 -5 447.95 37.03
6 -12 -4 225.43 24.47
6 12 -4 244.19 24.85
6 -12 -4 252.19 21.1
6 12 -4 236.75 25.78
6 -12 -3 320.08 28.95
6 12 -3 342.87 28.38
6 -12 -3 353.29 26.45
6 12 -3 337.01 30.75
6 -12 -2 187.11 16.22
6 -12 -2 235.84 24.29
6 -12 -2 201.65 20.19
6 12 -2 207.38 23.42
6 -12 -1 65.92 13.21
6 -12 -1 64.65 10.12
6 -12 -1 85.65 14.02
6 12 -1 76.42 14.39
6 -12 0 63.81 13.6
6 -12 0 85.57 12.07
6 -12 0 60.51 13.62
6 -12 0 53.34 11.66
6 12 0 72.95 13.9
6 -12 1 95.04 15.85
6 -12 1 95.66 16.4
6 -12 1 86.73 15.11
6 12 1 79.41 13.87
6 -12 2 40.29 10.85
6 12 2 31.01 10.53
6 -12 2 14.61 7.23
6 12 3 337.34 30.8
6 12 3 358.19 32.48
6 12 3 365.38 30.05
6 -12 3 353.73 32.14
6 -12 3 285.61 29.19
6 12 4 352.46 31.86
6 12 4 353.92 30.47
6 12 4 285.92 27.95
6 12 4 316.61 30.63
6 -12 4 340.04 31.76
6 12 5 350.66 32.12
6 12 5 330.05 30.48
6 12 5 323.31 30
6 12 5 329.38 30.99
6 12 5 351.77 31.74
6 -12 5 338.25 32.76
6 -12 5 327.54 32.92
6 -14 -6 46.28 12.95
6 14 -6 65.46 14.8
6 14 -6 46.51 11.43
6 -14 -5 290.28 29.47
6 14 -5 312.04 28.89
6 14 -5 360.69 31.87
6 14 -5 303.78 31.12
6 14 -4 79.15 15.02
6 14 -4 71.78 15.09
6 -14 -3 77.84 15.12
6 14 -3 117.74 18.72
6 14 -2 399.56 33.92
6 -14 -2 337.79 26.94
6 -14 -1 166.11 21.63
6 -14 -1 199.13 21.39
6 -14 0 639.73 43.94
6 14 0 571.07 43.21
6 -14 0 643.5 41.63
6 -14 1 181.49 23.17
6 14 1 213.28 25.12
6 -14 1 209 24.6
6 -14 1 187.15 22.67
6 -14 2 619.25 43.92
6 14 2 573.35 42.22
6 14 2 702.13 47.58
6 -14 2 558.23 42.03
6 -14 2 537.09 40.66
6 14 3 218.46 25.77
6 14 3 256.34 28.07
6 -14 3 228.32 26.49
6 -14 3 258.06 27.79
6 14 4 270.51 29.39
6 14 4 205.17 24.38
6 14 4 220.36 25.36
6 14 4 229.7 26.92
6 -14 4 260.96 28.82
6 16 -4 108.83 18.12
6 -16 -3 320.15 32.35
6 16 -3 357.11 32.79
6 -16 -2 90.83 17.4
6 16 -2 78.31 16
6 -16 -1 81.91 17.07
6 -16 -1 77.47 14.01
6 -16 0 78.79 16.57
6 16 0 70.35 15.73
6 -16 0 112.28 17.36
6 -16 1 5.67 7.91
6 16 1 8.43 6.79
6 16 1 2.97 5.08
6 -16 1 2.48 4.24
6 -16 2 10.62 6.93
7 -1 -9 510.11 40.78
7 1 -9 579.06 43.14
7 -1 -9 628.53 41.95
7 1 -9 616.29 41.88
7 -1 -8 39.39 11.62
7 1 -8 32.47 10.38
7 -1 -8 38.64 11.21
7 1 -8 33.68 10.39
7 -1 -7 149.89 20.81
7 1 -7 116.97 18.65
7 -1 -7 134.35 19.26
7 1 -7 141.16 19.64
7 1 -6 163.82 20.97
7 1 -6 160.15 20.33
7 -1 -6 115.47 17.48
7 -1 -5 146.52 19.43
7 1 -5 167.91 21.18
7 -1 -5 169.99 20.97
7 1 -5 181.7 21.24
7 -1 -4 365.18 30.49
7 1 -4 361.37 30.46
7 -1 -4 339.75 29.1
7 1 -4 332.8 29.24
7 -1 -3 4.19 5.48
7 1 -3 8.7 6.07
7 1 -3 4.37 4.82
7 -1 -3 8.67 5.66
7 1 -3 10.81 6.03
7 1 -2 293.34 26.76
7 -1 -2 316.56 27.2
7 1 -2 343.67 28.12
7 1 -1 384.5 30.46
7 -1 -1 390.94 25.65
7 -1 -1 350.83 28.73
7 1 -1 376.57 29.49
7 -1 0 536.52 36.4
7 1 0 550.09 37.44
7 -1 0 451.92 29.28
7 -1 0 508.34 34.31
7 -1 0 504.41 35.2
7 1 0 504.11 33.84
7 -1 1 438.34 33.19
7 1 1 391.57 31.64
7 -1 1 448.36 29.29
7 -1 1 447.93 32.87
7 -1 1 407.06 29.91
7 1 1 395.17 30.95
7 1 1 455.3 31.25
7 1 2 134.14 18.2
7 -1 2 110.49 14.55
7 1 2 137.28 16.07
7 -1 2 111.1 16.35
7 1 2 86.92 14.18
7 -1 2 108.55 14.77
7 -1 3 922.19 47.38
7 -1 3 814.13 48.72
7 1 3 804.02 47.09
7 -1 4 24.53 7.85
7 -1 4 27.56 9.37
7 1 4 37.26 10.4
7 -1 5 306.42 27.78
7 -1 5 288.4 27.73
7 1 5 308.28 27.68
7 -1 6 60.35 13.18
7 -1 6 94.32 16.12
7 -1 7 220.54 25.6
7 -3 -9 629.19 43.27
7 3 -9 536.02 42.36
7 -3 -9 502.68 38.08
7 3 -9 526.49 39.13
7 -3 -8 165.87 21.59
7 -3 -8 169.71 21.91
7 3 -8 216.04 24.2
7 -3 -7 342.97 30.95
7 3 -7 384.16 33.66
7 -3 -7 389.96 32.42
7 3 -7 281 28.2
7 3 -6 172.42 21.96
7 -3 -6 116.18 17.92
7 -3 -6 138.97 19.25
7 3 -5 192.2 22.15
7 3 -5 145.72 19.74
7 3 -4 876.8 50.42
7 -3 -4 950.06 52.02
7 3 -4 810.04 49.02
7 -3 -3 12.11 6.9
7 3 -3 12.96 5.65
7 -3 -3 15.63 7.95
7 3 -3 15.42 7.22
7 -3 -2 840.17 47.35
7 3 -2 855.45 49.72
7 3 -2 941.52 49.89
7 -3 -2 871.03 49.31
7 3 -2 906.62 49.57
7 -3 -1 125.39 16.94
7 3 -1 143.63 18.29
7 -3 -1 121.76 15.11
7 3 -1 174.97 19.45
7 -3 -1 115.43 16.39
7 -3 -1 117.53 16.78
7 3 0 979.46 54.36
7 -3 0 1103.22 51.63
7 -3 0 1059.06 53.99
7 -3 0 1109.79 55.6
7 3 0 995.89 51.81
7 3 1 257.52 25.4
7 -3 1 256.93 22.93
7 -3 1 312.42 27.32
7 -3 1 291.02 25.31
7 3 1 296.27 26.01
7 3 1 288.29 24.47
7 3 2 195.07 22.09
7 -3 2 184.52 19.65
7 -3 2 155.41 18.43
7 -3 2 197.71 21.74
7 3 2 164.23 19.34
7 3 2 166.71 18.2
7 -3 3 655 40.81
7 -3 3 667.65 43.2
7 3 3 689.8 41.96
7 -3 4 141.64 18.44
7 -3 4 159 21.23
7 3 4 159.14 19.35
7 -3 5 275.88 27.09
7 -3 5 272 27.46
7 3 6 96.89 17.2
7 -3 6 84 15.84
7 -3 6 77.17 15.18
7 -3 7 146.24 21.68
7 -3 7 207.9 24.36
7 -5 -9 326.88 30.02
7 -5 -9 309.94 29.81
7 -5 -8 39.65 10.97
7 5 -8 45.92 12.37
7 -5 -8 64.09 14
7 5 -8 17.75 7.96
7 -5 -7 276.27 27.56
7 5 -7 289.96 29.57
7 -5 -7 262.62 26.93
7 5 -7 204.81 25.08
7 -5 -6 278.28 27.6
7 5 -6 301.51 29.27
7 -5 -6 273.12 27.39
7 5 -5 592.9 41.25
7 5 -5 625.44 42.26
7 5 -4 166.13 20.67
7 -5 -4 178.11 19.6
7 5 -4 165.39 20.88
7 -5 -4 137.71 19.49
7 -5 -3 107.8 15.38
7 5 -3 95.34 15
7 -5 -3 69.36 12.64
7 -5 -3 95.03 16.02
7 5 -3 104.99 16.26
7 -5 -2 298.65 25.81
7 5 -2 319.76 28.29
7 5 -2 298.23 26.12
7 -5 -2 310.07 28.06
7 -5 -2 358.97 28.7
7 5 -2 335.96 28.64
7 -5 -1 192.06 20.64
7 5 -1 230.95 23.8
7 5 -1 277.96 24.08
7 -5 -1 223.29 21.47
7 -5 -1 209.36 22.68
7 5 -1 191.65 21.34
7 -5 0 495.53 35.09
7 5 0 558.3 38.01
7 5 0 542.7 34.33
7 -5 0 527.98 36.21
7 -5 0 497.07 33.85
7 -5 0 503.75 35.89
7 5 0 456.82 33.27
7 5 1 242.26 24.85
7 5 1 275.78 22.87
7 -5 1 278.91 25.24
7 -5 1 294.97 26.81
7 5 1 280.1 24.15
7 5 2 79.05 15.19
7 -5 2 61.35 12.35
7 -5 2 93.58 15.79
7 -5 2 93.03 14.24
7 5 2 85.77 14.4
7 5 3 693.31 44.96
7 -5 3 647.83 42.16
7 -5 3 737.84 46.6
7 5 3 711.7 42.12
7 5 4 34.54 10.07
7 5 4 33.95 9.61
7 -5 4 38.06 10.27
7 -5 4 27.87 9.39
7 5 5 209.2 24.24
7 -5 5 190.11 23.13
7 -5 5 215.91 25.08
7 5 6 200.9 25.24
7 -5 6 233.83 26.57
7 -5 6 206.86 25.23
7 -7 -8 223.75 24.89
7 -7 -8 205.78 23.51
7 7 -8 206.93 26.48
7 7 -8 191.95 23.82
7 -7 -7 307.3 28.94
7 7 -7 329.4 31.93
7 -7 -7 298.52 29.46
7 7 -7 286.89 29.54
7 -7 -6 211.83 24.77
7 -7 -6 233.7 25.21
7 7 -6 255.45 27.45
7 -7 -6 232.05 21.96
7 7 -5 172.86 22.18
7 -7 -5 211.93 21.15
7 7 -5 149.9 20.58
7 7 -4 589.5 40.54
7 -7 -4 633.04 42.88
7 -7 -4 608.1 38.26
7 7 -4 557.12 40.48
7 -7 -3 224.82 21.33
7 7 -3 232.75 23.63
7 -7 -3 227.49 24.92
7 -7 -3 204.59 21.73
7 7 -3 209.85 23.63
7 -7 -2 524.13 34.01
7 -7 -2 481.36 36.68
7 7 -2 508.03 35.01
7 -7 -2 476.49 34.47
7 7 -2 486.84 36.09
7 7 -1 161.57 20.02
7 -7 -1 96.7 14.56
7 7 -1 144.81 17.37
7 -7 -1 161.46 20.29
7 -7 -1 131.4 17.58
7 -7 -1 133.93 17.91
7 7 -1 125.61 17.73
7 -7 0 536.66 36.42
7 7 0 564.5 39.14
7 -7 0 571.09 39.11
7 7 0 614.67 36.18
7 -7 0 576.12 38.23
7 7 0 579.22 38.15
7 7 1 204.55 22.48
7 -7 1 226.83 23.26
7 -7 1 184.14 21.17
7 -7 1 154.26 20.12
7 7 1 150.55 18.41
7 7 2 207.07 22.85
7 -7 2 173.48 20.93
7 -7 2 161.08 20.95
7 7 2 176.74 19.77
7 7 3 427.83 33.69
7 7 3 367.35 30.53
7 7 3 338.83 28.34
7 -7 3 452.84 34.69
7 -7 3 380.03 33.3
7 7 4 396.63 32.64
7 7 4 361.87 31.52
7 7 4 388.95 31.5
7 -7 4 307.58 29.65
7 -7 4 335.72 31.82
7 7 5 155.99 20.78
7 7 5 147.31 20.61
7 -7 5 142 21.15
7 7 5 148.95 20.4
7 -7 5 127.59 20.09
7 7 6 324.07 32.16
7 -7 6 307.26 31.8
7 -9 -8 9.16 6.4
7 -9 -7 394.28 32.47
7 -9 -7 419.7 35.66
7 9 -7 367.47 34.99
7 9 -7 351.17 33.44
7 -9 -6 217.84 24.11
7 9 -6 193.97 24.15
7 -9 -6 156.29 21.78
7 9 -5 868.72 52.52
7 -9 -5 850.99 52.41
7 -9 -5 856.49 45.32
7 9 -5 786.99 51.01
7 9 -4 200.68 23.34
7 -9 -4 199.07 23.85
7 -9 -4 217.63 21.48
7 9 -4 191.7 23.33
7 -9 -3 479.13 31.1
7 -9 -3 484.75 33.7
7 9 -3 468.32 34.87
7 -9 -3 462.42 36.76
7 -9 -3 506.78 34.64
7 9 -3 467.11 36.87
7 -9 -2 471.3 31.65
7 -9 -2 496.05 34.13
7 9 -2 503.32 34.88
7 -9 -2 500.32 38.02
7 -9 -2 486.46 34.79
7 9 -2 503.44 37.75
7 -9 -1 443.26 31.36
7 -9 -1 447.3 32.06
7 -9 -1 460.23 35.84
7 -9 -1 429.18 33.12
7 9 -1 494.07 36.09
7 -9 0 383.47 29.35
7 9 0 411.22 32.51
7 -9 0 330.58 30.25
7 -9 0 396.1 32.35
7 9 0 413.27 32.06
7 9 1 147.1 19.42
7 -9 1 193.74 22.78
7 -9 1 192.02 22.61
7 9 1 204.55 21.82
7 9 2 39.12 10.2
7 -9 2 35.05 10.23
7 9 3 380.51 32.1
7 9 3 414.07 32.3
7 -9 3 361.7 32.61
7 -9 3 446.21 36.29
7 9 4 58.46 12.75
7 9 4 26.74 9.34
7 -9 4 40.65 11.99
7 9 4 30.51 9.87
7 -9 4 36.34 11.41
7 9 5 264.18 27.18
7 9 5 274.22 28.45
7 9 5 278.42 28.19
7 -9 5 279.05 29.52
7 -9 5 282.95 30.49
7 -11 -7 47.89 11.76
7 -11 -6 341.77 30.95
7 11 -6 357.48 33.62
7 -11 -5 44.69 11.41
7 11 -5 31.39 10.37
7 11 -5 41.97 11.75
7 -11 -4 475.54 35.56
7 11 -4 483.73 36.87
7 -11 -4 447.27 31.5
7 11 -4 407.74 35.94
7 -11 -3 136.02 18.65
7 11 -3 136.77 18.58
7 -11 -3 136.85 17.67
7 11 -3 135.63 19.95
7 -11 -2 152.38 16.58
7 -11 -2 146.95 19.45
7 -11 -2 128.38 18.21
7 11 -2 177.22 22.28
7 -11 -1 114.83 14.94
7 -11 -1 99.02 16.13
7 -11 -1 126.81 18.12
7 11 -1 118.27 18.11
7 -11 0 160.75 18.13
7 -11 0 154.81 19.84
7 -11 0 183.32 22.71
7 -11 0 131.54 19.01
7 11 0 152.48 20.18
7 -11 1 56.92 13.01
7 -11 1 51.94 11.1
7 11 1 76.87 14.2
7 -11 1 73.34 14.94
7 -11 1 70.61 14.39
7 -11 2 274.84 26.49
7 -11 2 225.41 25.8
7 -11 2 244.34 26.86
7 11 3 185.47 23.92
7 -11 3 174.42 23.8
7 11 4 297.66 30.1
7 11 4 290.05 30.04
7 -11 4 291.47 30.94
7 -13 -5 281.25 28.75
7 13 -5 288.53 29.56
7 -13 -4 76.34 15.16
7 13 -4 54.72 14.02
7 -13 -3 466.89 36.68
7 -13 -3 453.75 32.79
7 13 -3 452 38.04
7 -13 -2 96.16 16.97
7 -13 -2 100.66 15.91
7 13 -2 122.31 19.34
7 -13 -1 498.33 38.27
7 -13 -1 500.42 36.77
7 13 -1 441.41 36.68
7 -13 0 30.19 10.58
7 -13 0 34.29 10.85
7 13 0 57.22 12.79
7 -13 1 236.3 26.38
7 -13 1 249.36 28.1
7 -13 1 262.14 27.86
7 -13 2 121.52 19.06
7 -13 2 82.4 16.51
7 13 2 87.44 17.88
7 -13 2 76.95 16.21
7 -13 3 124.11 19.93
7 -15 -1 64.67 13.2
7 -15 0 238.25 26.08
8 0 -7 -5.43 5.99
8 0 -6 180.16 23.19
8 0 -5 -2.68 5.3
8 0 -4 83.71 15.98
8 0 -4 46.39 12.03
8 0 -3 -2.54 4.35
8 0 -3 -2.51 4.95
8 0 -2 428.89 34.48
8 0 -1 5.03 6.08
8 0 -1 -2.45 4.83
8 0 -1 -2.36 6.16
8 0 0 481.14 37.19
8 0 0 490.04 35.76
8 0 0 423.56 34.77
8 0 1 -2.61 5.76
8 0 1 -2.48 4.88
8 0 1 2.16 5.64
8 0 2 742.87 49.78
8 0 2 899.36 52.33
8 0 3 -2.78 4.75
8 0 3 2.52 4.31
8 0 4 513.24 38.97
8 0 5 -2.57 6.22
8 -2 -7 620.17 44.6
8 2 -7 550.12 43.03
8 -2 -7 514.97 40.7
8 2 -7 551.63 42.08
8 2 -6 56.07 13.57
8 -2 -6 21.69 8.91
8 -2 -5 1366.12 70.79
8 2 -5 1336.02 70.17
8 -2 -5 1404.36 70.95
8 2 -5 1371.96 69.99
8 -2 -4 5.29 5.22
8 2 -4 10.36 6.76
8 -2 -4 2.62 4.48
8 2 -4 5.17 5.11
8 -2 -3 394.89 32.99
8 2 -3 416.43 34.14
8 -2 -3 424.33 35.09
8 2 -3 389.5 33.28
8 -2 -2 9.71 6.34
8 2 -2 12.83 6.7
8 2 -2 2.42 4.14
8 -2 -2 -2.48 5.48
8 2 -2 7.28 5.36
8 -2 -1 253.7 26.35
8 2 -1 306.05 29.35
8 -2 -1 281.11 27.55
8 -2 -1 294.86 28.44
8 2 -1 313.02 28.38
8 2 0 44.15 11.49
8 -2 0 32.27 10.13
8 2 0 41.5 10.8
8 -2 0 44.03 11.23
8 2 0 17.88 8
8 2 1 63.29 14.11
8 -2 1 73.05 14.16
8 2 1 61.14 13.32
8 -2 1 53.23 11.9
8 2 1 74.52 13.55
8 -2 2 34.79 11.24
8 2 2 32.38 10.36
8 -2 2 38.4 11.05
8 2 2 51.3 12.33
8 2 3 527.07 41.28
8 -2 3 517.36 40.28
8 2 3 642.74 42.5
8 2 4 25.7 10.19
8 -2 4 26.6 9.49
8 2 4 36.7 10.55
8 -2 5 429.31 36.3
8 -4 -7 129.44 19.75
8 4 -7 88.22 17.58
8 -4 -7 79.85 16.48
8 4 -7 91.21 17.21
8 4 -6 195.54 25.04
8 -4 -6 150.22 21.28
8 -4 -6 142.84 21.23
8 4 -5 27.18 10.08
8 -4 -5 38.08 11.42
8 -4 -5 39.59 10.82
8 4 -5 43.22 11.96
8 4 -4 129.67 19.58
8 -4 -4 111.11 17.12
8 -4 -4 117.65 18.93
8 4 -4 142.38 20.24
8 -4 -3 6.92 5.58
8 4 -3 4.95 5.46
8 -4 -3 7.2 5.8
8 -4 -3 2.62 5.17
8 4 -3 2.56 5.05
8 -4 -2 600.12 41.14
8 4 -2 568.8 42.02
8 4 -2 658.89 42.95
8 -4 -2 642.36 43.71
8 -4 -2 580.73 40.91
8 4 -2 618.2 42.58
8 4 -1 180.69 22.48
8 -4 -1 131.79 19.1
8 4 -1 179.12 21.18
8 -4 -1 171.05 21.6
8 4 -1 163.62 20.7
8 -4 0 705.91 45.55
8 4 0 701.23 46.56
8 4 0 709.23 43.15
8 -4 0 651.13 40.75
8 -4 0 618.91 43.28
8 -4 0 722.57 45.44
8 4 0 659.94 42.67
8 -4 1 43.33 11.33
8 4 1 42.58 11.82
8 -4 1 38.27 9.7
8 -4 1 59.11 13.72
8 -4 1 64.53 13.13
8 4 1 70.04 13.75
8 4 1 59.76 12.17
8 -4 2 784.44 50.67
8 4 2 920.16 54.69
8 -4 2 848.51 49.04
8 -4 2 819.22 51.62
8 4 2 844.98 50.24
8 4 3 66.15 14.18
8 -4 3 49.38 11.89
8 -4 3 40.53 11.37
8 4 3 40.27 11.03
8 4 4 431.34 36.76
8 -4 4 359.06 32.08
8 -4 4 360.03 33.81
8 -4 5 5.2 7.7
8 -6 -6 92.74 17.15
8 6 -6 94.51 17.77
8 -6 -6 67.72 13.1
8 -6 -6 78.74 15.83
8 6 -5 566.46 42.87
8 -6 -5 579.25 39.95
8 6 -5 647.08 45.2
8 6 -4 88.48 16.17
8 -6 -4 78.66 14.59
8 -6 -4 66.29 14.82
8 6 -4 92.24 16.84
8 -6 -3 429.21 32.92
8 6 -3 456.53 35.74
8 -6 -3 388.11 34.88
8 -6 -3 450.08 34.84
8 6 -3 437.26 36.09
8 -6 -2 83.13 14.96
8 6 -2 139.76 19.15
8 -6 -2 116.54 17.66
8 -6 -2 122.19 19.1
8 6 -2 89.02 16.3
8 -6 -1 377.31 31.8
8 6 -1 458.72 36.83
8 6 -1 469.57 34.34
8 -6 -1 486.26 37.52
8 -6 -1 425.41 34.86
8 6 -1 380.56 32.7
8 -6 0 11.98 6.7
8 6 0 23.85 9.07
8 -6 0 31.73 9.5
8 -6 0 15.05 7.44
8 6 0 23.22 8.58
8 -6 1 27.49 9.58
8 6 1 47.87 12.05
8 -6 1 21.06 8.67
8 -6 1 31.64 10.1
8 -6 1 33.74 10.12
8 6 1 28.65 9.74
8 -6 2 52.24 13.43
8 6 2 40.39 11.63
8 -6 2 36.54 11.07
8 -6 2 40.71 11.41
8 6 2 46.91 11.85
8 6 3 87.05 16.66
8 -6 3 81.34 15.17
8 -6 3 58.8 13.95
8 6 4 77.19 16.19
8 -6 4 60.96 14.67
8 -8 -6 118.83 19.09
8 8 -5 27.5 10.16
8 -8 -5 15.11 7.08
8 8 -5 20.09 8.97
8 8 -4 135.43 20.36
8 -8 -4 132.93 18.78
8 -8 -4 131.51 20.43
8 8 -4 129.22 20.28
8 8 -3 27.01 9.72
8 -8 -3 30.42 9.83
8 -8 -3 47.95 13.08
8 8 -3 27.31 9.75
8 -8 -2 506.69 36.22
8 8 -2 585.92 39.65
8 -8 -2 606.19 43.82
8 -8 -2 526.54 38.96
8 8 -2 540.66 40.59
8 -8 -1 285.09 26.8
8 -8 -1 356.62 32.69
8 -8 -1 301.68 29.43
8 8 -1 323.82 30.33
8 -8 0 537.89 38.65
8 8 0 588.24 42.7
8 -8 0 587.08 42.53
8 -8 0 601.08 41.61
8 -8 0 524.05 40.42
8 8 0 561.98 39.91
8 -8 1 189.29 22.55
8 8 1 209.13 24.77
8 -8 1 203.53 23.99
8 -8 2 591.79 42.15
8 8 2 601.32 43.16
8 -8 2 598.03 42.95
8 -8 2 601.45 44.16
8 8 3 175.75 23.31
8 -8 3 217.42 25.66
8 10 -4 259.64 27.82
8 -10 -4 293.06 26.88
8 -10 -3 325.78 29.32
8 10 -3 288.93 30.65
8 -10 -2 428.07 31.4
8 -10 -2 414.57 34.02
8 10 -2 391.67 35.22
8 -10 -1 210.25 22.1
8 -10 -1 200.69 24.12
8 10 -1 210.07 25.16
8 -10 0 122.32 17.67
8 -10 0 110.6 18.9
8 -10 0 137.85 20.17
8 -10 1 67.11 13.41
8 10 1 59.58 13.37
8 -10 1 49.16 13.3
8 -10 1 71.75 15.24
8 -10 2 2.45 4.19
8 -12 -2 199.32 23.31
9 -1 -4 228 27.33
9 1 -4 192.88 25.39
9 -1 -4 244.57 28.27
9 -1 -3 444.86 37.96
9 1 -3 375.63 35.57
9 -1 -3 509.64 40.11
9 1 -3 407.2 36.5
9 -1 -2 75.33 15.68
9 1 -2 63.11 14.45
9 -1 -2 80.51 15.85
9 -1 -2 60.95 14.06
9 1 -2 69.64 15.17
9 1 -2 90.49 17
9 -1 -1 348.53 33.02
9 1 -1 303.36 31.51
9 1 -1 333.5 31.89
9 -1 -1 321.28 31.11
9 -1 -1 320.34 31.56
9 1 -1 363.34 32.98
9 1 -1 331.77 32.41
9 1 0 90.5 17.66
9 -1 0 86.69 16.93
9 1 0 86.16 16.61
9 -1 0 82.14 15.97
9 1 0 88.75 16.37
9 -1 1 76.4 16.74
9 1 1 65.34 15.04
9 -1 1 61.86 14.25
9 1 1 69.29 15.08
9 -3 -4 112.27 19.29
9 3 -4 88.52 17.79
9 -3 -4 102.32 17.81
9 3 -3 446.1 37.46
9 -3 -3 447.36 38.26
9 -3 -3 471.41 38.16
9 3 -3 410.97 36.35
9 -3 -2 267.73 28.62
9 3 -2 236.51 27.66
9 3 -2 273.68 28.51
9 -3 -2 242.43 27.75
9 3 -2 240.15 27.32
9 -3 -1 474.33 38.58
9 3 -1 398.59 36.66
9 3 -1 470.57 37.46
9 -3 -1 462.31 38.43
9 -3 -1 502.94 39.49
9 3 -1 489.08 38.66
9 3 -1 478.04 39.14
9 -3 0 67.64 15.07
9 3 0 91.57 17.81
9 -3 0 73.23 15.57
9 3 0 55.26 13.46
9 -3 0 68.38 14.78
9 3 0 55.29 12.76
9 3 1 193.49 25.21
9 -3 1 138.49 21.08
9 -3 1 122.65 19.67
9 3 1 153.03 21.74
9 5 -3 225.36 26.54
9 -5 -3 241.23 26.75
9 -5 -2 15.55 7.7
9 5 -2 36.28 11.16
9 -5 -2 19.14 8.56
9 -5 -2 37.56 11.77
9 5 -2 30.34 10.56
9 -5 -1 242.06 27.13
9 5 -1 221.3 26.96
9 -5 -1 255.24 28.25
9 -5 -1 239.63 27.67
9 5 -1 259.44 27.87
9 -5 0 137 20.9
9 5 0 154.07 22.74
9 -5 0 129.93 20.31
9 5 0 136.83 20.88
9 -5 1 169.06 23.01
9 -7 -2 224.72 24.92
9 -7 -1 185.01 23.15
loop_
_geom_angle_atom_site_label_1
_geom_angle_atom_site_label_2
_geom_angle_atom_site_label_3
_geom_angle
_geom_angle_site_symmetry_1
_geom_angle_site_symmetry_3
_geom_angle_publ_flag
O3 Cu1 O1 100.05(4) 2_564 . ?
O5 Cu1 O1 85.84(4) . . ?
O5 Cu1 O3 101.41(4) . 2_564 ?
O6 Cu1 O1 170.99(4) . . ?
O6 Cu1 O3 88.78(4) . 2_564 ?
O6 Cu1 O5 90.70(4) . . ?
O7 Cu1 O1 95.63(4) . . ?
O7 Cu1 O3 84.63(4) . 2_564 ?
O7 Cu1 O5 173.46(4) . . ?
O7 Cu1 O6 86.90(4) . . ?
S1 O1 Cu1 141.61(7) . . ?
S1 O3 Cu1 139.11(6) . 2_565 ?
H5a O5 Cu1 118.8(16) . . ?
H5b O5 Cu1 112.0(15) . . ?
H5b O5 H5a 117(2) . . ?
H6a O6 Cu1 118.6(15) . . ?
H6b O6 Cu1 114.3(16) . . ?
H6b O6 H6a 110(2) . . ?
H7a O7 Cu1 112.5(14) . . ?
H7b O7 Cu1 125.5(18) . . ?
H7b O7 H7a 109(2) . . ?
O2 S1 O1 108.76(6) . . ?
O3 S1 O1 110.34(6) . . ?
O3 S1 O2 110.41(6) . . ?
O4 S1 O1 106.23(6) . . ?
O4 S1 O2 110.90(6) . . ?
O4 S1 O3 110.12(6) . . ?
loop_
_geom_bond_atom_site_label_1
_geom_bond_atom_site_label_2
_geom_bond_distance
_geom_bond_site_symmetry_2
_geom_bond_publ_flag
Cu1 O1 1.9574(9) . ?
Cu1 O3 2.3726(10) 2_564 ?
Cu1 O5 1.9560(9) . ?
Cu1 O6 1.9816(11) . ?
Cu1 O7 1.9618(9) . ?
O1 S1 1.4941(10) . ?
O2 S1 1.4717(10) . ?
O3 S1 1.4717(10) . ?
O4 S1 1.4743(10) . ?
O5 H5a 0.998(15) . ?
O5 H5b 1.001(15) . ?
O6 H6a 0.978(15) . ?
O6 H6b 0.993(16) . ?
O7 H7a 1.000(15) . ?
O7 H7b 0.954(16) . ?
loop_
_geom_hbond_atom_site_label_D
_geom_hbond_atom_site_label_H
_geom_hbond_atom_site_label_A
_geom_hbond_distance_DH
_geom_hbond_distance_HA
_geom_hbond_distance_DA
_geom_hbond_angle_DHA
_geom_hbond_site_symmetry_A
O5 H5a O4 0.998(15) 1.687(16) 2.6841(13) 178(3) 1_554
O5 H5b O7 1.001(15) 1.890(19) 2.8141(13) 152(2) 1_655
O6 H6a O3 0.978(15) 1.776(16) 2.7505(14) 174(2) 1_554
O6 H6b O1 0.993(16) 1.94(2) 2.8448(15) 151(2) 4_464
O6 H6b O4 0.993(16) 2.48(2) 3.1589(15) 125(2) 1_454
O7 H7a O2 1.000(15) 1.621(16) 2.6022(13) 166(2) 2_464
O7 H7b O2 0.954(16) 1.78(2) 2.6667(13) 153(3) 1_455
loop_
_geom_torsion_atom_site_label_1
_geom_torsion_atom_site_label_2
_geom_torsion_atom_site_label_3
_geom_torsion_atom_site_label_4
_geom_torsion
_geom_torsion_site_symmetry_1
_geom_torsion_site_symmetry_2
_geom_torsion_site_symmetry_3
_geom_torsion_site_symmetry_4
_geom_torsion_publ_flag
Cu1 O1 S1 O2 68.25(11) . . . . ?
Cu1 O1 S1 O3 -53.00(11) . . . . ?
Cu1 O1 S1 O4 -172.33(10) . . . . ?
Cu1 O3 S1 O1 106.11(9) 2_565 . . . ?
Cu1 O3 S1 O2 -14.15(10) 2_565 . . . ?
Cu1 O3 S1 O4 -136.94(8) 2_565 . . . ?
loop_
_restr_distance_atom_site_label_1
_restr_distance_atom_site_label_2
_restr_distance_site_symmetry_2
_restr_distance_target
_restr_distance_target_weight_param
_restr_distance_diff
O5 H5a 1 0.9890 0.0200 -0.0085
O5 H5b 1 0.9890 0.0200 -0.0122
O6 H6a 1 0.9890 0.0200 0.0114
O6 H6b 1 0.9890 0.0200 -0.0040
O7 H7a 1 0.9890 0.0200 -0.0112
O7 H7b 1 0.9890 0.0200 0.0345
loop_
_restr_U_iso_atom_site_label
_restr_U_iso_weight_param
H6a 0.0200
H7b 0.0200
loop_
_restr_rigu_atom_site_label_1
_restr_rigu_atom_site_label_2
_restr_rigu_target_weight_param
_restr_rigu_u13_diff
_restr_rigu_u23_diff
_restr_rigu_u33_diff
Cu1 O1 0.004000 0.000753 -0.000984 -0.001350
Cu1 O5 0.004000 0.000455 0.000651 -0.001892
Cu1 H5a 0.004000 0.006659 0.004419 -0.008309
Cu1 H5b 0.004000 0.002034 -0.002009 -0.004535
Cu1 O6 0.004000 0.000121 -0.000536 -0.002007
Cu1 H6a 0.004000 -0.002665 -0.000852 -0.001673
Cu1 H6b 0.004000 -0.008697 -0.002044 -0.010012
Cu1 O7 0.004000 0.000439 0.000175 -0.002096
Cu1 H7a 0.004000 0.002816 -0.000996 -0.005640
Cu1 H7b 0.004000 0.007683 0.006593 -0.009779
Cu1 S1 0.004000 0.000288 -0.000431 0.000014
O1 O2 0.004000 0.003899 0.000536 0.001040
O1 O3 0.004000 -0.002928 -0.004681 0.000289
O1 O4 0.004000 -0.002828 0.001193 -0.000000
O1 O5 0.004000 0.002486 -0.003190 0.000343
O1 O6 0.004000 0.000886 0.000288 -0.000900
O1 O7 0.004000 0.000592 0.003243 0.001268
O1 S1 0.004000 -0.000041 -0.000869 0.000745
O2 O3 0.004000 0.005500 -0.001750 -0.000560
O2 O4 0.004000 0.007905 0.004754 0.000957
O2 S1 0.004000 0.000139 0.000694 0.000179
O3 O4 0.004000 -0.000594 -0.003777 -0.000110
O3 S1 0.004000 0.000717 0.000069 0.000847
O4 S1 0.004000 0.001010 0.000179 0.000579
O5 H5a 0.004000 -0.000997 -0.000573 -0.003269
O5 H5b 0.004000 0.000995 0.002066 -0.000688
O5 O6 0.004000 0.000767 -0.002386 0.000131
O5 O7 0.004000 0.000794 -0.000536 -0.000189
H5a H5b 0.004000 0.006300 0.001524 -0.000466
O6 H6a 0.004000 -0.000852 0.000561 -0.002385
O6 H6b 0.004000 -0.001540 0.002859 -0.000835
O6 O7 0.004000 -0.000712 -0.001589 0.000065
H6a H6b 0.004000 -0.007205 0.003905 -0.001375
O7 H7a 0.004000 0.000630 0.001409 -0.001713
O7 H7b 0.004000 -0.002300 -0.001076 -0.002883
H7a H7b 0.004000 0.000991 -0.007375 -0.001196
