#------------------------------------------------------------------------------
#$Date: 2016-03-26 03:50:16 +0200 (Sat, 26 Mar 2016) $
#$Revision: 180198 $
#$URL: svn://www.crystallography.net/cod/cif/7/10/94/7109480.cif $
#------------------------------------------------------------------------------
#
# This file is available in the Crystallography Open Database (COD),
# http://www.crystallography.net/
#
# All data on this site have been placed in the public domain by the
# contributors.
#
data_7109480
loop_
_publ_author_name
'Seowoo Kim'
'Paul D. Boyle'
'Matthew S. McCready'
'Kyle R. Pellarin'
'Richard J. Puddephatt'
_publ_section_title
;
 Easy activation of the aryl-sulfur bond by platinum(II)
;
_journal_name_full               Chem.Commun.
_journal_page_first              6421
_journal_paper_doi               10.1039/c3cc43303j
_journal_volume                  49
_journal_year                    2013
_chemical_formula_sum            'C32 H38 N2 Pt2 S2'
_chemical_formula_weight         904.94
_chemical_name_systematic
;
 ?
;
_space_group_crystal_system      triclinic
_space_group_IT_number           2
_space_group_name_Hall           '-P 1'
_space_group_name_H-M_alt        'P -1'
_symmetry_space_group_name_Hall  '-P 1'
_symmetry_space_group_name_H-M   'P -1'
_atom_sites_solution_hydrogens   geom
_atom_sites_solution_primary     direct
_atom_sites_solution_secondary   difmap
_audit_creation_method           SHELXL-2012
_cell_angle_alpha                93.302(8)
_cell_angle_beta                 109.27(3)
_cell_angle_gamma                108.338(14)
_cell_formula_units_Z            1
_cell_length_a                   8.461(5)
_cell_length_b                   9.198(6)
_cell_length_c                   11.156(5)
_cell_measurement_reflns_used    9893
_cell_measurement_temperature    150
_cell_measurement_theta_max      33.40
_cell_measurement_theta_min      2.71
_cell_volume                     765.2(8)
_computing_cell_refinement       SAINT
_computing_data_collection       Apex2
_computing_data_reduction        SAINT
_computing_molecular_graphics    NRCVAX
_computing_publication_material  cif2tables.py
_computing_structure_refinement  SHELXL-2013
_computing_structure_solution    SIR92
_diffrn_ambient_temperature      150
_diffrn_measured_fraction_theta_full 0.997
_diffrn_measured_fraction_theta_max 0.936
_diffrn_measurement_device_type  'Nonius KappaCCD'
_diffrn_measurement_method       'omega and phi scans'
_diffrn_radiation_type           MoK\a
_diffrn_radiation_wavelength     0.71073
_diffrn_reflns_av_R_equivalents  0.0381
_diffrn_reflns_av_unetI/netI     0.0418
_diffrn_reflns_Laue_measured_fraction_full 0.997
_diffrn_reflns_Laue_measured_fraction_max 0.936
_diffrn_reflns_limit_h_max       13
_diffrn_reflns_limit_h_min       -13
_diffrn_reflns_limit_k_max       14
_diffrn_reflns_limit_k_min       -14
_diffrn_reflns_limit_l_max       17
_diffrn_reflns_limit_l_min       -17
_diffrn_reflns_number            21667
_diffrn_reflns_point_group_measured_fraction_full 0.997
_diffrn_reflns_point_group_measured_fraction_max 0.936
_diffrn_reflns_theta_full        25.242
_diffrn_reflns_theta_max         34.985
_diffrn_reflns_theta_min         3.824
_diffrn_source                   'sealed tube'
_exptl_absorpt_coefficient_mu    9.291
_exptl_absorpt_correction_T_max  0.7468
_exptl_absorpt_correction_T_min  0.4615
_exptl_absorpt_correction_type   multi-scan
_exptl_absorpt_process_details   SADABS
_exptl_crystal_colour            'pale greenish yellow'
_exptl_crystal_density_diffrn    1.964
_exptl_crystal_description       prism
_exptl_crystal_F_000             432
_exptl_crystal_size_max          0.466
_exptl_crystal_size_mid          0.254
_exptl_crystal_size_min          0.091
_refine_diff_density_max         1.276
_refine_diff_density_min         -1.363
_refine_diff_density_rms         0.200
_refine_ls_extinction_method     none
_refine_ls_goodness_of_fit_ref   1.094
_refine_ls_hydrogen_treatment    constr
_refine_ls_matrix_type           full
_refine_ls_number_parameters     175
_refine_ls_number_reflns         6292
_refine_ls_number_restraints     0
_refine_ls_restrained_S_all      1.094
_refine_ls_R_factor_all          0.0367
_refine_ls_R_factor_gt           0.0275
_refine_ls_shift/su_max          0.001
_refine_ls_shift/su_mean         0.000
_refine_ls_structure_factor_coef Fsqd
_refine_ls_weighting_details
;
 w=1/[\s^2^(Fo^2^)+(0.0147P)^2^+0.6604P]
 where P=(Fo^2^+2Fc^2^)/3
;
_refine_ls_weighting_scheme      calc
_refine_ls_wR_factor_gt          0.0488
_refine_ls_wR_factor_ref         0.0507
_reflns_Friedel_coverage         0.000
_reflns_number_gt                5508
_reflns_number_total             6292
_reflns_threshold_expression     'I > 2\s(I)'
_cod_data_source_file            c3cc43303j.txt
_cod_data_source_block           7a
_cod_database_code               7109480
#BEGIN Tags that were not found in dictionaries:
_shelx_space_group_comment
;
The symmetry employed for this shelxl refinement is uniquely defined
by the following loop, which should always be used as a source of
symmetry information in preference to the above space-group names.
They are only intended as comments.
;
_shelx_estimated_absorpt_t_min   0.098
_shelx_estimated_absorpt_t_max   0.485
_shelxl_version_number           2012-9
_shelx_res_file
;
TITL n13065: P-1
CELL 0.71073 8.46089    9.19790   11.15616   93.3023  109.2749  108.3384
ZERR     1   0.00483    0.00571    0.00534    0.0075    0.0259    0.0136
LATT   1
SFAC    C   H   N   PT   S
UNIT   32  38   2    2   2
TEMP -123
SIZE 0.466 0.254 0.091
ACTA
MERG   2
REM omit reflections blocked by beam stop
OMIT  1   0   0
OMIT  0   1   0
OMIT  0   0   1
OMIT  0  -1   1
OMIT -1   1   1
L.S.  12
FMAP   2
PLAN  30
BOND  $H
CONF
HTAB
WGHT    0.014700    0.660400
FVAR       0.15300
MOLE 1
PT1   4    0.351405    0.084957    0.393761    11.00000    0.01459    0.01415 =
         0.01171    0.00145    0.00458    0.00495
S1    5    0.636384    0.050609    0.423419    11.00000    0.01543    0.02034 =
         0.01417    0.00340    0.00613    0.00558
C1    1    0.123211    0.129386    0.385391    11.00000    0.02504    0.02785 =
         0.02339    0.00602    0.01068    0.01405
AFIX 137
H1A   2    0.147682    0.241641    0.392543    11.00000   -1.50000
H1B   2    0.087824    0.092675    0.456665    11.00000   -1.50000
H1C   2    0.026097    0.074873    0.303004    11.00000   -1.50000
AFIX   0
C2    1    0.501497    0.297167    0.512833    11.00000    0.03239    0.01727 =
         0.02072   -0.00023    0.00603    0.00693
AFIX 137
H2A   2    0.601986    0.349916    0.486943    11.00000   -1.50000
H2B   2    0.547514    0.281811    0.602216    11.00000   -1.50000
H2C   2    0.426638    0.361070    0.506178    11.00000   -1.50000
AFIX   0
C3    1    0.340819    0.177044    0.232477    11.00000    0.01636    0.02334 =
         0.01846    0.00622    0.00731    0.00686
C4    1    0.404962    0.332898    0.218756    11.00000    0.03099    0.02572 =
         0.02455    0.00945    0.01316    0.00898
AFIX  43
H4    2    0.461440    0.412651    0.293134    11.00000   -1.20000
AFIX   0
C5    1    0.387022    0.372504    0.097447    11.00000    0.03323    0.03503 =
         0.03206    0.01970    0.01743    0.00989
AFIX  43
H5    2    0.430213    0.479056    0.090436    11.00000   -1.20000
AFIX   0
C6    1    0.307003    0.258849   -0.013616    11.00000    0.02888    0.04959 =
         0.02366    0.01901    0.01181    0.01150
AFIX  43
H6    2    0.298285    0.287467   -0.095393    11.00000   -1.20000
AFIX   0
C7    1    0.240631    0.104688   -0.003960    11.00000    0.02749    0.04533 =
         0.01439    0.00763    0.00590    0.00688
AFIX  43
H7    2    0.184972    0.026233   -0.079200    11.00000   -1.20000
AFIX   0
C8    1    0.255546    0.063930    0.117508    11.00000    0.02037    0.02926 =
         0.01522    0.00508    0.00541    0.00681
C9    1    0.173245   -0.094310    0.131454    11.00000    0.02210    0.02738 =
         0.01469   -0.00138    0.00442    0.00575
AFIX  43
H9    2    0.110398   -0.175114    0.057823    11.00000   -1.20000
AFIX   0
N1    3    0.186081   -0.124603    0.245016    11.00000    0.01590    0.02096 =
         0.01321    0.00208    0.00449    0.00576
C10   1    0.093473   -0.279124    0.256911    11.00000    0.01731    0.02010 =
         0.01679    0.00106    0.00348    0.00480
C11   1   -0.002750   -0.298822    0.338326    11.00000    0.01921    0.02396 =
         0.01733    0.00228    0.00412    0.00595
AFIX  43
H11   2   -0.002413   -0.210325    0.386861    11.00000   -1.20000
AFIX   0
C12   1   -0.099597   -0.447840    0.348942    11.00000    0.02194    0.02907 =
         0.03016    0.00824    0.00873    0.00357
AFIX  43
H12   2   -0.166810   -0.460679    0.403508    11.00000   -1.20000
AFIX   0
C13   1   -0.098140   -0.577779    0.279908    11.00000    0.03460    0.02070 =
         0.03921    0.00856    0.00484    0.00074
AFIX  43
H13   2   -0.165187   -0.679497    0.286279    11.00000   -1.20000
AFIX   0
C14   1    0.002237   -0.557665    0.201463    11.00000    0.04613    0.02096 =
         0.03222   -0.00260    0.00607    0.00906
AFIX  43
H14   2    0.006114   -0.646427    0.156238    11.00000   -1.20000
AFIX   0
C15   1    0.097023   -0.409759    0.188138    11.00000    0.03037    0.02623 =
         0.02323   -0.00202    0.00790    0.00853
AFIX  43
H15   2    0.163463   -0.397329    0.133050    11.00000   -1.20000
AFIX   0
C16   1    0.612081   -0.075659    0.282025    11.00000    0.02637    0.03994 =
         0.01978    0.00148    0.01132    0.01468
AFIX 137
H16A  2    0.502050   -0.166847    0.258187    11.00000   -1.50000
H16B  2    0.715209   -0.109635    0.301555    11.00000   -1.50000
H16C  2    0.605880   -0.018574    0.210099    11.00000   -1.50000
MOLE 0
AFIX   0
HKLF 4

REM  n13065: P-1
REM R1 =  0.0275 for    5508 Fo > 4sig(Fo)  and  0.0367 for all    6292 data
REM    175 parameters refined using      0 restraints

END

WGHT      0.0147      0.6604

REM Instructions for potential hydrogen bonds

REM No hydrogen bonds found for HTAB generation

REM Highest difference peak  1.276,  deepest hole -1.363,  1-sigma level  0.200
Q1    1   0.4794  0.1404  0.4699  11.00000  0.05    1.28
Q2    1   0.4594  0.1971  0.4519  11.00000  0.05    1.19
Q3    1   0.2205  0.0706  0.3240  11.00000  0.05    1.15
Q4    1   0.3607  0.1931  0.4223  11.00000  0.05    1.11
Q5    1   0.3347  0.1160  0.4751  11.00000  0.05    1.10
Q6    1   0.2258  0.0590  0.3914  11.00000  0.05    1.10
Q7    1   0.4585  0.0625  0.3837  11.00000  0.05    1.08
Q8    1   0.2369 -0.4264  0.0326  11.00000  0.05    1.05
Q9    1   0.2745  0.0237  0.4452  11.00000  0.05    1.05
Q10   1   0.4653  0.0604  0.4661  11.00000  0.05    1.05
Q11   1   0.2302 -0.0173  0.3513  11.00000  0.05    1.02
Q12   1   0.3376  0.1106  0.3026  11.00000  0.05    0.98
Q13   1   0.3709 -0.0146  0.3823  11.00000  0.05    0.97
Q14   1   0.3031 -0.0339  0.4117  11.00000  0.05    0.96
Q15   1   0.4302  0.2644  0.2423  11.00000  0.05    0.91
Q16   1   0.4076  0.1539  0.3345  11.00000  0.05    0.89
Q17   1   0.3912  0.0865  0.4278  11.00000  0.05    0.86
Q18   1   0.3503  0.1795  0.3540  11.00000  0.05    0.81
Q19   1   0.3468  0.0306  0.3008  11.00000  0.05    0.80
Q20   1   0.4126  0.3653  0.1667  11.00000  0.05    0.78
Q21   1   0.2789  0.1620  0.4059  11.00000  0.05    0.77
Q22   1   0.3463  0.2424  0.4850  11.00000  0.05    0.75
Q23   1   0.0428 -0.0171  0.4980  11.00000  0.05    0.74
Q24   1   0.1694 -0.1198  0.1831  11.00000  0.05    0.71
Q25   1   0.6654  0.1012  0.4695  11.00000  0.05    0.69
Q26   1   0.6328  0.1022  0.3823  11.00000  0.05    0.69
Q27   1  -0.0909 -0.6242  0.3015  11.00000  0.05    0.69
Q28   1   0.5400  0.0889  0.3584  11.00000  0.05    0.69
Q29   1   0.3628  0.0692  0.4859  11.00000  0.05    0.68
Q30   1   0.0046 -0.7537  0.2071  11.00000  0.05    0.68
;
_shelx_res_checksum              72576
_shelx_hkl_file
;
  -1   0   0   -0.25    0.12
  -1   0   0   -0.18    0.13
   1   0   0   -0.06    0.13
   1   0   0    0.08    0.17
   1   0   0    0.02    0.12
  -2   0   0   27.89    1.07
  -2   0   0   27.55    1.36
  -2   0   0   28.13    1.14
   2   0   0   28.24    1.15
   2   0   0   26.91    1.26
   2   0   0   28.00    1.39
   2   0   0   28.72    1.07
  -3   0   0  420.23   11.96
   3   0   0  420.01   13.09
   3   0   0  415.00   11.96
  -4   0   0  338.08    9.96
   4   0   0  341.38   10.95
   4   0   0  341.19    9.97
  -5   0   0    2.86    0.81
   5   0   0    2.19    1.09
   5   0   0    3.21    0.83
  -6   0   0  108.34    4.00
   6   0   0  118.57    4.52
   6   0   0  110.44    4.02
   6   0   0  118.86    4.92
  -7   0   0  162.88    5.65
   7   0   0  157.73    5.62
   7   0   0  162.75    6.18
   7   0   0  155.56    6.52
  -8   0   0   34.90    2.30
   8   0   0   37.99    3.55
   8   0   0   39.02    2.27
   8   0   0   31.69    2.27
  -9   0   0   26.07    2.60
   9   0   0   20.22    2.39
   9   0   0   21.32    2.81
 -10   0   0   38.78    3.02
  10   0   0   42.56    4.50
 -11   0   0   31.15    3.52
  11   0   0   25.79    3.31
  11   0   0   26.58    4.37
  12  -1   0    2.55    1.88
  11  -1   0    4.41    2.58
  11  -1   0    3.64    2.28
 -11   1   0    3.03    2.23
  10  -1   0   48.34    3.63
  10  -1   0   53.31    4.74
 -10   1   0   50.50    3.70
   9  -1   0   46.76    4.39
   9  -1   0   52.91    3.31
  -9   1   0   54.40    3.33
   8  -1   0    0.97    1.27
   8  -1   0    0.11    0.95
   8  -1   0    1.74    1.92
  -8   1   0    0.06    1.28
   7  -1   0  116.84    4.76
   7  -1   0  112.78    4.89
   7  -1   0  109.13    4.24
  -7   1   0  112.61    4.25
   6  -1   0  207.70    7.32
   6  -1   0  201.00    6.39
  -6   1   0  197.28    6.38
   5  -1   0   16.81    1.49
   5  -1   0   16.36    1.28
  -5   1   0   18.81    1.30
   4  -1   0   65.12    2.34
   4  -1   0   62.15    2.85
  -4   1   0   64.23    2.33
   3  -1   0  387.96   10.82
   3  -1   0  370.59   11.92
  -3   1   0  377.81   10.82
   2  -1   0  956.71   28.98
   2  -1   0  957.60   26.65
   2  -1   0  946.31   26.64
  -2   1   0  908.60   28.97
  -2   1   0 1000.00   26.66
  -2   1   0  973.64   26.65
   0  -1   0   -0.27    0.15
   0  -1   0   -0.22    0.05
   0  -1   0   -0.22    0.14
   0  -1   0   -0.41    0.13
   0  -1   0   -0.20    0.06
   0  -1   0    0.04    0.11
   0  -1   0   -0.19    0.07
   0   1   0   -0.30    0.08
   0   1   0   -0.47    0.15
   0   1   0   -0.12    0.14
   0   1   0   -0.15    0.13
   0   1   0   -0.15    0.06
  -1  -1   0  815.83   24.47
  -1  -1   0  831.64   22.62
  -1  -1   0  826.67   25.17
  -1  -1   0  800.76   22.61
   1   1   0  791.82   22.61
   1   1   0  828.10   22.62
   1   1   0  810.16   24.47
   1   1   0  793.55   25.15
  -2  -1   0    8.80    0.91
  -2  -1   0    9.59    0.64
   2   1   0    8.61    0.63
   2   1   0    8.55    0.60
   2   1   0    9.08    0.92
  -3  -1   0  185.34    5.47
  -3  -1   0  180.28    6.17
   3   1   0  176.45    5.97
   3   1   0  178.50    5.43
  -4  -1   0  327.56    9.75
   4   1   0  322.71    9.75
   4   1   0  341.33   11.45
   4   1   0  328.08   10.67
  -5  -1   0   83.11    3.09
   5   1   0   81.10    3.70
   5   1   0   90.23    3.34
   5   1   0   81.45    3.09
  -6  -1   0   37.90    2.21
   6   1   0   41.72    2.26
   6   1   0   36.50    1.85
   6   1   0   36.64    2.79
  -7  -1   0  124.50    4.83
   7   1   0  125.10    5.74
   7   1   0  132.81    5.02
   7   1   0  126.44    4.89
  -8  -1   0   58.76    3.36
   8   1   0   52.92    3.31
   8   1   0   62.67    4.33
  -9  -1   0    2.19    1.83
   9   1   0    1.05    2.59
   9   1   0    0.67    1.85
 -10  -1   0   61.02    4.28
  10   1   0   52.90    4.59
  10   1   0   60.57    4.34
 -11  -1   0   28.12    3.43
  11   1   0   28.31    3.77
  11   1   0   30.99    3.02
  11   1   0   29.70    4.56
  12  -2   0    9.40    2.15
 -12   2   0   16.55    3.05
  11  -2   0    2.26    3.16
  11  -2   0    0.41    1.99
 -11   2   0    0.92    2.09
  10  -2   0   15.43    2.70
 -10   2   0   17.93    2.35
   9  -2   0   84.56    4.09
   9  -2   0   68.31    4.26
   9  -2   0   69.62    3.69
  -9   2   0   69.39    3.69
   8  -2   0   30.57    2.71
   8  -2   0   34.10    2.08
   8  -2   0   35.72    2.59
  -8   2   0   33.03    2.06
   7  -2   0   38.30    2.97
   7  -2   0   38.27    2.17
  -7   2   0   34.54    2.13
   6  -2   0   89.46    4.02
   6  -2   0   85.99    3.21
  -6   2   0   83.37    3.19
   5  -2   0   91.03    3.82
   5  -2   0   91.48    3.11
  -5   2   0   85.31    3.08
   4  -2   0    4.00    0.62
   4  -2   0    4.73    1.06
  -4   2   0    3.31    0.60
   3  -2   0  214.96    6.14
   3  -2   0  203.65    6.97
  -3   2   0  210.37    6.14
  -3   2   0  212.42    6.15
  -3   2   0  214.22    7.05
   2  -2   0  334.05    9.49
   2  -2   0  333.36   10.15
   2  -2   0  342.43   10.57
   2  -2   0  322.11   10.45
   2  -2   0  331.45   10.79
   2  -2   0  346.34    9.49
  -2   2   0  338.64   10.57
  -2   2   0  345.31   10.78
  -2   2   0  343.49    9.49
  -2   2   0  330.78   10.49
  -2   2   0  343.17    9.50
   1  -2   0  114.63    3.83
   1  -2   0  116.74    3.64
   1  -2   0  114.53    3.28
   1  -2   0  114.04    3.96
   1  -2   0  118.46    3.28
  -1   2   0  120.94    3.86
  -1   2   0  122.30    3.28
  -1   2   0  118.27    3.97
  -1   2   0  120.54    3.28
  -1   2   0  114.02    3.65
   0  -2   0  178.96    5.83
   0  -2   0  181.16    6.00
   0  -2   0  170.46    5.78
   0  -2   0  173.68    5.02
   0  -2   0  179.31    5.02
   0  -2   0  177.32    5.64
   0  -2   0  173.12    5.44
   0   2   0  176.80    5.63
   0   2   0  187.70    5.99
   0   2   0  181.82    5.82
   0   2   0  179.03    5.02
   0   2   0  175.49    5.46
  -1  -2   0  381.57   12.58
  -1  -2   0  399.99   12.66
  -1  -2   0  403.70   11.23
  -1  -2   0  414.57   12.21
   1   2   0  396.00   12.21
   1   2   0  404.09   12.02
   1   2   0  406.20   11.24
   1   2   0  361.29   13.30
   1   2   0  396.15   12.24
   1   2   0  417.07   11.24
  -2  -2   0   74.80    2.99
  -2  -2   0   77.35    2.45
   2   2   0   74.49    2.72
   2   2   0   74.78    2.45
   2   2   0   74.60    2.72
   2   2   0   75.06    3.02
  -3  -2   0   17.46    1.59
  -3  -2   0   17.61    1.03
   3   2   0   19.72    1.06
   3   2   0   17.99    1.41
   3   2   0   19.53    0.79
  -4  -2   0  296.91   10.43
  -4  -2   0  317.23    9.30
   4   2   0  323.08   10.71
   4   2   0  307.82    9.30
   4   2   0  310.13   10.22
  -5  -2   0  134.74    4.60
   5   2   0  126.73    5.20
   5   2   0  136.20    4.81
   5   2   0  131.78    4.59
  -6  -2   0    0.20    0.74
   6   2   0    1.08    1.13
   6   2   0    1.44    0.53
   6   2   0   -0.18    0.73
  -7  -2   0   45.55    2.86
   7   2   0   49.89    2.93
   7   2   0   49.19    3.67
  -8  -2   0  101.45    4.36
   8   2   0  106.98    5.80
   8   2   0  103.25    4.70
  -9  -2   0   18.17    2.58
   9   2   0   17.39    2.55
   9   2   0   20.37    3.48
   9   2   0   22.32    2.92
 -10  -2   0   15.43    2.28
  10   2   0   16.81    2.31
  10   2   0   16.30    3.24
  10   2   0   14.91    3.76
 -11  -2   0   27.40    3.54
  11   2   0   25.09    3.32
  12  -3   0   13.05    4.07
 -12   3   0   18.30    2.53
  11  -3   0   17.08    2.51
  11  -3   0   21.99    3.86
 -11   3   0   21.71    2.72
  10  -3   0    0.15    1.64
  10  -3   0    1.52    2.40
 -10   3   0    1.07    1.24
   9  -3   0   47.51    4.06
   9  -3   0   43.84    2.89
   9  -3   0   43.67    2.88
  -9   3   0   42.63    2.92
  -9   3   0   46.00    2.91
   8  -3   0   60.08    3.93
   8  -3   0   60.99    3.00
   8  -3   0   62.12    3.28
  -8   3   0   59.34    2.97
  -8   3   0   61.32    3.23
   7  -3   0    1.62    0.90
   7  -3   0    1.01    1.44
  -7   3   0    0.01    0.86
  -7   3   0    0.87    1.04
   6  -3   0   43.45    2.57
   6  -3   0   44.44    2.03
  -6   3   0   46.35    2.45
  -6   3   0   46.21    2.04
   5  -3   0  108.43    4.45
   5  -3   0  112.62    3.63
  -5   3   0  116.40    4.33
  -5   3   0  106.41    3.61
   4  -3   0   77.19    2.48
   4  -3   0   73.34    3.25
  -4   3   0   76.32    2.48
  -4   3   0   76.20    2.53
  -4   3   0   77.31    3.06
   3  -3   0   66.47    2.10
   3  -3   0   69.23    2.83
  -3   3   0   68.11    2.14
  -3   3   0   65.02    2.11
  -3   3   0   67.58    2.67
   2  -3   0  237.82    7.63
   2  -3   0  235.98    6.67
  -2   3   0  229.33    7.27
  -2   3   0  232.90    7.62
  -2   3   0  238.92    7.79
  -2   3   0  248.49    6.67
  -1   3   0  116.37    3.73
  -1   3   0  116.40    4.09
  -1   3   0  114.62    3.95
   0  -3   0    4.47    0.41
   0  -3   0    4.47    0.37
   0  -3   0    4.80    0.57
   0  -3   0    4.80    0.53
   0  -3   0    6.62    0.88
   0   3   0    4.83    0.81
   0   3   0    5.89    0.56
   0   3   0    4.48    0.59
   0   3   0    3.92    0.38
   0   3   0    6.29    0.59
  -1  -3   0  297.58    9.83
  -1  -3   0  289.46   10.24
  -1  -3   0  300.96    8.59
  -1  -3   0  316.48   10.27
   1   3   0  302.89    9.29
   1   3   0  296.67    9.46
   1   3   0  290.70    9.42
   1   3   0  304.74    8.61
   1   3   0  298.80   10.19
   1   3   0  312.50    8.62
  -2  -3   0  318.72   10.69
  -2  -3   0  331.11    9.37
   2   3   0  331.74   10.10
   2   3   0  323.71   10.21
   2   3   0  321.24    9.38
   2   3   0  315.49   10.22
  -3  -3   0   11.80    1.44
  -3  -3   0   11.86    1.00
   3   3   0   12.20    1.07
   3   3   0   11.20    1.20
   3   3   0   11.82    1.24
   3   3   0   11.33    1.02
  -4  -3   0   60.69    2.43
  -4  -3   0   54.87    2.80
   4   3   0   55.91    2.69
   4   3   0   54.98    2.39
   4   3   0   59.35    2.86
  -5  -3   0  115.08    4.15
  -5  -3   0  116.59    4.82
   5   3   0  110.24    4.53
   5   3   0  108.61    4.73
   5   3   0  115.28    4.16
  -6  -3   0   38.24    2.17
   6   3   0   38.65    2.20
   6   3   0   39.73    3.09
   6   3   0   36.66    2.86
  -7  -3   0    0.67    1.36
   7   3   0    2.73    1.98
   7   3   0    1.69    1.33
   7   3   0    3.72    1.44
  -8  -3   0   57.88    3.70
   8   3   0   61.96    3.80
   8   3   0   65.09    4.41
   8   3   0   62.66    4.82
  -9  -3   0   38.49    3.00
   9   3   0   44.24    4.12
   9   3   0   40.39    4.01
 -10  -3   0   -0.04    2.37
  10   3   0    0.79    2.06
  10   3   0   -2.45    3.26
  10   3   0   -3.38    2.36
  12  -4   0    6.84    3.71
 -12   4   0    4.68    2.41
  11  -4   0   34.05    3.70
  11  -4   0   35.35    4.32
 -11   4   0   38.02    2.81
  10  -4   0   17.03    2.11
  10  -4   0   19.73    2.64
  10  -4   0   15.59    3.15
 -10   4   0   17.66    2.15
   9  -4   0   12.36    1.67
   9  -4   0    9.71    1.69
   9  -4   0    7.81    1.90
  -9   4   0   10.01    1.69
  -9   4   0   11.07    1.78
   8  -4   0   67.28    3.10
   8  -4   0   77.09    4.27
  -8   4   0   67.62    3.49
  -8   4   0   67.26    3.09
   7  -4   0   54.21    2.42
   7  -4   0   54.21    3.40
  -7   4   0   51.42    2.39
  -7   4   0   54.27    2.92
   6  -4   0    1.32    0.64
   6  -4   0    1.51    1.24
  -6   4   0    1.98    0.67
  -6   4   0    1.58    1.00
   5  -4   0  117.30    4.70
   5  -4   0  121.30    3.73
  -5   4   0  115.97    3.72
  -5   4   0  113.90    4.45
   4  -4   0  230.84    7.88
   4  -4   0  232.49    6.76
  -4   4   0  233.02    7.98
  -4   4   0  241.03    6.82
  -4   4   0  229.07    6.76
   3  -4   0    6.81    0.44
   3  -4   0    8.65    1.15
  -3   4   0    6.92    1.03
  -3   4   0    7.52    1.08
  -3   4   0    7.21    0.47
   2  -4   0   75.61    2.94
  -2   4   0   77.62    2.92
  -2   4   0   75.69    2.65
   1  -4   0  290.50    9.42
  -1   4   0  269.18    9.17
  -1   4   0  270.70    8.88
   0  -4   0  162.50    5.62
   0  -4   0  156.48    4.60
   0  -4   0  154.56    5.58
   0   4   0  172.91    5.61
   0   4   0  160.76    5.65
   0   4   0  160.14    5.20
   0   4   0  158.01    5.38
   0   4   0  155.33    4.61
  -1  -4   0   38.59    1.47
  -1  -4   0   35.35    1.35
  -1  -4   0   33.07    1.77
  -1  -4   0   34.91    2.08
   1   4   0   38.54    1.42
   1   4   0   35.32    1.37
   1   4   0   36.13    1.65
   1   4   0   37.00    1.78
  -2  -4   0  229.65    6.66
  -2  -4   0  221.51    7.81
   2   4   0  222.36    7.38
   2   4   0  218.70    7.27
   2   4   0  223.78    7.33
   2   4   0  222.74    6.64
  -3  -4   0   67.82    2.54
  -3  -4   0   63.83    3.27
   3   4   0   68.87    2.56
   3   4   0   64.56    2.96
   3   4   0   68.05    2.75
   3   4   0   66.78    2.91
  -4  -4   0    1.74    0.81
  -4  -4   0    0.61    1.21
   4   4   0    1.43    0.86
   4   4   0    1.07    1.08
   4   4   0    2.01    0.80
   4   4   0    1.49    1.14
  -5  -4   0   34.28    2.91
  -5  -4   0   32.38    2.15
   5   4   0   32.74    2.54
   5   4   0   34.78    2.20
   5   4   0   32.18    2.71
   5   4   0   33.63    1.94
  -6  -4   0   60.04    2.86
  -6  -4   0   61.57    4.06
   6   4   0   57.20    2.82
   6   4   0   60.16    3.88
   6   4   0   60.27    2.92
   6   4   0   56.33    3.65
  -7  -4   0   13.64    1.95
   7   4   0   13.48    2.45
   7   4   0   11.96    2.59
   7   4   0    8.93    1.85
  -8  -4   0   12.12    2.13
   8   4   0   11.71    2.49
   8   4   0   10.72    2.74
   8   4   0   13.90    2.35
  -9  -4   0   22.89    2.49
   9   4   0   25.33    3.08
   9   4   0   31.60    4.31
   9   4   0   31.19    3.29
 -10  -4   0    5.60    2.57
  12  -5   0   -0.87    2.28
  12  -5   0    0.29    2.15
 -12   5   0   -2.17    1.96
  11  -5   0   42.74    4.55
  11  -5   0   41.05    4.03
 -11   5   0   39.52    3.32
  10  -5   0   42.59    3.81
  10  -5   0   49.56    4.40
 -10   5   0   42.47    3.00
   9  -5   0    2.60    1.76
   9  -5   0    0.99    1.60
  -9   5   0    4.04    1.55
  -9   5   0    2.96    1.29
   8  -5   0   50.12    3.75
  -8   5   0   45.61    2.49
  -8   5   0   49.90    3.01
   7  -5   0  141.46    5.91
   7  -5   0  142.25    4.66
  -7   5   0  135.14    4.64
  -7   5   0  139.91    5.54
   6  -5   0   52.47    2.09
   6  -5   0   52.41    3.20
  -6   5   0   56.64    2.87
  -6   5   0   53.34    2.12
   5  -5   0   32.87    2.35
  -5   5   0   29.53    1.35
  -5   5   0   31.74    2.09
  -5   5   0   31.39    1.37
   4  -5   0  157.22    5.72
   4  -5   0  155.20    4.54
  -4   5   0  153.63    4.54
  -4   5   0  161.12    5.67
  -4   5   0  149.61    5.68
  -4   5   0  154.52    4.58
   3  -5   0  168.40    6.06
   3  -5   0  179.03    4.92
  -3   5   0  182.15    4.97
  -3   5   0  176.42    4.92
  -3   5   0  172.45    6.10
  -3   5   0  164.69    5.67
  -2   5   0    1.73    0.64
  -2   5   0    0.26    0.57
  -2   5   0    0.97    0.64
   1  -5   0  188.13    5.18
   1  -5   0  189.61    6.52
   1  -5   0  173.93    5.19
   1  -5   0  185.10    6.53
  -1   5   0  183.68    6.31
  -1   5   0  187.51    6.04
  -1   5   0  189.34    6.55
  -1   5   0  189.25    5.18
  -1   5   0  185.81    5.20
   0  -5   0  303.93   10.48
   0  -5   0  321.01   10.75
   0  -5   0  334.78   11.03
   0  -5   0  322.68    8.91
   0   5   0  301.44   10.49
   0   5   0  312.81    8.90
   0   5   0  303.80    9.82
   0   5   0  310.96   10.12
  -1  -5   0   15.57    1.41
  -1  -5   0   13.55    0.82
  -1  -5   0   14.36    1.20
  -1  -5   0   16.32    0.88
   1   5   0   15.36    0.87
   1   5   0   12.14    0.97
   1   5   0   14.81    1.33
   1   5   0   14.49    1.30
  -2  -5   0   59.56    2.99
  -2  -5   0   63.45    2.32
   2   5   0   62.60    2.33
   2   5   0   68.95    2.84
   2   5   0   62.56    2.70
  -3  -5   0   86.82    3.05
  -3  -5   0   79.15    3.93
   3   5   0   81.44    3.61
   3   5   0   77.52    3.51
   3   5   0   82.41    3.05
   3   5   0   85.82    3.35
  -4  -5   0   25.02    2.22
  -4  -5   0   23.49    1.75
   4   5   0   23.62    1.94
   4   5   0   23.21    2.16
   4   5   0   24.13    1.74
   4   5   0   23.91    1.80
  -5  -5   0    6.13    1.58
  -5  -5   0    4.47    1.25
   5   5   0    4.20    1.24
   5   5   0    2.64    1.33
   5   5   0    4.55    1.34
   5   5   0    2.25    0.96
  -6  -5   0   65.62    4.44
  -6  -5   0   63.89    3.37
   6   5   0   62.56    3.38
   6   5   0   66.97    4.32
   6   5   0   64.17    4.04
  -7  -5   0   22.18    2.37
   7   5   0   26.14    2.52
   7   5   0   23.15    3.28
   7   5   0   22.88    2.61
  -8  -5   0    0.15    1.26
   8   5   0    0.54    2.51
   8   5   0    0.30    1.99
   8   5   0    2.17    1.40
   9   5   0   12.01    3.52
   9   5   0   11.55    2.84
  12  -6   0    1.59    3.20
  12  -6   0    2.18    2.47
 -12   6   0    2.18    2.07
  11  -6   0   25.18    3.34
  11  -6   0   23.00    3.21
 -11   6   0   29.04    2.69
  10  -6   0   48.69    3.59
  10  -6   0   53.22    4.72
 -10   6   0   54.75    3.13
 -10   6   0   52.25    3.62
   9  -6   0   38.19    3.33
   9  -6   0   39.14    3.51
  -9   6   0   38.40    3.04
  -9   6   0   39.33    2.47
   8  -6   0    7.08    1.70
  -8   6   0    7.38    1.22
  -8   6   0    6.86    1.62
   7  -6   0  131.01    5.58
  -7   6   0  132.45    4.35
  -7   6   0  130.92    5.28
   6  -6   0   88.82    4.22
  -6   6   0   87.47    3.93
  -6   6   0   82.91    2.88
   5  -6   0    5.60    0.53
   5  -6   0    5.57    1.21
  -5   6   0    5.51    0.62
  -5   6   0    6.67    0.57
  -5   6   0    5.94    1.29
   4  -6   0  106.09    4.32
   4  -6   0  106.40    3.07
  -4   6   0  105.81    3.07
  -4   6   0  107.43    3.15
  -4   6   0   95.83    4.13
   3  -6   0  223.61    7.69
  -3   6   0  233.63    7.37
  -3   6   0  225.31    7.97
  -3   6   0  225.52    7.83
   2  -6   0   57.55    2.40
  -2   6   0   54.93    2.70
  -2   6   0   57.12    2.86
  -2   6   0   54.71    2.37
   1  -6   0   33.61    1.72
   1  -6   0   33.52    2.19
   1  -6   0   34.99    1.04
  -1   6   0   31.79    1.82
  -1   6   0   38.22    1.08
  -1   6   0   34.73    2.05
  -1   6   0   35.40    1.04
  -1   6   0   32.06    2.02
   0  -6   0  306.72    8.59
   0  -6   0  300.49   10.45
   0  -6   0  292.64   10.32
   0  -6   0  314.96   10.69
   0   6   0  294.59    9.61
   0   6   0  294.57   10.37
   0   6   0  303.77    8.59
  -1  -6   0   60.44    2.84
  -1  -6   0   62.11    2.18
  -1  -6   0   60.45    3.24
  -1  -6   0   67.76    2.55
   1   6   0   63.62    2.84
   1   6   0   58.09    2.77
   1   6   0   65.18    2.20
  -2  -6   0    5.28    0.75
  -2  -6   0    7.76    1.60
   2   6   0    6.43    0.83
   2   6   0    6.32    1.13
   2   6   0    5.09    1.19
  -3  -6   0   94.66    3.45
  -3  -6   0   96.01    4.63
   3   6   0   94.49    3.45
   3   6   0   97.87    3.86
   3   6   0   85.34    3.83
  -4  -6   0  101.99    3.79
  -4  -6   0  103.62    5.16
   4   6   0  104.30    4.16
   4   6   0   97.85    3.77
   4   6   0  107.73    4.84
   4   6   0  106.31    4.45
  -5  -6   0    2.96    2.17
  -5  -6   0    2.21    0.92
   5   6   0    4.28    1.32
   5   6   0    0.89    1.28
   5   6   0    1.31    1.75
   5   6   0    2.59    1.07
  -6  -6   0   23.80    3.31
   6   6   0   22.38    3.14
   6   6   0   29.94    3.14
   7   6   0   38.51    2.88
   7   6   0   38.58    4.17
   7   6   0   46.68    4.11
   8   6   0   12.36    2.50
   8   6   0    9.34    3.41
   8   6   0    7.24    2.95
  12  -7   0    6.97    2.55
  12  -7   0    8.66    3.01
 -12   7   0    7.58    2.10
  11  -7   0   -0.09    2.32
  11  -7   0    2.67    2.98
 -11   7   0    0.97    1.59
  10  -7   0   60.38    4.62
  10  -7   0   61.82    4.32
 -10   7   0   61.66    3.21
 -10   7   0   63.02    4.01
   9  -7   0   52.15    4.17
   9  -7   0   63.34    4.69
  -9   7   0   56.80    3.69
  -9   7   0   60.51    2.83
   8  -7   0    1.64    1.95
  -8   7   0    2.27    0.90
  -8   7   0    4.28    1.56
   7  -7   0   71.47    3.86
  -7   7   0   69.45    2.58
  -7   7   0   70.81    3.78
   6  -7   0  139.65    5.90
  -6   7   0  141.33    5.79
  -6   7   0  141.64    4.34
   5  -7   0   24.49    2.00
  -5   7   0   23.49    0.93
  -5   7   0   26.04    2.33
   4  -7   0   28.50    1.94
  -4   7   0   26.13    2.25
  -4   7   0   27.35    1.60
  -4   7   0   28.22    2.02
   3  -7   0  211.20    7.43
   3  -7   0  223.08    7.70
  -3   7   0  215.60    7.06
  -3   7   0  200.59    7.43
  -3   7   0  207.07    7.77
   2  -7   0  216.66    7.55
   2  -7   0  209.33    7.61
  -2   7   0  211.52    7.00
  -2   7   0  201.53    7.61
  -2   7   0  210.29    7.35
   1  -7   0   12.57    1.33
   1  -7   0   12.62    1.65
   1  -7   0   13.12    1.29
  -1   7   0   11.67    1.32
  -1   7   0   11.11    1.68
   0  -7   0   95.45    4.40
   0  -7   0   98.57    3.99
   0  -7   0  100.54    3.04
   0  -7   0  100.55    4.00
   0   7   0   96.04    3.78
   0   7   0  101.36    4.09
   0   7   0   94.19    4.40
   0   7   0   97.21    3.02
  -1  -7   0  203.73    7.68
  -1  -7   0  192.21    7.43
   1   7   0  213.94    6.09
   1   7   0  191.46    6.90
   1   7   0  205.53    7.14
  -2  -7   0   16.15    2.21
   2   7   0   15.11    1.63
   2   7   0   17.41    1.88
  -3  -7   0   49.04    3.76
   3   7   0   58.48    2.96
   3   7   0   59.64    3.36
  -4  -7   0  106.46    5.63
   4   7   0  105.47    4.96
   4   7   0  106.58    4.44
  -5  -7   0   47.50    4.23
   5   7   0   50.46    3.82
   5   7   0   38.83    2.82
  -6  -7   0   -0.25    1.83
   6   7   0    2.07    1.73
   6   7   0    3.40    2.34
   7   7   0   31.74    2.97
   7   7   0   30.52    3.80
  12  -8   0   19.31    4.27
  12  -8   0   28.39    3.32
 -12   8   0   26.62    2.57
  11  -8   0    2.14    2.53
  11  -8   0    2.90    2.31
 -11   8   0    2.71    1.51
  10  -8   0   23.48    2.84
  10  -8   0   21.31    3.51
 -10   8   0   16.75    1.76
 -10   8   0   20.08    2.68
   9  -8   0   65.49    4.75
   9  -8   0   76.46    5.13
  -9   8   0   67.02    3.12
  -9   8   0   73.63    4.30
   8  -8   0   30.64    3.29
   8  -8   0   31.22    3.13
  -8   8   0   25.22    1.75
  -8   8   0   23.49    2.34
   7  -8   0   26.18    2.89
  -7   8   0   22.32    1.22
   6  -8   0  121.24    5.40
  -6   8   0  113.21    3.43
  -6   8   0  107.05    5.18
   5  -8   0   88.53    4.38
  -5   8   0   88.73    4.43
  -5   8   0   97.29    4.52
   4  -8   0    3.99    1.38
  -4   8   0    4.21    1.56
  -4   8   0    3.33    1.44
  -4   8   0    5.79    1.19
   3  -8   0  155.57    6.00
   3  -8   0  160.73    6.06
  -3   8   0  156.86    6.06
  -3   8   0  164.21    5.71
  -3   8   0  156.31    6.25
   2  -8   0  123.32    5.18
   2  -8   0  122.97    5.05
   2  -8   0  126.65    4.84
  -2   8   0  122.79    4.65
  -2   8   0  122.41    5.05
  -2   8   0  117.01    5.12
   1  -8   0   39.48    2.80
   1  -8   0   37.37    2.26
   1  -8   0   40.14    2.14
  -1   8   0   34.82    2.25
  -1   8   0   34.01    2.81
   0  -8   0   55.48    3.10
   0  -8   0   52.36    2.69
   0   8   0   48.37    2.70
   0   8   0   52.75    2.83
   0   8   0   53.58    1.81
  -1  -8   0  144.07    5.98
  -1  -8   0  152.95    6.50
   1   8   0  151.95    4.75
   1   8   0  159.34    5.94
   1   8   0  159.65    5.90
  -2  -8   0   69.57    4.40
   2   8   0   75.64    2.85
   2   8   0   74.53    3.88
  -3  -8   0    0.26    1.93
   3   8   0    1.42    1.20
   3   8   0    1.27    0.98
   3   8   0    1.65    1.73
  -4  -8   0   57.62    4.12
   4   8   0   65.70    3.15
   4   8   0   71.08    4.18
   4   8   0   55.90    3.62
  -5  -8   0   43.00    4.36
   5   8   0   47.19    3.06
   5   8   0   42.18    4.03
  -6  -8   0   -3.88    2.78
   6   8   0   -1.90    2.48
   6   8   0    3.98    1.90
   7   8   0   12.28    3.36
   7   8   0   13.12    2.47
  12  -9   0   19.69    3.02
  11  -9   0   12.75    3.58
  11  -9   0   13.47    3.08
 -11   9   0   12.64    1.78
  10  -9   0    5.19    2.96
  10  -9   0    0.12    2.31
 -10   9   0    0.96    1.05
 -10   9   0    3.68    2.04
   9  -9   0   41.49    3.51
   9  -9   0   43.55    4.19
  -9   9   0   38.50    3.09
  -9   9   0   38.81    2.00
   8  -9   0   49.06    4.27
   8  -9   0   44.63    3.96
  -8   9   0   47.00    3.80
   7  -9   0    2.10    1.48
   7  -9   0    4.25    1.95
  -7   9   0    5.34    1.93
   6  -9   0   48.38    3.70
  -6   9   0   50.67    3.25
   5  -9   0  125.33    5.43
  -5   9   0  114.14    5.47
  -5   9   0  115.89    5.56
   4  -9   0   26.61    2.52
   4  -9   0   26.99    2.11
   4  -9   0   20.86    2.04
  -4   9   0   27.14    2.75
  -4   9   0   28.38    2.64
  -4   9   0   27.96    2.27
   3  -9   0   16.15    1.94
   3  -9   0   15.19    1.88
   3  -9   0   16.92    1.65
   3  -9   0   10.99    1.86
  -3   9   0   16.87    1.62
  -3   9   0   13.10    2.02
  -3   9   0   11.10    2.09
   2  -9   0  122.15    5.35
   2  -9   0  134.68    5.51
   2  -9   0  127.14    5.10
  -2   9   0  126.71    4.85
  -2   9   0  118.91    5.16
  -2   9   0  132.58    5.63
   1  -9   0   54.12    2.83
   1  -9   0   46.78    2.67
   1  -9   0   45.65    3.44
  -1   9   0   49.60    2.93
  -1   9   0   52.84    3.28
  -1   9   0   49.45    2.87
   0  -9   0   -0.32    1.66
   0   9   0   -1.11    1.27
   0   9   0   -0.01    0.40
   0   9   0   -0.38    1.34
  -1  -9   0   59.90    4.28
   1   9   0   74.66    2.62
   1   9   0   70.76    3.84
   1   9   0   71.96    3.77
  -2  -9   0   81.11    4.69
   2   9   0   86.40    4.52
   2   9   0   91.12    3.28
   2   9   0   89.49    4.30
  -3  -9   0    0.72    2.42
   3   9   0    5.44    1.60
   3   9   0    2.14    1.94
   3   9   0    1.47    1.09
  -4  -9   0   17.12    3.46
   4   9   0   16.22    2.94
   4   9   0   16.62    1.84
  -5  -9   0   35.21    3.83
   5   9   0   41.24    3.00
   5   9   0   36.34    3.56
   6   9   0   15.19    3.53
   6   9   0   14.10    2.37
  11 -10   0   17.85    3.78
  11 -10   0   23.42    3.23
  10 -10   0    3.39    3.08
  10 -10   0    9.70    2.88
 -10  10   0    4.90    2.35
   9 -10   0    5.07    2.03
   9 -10   0    7.61    2.86
  -9  10   0    4.48    2.23
   8 -10   0   54.93    4.49
   8 -10   0   41.22    3.65
  -8  10   0   46.38    3.49
   7 -10   0   36.72    3.84
   7 -10   0   34.60    3.23
  -7  10   0   35.73    3.07
   6 -10   0    0.09    1.86
   6 -10   0   -0.55    1.72
  -6  10   0    0.38    1.82
   5 -10   0   53.07    3.76
   5 -10   0   53.15    3.81
   5 -10   0   54.39    3.34
  -5  10   0   56.35    3.59
  -5  10   0   57.99    4.10
   4 -10   0   55.40    3.65
   4 -10   0   52.76    3.52
   4 -10   0   54.42    3.08
   4 -10   0   55.99    3.53
  -4  10   0   55.58    3.82
  -4  10   0   48.89    3.43
  -4  10   0   53.47    2.90
   3 -10   0   -0.24    1.00
   3 -10   0    2.44    1.37
   3 -10   0   -0.42    1.12
   3 -10   0   -0.15    1.53
  -3  10   0    1.14    1.66
  -3  10   0    3.82    1.98
  -3  10   0    1.46    0.97
   2 -10   0   41.24    2.64
   2 -10   0   43.85    3.06
   2 -10   0   42.25    2.91
  -2  10   0   46.59    3.38
  -2  10   0   46.02    3.84
  -2  10   0   49.28    3.06
   1 -10   0   82.94    4.71
  -1  10   0   80.61    4.36
  -1  10   0   81.65    4.08
   0 -10   0   23.83    2.99
   0  10   0   20.59    2.47
  -1 -10   0   16.71    3.00
   1  10   0   13.36    2.16
   1  10   0   17.22    2.07
  -2 -10   0   51.15    4.00
   2  10   0   55.99    3.49
   2  10   0   50.59    2.52
   2  10   0   49.78    3.92
  -3 -10   0   19.69    3.46
   3  10   0   17.51    1.80
   3  10   0   17.29    2.82
  -4 -10   0    3.07    2.25
   4  10   0   -1.44    1.30
   4  10   0    1.36    2.55
   5  10   0   18.92    2.22
  11 -11   0   10.45    2.80
  10 -11   0   14.92    3.53
  10 -11   0   25.23    3.90
 -10  11   0   20.00    3.20
   9 -11   0    4.71    2.86
   9 -11   0    3.73    2.75
  -9  11   0    1.97    2.42
   8 -11   0   17.61    2.66
   8 -11   0   18.04    3.19
  -8  11   0   18.98    3.11
   7 -11   0   47.87    3.78
   7 -11   0   55.10    4.49
  -7  11   0   44.84    4.31
   6 -11   0   17.34    2.43
   6 -11   0   17.25    2.33
   6 -11   0   15.93    2.36
  -6  11   0   13.49    2.87
   5 -11   0   11.49    2.26
   5 -11   0    7.28    2.07
   5 -11   0    8.26    1.47
   5 -11   0   10.27    2.23
  -5  11   0   12.76    2.27
  -5  11   0   11.23    2.68
   4 -11   0   41.11    3.47
   4 -11   0   52.70    3.76
   4 -11   0   50.40    3.07
   4 -11   0   47.15    3.73
  -4  11   0   49.02    2.93
  -4  11   0   45.04    4.07
  -4  11   0   52.12    3.70
   3 -11   0   37.84    3.58
   3 -11   0   35.99    3.08
   3 -11   0   36.87    3.33
  -3  11   0   43.22    3.75
  -3  11   0   42.88    3.12
  -3  11   0   38.14    3.47
   2 -11   0    1.60    2.01
  -2  11   0    2.81    1.97
  -2  11   0    3.68    2.43
  -2  11   0    2.58    1.66
   1 -11   0   40.82    3.95
  -1  11   0   45.48    3.42
  -1  11   0   46.66    3.75
   0 -11   0   46.20    3.68
   0  11   0   38.44    3.54
   0  11   0   43.49    3.52
  -1 -11   0   -0.69    2.49
   1  11   0   -1.30    1.77
   1  11   0   -0.20    2.08
  -2 -11   0   18.07    3.02
   2  11   0   18.19    2.43
   2  11   0   19.38    2.59
  -3 -11   0   26.76    4.21
   3  11   0   31.85    3.28
  10 -12   0   28.73    4.41
  10 -12   0   27.47    4.03
 -10  12   0   20.09    3.53
   9 -12   0   14.53    2.62
   9 -12   0   16.91    3.58
  -9  12   0    6.21    2.89
   8 -12   0    0.77    2.37
   8 -12   0    1.83    2.64
   8 -12   0   -0.04    2.41
  -8  12   0    0.04    2.61
   7 -12   0   29.12    3.23
   7 -12   0   31.63    3.77
   7 -12   0   33.15    3.60
  -7  12   0   34.97    4.02
   6 -12   0   37.65    3.93
   6 -12   0   24.04    2.90
   6 -12   0   35.13    3.56
  -6  12   0   31.48    3.92
   5 -12   0    4.68    2.19
   5 -12   0    2.49    1.38
   5 -12   0    2.28    1.92
  -5  12   0    2.75    2.48
  -5  12   0    1.03    1.77
   4 -12   0   29.04    3.09
   4 -12   0   21.85    2.89
   4 -12   0   25.41    2.84
  -4  12   0   31.15    3.31
  -4  12   0   28.78    3.32
  -4  12   0   29.70    2.93
   3 -12   0   55.68    4.09
   3 -12   0   54.41    4.41
  -3  12   0   47.34    4.33
  -3  12   0   55.83    3.35
  -3  12   0   56.46    4.28
   2 -12   0   11.96    2.73
  -2  12   0   15.75    2.49
  -2  12   0   16.54    2.45
   1 -12   0    9.31    2.39
  -1  12   0   13.43    2.55
  -1  12   0   10.37    2.54
   0 -12   0   37.46    4.28
   0  12   0   34.71    3.15
   0  12   0   36.87    3.55
  -1 -12   0   17.88    3.61
   1  12   0   15.15    2.67
   1  12   0   19.45    2.63
  -2 -12   0    0.58    2.22
   9 -13   0   23.67    3.40
  -9  13   0   19.41    3.75
   8 -13   0   -2.27    2.72
  -8  13   0    4.46    2.87
   7 -13   0    4.85    2.79
  -7  13   0   11.55    3.31
   6 -13   0   50.29    4.66
  -6  13   0   55.04    5.39
   5 -13   0   14.86    2.40
   5 -13   0   14.06    2.78
  -5  13   0   21.36    3.19
  -5  13   0   19.54    3.44
   4 -13   0    3.50    2.39
  -4  13   0   -1.41    2.58
  -4  13   0    3.58    2.08
  -4  13   0    1.84    2.95
   3 -13   0   39.03    4.04
  -3  13   0   43.31    4.27
  -3  13   0   45.39    3.99
   2 -13   0   32.13    4.04
  -2  13   0   32.41    3.87
  -2  13   0   37.80    3.53
   1 -13   0   -2.25    2.68
  -1  13   0   -0.55    2.48
  -1  13   0   -0.42    1.50
   0 -13   0   14.26    3.80
   0  13   0   10.02    2.77
   0  13   0   17.42    3.08
   7 -14   0   -1.44    2.48
  -5  14   0   33.33    4.02
   4 -14   0    0.22    2.39
  -4  14   0    1.79    2.84
  -4  14   0    5.66    2.38
   3 -14   0   11.02    2.99
  -3  14   0   20.34    3.04
  -3  14   0   15.29    3.22
   2 -14   0   23.23    3.82
  -2  14   0   13.60    3.24
  -2  14   0   23.71    3.35
  -1  14   0    9.56    3.11
   1 -14   1   20.86    3.80
  -2  14  -1   17.78    2.96
  -2  14  -1   27.09    3.42
   2 -14   1   20.39    3.61
  -3  14  -1    2.78    3.01
  -3  14  -1    0.51    2.39
   3 -14   1    0.03    2.32
  -4  14  -1   19.41    3.81
  -4  14  -1   21.37    3.18
  -5  14  -1   40.81    4.17
  -6  14  -1    7.43    3.38
   6 -14   1    4.95    2.76
   7 -14   1    5.33    2.20
   1  13  -1   15.93    2.89
  -1 -13   1   20.73    3.91
   0  13  -1   -1.24    1.68
   0  13  -1    1.88    2.48
   0 -13   1    0.82    2.73
  -1  13  -1   23.79    3.05
  -1  13  -1   13.60    3.10
   1 -13   1   10.48    3.16
  -2  13  -1   50.55    4.14
  -2  13  -1   55.79    4.91
   2 -13   1   51.30    4.79
  -3  13  -1   11.40    2.46
  -3  13  -1    8.00    1.92
   3 -13   1    7.84    2.44
   3 -13   1    7.84    2.50
  -4  13  -1   10.54    3.00
  -4  13  -1   10.00    2.44
   4 -13   1    6.00    2.52
   4 -13   1    4.19    2.18
  -5  13  -1   45.37    4.18
  -5  13  -1   45.48    4.58
   5 -13   1   37.31    3.87
   5 -13   1   38.95    4.23
  -6  13  -1   37.23    4.21
   6 -13   1   31.85    3.41
   6 -13   1   21.18    3.37
  -7  13  -1    0.02    2.78
   7 -13   1   -3.75    2.33
   7 -13   1    1.58    2.49
  -8  13  -1   19.34    3.65
   8 -13   1   16.80    3.68
   8 -13   1   13.39    3.42
  -9  13  -1   21.73    3.45
   9 -13   1   17.14    3.84
   2  12  -1    9.74    2.43
   2  12  -1   11.91    2.39
  -2 -12   1   12.37    3.52
   1  12  -1   48.16    4.26
   1  12  -1   41.98    4.07
  -1 -12   1   36.01    4.25
   0  12  -1   18.32    2.93
   0  12  -1   18.80    2.46
   0 -12   1   15.79    3.24
  -1  12  -1    4.67    1.64
  -1  12  -1    3.41    2.42
   1 -12   1    2.53    1.81
  -2  12  -1   75.98    5.10
  -2  12  -1   80.13    4.49
   2 -12   1   71.41    4.80
  -3  12  -1   42.77    3.55
  -3  12  -1   44.18    3.55
   3 -12   1   33.81    3.46
   3 -12   1   41.81    3.68
  -4  12  -1    0.78    1.82
  -4  12  -1    2.77    1.89
  -4  12  -1    1.06    2.40
   4 -12   1    1.11    1.67
   4 -12   1    0.73    1.70
   4 -12   1    1.43    2.09
  -5  12  -1   31.81    3.72
  -5  12  -1   33.37    3.90
   5 -12   1   35.48    3.60
   5 -12   1   29.35    2.99
   5 -12   1   28.45    3.09
  -6  12  -1   44.18    4.28
   6 -12   1   40.82    4.14
   6 -12   1   48.24    4.47
  -7  12  -1    9.77    2.77
   7 -12   1   12.85    3.04
   7 -12   1   10.98    2.40
   7 -12   1    8.51    2.27
  -8  12  -1    8.52    2.77
   8 -12   1   10.24    3.17
   8 -12   1   10.84    3.20
  -9  12  -1   26.07    3.46
   9 -12   1   33.91    4.38
  10 -12   1   15.37    3.87
  -4 -11   1   20.96    4.03
   3  11  -1   23.69    3.33
  -3 -11   1   19.00    3.09
   2  11  -1    1.12    1.88
   2  11  -1   -0.44    2.18
  -2 -11   1    3.45    2.75
   1  11  -1   29.30    3.06
  -1 -11   1   30.34    3.79
   0  11  -1   52.90    4.07
   0  11  -1   54.33    3.84
   0 -11   1   59.57    3.94
  -1  11  -1    1.55    1.24
  -1  11  -1    2.25    2.00
   1 -11   1    1.15    1.92
  -2  11  -1   23.73    2.93
  -2  11  -1   27.59    2.70
   2 -11   1   22.71    2.50
  -3  11  -1   69.40    3.55
  -3  11  -1   64.53    4.18
  -3  11  -1   62.80    3.98
   3 -11   1   69.68    4.08
   3 -11   1   73.02    4.19
   3 -11   1   62.93    3.79
  -4  11  -1   18.66    2.47
  -4  11  -1   15.03    2.18
  -4  11  -1   16.06    2.47
   4 -11   1   12.98    2.30
   4 -11   1   15.20    2.00
   4 -11   1   15.08    2.51
  -5  11  -1    3.75    2.35
  -5  11  -1    6.36    2.35
   5 -11   1    6.26    2.18
   5 -11   1    6.89    1.58
   5 -11   1    6.61    1.85
   5 -11   1   10.58    2.34
  -6  11  -1   52.43    4.32
  -6  11  -1   49.34    4.43
   6 -11   1   52.15    3.86
   6 -11   1   53.79    3.77
   6 -11   1   59.38    3.76
   6 -11   1   50.16    4.38
  -7  11  -1   30.08    3.35
   7 -11   1   36.65    3.89
   7 -11   1   28.27    3.19
  -8  11  -1    0.32    2.18
   8 -11   1   -1.50    1.64
   8 -11   1   -2.01    1.64
  -9  11  -1   24.84    3.24
   9 -11   1   23.18    3.75
   9 -11   1   27.31    3.42
  10 -11   1   30.80    4.35
  10 -11   1   29.50    4.19
   5  10  -1   -0.45    1.54
   5  10  -1    1.21    1.99
  -5 -10   1   -0.79    2.12
   4  10  -1   12.72    2.91
   4  10  -1    9.10    1.80
  -4 -10   1   11.73    3.32
   3  10  -1   42.49    3.51
   3  10  -1   43.01    2.60
   3  10  -1   41.81    3.81
  -3 -10   1   36.46    4.15
   2  10  -1   21.57    2.55
   2  10  -1   19.21    2.67
   2  10  -1   19.85    1.68
  -2 -10   1   22.13    3.29
   1  10  -1   19.47    2.50
   1  10  -1   19.12    2.47
  -1 -10   1   13.70    2.67
   0  10  -1   56.78    3.51
   0  10  -1   53.96    3.30
   0 -10   1   55.01    4.02
  -1  10  -1   44.66    3.02
  -1  10  -1   38.42    3.27
   1 -10   1   40.92    2.94
  -2  10  -1    0.49    1.84
  -2  10  -1    1.40    1.71
  -2  10  -1    0.19    1.39
   2 -10   1    0.62    1.23
   2 -10   1    1.84    1.52
  -3  10  -1   60.07    3.45
  -3  10  -1   65.81    4.05
  -3  10  -1   70.57    4.25
   3 -10   1   64.17    3.89
   3 -10   1   62.25    3.68
   3 -10   1   61.84    3.45
   3 -10   1   61.87    3.14
  -4  10  -1   41.40    3.44
  -4  10  -1   36.77    3.46
  -4  10  -1   41.64    2.87
   4 -10   1   32.09    2.83
   4 -10   1   41.15    2.54
   4 -10   1   35.02    3.26
   4 -10   1   38.19    3.14
  -5  10  -1    2.76    1.55
  -5  10  -1    2.95    1.95
   5 -10   1    1.26    1.50
   5 -10   1    1.79    1.85
   5 -10   1    4.49    1.43
  -6  10  -1   35.66    3.54
  -6  10  -1   38.67    3.51
   6 -10   1   33.67    3.01
   6 -10   1   32.38    3.49
  -7  10  -1   67.73    4.36
   7 -10   1   63.86    4.78
   7 -10   1   60.06    4.13
  -8  10  -1    7.46    2.22
   8 -10   1    8.20    2.54
   8 -10   1    5.28    2.73
  -9  10  -1    5.98    2.20
   9 -10   1    5.95    1.96
   9 -10   1    6.46    2.88
  10 -10   1   24.26    4.11
  10 -10   1   36.82    4.27
  11 -10   1   15.47    4.02
  11 -10   1   14.33    2.71
   6   9  -1   22.33    3.56
   6   9  -1   18.88    2.47
  -6  -9   1   20.42    3.38
   5   9  -1   31.67    3.13
   5   9  -1   30.62    2.54
  -5  -9   1   31.94    4.22
   4   9  -1   -1.60    1.51
   4   9  -1    0.04    1.18
   4   9  -1   -2.90    1.92
  -4  -9   1   -0.60    1.67
   3   9  -1   42.65    3.22
   3   9  -1   45.88    2.59
   3   9  -1   43.36    3.54
  -3  -9   1   46.60    4.28
   2   9  -1   63.85    2.58
   2   9  -1   65.11    3.48
  -2  -9   1   61.85    3.92
   1   9  -1    7.47    1.46
   1   9  -1    7.53    1.43
   1   9  -1    6.74    0.81
  -1  -9   1    8.96    2.11
   0   9  -1   28.98    1.10
   0   9  -1   30.52    2.69
   0  -9   1   33.38    2.96
  -1   9  -1   90.99    4.05
  -1   9  -1   90.78    4.40
   1  -9   1   87.81    4.47
   1  -9   1   92.56    4.24
  -2   9  -1   25.05    2.44
  -2   9  -1   18.09    2.11
  -2   9  -1   18.94    1.73
   2  -9   1   20.40    2.07
   2  -9   1   18.12    1.59
   2  -9   1   20.86    2.20
  -3   9  -1    8.83    1.82
  -3   9  -1    8.70    1.31
  -3   9  -1    8.56    1.86
   3  -9   1    8.96    1.79
   3  -9   1    6.87    1.19
   3  -9   1    7.54    1.35
   3  -9   1    9.02    1.64
  -4   9  -1  107.06    5.10
  -4   9  -1  107.47    5.10
  -4   9  -1  115.02    4.54
   4  -9   1  111.32    4.78
   4  -9   1  104.28    5.16
   4  -9   1   99.04    4.94
  -5   9  -1   31.83    2.70
  -5   9  -1   38.16    3.05
   5  -9   1   32.72    2.69
   5  -9   1   38.78    3.07
  -6   9  -1    0.67    1.53
   6  -9   1   -0.53    1.66
   6  -9   1   -3.22    1.70
  -7   9  -1   45.27    3.52
   7  -9   1   47.11    4.07
   7  -9   1   43.57    3.31
  -8   9  -1   44.30    1.99
  -8   9  -1   42.51    3.50
   8  -9   1   38.06    3.93
   8  -9   1   42.89    4.09
  -9   9  -1    1.23    1.73
  -9   9  -1    1.59    1.07
   9  -9   1    2.98    2.58
   9  -9   1    1.57    2.19
 -10   9  -1   10.96    1.49
  10  -9   1   12.11    3.46
  10  -9   1   14.69    3.00
  11  -9   1   24.02    3.61
  11  -9   1   26.49    4.32
   7   8  -1   -0.83    1.93
   7   8  -1    0.69    2.85
   6   8  -1   16.55    3.14
   6   8  -1   22.28    2.42
  -6  -8   1   14.52    3.48
   5   8  -1   58.05    3.71
   5   8  -1   59.27    3.29
  -5  -8   1   66.46    4.96
   4   8  -1   23.83    2.31
   4   8  -1   24.77    2.76
   4   8  -1   19.57    1.65
  -4  -8   1   19.63    3.02
   3   8  -1   15.69    1.43
   3   8  -1   16.45    1.96
   3   8  -1   14.80    1.88
  -3  -8   1   12.95    2.11
   2   8  -1  113.80    3.87
   2   8  -1  116.82    4.93
   2   8  -1  116.71    4.91
  -2  -8   1  109.33    5.41
   1   8  -1   70.88    2.49
   1   8  -1   70.27    3.48
   1   8  -1   67.98    3.54
  -1  -8   1   69.89    3.96
   0   8  -1    0.37    0.87
   0   8  -1   -0.12    0.37
   0   8  -1    0.18    1.09
   0  -8   1   -0.16    0.65
   0  -8   1    0.18    1.30
   0  -8   1    0.44    0.82
  -1   8  -1   67.48    3.33
  -1   8  -1   73.59    3.11
  -1   8  -1   70.78    3.79
   1  -8   1   72.90    3.43
   1  -8   1   69.18    3.59
   1  -8   1   75.46    3.15
  -2   8  -1  146.83    5.38
  -2   8  -1  148.56    6.11
  -2   8  -1  151.21    5.95
   2  -8   1  157.56    6.21
   2  -8   1  153.28    5.65
   2  -8   1  147.99    5.87
  -3   8  -1    5.28    1.41
  -3   8  -1    5.05    1.19
  -3   8  -1    4.98    1.43
   3  -8   1    5.78    1.36
   3  -8   1    4.36    1.33
   3  -8   1    4.76    0.99
   3  -8   1    3.66    1.25
  -4   8  -1   52.11    3.25
  -4   8  -1   47.13    2.83
  -4   8  -1   59.64    2.82
   4  -8   1   48.98    3.19
   4  -8   1   57.54    3.08
  -5   8  -1  102.88    4.56
  -5   8  -1  109.57    4.97
   5  -8   1  102.75    4.68
   5  -8   1  107.03    5.13
  -6   8  -1   37.37    2.86
  -6   8  -1   37.09    1.47
   6  -8   1   37.22    2.87
   6  -8   1   38.28    3.13
  -7   8  -1   15.14    2.10
  -7   8  -1   13.03    1.07
   7  -8   1   11.44    2.18
   7  -8   1    8.83    2.37
  -8   8  -1   59.89    3.69
  -8   8  -1   64.12    2.69
   8  -8   1   64.42    4.09
   8  -8   1   54.88    3.80
  -9   8  -1   23.74    1.92
   9  -8   1   27.39    2.89
   9  -8   1   27.82    3.16
 -10   8  -1   -0.61    1.19
  10  -8   1    2.18    2.19
  10  -8   1   -0.12    2.14
 -11   8  -1   20.41    2.19
  11  -8   1   18.33    3.33
  11  -8   1   27.14    4.10
 -12   8  -1   11.48    2.20
  12  -8   1   15.89    3.40
   8   7  -1   20.61    3.04
   8   7  -1   26.64    3.06
   7   7  -1   16.52    2.43
   7   7  -1   11.72    2.86
   6   7  -1    3.54    1.68
   6   7  -1    4.37    2.36
  -6  -7   1    4.35    2.73
   5   7  -1   84.29    3.86
   5   7  -1   90.55    4.17
   5   7  -1   89.34    4.33
  -5  -7   1   89.52    5.37
   4   7  -1   76.44    4.06
   4   7  -1   79.25    3.74
   4   7  -1   78.00    3.29
  -4  -7   1   68.06    4.52
   3   7  -1    0.35    1.22
   3   7  -1   -0.34    0.77
   3   7  -1    0.78    0.97
  -3  -7   1    0.83    1.14
   2   7  -1   82.90    2.87
   2   7  -1   78.13    3.64
   2   7  -1   76.17    3.60
  -2  -7   1   81.23    3.91
   1   7  -1  163.24    6.16
   1   7  -1  168.23    5.99
   1   7  -1  170.44    5.06
  -1  -7   1  157.14    6.46
  -1  -7   1  168.63    5.11
  -1  -7   1  170.33    6.24
  -1  -7   1  169.70    6.15
   0   7  -1   30.79    1.13
   0   7  -1   31.11    2.19
   0   7  -1   26.62    1.14
   0   7  -1   28.81    1.98
   0  -7   1   28.52    1.60
   0  -7   1   33.43    1.83
   0  -7   1   31.36    2.05
   0  -7   1   30.66    1.12
  -1   7  -1   48.84    2.51
  -1   7  -1   43.54    2.57
  -1   7  -1   46.63    2.39
   1  -7   1   46.83    2.66
   1  -7   1   50.25    2.27
   1  -7   1   53.59    2.56
  -2   7  -1  224.93    8.33
  -2   7  -1  239.38    7.71
  -2   7  -1  224.00    8.04
   2  -7   1  222.50    8.08
   2  -7   1  243.89    8.22
   2  -7   1  238.49    8.77
  -3   7  -1  105.10    4.55
  -3   7  -1  109.51    4.17
  -3   7  -1  114.44    4.68
   3  -7   1  111.11    4.55
   3  -7   1  115.23    4.84
  -4   7  -1    2.29    1.26
  -4   7  -1    1.50    1.13
   4  -7   1    2.78    1.32
   4  -7   1    2.67    1.19
  -5   7  -1  107.73    4.60
  -5   7  -1  105.51    4.73
  -5   7  -1  106.98    3.26
   5  -7   1  110.35    5.00
   5  -7   1  105.73    4.83
  -6   7  -1  115.52    3.72
   6  -7   1  121.60    5.38
   6  -7   1  113.63    5.26
  -7   7  -1    5.12    0.86
  -7   7  -1    3.88    1.38
   7  -7   1    2.26    1.96
   7  -7   1    6.19    1.75
  -8   7  -1   54.11    3.26
  -8   7  -1   53.81    2.47
   8  -7   1   50.64    4.21
   8  -7   1   45.67    3.76
  -9   7  -1   75.41    3.23
  -9   7  -1   64.34    3.77
   9  -7   1   73.93    5.15
   9  -7   1   61.23    4.09
 -10   7  -1   12.81    1.83
  10  -7   1   18.60    3.45
  10  -7   1   11.78    2.83
 -11   7  -1    3.50    1.75
  11  -7   1    4.01    2.48
  11  -7   1    7.16    2.60
 -12   7  -1   23.17    2.44
  12  -7   1   20.10    3.42
   9   6  -1    0.30    3.72
   8   6  -1   36.98    3.01
   8   6  -1   39.11    4.12
   8   6  -1   36.78    3.50
   7   6  -1   48.27    3.99
   7   6  -1   58.99    3.59
   7   6  -1   49.37    4.20
   6   6  -1    2.48    1.95
   6   6  -1    2.59    1.14
   6   6  -1    0.71    2.18
   6   6  -1    0.99    1.23
  -6  -6   1    1.01    1.69
  -6  -6   1    1.03    0.98
   5   6  -1   68.78    3.51
   5   6  -1   60.91    3.09
   5   6  -1   60.21    3.35
   5   6  -1   66.36    3.65
  -5  -6   1   67.66    3.14
  -5  -6   1   61.06    4.23
   4   6  -1  149.73    5.03
   4   6  -1  144.31    5.80
   4   6  -1  150.04    5.64
  -4  -6   1  153.73    5.11
  -4  -6   1  149.07    6.40
   3   6  -1   39.81    2.34
   3   6  -1   34.89    1.85
   3   6  -1   38.91    2.19
  -3  -6   1   40.86    2.90
  -3  -6   1   37.63    1.90
   2   6  -1   24.50    1.34
   2   6  -1   25.22    1.66
   2   6  -1   25.56    1.93
  -2  -6   1   28.34    1.37
  -2  -6   1   22.29    2.22
   1   6  -1  241.23    8.03
   1   6  -1  236.16    6.92
   1   6  -1  233.48    7.75
  -1  -6   1  233.66    8.29
  -1  -6   1  239.80    6.92
  -1  -6   1  225.66    8.28
  -1  -6   1  243.61    8.46
   0   6  -1  175.78    6.10
   0   6  -1  164.26    4.94
   0   6  -1  169.93    5.81
   0  -6   1  171.62    6.06
   0  -6   1  166.32    4.94
   0  -6   1  165.17    6.17
   0  -6   1  184.65    6.41
  -1   6  -1    4.32    0.86
  -1   6  -1    3.41    1.10
  -1   6  -1    1.36    0.78
   1  -6   1    4.35    0.82
   1  -6   1    3.79    0.62
   1  -6   1    2.78    0.93
  -2   6  -1  140.44    4.85
  -2   6  -1  140.51    5.34
  -2   6  -1  136.19    5.19
   2  -6   1  145.33    5.56
   2  -6   1  138.53    5.16
  -3   6  -1  222.95    7.21
  -3   6  -1  222.84    7.66
  -3   6  -1  217.53    7.69
   3  -6   1  216.09    7.63
  -4   6  -1   33.75    1.19
  -4   6  -1   35.83    2.00
  -4   6  -1   31.70    2.26
   4  -6   1   32.47    2.39
  -5   6  -1   60.34    3.35
  -5   6  -1   69.89    2.34
   5  -6   1   67.37    3.59
   5  -6   1   72.63    2.32
  -6   6  -1  162.38    6.12
  -6   6  -1  163.60    5.08
   6  -6   1  158.51    6.55
   6  -6   1  167.69    5.08
   6  -6   1  159.69    6.82
  -7   6  -1   66.74    3.30
  -7   6  -1   64.76    2.67
   7  -6   1   61.57    3.80
   7  -6   1   69.74    4.14
  -8   6  -1   10.75    1.68
  -8   6  -1   12.68    1.44
   8  -6   1    9.01    2.03
   8  -6   1   14.04    2.61
  -9   6  -1   71.52    3.87
  -9   6  -1   83.97    3.61
   9  -6   1   70.29    4.31
   9  -6   1   87.12    5.32
 -10   6  -1   40.83    3.01
  10  -6   1   43.93    3.96
  10  -6   1   45.18    4.10
 -11   6  -1    2.60    1.84
  11  -6   1    3.08    2.45
  11  -6   1   -3.11    2.88
 -12   6  -1   24.31    2.86
  12  -6   1   20.86    3.43
  12  -6   1   24.91    3.78
   9   5  -1    0.85    2.73
   9   5  -1    2.38    2.46
   9   5  -1   -1.20    3.19
   8   5  -1   19.86    2.56
   8   5  -1   24.17    3.65
   8   5  -1   21.31    3.15
  -8  -5   1   18.21    2.48
   7   5  -1   71.57    4.38
   7   5  -1   70.53    3.79
   7   5  -1   66.08    4.73
  -7  -5   1   65.83    3.68
   6   5  -1   47.57    2.72
   6   5  -1   44.58    3.30
   6   5  -1   47.68    2.85
  -6  -5   1   42.01    2.76
  -6  -5   1   41.72    3.80
   5   5  -1   16.15    1.69
   5   5  -1   10.94    1.80
   5   5  -1   16.46    1.88
  -5  -5   1   14.08    1.92
  -5  -5   1   15.36    1.42
   4   5  -1  106.89    4.34
   4   5  -1  112.18    4.25
   4   5  -1  102.56    3.79
   4   5  -1  101.03    4.47
  -4  -5   1   93.40    4.52
  -4  -5   1  112.81    3.85
   3   5  -1  126.17    4.79
   3   5  -1  135.07    4.33
   3   5  -1  132.65    5.02
   3   5  -1  132.09    4.87
  -3  -5   1  129.99    5.21
  -3  -5   1  132.42    4.31
   2   5  -1    0.26    0.54
   2   5  -1    0.31    0.80
  -2  -5   1   -0.55    0.42
  -2  -5   1    0.71    0.99
   1   5  -1  198.83    5.86
   1   5  -1  199.61    6.56
   1   5  -1  204.91    6.82
   1   5  -1  191.53    5.84
  -1  -5   1  199.92    7.05
  -1  -5   1  201.50    7.11
  -1  -5   1  197.08    6.96
  -1  -5   1  201.21    5.83
   0   5  -1  277.02    7.83
   0   5  -1  267.70    8.69
   0   5  -1  273.10    9.33
   0   5  -1  271.09    9.03
   0  -5   1  286.75    9.39
   0  -5   1  286.50    9.82
   0  -5   1  276.42    9.25
   0  -5   1  271.88    7.82
  -1   5  -1   15.65    1.03
  -1   5  -1   12.58    1.21
   1  -5   1   15.80    0.94
   1  -5   1   14.73    1.28
   1  -5   1   15.80    1.22
  -2   5  -1   31.31    1.94
  -2   5  -1   31.58    1.54
  -2   5  -1   34.40    1.96
   2  -5   1   37.72    1.98
  -3   5  -1  264.11    8.90
  -3   5  -1  261.17    7.54
  -3   5  -1  279.71    9.05
  -3   5  -1  269.32    7.64
   3  -5   1  258.25    8.88
   3  -5   1  271.69    7.55
  -4   5  -1   82.78    3.38
  -4   5  -1   80.77    3.36
  -4   5  -1   81.13    2.56
   4  -5   1   74.90    3.44
   4  -5   1   83.71    2.56
  -5   5  -1    6.39    0.77
  -5   5  -1    9.09    0.78
  -5   5  -1    7.10    1.13
   5  -5   1    8.17    1.59
   5  -5   1   10.91    0.83
  -6   5  -1  177.28    6.29
  -6   5  -1  167.82    5.38
   6  -5   1  159.88    6.51
   6  -5   1  176.68    5.40
   6  -5   1  173.53    7.01
  -7   5  -1  119.76    4.69
  -7   5  -1  111.74    4.06
   7  -5   1  113.50    4.06
   7  -5   1  113.60    5.34
   7  -5   1  117.41    5.37
  -8   5  -1    4.81    1.29
  -8   5  -1    5.05    1.00
   8  -5   1    5.64    1.41
   8  -5   1    8.95    2.31
   8  -5   1    4.39    0.92
  -9   5  -1   37.94    2.65
  -9   5  -1   43.78    2.73
   9  -5   1   40.10    3.88
   9  -5   1   35.68    3.48
 -10   5  -1   74.55    3.88
  10  -5   1   63.87    4.62
  10  -5   1   69.33    4.72
 -11   5  -1   15.57    2.47
  11  -5   1   14.58    3.65
  11  -5   1   12.06    2.28
 -12   5  -1    6.51    2.44
  12  -5   1    9.65    3.89
  10   4  -1   23.19    3.59
  10   4  -1   17.21    2.55
  10   4  -1   20.94    2.94
 -10  -4   1   19.39    2.44
   9   4  -1   18.48    3.76
   9   4  -1   13.60    2.62
   9   4  -1   14.21    2.45
  -9  -4   1   16.82    2.56
   8   4  -1    0.14    2.33
   8   4  -1    2.25    1.67
   8   4  -1   -3.53    1.86
  -8  -4   1   -0.65    1.66
   7   4  -1   38.61    2.88
   7   4  -1   44.04    2.91
   7   4  -1   40.77    3.63
  -7  -4   1   38.70    2.83
   6   4  -1   58.45    3.32
   6   4  -1   50.26    2.82
   6   4  -1   55.19    2.83
   6   4  -1   53.44    3.62
  -6  -4   1   53.41    2.89
   5   4  -1    6.54    1.22
   5   4  -1    7.20    1.27
   5   4  -1    7.29    1.24
   5   4  -1    9.55    1.43
  -5  -4   1    7.48    1.74
  -5  -4   1    8.30    1.26
   4   4  -1   61.80    2.54
   4   4  -1   71.70    3.00
   4   4  -1   69.26    3.05
   4   4  -1   67.70    3.02
  -4  -4   1   67.03    2.68
  -4  -4   1   61.43    3.15
   3   4  -1  165.12    5.70
   3   4  -1  167.54    5.75
   3   4  -1  162.09    5.77
   3   4  -1  168.42    5.16
  -3  -4   1  172.12    5.19
  -3  -4   1  157.93    6.05
   2   4  -1   83.38    3.27
   2   4  -1   83.22    2.74
   2   4  -1   83.39    3.22
   2   4  -1   83.89    3.07
  -2  -4   1   80.80    3.47
  -2  -4   1   80.56    2.68
   1   4  -1  148.51    5.11
   1   4  -1  151.91    5.08
   1   4  -1  147.74    4.38
   1   4  -1  144.82    4.85
   1   4  -1  145.95    4.36
  -1  -4   1  148.83    4.36
  -1  -4   1  141.84    5.15
  -1  -4   1  151.06    5.30
  -1  -4   1  142.34    5.20
   0   4  -1  197.57    6.41
   0   4  -1  189.56    6.86
   0   4  -1  203.13    5.77
   0   4  -1  200.81    6.73
   0  -4   1  202.79    6.85
   0  -4   1  209.05    6.89
   0  -4   1  202.67    5.76
   0  -4   1  215.76    7.27
  -1   4  -1  104.79    3.48
  -1   4  -1   97.89    2.87
  -1   4  -1   97.49    3.71
  -1   4  -1  104.84    3.83
  -1   4  -1  104.54    2.85
   1  -4   1  105.00    3.69
   1  -4   1  102.88    2.87
   1  -4   1   94.66    2.84
   1  -4   1  104.16    3.95
  -2   4  -1    8.27    1.01
  -2   4  -1   10.01    1.04
  -2   4  -1    7.96    0.39
  -2   4  -1    8.04    0.44
  -2   4  -1    7.63    0.73
   2  -4   1    7.88    0.36
   2  -4   1    9.50    1.13
   2  -4   1    8.07    0.44
  -3   4  -1  193.06    6.53
  -3   4  -1  201.34    5.70
  -3   4  -1  190.04    6.61
  -3   4  -1  193.58    5.62
   3  -4   1  187.67    6.63
   3  -4   1  200.11    5.62
  -4   4  -1  266.54    8.89
  -4   4  -1  273.49    8.95
  -4   4  -1  262.11    7.80
  -4   4  -1  264.20    7.85
   4  -4   1  277.64    7.81
   4  -4   1  267.76    9.05
  -5   4  -1    2.87    0.66
  -5   4  -1    3.70    0.89
   5  -4   1    3.47    0.66
   5  -4   1    3.67    1.32
  -6   4  -1   49.49    2.50
  -6   4  -1   48.83    2.05
   6  -4   1   52.87    3.20
   6  -4   1   47.06    2.85
   6  -4   1   52.78    2.18
  -7   4  -1  137.14    4.78
  -7   4  -1  139.17    5.27
   7  -4   1  139.90    5.87
   7  -4   1  143.10    4.81
   7  -4   1  130.85    5.69
  -8   4  -1   29.68    2.37
  -8   4  -1   28.22    2.15
   8  -4   1   30.64    2.78
   8  -4   1   31.16    2.23
   8  -4   1   25.89    2.63
  -9   4  -1    6.91    1.63
   9  -4   1    9.81    2.64
   9  -4   1    9.47    1.65
   9  -4   1   12.72    2.22
 -10   4  -1   59.94    3.68
  10  -4   1   57.84    3.59
  10  -4   1   61.35    4.27
  10  -4   1   60.69    4.40
 -11   4  -1   25.06    2.90
  11  -4   1   25.50    3.21
  11  -4   1   25.54    4.09
 -12   4  -1    0.02    1.74
 -11  -3   1   -0.01    2.41
  10   3  -1   12.05    3.65
  10   3  -1   14.60    2.25
  10   3  -1    9.02    2.80
 -10  -3   1   11.28    2.08
   9   3  -1   34.39    4.04
   9   3  -1   32.94    3.47
   9   3  -1   36.38    3.15
  -9  -3   1   29.91    3.01
   8   3  -1    5.12    1.79
   8   3  -1    7.64    1.75
   8   3  -1    7.67    1.99
  -8  -3   1    7.22    1.84
   7   3  -1   12.49    2.02
   7   3  -1    8.94    2.11
   7   3  -1   10.40    1.66
  -7  -3   1   11.22    1.64
   6   3  -1   52.64    3.33
   6   3  -1   52.19    2.70
   6   3  -1   49.94    2.73
  -6  -3   1   54.10    2.75
   5   3  -1   71.66    2.92
   5   3  -1   71.75    3.46
   5   3  -1   67.17    3.16
  -5  -3   1   66.44    3.55
  -5  -3   1   71.73    2.92
   4   3  -1    0.97    0.52
   4   3  -1    0.98    0.63
   4   3  -1    0.90    0.94
  -4  -3   1    1.60    0.55
  -4  -3   1    1.65    1.08
   3   3  -1  264.53    8.91
   3   3  -1  273.06    8.09
   3   3  -1  276.98    8.72
  -3  -3   1  282.42    8.09
  -3  -3   1  273.30    9.28
   2   3  -1  132.79    4.43
   2   3  -1  134.04    4.05
   2   3  -1  132.50    4.03
   2   3  -1  134.08    4.50
   2   3  -1  117.15    4.71
   2   3  -1  139.46    4.63
  -2  -3   1  127.06    4.78
  -2  -3   1  135.04    4.03
   1   3  -1   20.06    1.16
   1   3  -1   19.80    0.94
   1   3  -1   20.38    0.88
   1   3  -1   18.96    0.86
   1   3  -1   21.78    1.21
  -1  -3   1   20.01    0.85
  -1  -3   1   21.69    1.04
  -1  -3   1   21.07    1.23
  -1  -3   1   21.84    1.02
   0   3  -1  178.18    5.05
   0   3  -1  174.92    5.59
   0   3  -1  174.10    5.95
   0   3  -1  172.85    5.81
   0  -3   1  177.12    5.05
   0  -3   1  188.54    6.35
   0  -3   1  173.24    5.88
   0  -3   1  188.00    5.99
   0  -3   1  176.34    5.05
  -1   3  -1  215.36    5.78
  -1   3  -1  199.77    5.79
  -1   3  -1  197.50    6.79
  -1   3  -1  198.19    6.66
  -1   3  -1  197.06    6.39
   1  -3   1  203.57    5.77
   1  -3   1  213.12    5.80
   1  -3   1  222.12    7.40
  -2   3  -1   62.33    2.29
  -2   3  -1   49.25    1.81
  -2   3  -1   63.15    1.83
   2  -3   1   58.48    1.84
   2  -3   1   56.31    2.45
   2  -3   1   60.63    1.80
  -3   3  -1   54.01    1.81
  -3   3  -1   49.69    2.13
  -3   3  -1   49.40    1.75
  -3   3  -1   51.76    2.23
   3  -3   1   49.84    2.48
   3  -3   1   50.86    1.75
  -4   3  -1  244.00    7.26
  -4   3  -1  253.79    8.20
   4  -3   1  239.57    8.32
   4  -3   1  249.86    7.26
  -5   3  -1   73.71    2.62
  -5   3  -1   75.77    3.02
   5  -3   1   70.66    3.50
   5  -3   1   73.19    2.61
  -6   3  -1    3.62    0.94
  -6   3  -1    3.32    0.87
   6  -3   1    4.00    0.87
   6  -3   1    4.00    1.13
   6  -3   1    2.05    1.06
  -7   3  -1   66.71    2.93
  -7   3  -1   71.47    3.08
   7  -3   1   62.98    2.93
   7  -3   1   67.39    3.93
   7  -3   1   64.15    3.51
  -8   3  -1   86.61    3.56
  -8   3  -1   86.74    3.91
   8  -3   1   83.24    3.50
   8  -3   1   87.57    4.40
   8  -3   1   84.40    4.80
  -9   3  -1   -0.20    1.43
   9  -3   1    1.18    2.22
   9  -3   1   -1.01    1.43
   9  -3   1   -1.18    1.26
 -10   3  -1   21.78    2.54
  10  -3   1   19.79    2.58
  10  -3   1   21.97    3.07
  10  -3   1   25.22    2.54
 -11   3  -1   29.66    2.79
  11  -3   1   35.26    4.52
  11   2  -1   15.81    4.36
  11   2  -1    9.60    3.02
 -11  -2   1    8.47    2.79
  10   2  -1    0.25    2.22
  10   2  -1   -0.61    2.36
  10   2  -1    7.13    2.39
 -10  -2   1   -0.58    1.99
   9   2  -1   49.18    3.15
   9   2  -1   51.89    3.96
   9   2  -1   54.54    4.02
  -9  -2   1   55.66    3.22
   8   2  -1   34.78    3.05
   8   2  -1   31.35    3.29
  -8  -2   1   31.13    2.59
   7   2  -1    7.36    1.71
   7   2  -1    5.85    1.42
   7   2  -1    7.09    1.92
  -7  -2   1   10.21    1.60
   6   2  -1   49.20    3.14
   6   2  -1   52.55    2.16
   6   2  -1   49.14    2.55
  -6  -2   1   51.61    2.57
   5   2  -1  204.27    6.57
   5   2  -1  209.99    7.40
  -5  -2   1  215.96    6.60
   4   2  -1   55.97    2.23
   4   2  -1   54.40    2.58
   4   2  -1   54.01    2.40
  -4  -2   1   55.38    2.56
  -4  -2   1   55.78    2.23
   3   2  -1   26.77    1.32
   3   2  -1   23.58    1.54
   3   2  -1   27.09    1.30
  -3  -2   1   26.57    1.30
  -3  -2   1   24.60    1.50
   2   2  -1  222.49    6.90
   2   2  -1  204.54    7.62
   2   2  -1  218.07    7.09
   2   2  -1  233.77    6.48
   2   2  -1  218.99    6.46
  -2  -2   1  227.93    7.37
  -2  -2   1  226.30    6.46
   1   2  -1  189.75    5.89
   1   2  -1  184.84    6.21
   1   2  -1  189.56    5.33
   1   2  -1  192.58    6.40
   1   2  -1  190.37    5.32
   1   2  -1  181.48    6.10
   1   2  -1  181.97    5.74
  -1  -2   1  186.03    5.90
  -1  -2   1  187.57    6.10
  -1  -2   1  188.42    5.32
  -1  -2   1  166.15    6.43
  -1  -2   1  179.84    5.74
  -1  -2   1  192.14    5.33
   0   2  -1    0.65    0.45
   0   2  -1    0.97    0.52
   0   2  -1    0.68    0.37
   0   2  -1    0.01    0.50
   0   2  -1    0.81    0.31
   0   2  -1    1.17    0.22
   0  -2   1    1.16    0.46
   0  -2   1    1.02    0.20
   0  -2   1    1.25    0.47
   0  -2   1    0.75    0.31
   0  -2   1    0.78    0.38
   0  -2   1    0.92    0.21
   0  -2   1    0.91    0.38
  -1   2  -1  122.36    3.87
  -1   2  -1  124.19    3.54
  -1   2  -1  122.68    4.09
   1  -2   1  120.28    3.56
   1  -2   1  121.94    4.00
   1  -2   1  121.72    4.11
   1  -2   1  121.77    4.00
   1  -2   1  118.58    3.86
   1  -2   1  129.32    4.52
   1  -2   1  127.33    3.55
  -2   2  -1  306.06    8.56
  -2   2  -1  308.07    8.55
  -2   2  -1  293.87    9.54
  -2   2  -1  295.59    9.37
   2  -2   1  306.15    8.54
   2  -2   1  292.63    9.32
   2  -2   1  297.58    9.54
   2  -2   1  303.77    9.61
  -3   2  -1    8.76    0.79
  -3   2  -1    7.45    0.69
  -3   2  -1    6.53    0.66
   3  -2   1    5.15    1.07
   3  -2   1    6.42    0.65
  -4   2  -1   38.82    1.60
  -4   2  -1   41.28    1.93
   4  -2   1   37.87    1.58
   4  -2   1   42.07    2.33
  -5   2  -1  120.99    4.13
   5  -2   1  124.19    4.97
   5  -2   1  125.39    4.14
   5  -2   1  126.56    4.97
  -6   2  -1   27.95    1.75
   6  -2   1   27.67    1.96
   6  -2   1   28.61    2.55
   6  -2   1   30.05    1.79
  -7   2  -1   29.91    1.84
   7  -2   1   34.57    2.31
   7  -2   1   31.77    1.87
   7  -2   1   30.73    2.50
  -8   2  -1   72.31    3.49
   8  -2   1   72.78    3.56
   8  -2   1   75.89    3.85
   8  -2   1   71.58    4.08
  -9   2  -1   23.53    2.38
   9  -2   1   19.75    2.25
   9  -2   1   21.65    2.34
   9  -2   1   22.94    3.21
 -10   2  -1    3.44    1.47
  10  -2   1    2.25    1.40
  10  -2   1    1.46    2.89
 -11   2  -1   23.53    3.07
  11  -2   1   26.37    4.22
  12  -2   1    4.11    2.44
  11   1  -1   43.28    4.47
  11   1  -1   42.04    3.80
 -11  -1   1   44.35    3.88
  10   1  -1    4.51    3.01
  10   1  -1    2.95    1.46
  10   1  -1    3.45    2.29
 -10  -1   1    5.04    2.06
   9   1  -1   20.68    2.39
   9   1  -1   20.87    3.26
  -9  -1   1   17.30    2.32
   8   1  -1   92.78    5.15
   8   1  -1  102.46    4.34
  -8  -1   1  100.40    4.35
   7   1  -1   70.43    3.05
   7   1  -1   69.25    3.92
  -7  -1   1   71.29    3.25
   6   1  -1    0.32    1.20
   6   1  -1    1.97    0.74
  -6  -1   1    2.36    0.94
   5   1  -1  204.20    6.31
   5   1  -1  197.81    7.02
  -5  -1   1  198.93    6.29
   4   1  -1  221.65    7.36
   4   1  -1  221.30    6.64
  -4  -1   1  217.51    6.63
   3   1  -1   12.66    1.17
   3   1  -1   10.54    0.76
  -3  -1   1   11.70    0.77
   2   1  -1   58.78    1.86
   2   1  -1   58.23    2.09
   2   1  -1   55.06    1.89
  -2  -1   1   55.82    2.15
  -2  -1   1   55.31    1.88
   1   1  -1  345.62    9.31
   1   1  -1  341.65    9.89
   1   1  -1  304.85   10.38
   1   1  -1  344.10   10.12
   1   1  -1  317.66   11.31
  -1  -1   1  351.08    9.31
  -1  -1   1  344.00    9.31
  -1  -1   1  337.53   10.40
  -1  -1   1  279.03    9.86
  -1  -1   1  345.64   10.12
   0   1  -1   17.80    0.75
   0   1  -1   24.67    0.92
  -1   1  -1  140.50    4.54
  -1   1  -1  153.03    5.18
  -1   1  -1  148.62    4.61
  -1   1  -1  145.89    4.21
  -1   1  -1  140.73    4.65
   1  -1   1  148.27    4.63
   1  -1   1  143.86    4.21
   1  -1   1  143.12    4.20
   1  -1   1  145.32    4.68
  -2   1  -1   52.61    2.27
  -2   1  -1   45.65    1.70
  -2   1  -1   49.54    1.68
   2  -1   1   50.88    2.04
   2  -1   1   49.10    1.75
   2  -1   1   50.39    1.71
   2  -1   1   46.83    2.14
  -3   1  -1  163.25    4.94
   3  -1   1  171.28    5.99
   3  -1   1  156.05    5.22
   3  -1   1  161.83    5.59
   3  -1   1  165.96    4.94
  -4   1  -1    0.79    0.45
   4  -1   1   -0.47    0.59
   4  -1   1    0.18    0.40
   4  -1   1    0.30    0.92
  -5   1  -1  151.29    4.84
   5  -1   1  143.66    4.80
   5  -1   1  152.18    5.70
   5  -1   1  147.57    5.66
  -6   1  -1   96.41    3.69
   6  -1   1  109.56    4.32
   6  -1   1  102.49    3.72
   6  -1   1  101.34    4.43
  -7   1  -1    2.29    0.87
   7  -1   1    1.22    0.94
   7  -1   1    1.70    0.84
   7  -1   1    1.88    1.32
  -8   1  -1   42.52    2.85
   8  -1   1   43.39    2.91
   8  -1   1   42.87    3.27
   8  -1   1   42.01    2.65
  -9   1  -1   47.73    3.35
   9  -1   1   48.16    3.44
   9  -1   1   53.77    3.95
 -10   1  -1    3.04    2.10
  10  -1   1   -1.56    2.92
  10  -1   1    1.93    1.44
 -11   1  -1    5.92    1.95
  11  -1   1    2.50    3.38
  12  -1   1   13.01    3.18
  12   0  -1   12.28    3.06
  11   0  -1   56.22    4.49
  11   0  -1   52.41    3.67
  11   0  -1   45.95    5.12
 -11   0   1   51.71    4.28
  10   0  -1   33.20    3.10
  10   0  -1   36.25    4.09
 -10   0   1   34.90    3.19
   9   0  -1    0.54    1.56
  -9   0   1   -1.00    1.49
   8   0  -1  100.36    5.14
   8   0  -1  104.56    4.36
   8   0  -1   99.29    4.03
  -8   0   1  100.11    4.05
   7   0  -1  165.71    6.52
   7   0  -1  167.09    5.56
  -7   0   1  158.65    5.52
   6   0  -1   23.35    2.19
   6   0  -1   25.32    1.53
  -6   0   1   24.96    1.50
   5   0  -1   88.83    3.22
   5   0  -1   89.09    3.71
  -5   0   1   93.81    3.24
   4   0  -1  350.72   10.19
   4   0  -1  358.71   11.20
  -4   0   1  342.56   10.18
   3   0  -1  121.01    3.68
   3   0  -1  118.29    4.05
  -3   0   1  116.96    3.67
   2   0  -1  111.85    3.36
   2   0  -1  111.37    3.69
   2   0  -1  115.18    3.37
  -2   0   1  112.06    3.36
  -2   0   1  115.77    3.73
  -2   0   1  112.30    3.36
   0   0  -1    0.18    0.12
   0   0  -1    0.05    0.14
   0   0  -1   -0.16    0.13
   0   0  -1    0.00    0.11
   0   0   1   -0.01    0.14
   0   0   1   -0.08    0.09
   0   0   1    0.07    0.08
   0   0   1    0.03    0.09
   0   0   1   -0.06    0.10
  -1   0  -1   11.45    0.69
  -1   0  -1   13.84    0.81
  -1   0  -1   14.20    0.73
  -1   0  -1   14.49    0.71
  -1   0  -1   14.33    0.79
   1   0   1   12.61    0.73
   1   0   1   15.46    0.88
   1   0   1   13.24    0.63
   1   0   1   13.58    0.67
  -2   0  -1   76.61    2.78
  -2   0  -1   76.44    2.55
   2   0   1   79.11    2.56
   2   0   1   75.86    2.89
   2   0   1   78.38    2.71
   2   0   1   83.97    2.96
  -3   0  -1  307.29    9.16
   3   0   1  316.43   10.94
   3   0   1  316.83    9.17
   3   0   1  315.50   10.06
  -4   0  -1   79.72    2.93
   4   0   1   78.37    3.31
   4   0   1   83.99    3.25
   4   0   1   82.94    2.88
  -5   0  -1   63.93    2.74
   5   0   1   66.38    2.76
   5   0   1   72.55    2.93
   5   0   1   67.11    3.15
  -6   0  -1  168.20    5.81
   6   0   1  169.84    5.82
   6   0   1  178.07    6.75
   6   0   1  174.54    6.52
  -7   0  -1   62.23    3.07
   7   0   1   57.23    2.85
   7   0   1   59.99    3.86
   7   0   1   58.38    2.80
  -8   0  -1    1.39    1.07
   8   0   1    1.71    1.60
   8   0   1   -0.72    1.07
  -9   0  -1   46.49    3.49
   9   0   1   50.28    4.45
   9   0   1   46.52    3.50
 -10   0  -1   35.05    3.42
  10   0   1   30.47    4.33
  10   0   1   32.34    3.31
 -11   0  -1   -0.89    2.44
  11   0   1   -0.76    3.31
  12  -1  -1    1.33    2.45
 -12   1   1    0.63    1.64
  11  -1  -1   28.85    4.25
  11  -1  -1   25.29    3.00
 -11   1   1   31.94    3.17
  10  -1  -1   79.00    4.83
  10  -1  -1   82.43    4.28
 -10   1   1   72.46    4.19
   9  -1  -1   12.62    1.69
   9  -1  -1   18.24    2.82
  -9   1   1   15.37    2.08
   8  -1  -1   45.46    2.43
   8  -1  -1   50.88    3.52
  -8   1   1   44.15    2.40
   7  -1  -1  186.32    6.03
   7  -1  -1  178.73    6.86
  -7   1   1  185.63    6.03
   6  -1  -1  118.65    4.02
   6  -1  -1  111.42    4.66
  -6   1   1  113.74    3.99
   5  -1  -1   11.92    1.24
   5  -1  -1   14.34    1.16
  -5   1   1   13.35    1.08
   4  -1  -1  486.29   15.22
   4  -1  -1  498.75   13.91
  -4   1   1  476.47   13.89
   3  -1  -1  819.95   22.77
   3  -1  -1  803.49   24.74
  -3   1   1  806.52   22.76
  -3   1   1  822.07   22.77
   2  -1  -1   16.55    0.75
   2  -1  -1   16.25    0.76
   2  -1  -1   18.33    1.02
  -2   1   1   18.45    1.05
  -2   1   1   17.64    0.77
  -2   1   1   18.17    0.77
  -1   1   1  268.87    7.53
  -1  -1  -1  167.04    5.55
  -1  -1  -1  170.59    4.96
  -1  -1  -1  165.86    5.42
  -1  -1  -1  174.67    5.33
  -1  -1  -1  170.24    4.98
  -1  -1  -1  175.02    5.89
   1   1   1  176.34    4.97
   1   1   1  170.66    4.98
   1   1   1  173.25    5.36
   1   1   1  151.60    5.90
   1   1   1  171.23    5.22
   1   1   1  173.39    5.56
   1   1   1  170.15    6.00
  -2  -1  -1   32.92    1.39
  -2  -1  -1   32.03    1.52
   2   1   1   31.85    1.31
   2   1   1   32.89    1.38
   2   1   1   31.97    1.57
  -3  -1  -1  382.27   11.06
  -3  -1  -1  380.71   12.33
   3   1   1  376.75   12.07
   3   1   1  366.88   11.05
   3   1   1  396.19   13.14
  -4  -1  -1  235.99    8.04
  -4  -1  -1  233.84    7.13
   4   1   1  239.89    8.28
   4   1   1  230.38    7.93
   4   1   1  227.75    7.13
  -5  -1  -1    0.60    0.62
   5   1   1   -0.12    1.13
   5   1   1   -0.23    0.61
   5   1   1    1.69    0.53
  -6  -1  -1  106.10    4.01
   6   1   1  108.92    4.92
   6   1   1  104.19    4.01
   6   1   1  111.66    4.31
  -7  -1  -1  101.58    4.31
   7   1   1  105.27    4.35
   7   1   1  101.78    5.18
  -8  -1  -1   11.51    1.97
   8   1   1    6.90    1.91
   8   1   1   10.66    2.19
  -9  -1  -1   18.19    2.63
   9   1   1   18.72    2.27
   9   1   1   18.92    3.50
 -10  -1  -1   55.88    3.74
  10   1   1   59.90    5.31
  10   1   1   52.03    4.33
 -11  -1  -1    8.48    2.94
  11   1   1    7.06    3.24
  11   1   1    4.57    2.80
  12  -2  -1    4.49    2.71
  12  -2  -1   -0.93    2.24
 -12   2   1    5.38    2.48
  11  -2  -1   11.34    3.42
  11  -2  -1   10.37    1.93
 -11   2   1   16.93    2.59
  10  -2  -1   81.46    4.12
  10  -2  -1   77.31    5.37
 -10   2   1   73.08    4.09
   9  -2  -1   60.35    3.33
   9  -2  -1   67.77    4.40
   9  -2  -1   62.91    3.63
  -9   2   1   64.13    3.39
   8  -2  -1   -1.19    1.04
   8  -2  -1    1.25    1.24
  -8   2   1    2.11    1.17
   7  -2  -1  147.59    5.02
   7  -2  -1  144.88    5.75
  -7   2   1  149.46    5.04
   6  -2  -1  174.49    6.26
   6  -2  -1  171.79    5.43
  -6   2   1  169.35    5.43
   5  -2  -1  127.85    4.01
   5  -2  -1  123.83    4.68
  -5   2   1  120.54    3.99
   4  -2  -1  190.27    6.46
   4  -2  -1  195.38    5.70
  -4   2   1  188.70    5.69
   3  -2  -1  987.51   27.24
   3  -2  -1  964.89   29.67
  -3   2   1  954.02   27.23
  -3   2   1  999.13   27.25
   2  -2  -1  267.60    8.22
   2  -2  -1  261.02    7.42
   2  -2  -1  266.65    7.42
   2  -2  -1  261.91    7.88
   2  -2  -1  250.73    8.27
  -2   2   1  270.40    7.43
  -2   2   1  259.47    8.56
  -2   2   1  261.51    8.25
  -2   2   1  268.73    7.43
   1  -2  -1    9.95    0.41
   1  -2  -1    9.60    0.44
   1  -2  -1    9.72    0.53
   1  -2  -1   10.41    0.76
   1  -2  -1    9.67    0.73
   1  -2  -1    9.34    0.74
  -1   2   1    9.74    0.45
  -1   2   1   10.44    0.80
  -1   2   1    9.07    0.79
  -1   2   1    9.91    0.56
   0  -2  -1  389.01   11.86
   0  -2  -1  376.39   10.89
   0  -2  -1  396.48   12.96
   0  -2  -1  375.20   10.91
   0  -2  -1  378.46   11.74
   0   2   1  390.24   11.84
   0   2   1  402.73   12.95
   0   2   1  382.33   10.90
   0   2   1  401.09   10.93
   0   2   1  381.17   11.61
   0   2   1  386.09   12.23
  -1  -2  -1  376.46   11.27
  -1  -2  -1  340.28   12.49
  -1  -2  -1  359.20   11.60
  -1  -2  -1  375.19   11.76
  -1  -2  -1  356.76   12.46
  -1  -2  -1  384.58   10.45
   1   2   1  348.51   12.45
   1   2   1  378.28   10.47
   1   2   1  373.03   11.28
   1   2   1  366.07   10.44
   1   2   1  379.07   11.24
  -2  -2  -1    0.46    0.56
  -2  -2  -1    0.27    0.36
   2   2   1    0.06    0.63
   2   2   1   -0.45    0.35
   2   2   1    0.58    0.43
  -3  -2  -1  148.36    5.30
  -3  -2  -1  141.14    4.58
   3   2   1  137.55    5.08
   3   2   1  145.97    4.60
   3   2   1  146.91    5.08
  -4  -2  -1  298.04    9.09
  -4  -2  -1  304.89   10.32
   4   2   1  308.50   10.03
   4   2   1  302.31   10.51
   4   2   1  300.59    9.11
  -5  -2  -1   24.34    2.26
  -5  -2  -1   23.25    1.52
   5   2   1   22.35    1.23
   5   2   1   20.73    1.50
   5   2   1   24.81    2.30
  -6  -2  -1   31.19    2.23
   6   2   1   29.75    2.39
   6   2   1   24.08    2.14
  -7  -2  -1  111.85    4.72
   7   2   1  116.44    5.70
   7   2   1  112.89    4.73
  -8  -2  -1   43.87    2.90
   8   2   1   51.85    4.57
   8   2   1   48.41    2.96
  -9  -2  -1    8.24    1.78
   9   2   1    5.02    2.22
   9   2   1    5.31    2.70
   9   2   1    6.25    2.43
 -10  -2  -1   26.03    3.38
  10   2   1   35.21    4.25
  10   2   1   39.91    4.82
  10   2   1   31.82    3.55
  12  -3  -1   21.33    3.48
 -12   3   1   32.68    3.34
  11  -3  -1    0.70    1.78
  11  -3  -1   -0.07    1.81
  11  -3  -1    1.00    2.89
 -11   3   1    0.11    1.83
  10  -3  -1   26.86    3.49
  10  -3  -1   26.20    2.26
  10  -3  -1   29.92    2.89
 -10   3   1   24.96    2.26
 -10   3   1   31.29    2.99
   9  -3  -1   75.94    3.31
   9  -3  -1   79.40    4.75
  -9   3   1   75.38    3.34
   8  -3  -1   12.71    2.10
  -8   3   1    8.83    1.17
   7  -3  -1   11.70    1.55
   7  -3  -1   13.11    1.31
  -7   3   1   11.43    1.24
   6  -3  -1  172.21    5.39
   6  -3  -1  170.99    6.33
  -6   3   1  170.16    5.39
   5  -3  -1  187.30    5.60
   5  -3  -1  185.91    6.50
  -5   3   1  180.95    5.59
  -5   3   1  184.87    6.70
   4  -3  -1    1.53    0.41
   4  -3  -1    1.57    0.88
  -4   3   1    2.01    0.46
  -4   3   1    2.35    0.93
  -4   3   1    1.77    0.44
   3  -3  -1  374.88   10.54
   3  -3  -1  380.45   11.77
   3  -3  -1  364.24   11.25
  -3   3   1  364.07   10.54
  -3   3   1  376.57   10.55
  -3   3   1  384.53   12.21
   2  -3  -1  128.25    3.97
   2  -3  -1  128.10    4.23
   2  -3  -1  127.18    3.62
   2  -3  -1  120.63    3.60
  -2   3   1  123.39    4.32
  -2   3   1  124.85    4.47
  -2   3   1  128.36    3.99
  -2   3   1  130.04    3.63
   1  -3  -1   28.38    1.29
   1  -3  -1   28.62    0.95
   1  -3  -1   27.81    0.92
   1  -3  -1   29.30    1.12
  -1   3   1   25.75    1.27
  -1   3   1   27.26    1.19
   0  -3  -1  232.95    7.19
   0  -3  -1  229.21    6.62
   0  -3  -1  225.99    7.70
   0  -3  -1  232.70    7.97
   0   3   1  233.77    7.32
   0   3   1  225.04    7.16
   0   3   1  231.44    7.64
   0   3   1  240.11    6.67
   0   3   1  228.74    6.62
   0   3   1  233.67    7.94
  -1  -3  -1  381.36   12.36
  -1  -3  -1  392.97   10.86
  -1  -3  -1  351.52   12.93
   1   3   1  379.51   10.88
   1   3   1  381.09   11.63
   1   3   1  383.65   11.76
   1   3   1  388.20   10.86
  -2  -3  -1  100.94    3.29
  -2  -3  -1  104.71    4.04
   2   3   1  104.10    3.49
   2   3   1  101.74    3.31
   2   3   1   99.59    3.68
   2   3   1  100.63    3.67
  -3  -3  -1   60.16    2.82
  -3  -3  -1   59.06    2.38
   3   3   1   63.08    2.73
   3   3   1   57.79    2.38
   3   3   1   62.98    2.39
  -4  -3  -1  136.71    5.56
  -4  -3  -1  140.24    4.74
   4   3   1  138.48    4.75
   4   3   1  141.48    4.79
   4   3   1  143.83    5.36
  -5  -3  -1  117.19    5.03
  -5  -3  -1  120.84    4.30
   5   3   1  122.00    4.24
   5   3   1  117.98    4.30
   5   3   1  120.98    5.09
  -6  -3  -1    3.35    1.33
   6   3   1    4.00    1.80
   6   3   1    1.70    0.71
   6   3   1    2.73    1.30
  -7  -3  -1   85.35    4.21
   7   3   1   89.35    4.52
   7   3   1   98.38    4.85
   7   3   1   85.19    4.21
  -8  -3  -1   69.93    3.75
   8   3   1   74.84    3.82
   8   3   1   78.63    5.35
   8   3   1   76.70    4.99
  -9  -3  -1    0.78    2.02
   9   3   1    1.30    1.95
   9   3   1    1.29    2.19
   9   3   1    1.26    2.94
 -10  -3  -1    9.91    2.64
  10   3   1   10.48    2.96
  10   3   1   14.41    4.00
  10   3   1    5.63    3.41
  12  -4  -1   33.17    4.51
 -12   4   1   27.55    2.66
  11  -4  -1   18.39    3.44
  11  -4  -1   13.90    2.54
 -11   4   1   15.07    2.36
  10  -4  -1    3.09    2.45
  10  -4  -1    3.64    1.48
  10  -4  -1    3.59    1.47
 -10   4   1    3.86    1.67
 -10   4   1    3.66    1.78
   9  -4  -1   35.98    2.13
   9  -4  -1   34.02    2.99
  -9   4   1   35.61    3.00
  -9   4   1   37.24    2.20
   8  -4  -1   48.48    2.45
   8  -4  -1   54.93    3.60
  -8   4   1   50.93    2.52
  -8   4   1   45.78    3.12
   7  -4  -1    2.78    0.67
   7  -4  -1    2.11    1.04
  -7   4   1    3.15    0.68
  -7   4   1    4.24    1.39
   6  -4  -1   59.04    2.94
   6  -4  -1   60.70    2.29
  -6   4   1   62.45    3.13
  -6   4   1   59.59    2.30
   5  -4  -1  196.72    5.91
   5  -4  -1  196.83    6.95
  -5   4   1  194.76    7.08
  -5   4   1  199.12    5.92
  -5   4   1  204.00    5.95
   4  -4  -1   17.04    0.80
   4  -4  -1   18.39    1.55
  -4   4   1   19.08    1.67
  -4   4   1   15.38    0.82
  -4   4   1   16.29    0.82
   3  -4  -1   37.13    1.21
   3  -4  -1   37.53    1.84
  -3   4   1   35.85    1.21
  -3   4   1   32.61    1.75
  -3   4   1   38.69    2.11
  -3   4   1   35.40    1.52
   2  -4  -1  268.76    7.59
   2  -4  -1  268.63    7.64
   2  -4  -1  276.69    8.66
  -2   4   1  277.50    9.11
  -2   4   1  264.85    7.64
  -2   4   1  276.01    8.79
  -2   4   1  273.11    8.36
   1  -4  -1  108.10    3.26
   1  -4  -1  112.07    3.23
   1  -4  -1  117.63    4.13
  -1   4   1  111.68    3.93
  -1   4   1  110.54    3.72
  -1   4   1  113.30    3.23
  -1   4   1  107.52    4.10
   0  -4  -1    7.35    0.54
   0  -4  -1    7.21    0.97
   0  -4  -1    8.25    0.93
   0   4   1    9.00    0.80
   0   4   1    7.09    0.56
   0   4   1    7.88    0.62
   0   4   1    7.69    1.08
   0   4   1    9.93    0.91
  -1  -4  -1  252.90    8.52
  -1  -4  -1  256.36    7.30
  -1  -4  -1  230.87    8.79
   1   4   1  257.88    7.35
   1   4   1  248.66    7.99
   1   4   1  247.41    7.95
   1   4   1  251.66    7.30
  -2  -4  -1  120.73    3.89
  -2  -4  -1  119.18    4.66
   2   4   1  120.56    4.29
   2   4   1  119.83    4.16
   2   4   1  120.45    4.34
   2   4   1  120.87    3.91
  -3  -4  -1    9.48    0.92
  -3  -4  -1    8.77    1.33
   3   4   1    9.52    0.93
   3   4   1    9.83    1.34
   3   4   1    9.19    1.29
   3   4   1   10.44    0.96
  -4  -4  -1   52.17    2.42
  -4  -4  -1   49.64    3.19
   4   4   1   51.18    2.45
   4   4   1   47.68    2.57
   4   4   1   50.88    2.22
   4   4   1   51.79    2.94
  -5  -4  -1  127.79    4.70
  -5  -4  -1  131.69    5.48
   5   4   1  122.46    4.69
   5   4   1  123.72    4.50
   5   4   1  120.68    5.31
   5   4   1  136.59    5.55
  -6  -4  -1   27.54    2.12
  -6  -4  -1   33.58    3.23
   6   4   1   27.56    2.11
   6   4   1   33.49    2.67
   6   4   1   34.82    3.24
  -7  -4  -1   26.10    2.55
   7   4   1   33.87    3.39
   7   4   1   30.05    3.08
   7   4   1   25.27    2.55
  -8  -4  -1   39.94    3.34
   8   4   1   45.05    4.50
   8   4   1   44.28    3.11
   8   4   1   47.20    4.39
  -9  -4  -1   14.30    2.73
   9   4   1   20.06    3.58
   9   4   1   12.75    3.69
  12  -5  -1   14.41    3.63
  12  -5  -1   15.04    2.38
 -12   5   1   21.46    2.74
  11  -5  -1   36.32    3.80
  11  -5  -1   39.72    4.27
 -11   5   1   40.48    3.20
  10  -5  -1    2.04    1.92
  10  -5  -1    1.36    2.36
 -10   5   1    2.77    1.11
 -10   5   1    2.61    1.74
   9  -5  -1    9.71    2.38
  -9   5   1   11.47    1.58
  -9   5   1   10.99    2.01
   8  -5  -1   99.80    4.86
   8  -5  -1   95.23    3.50
  -8   5   1   97.65    4.40
  -8   5   1   93.85    3.51
   7  -5  -1   54.51    2.24
   7  -5  -1   50.15    3.24
  -7   5   1   55.81    3.17
  -7   5   1   50.62    2.25
   6  -5  -1    8.98    1.30
   6  -5  -1   10.31    0.86
  -6   5   1    7.76    1.47
  -6   5   1   10.17    0.91
   5  -5  -1  101.52    4.13
   5  -5  -1   98.56    3.12
  -5   5   1   99.43    3.16
  -5   5   1  102.27    4.28
  -5   5   1   96.37    3.12
   4  -5  -1  183.63    5.28
   4  -5  -1  181.88    6.37
  -4   5   1  181.84    5.28
  -4   5   1  181.35    6.66
   3  -5  -1    1.41    0.22
   3  -5  -1    1.70    0.59
  -3   5   1    2.56    0.98
  -3   5   1    1.49    0.65
  -3   5   1    1.40    0.23
  -3   5   1    2.44    0.60
  -3   5   1    1.59    0.21
   2  -5  -1  122.98    4.55
  -2   5   1  124.74    4.10
  -2   5   1  119.38    4.59
  -2   5   1  118.09    4.42
   1  -5  -1  240.96    6.79
   1  -5  -1  247.47    8.41
  -1   5   1  231.71    7.85
  -1   5   1  245.01    6.80
  -1   5   1  240.24    6.85
  -1   5   1  237.98    7.60
  -1   5   1  234.94    8.22
   0  -5  -1   52.82    2.44
   0  -5  -1   54.85    2.77
   0  -5  -1   53.68    1.81
   0   5   1   51.02    1.82
   0   5   1   54.29    1.90
   0   5   1   54.65    2.67
   0   5   1   54.78    2.29
   0   5   1   54.94    2.36
  -1  -5  -1   32.16    1.35
  -1  -5  -1   30.67    2.20
  -1  -5  -1   29.65    1.88
   1   5   1   29.51    1.34
   1   5   1   30.04    1.79
   1   5   1   30.31    1.65
  -2  -5  -1   63.94    3.19
  -2  -5  -1   70.88    2.54
   2   5   1   74.36    2.81
   2   5   1   65.89    2.52
   2   5   1   65.64    2.95
   2   5   1   64.62    2.86
  -3  -5  -1   62.81    3.53
  -3  -5  -1   64.26    2.52
   3   5   1   69.01    2.73
   3   5   1   66.72    3.16
   3   5   1   62.92    2.53
   3   5   1   58.70    3.05
  -4  -5  -1    0.68    0.90
  -4  -5  -1    1.62    1.21
   4   5   1    1.57    1.01
   4   5   1   -1.24    1.16
   4   5   1    0.69    0.69
   4   5   1    0.55    0.99
  -5  -5  -1   70.07    3.12
  -5  -5  -1   68.72    4.39
   5   5   1   70.34    4.00
   5   5   1   72.62    3.38
   5   5   1   72.24    4.14
  -6  -5  -1   39.30    2.92
  -6  -5  -1   44.62    3.49
   6   5   1   47.09    3.72
   6   5   1   43.82    3.03
   6   5   1   40.10    3.21
  -7  -5  -1    0.35    1.18
   7   5   1    0.19    1.67
   7   5   1    2.31    1.77
   7   5   1    2.49    1.83
  -8  -5  -1   10.85    2.32
   8   5   1   13.70    3.27
   8   5   1   17.06    2.70
   8   5   1   19.12    3.44
   9   5   1   17.49    3.99
  12  -6  -1    5.37    2.52
  12  -6  -1    7.24    2.64
 -12   6   1    5.44    1.61
  11  -6  -1   36.06    4.11
  11  -6  -1   37.58    3.77
 -11   6   1   35.28    3.00
  10  -6  -1   52.26    4.46
 -10   6   1   51.98    3.00
 -10   6   1   50.89    3.83
   9  -6  -1   -1.65    2.05
  -9   6   1    1.41    1.16
  -9   6   1   -0.93    1.55
   8  -6  -1   61.67    3.59
  -8   6   1   65.30    2.70
  -8   6   1   59.36    3.70
   7  -6  -1  121.74    5.14
  -7   6   1  122.33    4.10
  -7   6   1  130.31    5.41
   6  -6  -1   23.76    1.17
   6  -6  -1   27.26    2.35
  -6   6   1   24.76    2.30
  -6   6   1   23.04    1.22
   5  -6  -1   24.65    1.84
   5  -6  -1   26.16    1.06
  -5   6   1   25.36    1.11
  -5   6   1   25.71    1.06
  -5   6   1   25.97    2.21
   4  -6  -1  203.12    5.60
   4  -6  -1  198.40    6.89
  -4   6   1  195.68    6.42
  -4   6   1  195.81    5.61
  -4   6   1  194.00    5.59
  -4   6   1  198.65    7.17
  -4   6   1  188.33    6.90
   3  -6  -1  135.73    5.10
   3  -6  -1  145.38    5.39
  -3   6   1  148.92    4.85
  -3   6   1  144.69    5.56
  -3   6   1  138.32    5.28
   2  -6  -1    7.82    0.89
  -2   6   1    7.28    0.84
  -2   6   1    6.52    1.10
  -2   6   1    7.37    1.14
   1  -6  -1  129.22    5.35
   1  -6  -1  140.41    3.98
   1  -6  -1  144.35    5.21
  -1   6   1  139.65    5.38
  -1   6   1  132.28    4.05
  -1   6   1  140.28    4.79
  -1   6   1  128.49    4.90
  -1   6   1  144.24    3.99
   0  -6  -1   75.25    2.40
   0  -6  -1   68.48    3.33
   0  -6  -1   72.35    3.20
   0   6   1   69.80    2.49
   0   6   1   76.25    2.95
   0   6   1   76.38    3.12
   0   6   1   74.73    3.35
   0   6   1   74.44    2.40
  -1  -6  -1    9.86    1.33
  -1  -6  -1    7.69    1.59
  -1  -6  -1    8.69    0.70
  -1  -6  -1   10.18    0.81
   1   6   1    9.56    0.89
   1   6   1    8.95    1.11
   1   6   1   10.29    0.87
   1   6   1    6.70    1.08
  -2  -6  -1   32.31    2.67
  -2  -6  -1   35.62    1.72
   2   6   1   36.64    1.74
   2   6   1   31.25    2.28
   2   6   1   35.27    1.98
  -3  -6  -1   78.44    4.23
  -3  -6  -1   71.71    3.02
   3   6   1   80.65    3.25
   3   6   1   80.93    3.78
   3   6   1   76.38    3.08
  -4  -6  -1   20.92    2.35
  -4  -6  -1   20.45    1.75
   4   6   1   25.41    2.51
   4   6   1   19.76    1.83
   4   6   1   20.54    2.30
   4   6   1   18.44    1.64
  -5  -6  -1    9.93    2.06
  -5  -6  -1    9.92    1.54
   5   6   1    9.04    1.73
   5   6   1   10.51    2.33
   5   6   1   10.03    1.67
  -6  -6  -1   33.39    3.75
   6   6   1   38.52    3.35
   6   6   1   39.65    3.03
   6   6   1   35.89    3.23
   7   6   1   11.00    3.09
   7   6   1   13.89    2.38
   7   6   1   11.21    2.51
   8   6   1   -2.75    2.99
   8   6   1    2.74    2.31
   8   6   1    1.31    1.57
  13  -7  -1   17.38    2.82
  12  -7  -1    0.10    1.73
  12  -7  -1    4.41    3.12
 -12   7   1    0.73    1.77
  11  -7  -1   24.89    3.01
  11  -7  -1   23.59    3.20
 -11   7   1   28.16    2.47
 -11   7   1   21.62    2.93
  10  -7  -1   76.31    5.23
  10  -7  -1   77.62    5.03
 -10   7   1   72.09    4.10
 -10   7   1   78.54    3.55
   9  -7  -1   29.32    2.86
  -9   7   1   26.18    2.54
  -9   7   1   21.23    1.89
   8  -7  -1   10.14    1.85
  -8   7   1   17.27    2.35
  -8   7   1   10.99    1.14
   7  -7  -1  109.07    5.21
  -7   7   1  115.26    3.74
  -7   7   1  116.64    5.27
   6  -7  -1   92.12    4.12
  -6   7   1   93.46    2.98
  -6   7   1   88.38    4.37
   5  -7  -1    1.21    1.18
  -5   7   1    2.25    0.36
  -5   7   1    3.74    1.38
  -5   7   1    1.53    0.37
   4  -7  -1  127.30    4.97
  -4   7   1  122.05    5.32
  -4   7   1  135.50    4.61
  -4   7   1  124.72    5.00
   3  -7  -1  209.65    7.47
   3  -7  -1  222.64    7.93
  -3   7   1  209.45    7.63
  -3   7   1  229.95    7.25
  -3   7   1  223.96    8.11
   2  -7  -1   15.20    1.42
   2  -7  -1   16.32    1.87
  -2   7   1   13.89    1.44
  -2   7   1   13.57    1.79
  -2   7   1   14.49    1.29
   1  -7  -1   51.64    2.47
   1  -7  -1   47.20    2.94
  -1   7   1   49.37    2.61
  -1   7   1   46.73    2.92
  -1   7   1   43.84    2.35
  -1   7   1   47.87    1.59
   0  -7  -1  104.60    4.74
   0  -7  -1  112.98    3.41
   0  -7  -1  100.59    4.34
   0  -7  -1  108.79    4.14
   0   7   1  101.28    4.17
   0   7   1  100.23    3.27
   0   7   1  104.80    4.12
   0   7   1  107.11    4.72
  -1  -7  -1   51.58    2.95
  -1  -7  -1   52.01    3.38
   1   7   1   52.65    2.62
   1   7   1   57.39    2.76
   1   7   1   57.12    2.13
  -2  -7  -1    8.40    1.94
   2   7   1   10.68    1.45
   2   7   1    9.06    1.33
   2   7   1   10.24    1.11
  -3  -7  -1   75.19    4.21
   3   7   1   82.65    4.11
   3   7   1   79.06    3.25
  -4  -7  -1   55.36    3.76
   4   7   1   51.55    2.81
   4   7   1   49.44    2.79
   4   7   1   53.36    3.26
  -5  -7  -1   -0.84    1.59
   5   7   1    2.85    2.09
   5   7   1    2.30    1.50
  -6  -7  -1   23.89    3.81
   6   7   1   20.04    3.36
   7   7   1   33.65    3.16
   7   7   1   30.85    4.08
  12  -8  -1   12.39    3.17
  12  -8  -1   14.05    3.59
 -12   8   1   12.27    2.07
  11  -8  -1    8.63    2.22
  11  -8  -1    5.16    3.02
 -11   8   1    8.28    1.66
 -11   8   1    8.77    2.38
  10  -8  -1   49.95    4.46
  10  -8  -1   50.76    4.65
 -10   8   1   51.29    2.75
 -10   8   1   51.07    4.09
   9  -8  -1   54.40    4.41
  -9   8   1   49.47    3.90
  -9   8   1   53.22    2.49
   8  -8  -1    0.21    1.88
  -8   8   1    0.49    1.79
  -8   8   1   -0.33    0.68
   7  -8  -1   72.49    4.21
  -7   8   1   71.62    4.27
  -7   8   1   72.19    2.53
   6  -8  -1  147.52    5.94
  -6   8   1  132.28    4.05
   5  -8  -1   45.79    2.84
  -5   8   1   37.79    3.09
   4  -8  -1   37.87    2.49
   4  -8  -1   37.38    2.39
  -4   8   1   42.45    2.84
  -4   8   1   40.49    2.26
  -4   8   1   35.23    2.53
   3  -8  -1  219.53    7.90
   3  -8  -1  204.57    7.48
  -3   8   1  210.10    8.11
  -3   8   1  221.72    7.24
  -3   8   1  206.22    7.73
   2  -8  -1   52.63    2.70
   2  -8  -1   49.49    2.96
  -2   8   1   51.64    2.98
  -2   8   1   54.65    2.68
  -2   8   1   52.27    3.00
   1  -8  -1    1.40    0.73
   1  -8  -1    1.75    1.40
  -1   8   1   -0.03    1.00
  -1   8   1    2.32    1.51
  -1   8   1    0.58    1.10
  -1   8   1    0.93    0.29
   0  -8  -1  129.68    5.69
   0  -8  -1  135.78    5.25
   0  -8  -1  127.41    5.58
   0   8   1  139.37    5.23
   0   8   1  140.33    5.30
  -1  -8  -1  132.87    5.89
  -1  -8  -1  119.20    5.35
   1   8   1  117.63    4.89
   1   8   1  132.86    4.16
   1   8   1  125.10    4.99
  -2  -8  -1    8.06    2.27
   2   8   1    7.09    1.45
   2   8   1    8.12    1.45
   2   8   1    7.19    1.08
  -3  -8  -1   27.80    3.39
   3   8   1   28.56    2.54
   3   8   1   32.16    2.32
   3   8   1   29.24    2.32
  -4  -8  -1   63.41    5.03
   4   8   1   65.11    4.32
  -5  -8  -1   26.20    3.80
   5   8   1   18.93    2.25
   5   8   1   21.76    3.19
  -6  -8  -1    1.68    3.14
   6   8   1    2.99    1.96
   6   8   1    1.65    2.89
  12  -9  -1   22.67    3.40
  12  -9  -1   18.43    3.04
  11  -9  -1   -0.75    2.54
  11  -9  -1    1.74    2.88
 -11   9   1    0.57    2.21
 -11   9   1   -2.04    1.58
  10  -9  -1   34.23    3.38
  10  -9  -1   31.49    3.41
 -10   9   1   29.45    3.32
   9  -9  -1   61.56    4.65
  -9   9   1   60.31    4.49
  -9   9   1   57.46    2.48
   8  -9  -1   20.39    2.84
   7  -9  -1   16.66    2.46
  -7   9   1   16.57    2.57
   6  -9  -1  139.07    6.06
  -6   9   1  144.50    6.51
   5  -9  -1   78.66    3.97
   5  -9  -1   79.61    3.99
  -5   9   1   74.18    4.48
  -5   9   1   77.78    4.28
   4  -9  -1    0.53    1.11
   4  -9  -1   -0.63    1.15
  -4   9   1   -0.24    1.47
  -4   9   1    1.56    1.12
  -4   9   1   -1.47    1.59
   3  -9  -1   88.01    4.50
   3  -9  -1   81.83    3.98
   3  -9  -1   88.97    3.97
  -3   9   1   86.42    4.04
  -3   9   1   89.27    3.80
  -3   9   1   81.32    4.27
   2  -9  -1  151.30    5.82
   2  -9  -1  140.19    6.03
  -2   9   1  142.38    5.69
  -2   9   1  139.00    6.10
  -2   9   1  141.87    5.32
   1  -9  -1   10.99    1.42
   1  -9  -1   10.89    2.16
   1  -9  -1   10.86    1.62
  -1   9   1   12.14    1.80
  -1   9   1   12.95    1.98
   0  -9  -1   36.89    2.66
   0  -9  -1   36.44    3.38
   0   9   1   34.92    2.71
   0   9   1   34.66    1.45
   0   9   1   34.38    2.39
  -1  -9  -1  102.64    5.70
   1   9   1  109.09    4.80
   1   9   1  112.30    3.78
   1   9   1  117.09    5.07
  -2  -9  -1   43.41    3.99
   2   9   1   41.36    2.84
   2   9   1   38.38    3.35
   2   9   1   40.80    2.32
  -3  -9  -1    1.57    2.50
   3   9   1    3.11    1.35
   3   9   1    4.14    1.65
  -4  -9  -1   37.18    3.83
   4   9   1   31.50    3.61
   4   9   1   36.77    2.68
  -5  -9  -1   32.31    4.36
   5   9   1   39.50    3.71
   5   9   1   39.38    3.19
   6   9   1    1.20    2.06
  11 -10  -1    7.71    3.17
  11 -10  -1   11.41    2.64
 -11  10   1   10.24    2.84
  10 -10  -1    5.93    2.13
  10 -10  -1    7.34    2.88
 -10  10   1    9.79    2.65
   9 -10  -1   41.80    4.03
   9 -10  -1   44.06    4.45
  -9  10   1   33.54    3.79
   8 -10  -1   67.87    4.61
  -8  10   1   57.28    4.70
   7 -10  -1    1.52    1.99
  -7  10   1   -1.40    2.01
   6 -10  -1   49.12    3.65
   6 -10  -1   52.08    3.63
  -6  10   1   53.67    3.68
   5 -10  -1   78.47    4.23
   5 -10  -1   78.30    3.92
  -5  10   1   83.53    4.97
  -5  10   1   79.29    3.61
  -5  10   1   86.67    4.76
   4 -10  -1   17.89    1.96
   4 -10  -1   14.52    2.37
   4 -10  -1   13.25    2.06
  -4  10   1   16.84    2.39
  -4  10   1   16.92    2.50
  -4  10   1   19.47    2.04
   3 -10  -1   19.38    2.05
   3 -10  -1   23.68    2.39
   3 -10  -1   21.42    2.77
   3 -10  -1   20.36    2.00
  -3  10   1   27.15    2.36
  -3  10   1   19.63    2.81
  -3  10   1   30.42    2.81
   2 -10  -1  104.04    4.80
   2 -10  -1  105.10    5.17
   2 -10  -1  105.45    4.92
  -2  10   1  117.29    5.20
  -2  10   1  107.22    4.47
  -2  10   1  109.78    5.37
   1 -10  -1   38.43    3.15
  -1  10   1   41.94    3.26
  -1  10   1   41.80    2.66
   0 -10  -1   -1.01    1.95
   0  10   1    0.83    1.62
   0  10   1    1.47    1.17
  -1 -10  -1   52.25    4.57
   1  10   1   59.46    3.92
   1  10   1   51.90    3.44
  -2 -10  -1   33.03    3.92
   2  10   1   31.00    2.84
   2  10   1   34.21    1.98
   2  10   1   24.60    2.49
  -3 -10  -1    4.42    2.28
   3  10   1    3.82    1.51
   3  10   1    4.66    1.88
  -4 -10  -1   19.52    3.85
   4  10   1   16.54    2.04
   4  10   1   24.71    3.60
  11 -11  -1   22.83    3.81
  11 -11  -1   17.26    3.65
 -11  11   1   16.35    3.22
  10 -11  -1    4.35    2.79
  10 -11  -1    2.63    2.81
 -10  11   1   -0.44    2.49
   9 -11  -1   11.18    2.92
   9 -11  -1   14.93    3.29
  -9  11   1   14.18    3.21
   8 -11  -1   48.27    4.30
   8 -11  -1   41.37    3.83
  -8  11   1   44.94    3.85
   7 -11  -1   25.99    3.39
   7 -11  -1   23.89    3.03
   7 -11  -1   30.20    3.17
  -7  11   1   23.70    3.00
   6 -11  -1    8.10    2.13
   6 -11  -1    6.59    2.26
   6 -11  -1    9.69    2.09
  -6  11   1   10.10    2.77
   5 -11  -1   42.08    3.44
   5 -11  -1   41.80    3.58
   5 -11  -1   43.92    3.24
   5 -11  -1   45.96    3.91
  -5  11   1   41.45    3.64
  -5  11   1   44.24    4.10
  -5  11   1   48.45    3.17
   4 -11  -1   53.77    3.58
   4 -11  -1   45.78    3.16
   4 -11  -1   45.82    3.20
   4 -11  -1   51.92    4.04
  -4  11   1   49.56    3.30
  -4  11   1   41.18    3.93
  -4  11   1   48.90    3.79
   3 -11  -1   -1.93    1.33
   3 -11  -1    0.41    1.31
   3 -11  -1    1.10    2.03
   3 -11  -1   -1.98    1.46
  -3  11   1    1.55    2.32
  -3  11   1    0.22    1.04
  -3  11   1   -1.69    1.22
   2 -11  -1   38.07    3.32
  -2  11   1   39.02    3.54
  -2  11   1   36.98    3.93
  -2  11   1   35.93    3.07
   1 -11  -1   62.53    4.74
  -1  11   1   62.63    4.10
  -1  11   1   60.84    3.89
   0 -11  -1    3.13    2.57
   0  11   1    3.67    1.90
  -1 -11  -1   12.08    2.53
   1  11   1    7.72    2.35
   1  11   1    9.77    2.17
  -2 -11  -1   53.37    5.13
   2  11   1   45.31    3.67
  -3 -11  -1   11.92    2.92
   3  11   1   16.93    2.73
  10 -12  -1   21.98    3.97
 -10  12   1   20.02    3.05
   9 -12  -1   -2.23    1.75
   9 -12  -1    0.15    2.62
   9 -12  -1    3.49    2.59
  -9  12   1   -1.60    2.62
   8 -12  -1   17.70    2.56
   8 -12  -1   19.21    3.47
   8 -12  -1   18.21    2.67
  -8  12   1   21.96    3.66
   7 -12  -1   35.63    3.69
   7 -12  -1   29.02    3.33
   7 -12  -1   37.45    3.96
  -7  12   1   28.17    4.05
   6 -12  -1    4.69    2.00
   6 -12  -1    6.03    2.27
   6 -12  -1    7.43    2.34
   6 -12  -1    5.57    2.02
  -6  12   1    7.49    2.88
   5 -12  -1   21.10    2.85
   5 -12  -1   15.92    2.91
  -5  12   1   19.71    2.48
  -5  12   1   22.51    3.71
   4 -12  -1   41.51    3.57
   4 -12  -1   44.48    3.63
  -4  12   1   41.12    3.88
  -4  12   1   45.50    3.00
  -4  12   1   45.13    4.28
   3 -12  -1   22.12    3.24
  -3  12   1   21.00    3.64
  -3  12   1   24.89    2.73
  -3  12   1   26.72    3.29
   2 -12  -1    4.18    2.69
  -2  12   1    6.23    1.64
  -2  12   1    3.86    2.29
   1 -12  -1   35.36    4.08
  -1  12   1   32.70    3.34
  -1  12   1   35.11    3.29
   0 -12  -1   24.31    3.85
   0  12   1   18.53    2.94
   0  12   1   16.52    2.71
  -1 -12  -1   -1.90    2.85
   2  12   1   15.60    3.30
   9 -13  -1    6.74    3.27
   9 -13  -1    7.06    2.29
  -9  13   1    4.50    3.14
   8 -13  -1   -0.53    2.40
   8 -13  -1    1.31    1.97
  -8  13   1    3.40    3.25
   7 -13  -1   33.11    3.82
   7 -13  -1   28.65    3.36
  -7  13   1   32.95    4.51
   6 -13  -1   24.95    3.48
   6 -13  -1   30.51    3.72
  -6  13   1   32.89    4.26
   5 -13  -1   -3.78    2.21
  -5  13   1    2.51    3.10
  -5  13   1   -0.74    1.89
   4 -13  -1   31.26    3.86
  -4  13   1   22.05    3.03
  -4  13   1   27.00    3.61
  -4  13   1   24.33    2.93
   3 -13  -1   29.62    3.95
  -3  13   1   34.56    3.85
  -3  13   1   31.08    3.19
   2 -13  -1    4.09    2.88
  -2  13   1    3.86    2.59
  -2  13   1    3.15    1.61
   1 -13  -1    4.71    2.41
  -1  13   1    7.38    1.95
  -1  13   1    8.19    2.00
   0 -13  -1   25.75    4.32
   0  13   1   28.67    3.60
   8 -14  -1   -1.87    2.76
   7 -14  -1    8.72    3.06
   6 -14  -1   23.35    3.57
   5 -14  -1   10.85    2.99
  -5  14   1   11.08    2.59
   4 -14  -1    5.69    2.97
  -4  14   1    4.59    2.45
   3 -14  -1   20.95    3.72
  -3  14   1   22.41    3.56
  -3  14   1   19.84    3.14
  -2  14   1   18.56    2.78
  -2  14   1   16.47    3.05
  -1  14  -2   23.15    3.34
   1 -14   2   18.94    3.54
  -2  14  -2    6.63    2.75
  -2  14  -2    2.78    2.22
   2 -14   2    3.61    2.73
  -3  14  -2    9.65    2.89
  -3  14  -2    9.01    2.76
  -4  14  -2   26.39    3.40
  -4  14  -2   21.84    3.93
   4 -14   2   20.16    2.97
   5 -14   2    6.03    3.01
   6 -14   2   -0.64    2.86
   6 -14   2   -3.01    2.48
   7 -14   2   16.22    3.85
   7 -14   2   15.36    3.57
   1  13  -2    9.89    2.37
   1  13  -2    7.04    2.84
  -1 -13   2    7.76    3.24
   0  13  -2    5.01    2.44
   0  13  -2   -1.64    2.48
   0 -13   2    4.54    2.80
  -1  13  -2   30.33    3.43
  -1  13  -2   31.00    3.94
   1 -13   2   34.07    3.75
  -2  13  -2   27.14    3.32
  -2  13  -2   27.60    3.76
   2 -13   2   20.01    3.31
   2 -13   2   22.22    3.17
  -3  13  -2    5.83    2.21
  -3  13  -2    1.93    2.16
   3 -13   2    0.63    2.27
   3 -13   2    0.68    2.04
  -4  13  -2   23.04    2.61
  -4  13  -2   26.14    3.77
   4 -13   2   20.47    3.43
  -5  13  -2   49.03    4.81
  -5  13  -2   53.52    4.98
   5 -13   2   40.17    4.38
   5 -13   2   36.34    4.10
  -6  13  -2    4.75    3.11
  -6  13  -2    5.83    2.26
   6 -13   2    6.36    2.85
   6 -13   2    3.16    2.55
  -7  13  -2    8.79    2.32
   7 -13   2    7.73    2.94
   7 -13   2    9.19    3.19
  -8  13  -2   25.72    3.55
   8 -13   2   22.36    3.44
   8 -13   2   31.57    4.19
  -3 -12   2    2.62    3.28
   2  12  -2   37.44    3.41
  -2 -12   2   27.69    4.04
   1  12  -2   25.10    2.84
   1  12  -2   27.10    3.30
  -1 -12   2   23.74    3.58
   0  12  -2   -1.49    2.21
   0  12  -2   -0.25    2.03
   0 -12   2    2.21    2.35
  -1  12  -2   42.58    3.53
  -1  12  -2   40.05    3.73
   1 -12   2   41.95    4.09
  -2  12  -2   64.26    3.78
  -2  12  -2   65.47    4.97
   2 -12   2   67.36    3.99
  -3  12  -2   13.38    2.96
  -3  12  -2   15.01    2.48
   3 -12   2   10.70    2.26
   3 -12   2   11.52    2.16
   3 -12   2   13.11    2.77
  -4  12  -2   11.05    2.35
  -4  12  -2   14.38    2.97
  -4  12  -2   16.65    2.49
   4 -12   2   12.94    2.49
   4 -12   2    9.61    1.99
   4 -12   2   10.04    2.70
  -5  12  -2   56.69    4.91
  -5  12  -2   61.42    4.81
   5 -12   2   47.41    3.78
   5 -12   2   51.32    3.91
  -6  12  -2   43.59    3.93
  -6  12  -2   39.16    3.93
   6 -12   2   36.04    4.00
   6 -12   2   40.57    4.39
  -7  12  -2    1.43    2.36
   7 -12   2    6.57    2.96
   7 -12   2    1.00    1.63
  -8  12  -2   36.03    3.76
   8 -12   2   33.28    4.31
   8 -12   2   37.70    3.97
  -9  12  -2   23.84    2.82
   9 -12   2   37.60    4.60
   9 -12   2   25.55    4.15
   4  11  -2   25.48    3.61
  -4 -11   2   23.09    3.83
   3  11  -2    1.61    2.38
   3  11  -2    2.06    1.54
  -3 -11   2    1.81    2.10
   2  11  -2   28.14    3.31
  -2 -11   2   30.11    3.72
   1  11  -2   56.97    4.29
   1  11  -2   68.08    4.27
  -1 -11   2   62.26    4.83
   0  11  -2   16.26    2.37
   0  11  -2   19.74    2.78
   0 -11   2   17.80    2.40
  -1  11  -2   10.39    2.34
  -1  11  -2   12.43    2.13
   1 -11   2    9.72    2.26
  -2  11  -2   86.61    4.38
  -2  11  -2   75.69    4.40
   2 -11   2   74.28    4.44
   2 -11   2   84.28    4.45
  -3  11  -2   51.15    3.59
  -3  11  -2   55.64    4.16
  -3  11  -2   50.04    3.41
   3 -11   2   44.08    2.94
   3 -11   2   48.78    3.43
   3 -11   2   44.44    3.17
  -4  11  -2    3.57    2.16
  -4  11  -2    0.51    1.17
  -4  11  -2   -0.71    1.38
   4 -11   2    0.99    1.38
   4 -11   2    0.94    2.06
   4 -11   2    0.98    1.65
  -5  11  -2   41.00    3.99
  -5  11  -2   46.25    3.95
   5 -11   2   47.01    3.92
   5 -11   2   41.70    3.07
   5 -11   2   42.45    3.50
  -6  11  -2   78.31    4.89
  -6  11  -2   83.84    5.35
   6 -11   2   77.80    5.20
   6 -11   2   72.50    4.64
  -7  11  -2    7.61    2.36
   7 -11   2   11.91    2.91
   7 -11   2   10.67    2.26
  -8  11  -2   10.79    2.47
   8 -11   2   16.61    2.78
   8 -11   2   17.27    3.39
  -9  11  -2   43.85    4.26
   9 -11   2   29.66    4.34
   9 -11   2   36.57    4.24
  10 -11   2   17.66    3.65
  10 -11   2   15.25    3.88
   6  10  -2    8.72    2.41
   5  10  -2   13.90    3.09
   5  10  -2    9.22    1.84
  -5 -10   2   12.98    3.42
   4  10  -2   33.10    3.60
  -4 -10   2   29.30    3.89
   3  10  -2   17.60    1.57
   3  10  -2   19.68    2.84
  -3 -10   2   20.52    3.25
   2  10  -2    2.89    0.97
   2  10  -2    5.40    2.09
  -2 -10   2    4.46    1.84
   1  10  -2   66.02    3.62
   1  10  -2   70.85    4.31
  -1 -10   2   75.69    4.63
   0  10  -2   51.89    3.73
   0  10  -2   49.26    3.34
   0 -10   2   49.57    3.26
  -1  10  -2    2.54    1.13
  -1  10  -2    1.15    1.33
   1 -10   2    1.21    1.24
   1 -10   2    0.09    1.53
  -2  10  -2   39.19    2.96
  -2  10  -2   39.18    2.52
   2 -10   2   44.34    3.03
   2 -10   2   36.61    2.89
  -3  10  -2   83.14    4.02
  -3  10  -2   81.42    4.22
  -3  10  -2   82.50    4.60
   3 -10   2   70.91    3.67
   3 -10   2   76.24    4.32
   3 -10   2   84.86    4.53
  -4  10  -2   11.16    1.89
  -4  10  -2    8.19    2.28
  -4  10  -2   12.91    2.28
   4 -10   2    9.78    1.47
   4 -10   2   13.40    1.90
   4 -10   2   12.86    2.32
   4 -10   2   10.13    1.73
  -5  10  -2   12.05    2.11
  -5  10  -2   16.85    2.14
   5 -10   2   14.59    2.62
   5 -10   2   12.80    1.85
   5 -10   2   17.79    2.53
  -6  10  -2   93.29    5.38
  -6  10  -2   96.39    4.96
   6 -10   2   96.12    5.45
   6 -10   2   82.84    4.91
  -7  10  -2   39.62    3.54
   7 -10   2   38.38    3.97
   7 -10   2   41.50    3.44
  -8  10  -2    1.63    1.78
   8 -10   2    4.28    2.34
   8 -10   2    5.45    2.78
  -9  10  -2   32.44    3.26
   9 -10   2   30.99    3.55
   9 -10   2   34.33    4.18
  10 -10   2   37.79    4.60
  10 -10   2   26.59    3.44
  11 -10   2    1.86    2.10
   6   9  -2   10.22    2.41
   6   9  -2    9.71    2.02
   5   9  -2    0.92    2.37
   5   9  -2    1.04    1.50
  -5  -9   2   -1.96    2.71
   4   9  -2   30.73    2.86
   4   9  -2   29.65    2.25
   4   9  -2   26.85    2.77
  -4  -9   2   30.07    3.21
   3   9  -2   56.78    3.66
   3   9  -2   55.05    2.62
   3   9  -2   59.12    3.83
  -3  -9   2   56.62    4.47
   2   9  -2    6.90    1.85
   2   9  -2    4.89    1.79
   2   9  -2    5.43    1.03
  -2  -9   2    5.24    1.66
   1   9  -2   26.09    2.61
   1   9  -2   23.70    1.28
  -1  -9   2   25.51    2.66
   0   9  -2   71.33    2.25
   0   9  -2   72.69    3.98
   0   9  -2   68.14    3.61
   0  -9   2   79.31    4.07
   0  -9   2   75.43    3.63
  -1   9  -2   31.29    2.44
  -1   9  -2   31.04    2.84
   1  -9   2   34.81    2.33
   1  -9   2   32.40    2.43
  -2   9  -2   19.98    1.73
  -2   9  -2   19.53    2.36
  -2   9  -2   18.08    1.98
   2  -9   2   15.23    1.90
   2  -9   2   15.32    1.38
   2  -9   2   15.58    1.68
  -3   9  -2   63.03    3.54
  -3   9  -2   66.47    3.19
  -3   9  -2   70.42    3.96
   3  -9   2   70.13    3.90
   3  -9   2   67.25    3.13
   3  -9   2   69.13    3.61
   3  -9   2   70.10    3.44
  -4   9  -2   73.73    3.87
  -4   9  -2   82.42    4.38
   4  -9   2   86.93    4.43
   4  -9   2   76.06    3.69
   4  -9   2   76.99    4.40
  -5   9  -2    1.52    1.12
  -5   9  -2    0.26    1.23
   5  -9   2   -1.42    1.47
   5  -9   2    3.60    1.96
  -6   9  -2   49.59    3.76
  -6   9  -2   39.55    3.20
   6  -9   2   38.03    3.04
   6  -9   2   42.33    3.80
  -7   9  -2   70.07    4.11
   7  -9   2   71.55    4.75
   7  -9   2   70.80    4.33
  -8   9  -2    4.45    0.96
  -8   9  -2    8.79    1.94
   8  -9   2   10.46    2.88
   8  -9   2    8.18    1.98
  -9   9  -2   14.62    1.41
   9  -9   2   20.05    3.60
   9  -9   2   14.65    3.00
  10  -9   2   45.12    4.85
  10  -9   2   38.55    4.30
  11  -9   2    9.77    2.92
  11  -9   2   10.33    3.26
   7   8  -2    0.73    1.30
   7   8  -2    4.10    1.89
   6   8  -2   47.31    3.27
   6   8  -2   47.73    3.61
  -6  -8   2   52.04    4.97
   5   8  -2   21.74    2.89
   5   8  -2   21.07    2.41
   5   8  -2   19.57    1.99
  -5  -8   2   15.16    2.63
   4   8  -2    6.40    1.29
   4   8  -2    3.72    1.64
   4   8  -2    7.20    2.00
  -4  -8   2    4.63    2.32
   3   8  -2   54.88    3.38
   3   8  -2   56.75    3.46
   3   8  -2   56.04    2.51
  -3  -8   2   53.49    3.89
   2   8  -2   78.17    3.97
   2   8  -2   75.69    3.83
   2   8  -2   77.47    2.85
  -2  -8   2   82.56    4.36
   1   8  -2   -1.67    1.16
   1   8  -2    1.72    1.32
   1   8  -2   -1.12    0.52
  -1  -8   2    0.54    0.89
  -1  -8   2    3.18    1.53
   0   8  -2   60.74    3.11
   0   8  -2   68.60    3.55
   0   8  -2   67.30    2.10
   0  -8   2   69.61    3.26
   0  -8   2   60.13    2.74
   0  -8   2   68.21    3.49
  -1   8  -2   69.49    3.69
  -1   8  -2   74.71    3.33
   1  -8   2   69.89    3.48
   1  -8   2   71.36    2.97
   1  -8   2   79.14    3.62
  -2   8  -2   28.50    2.18
  -2   8  -2   30.61    2.11
  -2   8  -2   30.78    2.20
   2  -8   2   31.08    1.72
   2  -8   2   28.43    2.25
   2  -8   2   30.58    2.13
  -3   8  -2   66.18    3.50
  -3   8  -2   72.41    3.44
  -3   8  -2   65.29    3.18
   3  -8   2   67.21    3.64
   3  -8   2   62.84    3.30
   3  -8   2   70.11    3.19
  -4   8  -2   72.55    3.55
  -4   8  -2   76.75    3.72
   4  -8   2   72.85    3.94
   4  -8   2   79.80    4.09
  -5   8  -2   45.45    1.48
  -5   8  -2   42.51    2.58
  -5   8  -2   46.55    3.32
   5  -8   2   42.96    3.22
   5  -8   2   40.50    3.24
  -6   8  -2    3.71    1.43
  -6   8  -2    3.08    0.61
   6  -8   2    1.97    1.60
   6  -8   2   -1.61    1.78
  -7   8  -2   65.07    3.65
  -7   8  -2   67.70    2.62
   7  -8   2   61.92    4.26
   7  -8   2   68.34    4.60
  -8   8  -2   39.03    2.25
  -8   8  -2   39.49    2.98
   8  -8   2   35.34    3.82
   8  -8   2   37.53    3.77
  -9   8  -2   -0.60    1.04
   9  -8   2    1.06    2.06
   9  -8   2   -2.23    2.61
 -10   8  -2   12.99    1.84
  10  -8   2   19.11    3.25
  10  -8   2   17.52    3.58
 -11   8  -2   22.28    2.36
  11  -8   2   23.33    3.25
  11  -8   2   20.52    4.07
   8   7  -2   27.36    2.62
   8   7  -2   20.80    2.83
   7   7  -2    0.23    1.70
   7   7  -2   -1.39    1.50
   6   7  -2   42.91    3.10
   6   7  -2   38.46    2.98
   6   7  -2   36.16    2.88
  -6  -7   2   38.78    3.93
   5   7  -2   70.56    3.82
   5   7  -2   76.30    3.46
   5   7  -2   74.87    4.21
  -5  -7   2   71.78    4.33
   4   7  -2   20.61    2.14
   4   7  -2   19.54    2.26
   4   7  -2   16.45    1.43
  -4  -7   2   19.45    2.61
   3   7  -2   33.17    1.82
   3   7  -2   30.10    2.18
   3   7  -2   34.26    2.52
  -3  -7   2   27.98    2.43
   2   7  -2  107.25    4.37
   2   7  -2  116.57    4.79
   2   7  -2  113.04    3.74
  -2  -7   2  118.86    5.05
   1   7  -2   60.99    3.18
   1   7  -2   57.77    2.07
   1   7  -2   60.90    2.89
  -1  -7   2   60.82    3.21
  -1  -7   2   59.51    2.77
   0   7  -2   11.66    1.62
   0   7  -2   10.10    0.66
   0   7  -2   11.69    1.23
   0   7  -2   10.62    0.63
   0  -7   2   11.70    0.90
   0  -7   2   12.08    1.34
   0  -7   2   11.34    0.64
   0  -7   2   14.33    1.44
  -1   7  -2  179.19    6.87
  -1   7  -2  178.20    6.28
   1  -7   2  183.47    6.62
   1  -7   2  188.24    6.47
   1  -7   2  186.91    7.06
  -2   7  -2  103.14    4.30
  -2   7  -2   98.76    4.25
  -2   7  -2   95.42    3.73
   2  -7   2   99.60    4.38
   2  -7   2   96.87    3.96
  -3   7  -2    6.56    1.25
  -3   7  -2    4.39    1.29
  -3   7  -2    5.98    0.95
   3  -7   2    4.43    1.01
   3  -7   2    7.14    1.36
   3  -7   2    5.62    1.41
  -4   7  -2   87.54    2.53
  -4   7  -2   81.41    2.57
  -4   7  -2   85.59    4.00
  -4   7  -2   80.79    3.61
   4  -7   2   81.50    4.02
   4  -7   2   86.12    4.01
  -5   7  -2  107.43    4.78
  -5   7  -2  105.59    4.49
  -5   7  -2  109.40    3.32
   5  -7   2  101.44    4.98
   5  -7   2  104.66    4.69
  -6   7  -2   14.31    1.73
  -6   7  -2   12.20    1.06
   6  -7   2   13.07    1.79
   6  -7   2   15.69    2.36
  -7   7  -2   23.06    2.07
  -7   7  -2   17.42    1.47
   7  -7   2   18.31    2.42
   7  -7   2   20.48    2.52
  -8   7  -2   78.21    3.93
  -8   7  -2   84.28    3.38
   8  -7   2   79.60    4.91
   8  -7   2   83.04    5.19
  -9   7  -2   19.73    1.91
   9  -7   2   14.08    3.18
   9  -7   2   17.20    2.80
 -10   7  -2    0.14    1.46
  10  -7   2    2.62    2.18
  10  -7   2   -0.28    1.99
 -11   7  -2   16.66    2.40
  11  -7   2   18.57    3.43
  11  -7   2   24.89    4.30
  12  -7   2   16.37    2.91
   9   6  -2    7.62    2.92
   9   6  -2   11.29    2.72
   9   6  -2   12.51    3.83
   8   6  -2   47.75    3.62
   8   6  -2   48.56    4.78
   8   6  -2   52.98    3.86
   7   6  -2   16.66    2.30
   7   6  -2   21.99    2.52
   7   6  -2   16.68    3.12
   6   6  -2   16.32    1.90
   6   6  -2   15.22    2.26
   6   6  -2   15.45    1.97
   6   6  -2   10.25    1.76
  -6  -6   2   14.27    1.76
   5   6  -2  122.28    5.08
   5   6  -2  120.54    5.17
   5   6  -2  120.16    4.54
  -5  -6   2  126.36    5.87
  -5  -6   2  118.25    4.50
   4   6  -2   58.17    3.18
   4   6  -2   64.51    3.31
   4   6  -2   64.90    2.73
  -4  -6   2   54.59    3.30
  -4  -6   2   63.53    2.70
   3   6  -2    0.19    1.07
   3   6  -2   -0.62    1.01
   3   6  -2   -0.12    0.67
  -3  -6   2   -0.02    0.66
  -3  -6   2    2.83    1.37
   2   6  -2  146.68    5.49
   2   6  -2  145.72    5.21
   2   6  -2  143.43    4.49
  -2  -6   2  149.57    4.51
  -2  -6   2  137.30    5.21
  -2  -6   2  138.95    5.63
   1   6  -2  222.61    6.56
   1   6  -2  225.83    7.73
   1   6  -2  225.46    7.43
  -1  -6   2  228.15    6.56
  -1  -6   2  215.10    7.82
  -1  -6   2  225.39    8.18
   0   6  -2   16.10    0.78
   0   6  -2   20.65    1.76
   0  -6   2   20.13    1.41
   0  -6   2   16.08    0.75
   0  -6   2   16.10    1.00
   0  -6   2   16.62    1.57
  -1   6  -2   78.89    3.61
  -1   6  -2   86.77    2.42
  -1   6  -2   83.36    3.45
  -1   6  -2   82.82    3.24
  -1   6  -2   82.11    2.46
   1  -6   2   88.27    3.15
   1  -6   2   82.12    3.56
   1  -6   2   82.95    2.46
   1  -6   2   82.90    3.31
  -2   6  -2  254.56    8.83
  -2   6  -2  261.50    8.78
  -2   6  -2  252.54    8.32
   2  -6   2  261.40    8.65
   2  -6   2  260.24    9.59
  -3   6  -2  104.62    4.11
  -3   6  -2  104.13    3.00
  -3   6  -2  103.28    4.19
  -3   6  -2   99.79    3.02
   3  -6   2   96.30    4.34
   3  -6   2  104.32    2.99
   3  -6   2  100.45    4.11
  -4   6  -2   27.12    1.89
  -4   6  -2   27.29    1.29
  -4   6  -2   28.43    1.12
  -4   6  -2   27.10    1.88
   4  -6   2   27.93    1.11
   4  -6   2   28.56    2.18
   4  -6   2   24.53    2.26
  -5   6  -2  139.64    4.30
  -5   6  -2  142.70    5.49
  -5   6  -2  144.01    5.26
   5  -6   2  140.80    4.29
   5  -6   2  124.70    5.47
   5  -6   2  131.37    5.88
  -6   6  -2  127.86    4.07
   6  -6   2  113.19    5.17
   6  -6   2  112.32    5.48
   6  -6   2  126.76    4.06
  -7   6  -2    0.56    0.96
  -7   6  -2    0.01    0.82
   7  -6   2    0.69    1.47
   7  -6   2   -1.23    1.79
  -8   6  -2   59.77    3.08
  -8   6  -2   57.04    2.65
   8  -6   2   60.78    4.09
   8  -6   2   58.12    3.85
  -9   6  -2   64.78    3.38
   9  -6   2   64.97    4.37
   9  -6   2   63.65    4.49
 -10   6  -2    8.42    1.52
  10  -6   2   10.40    3.15
  10  -6   2    2.79    2.21
 -11   6  -2    9.13    2.21
  11  -6   2    8.96    3.46
  11  -6   2   13.03    3.02
   9   5  -2    8.96    2.51
   9   5  -2    7.20    2.61
   9   5  -2    8.98    3.52
   8   5  -2   57.37    4.31
   8   5  -2   70.75    4.03
   8   5  -2   58.44    3.75
  -8  -5   2   57.22    3.81
   7   5  -2   57.21    3.78
   7   5  -2   59.48    3.41
   7   5  -2   55.70    3.45
   7   5  -2   52.62    3.83
  -7  -5   2   62.38    3.41
   6   5  -2    0.62    1.07
   6   5  -2   -0.96    0.83
   6   5  -2    2.31    1.79
   6   5  -2    1.07    1.26
  -6  -5   2   -0.26    0.81
   5   5  -2   83.32    3.78
   5   5  -2   83.11    3.86
   5   5  -2   79.70    4.05
   5   5  -2   75.83    3.31
  -5  -5   2   78.69    3.98
  -5  -5   2   85.01    3.36
   4   5  -2  153.06    5.58
   4   5  -2  150.48    4.96
   4   5  -2  144.96    5.80
   4   5  -2  152.35    5.73
  -4  -5   2  155.11    4.97
  -4  -5   2  156.37    6.16
   3   5  -2   30.69    2.08
   3   5  -2   28.75    1.87
   3   5  -2   28.11    1.48
  -3  -5   2   29.01    2.26
  -3  -5   2   25.74    1.33
   2   5  -2   66.60    2.40
   2   5  -2   64.12    3.00
   2   5  -2   62.82    2.27
   2   5  -2   61.70    2.62
  -2  -5   2   64.47    2.27
  -2  -5   2   66.33    2.58
  -2  -5   2   68.05    3.13
   1   5  -2  349.02   10.15
   1   5  -2  363.57   11.58
   1   5  -2  365.54   10.17
   1   5  -2  337.98   11.06
  -1  -5   2  356.47   10.14
  -1  -5   2  351.03   11.70
  -1  -5   2  366.35   12.54
   0   5  -2  155.62    4.40
   0   5  -2  136.94    5.35
   0  -5   2  146.91    4.38
   0  -5   2  154.82    5.71
   0  -5   2  157.33    5.19
   0  -5   2  151.12    5.34
  -1   5  -2    0.58    0.20
  -1   5  -2    0.30    0.58
  -1   5  -2   -0.81    0.73
  -1   5  -2    0.18    0.66
  -1   5  -2    0.63    0.27
   1  -5   2    1.28    0.67
   1  -5   2    1.52    0.63
   1  -5   2    0.59    0.26
  -2   5  -2  235.40    8.03
  -2   5  -2  237.70    6.78
  -2   5  -2  242.86    7.69
  -2   5  -2  236.70    8.12
  -2   5  -2  241.94    6.80
   2  -5   2  243.18    8.84
   2  -5   2  240.06    6.79
  -3   5  -2  270.54    9.22
  -3   5  -2  281.88    7.91
  -3   5  -2  285.66    9.22
  -3   5  -2  269.49    8.01
   3  -5   2  286.05   10.22
   3  -5   2  274.18    7.90
   3  -5   2  266.38    9.22
  -4   5  -2   12.01    1.20
  -4   5  -2    9.28    0.76
  -4   5  -2    7.85    0.84
  -4   5  -2   13.85    1.47
   4  -5   2    8.24    1.45
   4  -5   2    9.45    1.21
   4  -5   2    8.75    0.74
  -5   5  -2  128.46    4.19
  -5   5  -2  132.96    4.86
   5  -5   2  128.81    5.57
   5  -5   2  136.32    4.21
   5  -5   2  127.82    5.41
  -6   5  -2  195.12    6.75
  -6   5  -2  185.36    5.97
   6  -5   2  191.53    7.44
   6  -5   2  189.02    7.64
   6  -5   2  193.93    6.03
  -7   5  -2   57.52    2.76
  -7   5  -2   60.02    2.69
   7  -5   2   58.28    2.66
   7  -5   2   57.90    3.60
   7  -5   2   51.60    3.36
  -8   5  -2   18.95    1.80
  -8   5  -2   14.28    1.57
   8  -5   2   17.85    1.78
   8  -5   2   17.28    2.38
   8  -5   2   21.01    2.26
  -9   5  -2   79.62    3.85
   9  -5   2   83.10    4.94
   9  -5   2   79.01    4.75
 -10   5  -2   42.80    2.84
  10  -5   2   41.66    4.42
  10  -5   2   36.65    3.35
 -11   5  -2   -0.75    1.93
  11  -5   2   -2.49    2.09
  11  -5   2    0.23    2.28
  10   4  -2   27.41    3.48
  10   4  -2   27.90    4.29
  10   4  -2   34.48    3.67
 -10  -4   2   22.09    3.08
   9   4  -2    0.48    2.01
   9   4  -2    2.91    2.35
   9   4  -2    0.59    2.03
  -9  -4   2   -0.05    1.89
   8   4  -2   44.17    4.11
   8   4  -2   31.25    3.05
   8   4  -2   37.28    3.07
  -8  -4   2   34.75    2.87
   7   4  -2   78.20    3.82
   7   4  -2   88.30    4.73
   7   4  -2   79.00    4.17
  -7  -4   2   78.58    3.78
   6   4  -2   21.14    1.71
   6   4  -2   28.17    2.63
   6   4  -2   26.49    2.41
  -6  -4   2   22.70    1.72
   5   4  -2   29.20    2.44
   5   4  -2   30.00    2.20
   5   4  -2   30.48    1.93
  -5  -4   2   29.49    2.25
  -5  -4   2   31.86    1.95
   4   4  -2  195.51    6.73
   4   4  -2  205.81    7.03
   4   4  -2  187.39    6.14
  -4  -4   2  203.06    6.17
  -4  -4   2  199.31    7.31
   3   4  -2  106.24    4.18
   3   4  -2  112.11    3.64
   3   4  -2  112.57    4.04
   3   4  -2  112.11    4.14
  -3  -4   2  112.27    3.59
  -3  -4   2  107.56    4.32
   2   4  -2    4.87    1.02
   2   4  -2    4.89    0.47
   2   4  -2    3.53    0.56
   2   4  -2    4.72    0.83
  -2  -4   2    5.08    0.59
  -2  -4   2    4.91    1.04
  -2  -4   2    5.03    0.60
   1   4  -2  192.93    5.51
   1   4  -2  195.69    6.48
   1   4  -2  180.96    6.07
   1   4  -2  190.12    5.52
  -1  -4   2  190.98    6.84
  -1  -4   2  184.72    5.49
  -1  -4   2  184.83    6.41
   0   4  -2  244.17    7.93
   0   4  -2  247.60    8.30
   0   4  -2  259.25    7.21
   0  -4   2  252.31    7.20
   0  -4   2  259.38    8.45
   0  -4   2  249.53    8.27
   0  -4   2  260.10    9.06
  -1   4  -2   24.98    1.01
  -1   4  -2   29.25    1.53
  -1   4  -2   26.84    1.31
  -1   4  -2   28.49    1.62
   1  -4   2   28.72    1.39
   1  -4   2   27.19    1.01
   1  -4   2   29.31    1.68
  -2   4  -2  139.79    4.04
  -2   4  -2  135.12    4.79
  -2   4  -2  136.49    4.82
   2  -4   2  136.27    4.02
   2  -4   2  136.78    5.27
   2  -4   2  134.75    4.89
  -3   4  -2  406.31   11.68
  -3   4  -2  403.05   12.91
  -3   4  -2  404.08   11.60
  -3   4  -2  410.73   13.08
   3  -4   2  395.30   13.06
   3  -4   2  419.49   11.60
   3  -4   2  410.93   14.50
  -4   4  -2  115.06    4.18
  -4   4  -2  112.48    3.69
  -4   4  -2  119.16    4.30
   4  -4   2  117.22    4.84
   4  -4   2  110.84    4.65
   4  -4   2  119.04    3.70
  -5   4  -2   19.66    1.32
  -5   4  -2   20.46    1.38
   5  -4   2   21.90    1.31
   5  -4   2   19.63    1.86
   5  -4   2   23.83    2.27
  -6   4  -2  163.01    5.27
  -6   4  -2  154.50    5.65
   6  -4   2  164.64    5.26
   6  -4   2  162.74    6.61
   6  -4   2  152.30    6.23
  -7   4  -2  132.26    4.70
  -7   4  -2  124.13    4.84
   7  -4   2  132.92    5.90
   7  -4   2  134.92    5.87
   7  -4   2  130.75    4.69
  -8   4  -2    2.10    1.26
  -8   4  -2    0.40    0.85
   8  -4   2    1.23    1.47
   8  -4   2    0.89    1.25
   8  -4   2    0.25    2.00
  -9   4  -2   58.57    3.51
   9  -4   2   70.75    4.23
   9  -4   2   61.73    3.55
   9  -4   2   59.95    4.14
 -10   4  -2   68.73    4.07
  10  -4   2   57.98    5.43
  10  -4   2   67.78    4.57
 -11   4  -2   11.13    2.08
  11  -4   2    9.56    2.79
  11   3  -2    3.50    2.69
 -11  -3   2    7.52    2.77
  10   3  -2   42.10    4.68
  10   3  -2   29.50    3.24
  10   3  -2   19.77    2.68
 -10  -3   2   25.07    3.01
   9   3  -2   17.10    2.54
   9   3  -2   16.34    2.65
   9   3  -2   18.75    3.42
  -9  -3   2   21.17    2.53
   8   3  -2    3.87    1.64
   8   3  -2    2.37    1.76
   8   3  -2    6.69    1.86
  -8  -3   2    4.21    1.68
   7   3  -2   63.07    3.16
   7   3  -2   61.50    3.92
   7   3  -2   64.78    3.26
  -7  -3   2   62.86    3.21
   6   3  -2   70.57    3.17
   6   3  -2   69.69    3.68
   6   3  -2   69.10    2.94
  -6  -3   2   73.48    3.14
   5   3  -2   -0.18    0.34
   5   3  -2    0.87    0.92
   5   3  -2   -0.23    0.54
   5   3  -2    1.05    1.07
  -5  -3   2   -0.10    0.54
   4   3  -2  157.69    5.41
   4   3  -2  160.74    5.73
   4   3  -2  160.12    5.06
  -4  -3   2  163.30    5.10
  -4  -3   2  158.53    5.95
   3   3  -2  170.80    5.23
   3   3  -2  163.44    5.77
   3   3  -2  168.27    5.59
  -3  -3   2  173.07    6.02
  -3  -3   2  175.96    5.23
   2   3  -2    4.15    0.50
   2   3  -2    5.60    0.65
   2   3  -2    4.32    0.58
   2   3  -2    3.97    0.47
   2   3  -2    4.55    0.56
   2   3  -2    4.75    0.69
  -2  -3   2    4.60    0.76
  -2  -3   2    5.15    0.50
   1   3  -2   49.58    1.70
   1   3  -2   52.63    2.11
   1   3  -2   49.80    1.92
   1   3  -2   53.57    2.32
   1   3  -2   55.88    1.73
  -1  -3   2   49.78    1.69
  -1  -3   2   52.51    2.08
  -1  -3   2   48.55    2.17
   0   3  -2  365.81   11.90
   0   3  -2  385.93   10.56
   0   3  -2  367.37   11.76
   0   3  -2  387.16   10.54
   0   3  -2  367.09   11.37
   0  -3   2  387.18   13.09
   0  -3   2  369.55   11.84
   0  -3   2  367.86   10.54
  -1   3  -2  102.49    3.64
  -1   3  -2  102.51    3.10
  -1   3  -2  106.91    3.05
  -1   3  -2  102.18    3.57
  -1   3  -2   93.86    3.37
   1  -3   2  102.45    3.05
   1  -3   2  103.57    3.97
   1  -3   2  107.03    3.44
   1  -3   2  100.24    3.09
  -2   3  -2   44.36    1.82
  -2   3  -2   43.34    1.85
  -2   3  -2   43.09    1.61
  -2   3  -2   42.77    1.55
   2  -3   2   47.15    2.20
   2  -3   2   42.54    1.54
   2  -3   2   40.82    2.11
  -3   3  -2  274.76    9.05
  -3   3  -2  280.81    9.10
  -3   3  -2  284.99    8.23
   3  -3   2  291.01    8.22
   3  -3   2  269.59    9.32
   3  -3   2  293.18   10.24
  -4   3  -2  225.58    7.55
  -4   3  -2  227.16    6.91
   4  -3   2  240.09    6.93
   4  -3   2  224.16    7.98
   4  -3   2  233.62    8.54
  -5   3  -2    5.73    0.77
  -5   3  -2    2.73    0.79
   5  -3   2    6.02    0.88
   5  -3   2    6.66    1.48
   5  -3   2    3.92    1.02
  -6   3  -2   81.68    3.20
  -6   3  -2   72.39    2.97
   6  -3   2   77.84    4.03
   6  -3   2   79.94    3.79
   6  -3   2   80.27    3.13
  -7   3  -2  136.23    4.85
  -7   3  -2  136.36    5.03
   7  -3   2  140.95    5.94
   7  -3   2  137.11    4.85
   7  -3   2  141.07    6.12
  -8   3  -2   30.97    2.15
   8  -3   2   32.65    2.42
   8  -3   2   30.47    2.13
   8  -3   2   33.91    3.00
  -9   3  -2   22.75    2.13
   9  -3   2   17.62    2.36
   9  -3   2   16.38    1.87
   9  -3   2   21.59    3.39
 -10   3  -2   49.23    3.81
  10  -3   2   54.27    3.85
  10  -3   2   62.94    5.35
 -11   3  -2   29.88    3.28
  11  -3   2   29.07    3.78
  11   2  -2   -2.02    2.34
  11   2  -2   -0.55    1.71
  11   2  -2   -4.64    3.12
 -11  -2   2   -0.52    1.68
  10   2  -2   12.88    2.66
  10   2  -2   12.68    3.46
  10   2  -2   14.92    2.23
 -10  -2   2   17.05    2.25
   9   2  -2   35.42    3.32
   9   2  -2   35.75    2.72
   9   2  -2   31.61    3.06
  -9  -2   2   34.42    2.61
   8   2  -2    1.77    1.99
   8   2  -2    1.99    1.11
   8   2  -2   -0.05    1.03
  -8  -2   2    1.53    1.08
   7   2  -2   13.11    2.06
   7   2  -2   14.22    1.45
   7   2  -2   14.32    1.80
  -7  -2   2   17.26    1.57
   6   2  -2  150.19    5.22
   6   2  -2  150.77    5.50
   6   2  -2  152.66    5.92
  -6  -2   2  157.23    5.25
   5   2  -2   34.70    1.91
   5   2  -2   34.85    2.01
   5   2  -2   32.37    1.80
  -5  -2   2   35.23    1.86
   4   2  -2   59.93    2.32
   4   2  -2   58.15    2.43
   4   2  -2   61.65    2.57
  -4  -2   2   59.46    2.30
   3   2  -2  126.66    3.93
   3   2  -2  131.81    4.44
   3   2  -2  123.17    4.20
   3   2  -2  127.25    4.64
  -3  -2   2  120.57    4.50
  -3  -2   2  128.01    3.93
   2   2  -2  130.25    4.33
   2   2  -2  137.22    3.91
   2   2  -2  129.42    4.15
   2   2  -2  110.11    4.68
   2   2  -2  129.72    3.89
  -2  -2   2  129.29    4.47
  -2  -2   2  132.27    3.89
   1   2  -2    6.26    0.63
   1   2  -2    5.84    0.44
   1   2  -2    6.52    0.62
   1   2  -2    5.75    0.44
   1   2  -2    6.97    0.72
  -1  -2   2    6.39    0.74
  -1  -2   2    6.24    0.68
  -1  -2   2    5.78    0.51
  -1  -2   2    6.34    0.61
   0   2  -2  490.19   14.82
   0   2  -2  483.22   13.33
   0   2  -2  479.25   16.40
   0   2  -2  493.33   13.32
   0   2  -2  463.91   14.21
   0   2  -2  466.77   14.65
   0  -2   2  460.14   14.95
   0  -2   2  467.32   14.77
   0  -2   2  476.42   13.32
   0  -2   2  468.52   16.41
   0  -2   2  479.08   13.33
   0  -2   2  481.61   14.22
  -1   2  -2  205.11    6.62
  -1   2  -2  204.27    5.99
  -1   2  -2  210.09    6.56
  -1   2  -2  200.32    6.00
   1  -2   2  204.58    6.65
   1  -2   2  206.26    6.55
   1  -2   2  204.52    6.00
   1  -2   2  206.17    6.66
   1  -2   2  212.57    7.41
   1  -2   2  211.96    6.01
  -2   2  -2   73.31    2.52
  -2   2  -2   74.58    2.41
  -2   2  -2   72.07    2.60
  -2   2  -2   71.78    2.37
   2  -2   2   71.77    2.38
   2  -2   2   67.31    2.86
   2  -2   2   77.00    2.98
   2  -2   2   73.19    2.60
   2  -2   2   67.49    2.52
  -3   2  -2  153.83    4.78
  -3   2  -2  157.21    5.13
   3  -2   2  156.43    5.57
   3  -2   2  155.45    5.06
   3  -2   2  155.92    4.77
   3  -2   2  158.72    5.90
  -4   2  -2  169.50    5.60
  -4   2  -2  166.50    5.23
   4  -2   2  169.00    5.23
   4  -2   2  168.68    6.39
   4  -2   2  165.02    6.10
  -5   2  -2   65.57    2.54
  -5   2  -2   56.58    2.42
   5  -2   2   63.77    2.46
   5  -2   2   62.08    3.28
   5  -2   2   62.70    2.90
  -6   2  -2   16.10    1.26
  -6   2  -2   17.10    1.56
   6  -2   2   16.92    1.56
   6  -2   2   18.01    2.15
   6  -2   2   17.25    1.46
  -7   2  -2  113.15    4.22
  -7   2  -2  109.18    4.33
   7  -2   2  112.46    5.29
   7  -2   2  111.07    4.35
   7  -2   2  111.24    4.93
  -8   2  -2   55.37    2.83
   8  -2   2   51.79    3.00
   8  -2   2   52.22    3.19
   8  -2   2   54.15    4.21
  -9   2  -2   -0.13    1.68
   9  -2   2    1.48    1.87
   9  -2   2   -0.52    1.64
   9  -2   2    1.42    1.37
 -10   2  -2   22.21    2.86
  10  -2   2   26.04    2.92
  10  -2   2   21.50    3.17
 -11   2  -2   30.69    3.38
  11  -2   2   22.49    3.49
  11  -2   2   28.04    3.25
  11   1  -2    8.84    2.57
  11   1  -2    6.03    2.53
  11   1  -2    6.62    3.49
 -11  -1   2    4.34    2.44
  10   1  -2    7.96    3.00
  10   1  -2    4.81    2.22
  10   1  -2    2.38    2.00
 -10  -1   2    5.06    2.09
   9   1  -2   27.26    3.31
   9   1  -2   27.41    2.62
   9   1  -2   28.62    2.59
  -9  -1   2   28.14    2.61
   8   1  -2   81.51    4.54
   8   1  -2   87.26    3.92
  -8  -1   2   80.11    3.82
   7   1  -2    0.78    1.10
   7   1  -2    0.72    1.00
  -7  -1   2    0.51    1.04
   6   1  -2   82.53    3.19
   6   1  -2   75.88    3.67
  -6  -1   2   81.99    3.17
   5   1  -2  149.62    5.41
  -5  -1   2  147.86    4.82
   4   1  -2   19.38    1.20
   4   1  -2   18.28    1.27
  -4  -1   2   18.47    1.05
   3   1  -2   73.76    2.73
   3   1  -2   75.33    2.58
   3   1  -2   75.32    2.50
  -3  -1   2   71.57    2.48
   2   1  -2  192.63    5.99
   2   1  -2  191.19    5.70
   2   1  -2  191.42    6.20
   2   1  -2  206.41    5.73
  -2  -1   2  196.16    5.69
   1   1  -2  107.15    4.50
   1   1  -2  125.28    3.82
   1   1  -2  117.73    4.04
   1   1  -2  130.99    4.14
   1   1  -2  127.66    3.62
   1   1  -2  127.27    3.63
  -1  -1   2  123.72    3.63
  -1  -1   2  125.62    4.52
  -1  -1   2  122.30    3.97
  -1  -1   2  126.32    3.81
  -1  -1   2  124.55    3.62
   0   1  -2    3.35    0.35
   0   1  -2    2.65    0.68
   0   1  -2    2.73    0.28
   0   1  -2    2.67    0.41
   0  -1   2    2.47    0.41
   0  -1   2    2.89    0.65
   0  -1   2    3.05    0.48
   0  -1   2    3.37    0.41
   0  -1   2    3.57    0.41
  -1   1  -2  567.41   15.97
  -1   1  -2  542.96   17.47
  -1   1  -2  578.54   15.97
  -1   1  -2  573.53   17.32
  -1   1  -2  572.02   17.16
  -1   1  -2  583.88   19.48
   1  -1   2  539.34   17.29
   1  -1   2  569.42   17.15
   1  -1   2  547.61   15.96
   1  -1   2  578.27   17.41
   1  -1   2  563.95   19.44
   1  -1   2  573.10   17.49
  -2   1  -2   18.88    0.86
  -2   1  -2   15.63    0.91
  -2   1  -2   16.94    0.72
   2  -1   2   16.92    1.19
   2  -1   2   16.35    0.92
   2  -1   2   16.94    0.78
   2  -1   2   19.86    1.09
  -3   1  -2   30.33    1.47
   3  -1   2   30.67    1.49
   3  -1   2   29.22    1.92
   3  -1   2   28.71    1.64
   3  -1   2   29.85    1.31
   3  -1   2   28.82    1.20
  -4   1  -2  191.87    6.18
   4  -1   2  196.16    7.02
   4  -1   2  199.50    6.20
   4  -1   2  209.38    7.36
  -5   1  -2  112.78    4.27
   5  -1   2  128.09    4.34
   5  -1   2  128.69    4.98
   5  -1   2  128.34    5.12
  -6   1  -2    2.63    1.05
   6  -1   2    1.08    0.87
   6  -1   2    1.57    1.07
   6  -1   2    0.65    1.04
  -7   1  -2   24.68    1.89
   7  -1   2   27.25    2.87
   7  -1   2   24.61    1.88
   7  -1   2   24.37    1.99
  -8   1  -2   63.72    3.20
   8  -1   2   63.12    3.40
   8  -1   2   65.97    4.60
   8  -1   2   62.42    3.20
  -9   1  -2   18.03    2.09
   9  -1   2   18.61    2.11
   9  -1   2   14.88    3.13
 -10   1  -2    7.03    2.36
  10  -1   2    3.64    2.30
  10  -1   2    5.00    3.27
 -11   1  -2   16.19    3.18
  11  -1   2   17.76    4.11
  11  -1   2    9.74    2.81
  12   0  -2   19.62    3.16
 -12   0   2   14.63    3.05
  11   0  -2   17.15    2.79
  11   0  -2   26.95    3.06
  11   0  -2   20.34    3.90
 -11   0   2   27.36    3.18
  10   0  -2   16.14    2.38
  10   0  -2   16.15    2.55
 -10   0   2   13.44    2.29
   9   0  -2   35.15    2.89
   9   0  -2   36.60    3.13
  -9   0   2   36.91    2.93
   8   0  -2  107.43    5.17
   8   0  -2  118.73    4.53
  -8   0   2  107.45    4.43
   7   0  -2   53.61    2.63
   7   0  -2   51.02    3.17
  -7   0   2   54.37    2.64
   6   0  -2    8.04    1.08
   6   0  -2    8.77    1.20
  -6   0   2    9.77    1.13
   5   0  -2  157.86    5.64
   5   0  -2  161.93    5.07
  -5   0   2  157.76    5.05
   4   0  -2  108.19    3.95
   4   0  -2  108.80    3.53
  -4   0   2  109.64    3.53
   3   0  -2    3.48    0.46
   3   0  -2    4.23    0.70
  -3   0   2    3.24    0.46
   2   0  -2  135.08    4.35
   2   0  -2  136.76    4.04
   2   0  -2  140.90    4.05
   2   0  -2  138.67    4.14
  -2   0   2  134.83    4.04
  -2   0   2  130.82    4.37
  -2   0   2  138.04    4.03
   1   0  -2  427.77   12.97
   1   0  -2  404.77   11.84
   1   0  -2  328.12   10.98
   1   0  -2  404.48   11.02
   1   0  -2  394.66   11.55
  -1   0   2  425.46   12.97
  -1   0   2  335.77   10.98
  -1   0   2  412.50   11.02
   0   0  -2    0.38    0.39
   0   0  -2    0.43    0.41
   0   0  -2    0.68    0.39
   0   0  -2    0.88    0.40
   0   0   2    0.41    0.39
   0   0   2    0.82    0.38
   0   0   2    0.16    0.36
   0   0   2    0.95    0.42
   0   0   2    0.44    0.27
  -1   0  -2    3.28    0.66
  -1   0  -2    3.45    0.59
  -1   0  -2    4.32    0.48
  -1   0  -2    4.51    0.51
  -1   0  -2    3.68    0.59
  -1   0  -2    2.90    0.23
   1   0   2    3.57    0.48
   1   0   2    3.67    0.64
   1   0   2    4.20    0.60
   1   0   2    4.56    0.72
   1   0   2    3.89    0.67
   1   0   2    3.79    0.44
  -2   0  -2  384.43   12.22
  -2   0  -2  387.19   11.15
   2   0   2  390.21   13.42
   2   0   2  377.13   11.68
   2   0   2  390.93   11.15
   2   0   2  390.47   12.18
   2   0   2  385.27   12.13
  -3   0  -2   57.50    2.22
  -3   0  -2   56.98    2.36
   3   0   2   56.01    2.21
   3   0   2   55.73    1.91
   3   0   2   54.63    2.40
   3   0   2   55.76    2.48
  -4   0  -2   46.43    1.97
   4   0   2   44.61    2.16
   4   0   2   45.43    1.96
   4   0   2   44.43    2.52
  -5   0  -2  148.12    5.13
   5   0   2  150.59    5.13
   5   0   2  152.46    5.90
   5   0   2  154.14    5.81
  -6   0  -2   62.60    2.87
   6   0   2   60.99    2.85
   6   0   2   69.87    3.85
   6   0   2   71.72    3.21
  -7   0  -2    0.37    1.32
   7   0   2    0.02    0.86
   7   0   2    0.15    1.85
   7   0   2    1.95    1.28
  -8   0  -2   33.77    2.99
   8   0   2   33.74    3.59
   8   0   2   36.64    2.96
  -9   0  -2   35.14    3.06
   9   0   2   33.51    3.14
   9   0   2   35.35    4.02
 -10   0  -2    2.66    2.34
  10   0   2    3.14    2.43
  10   0   2    5.86    1.85
 -11   0  -2    5.95    2.19
  11   0   2    8.65    2.26
  12  -1  -2    5.29    2.53
  12  -1  -2    7.36    3.83
 -12   1   2    8.44    2.60
  11  -1  -2   54.41    5.19
  11  -1  -2   50.01    4.02
 -11   1   2   55.20    4.02
  10  -1  -2   45.24    3.42
  10  -1  -2   46.83    4.45
 -10   1   2   45.93    3.42
   9  -1  -2    4.92    1.47
   9  -1  -2    0.86    1.92
  -9   1   2    3.60    1.46
   8  -1  -2  106.12    4.72
   8  -1  -2  106.40    4.21
  -8   1   2  106.79    4.23
   7  -1  -2  114.67    4.12
   7  -1  -2  117.74    4.94
  -7   1   2  120.41    4.16
   6  -1  -2    4.26    1.17
   6  -1  -2    2.53    0.62
  -6   1   2    1.59    0.61
   5  -1  -2   80.26    3.37
   5  -1  -2   85.10    2.95
  -5   1   2   85.69    2.95
   4  -1  -2  413.60   11.74
   4  -1  -2  411.21   12.82
  -4   1   2  402.62   11.72
   3  -1  -2    9.28    0.89
   3  -1  -2   10.01    0.73
  -3   1   2   10.59    0.75
  -3   1   2    8.86    0.73
   2  -1  -2   89.37    2.87
   2  -1  -2   84.13    2.68
   2  -1  -2   87.95    2.69
  -2   1   2   90.38    2.70
  -2   1   2   88.77    2.94
  -2   1   2   90.14    2.70
   1  -1  -2  160.60    4.78
   1  -1  -2  168.83    4.79
   1  -1  -2  168.98    5.70
   1  -1  -2  166.15    5.00
  -1   1   2  163.00    4.79
  -1   1   2  164.15    4.78
  -1   1   2  168.15    5.69
   0  -1  -2  337.15   10.62
   0  -1  -2  354.33   12.12
   0  -1  -2  344.77   10.67
   0  -1  -2  355.51   10.03
   0  -1  -2  333.76   11.82
   0  -1  -2  355.69   11.01
   0   1   2  367.63   11.02
   0   1   2  353.02   10.04
   0   1   2  352.66   10.04
   0   1   2  364.39   10.62
   0   1   2  348.90   11.85
  -1  -1  -2   10.22    0.64
  -1  -1  -2   11.56    0.98
  -1  -1  -2   10.92    0.76
  -1  -1  -2   11.82    0.87
  -1  -1  -2   11.59    0.92
   1   1   2   12.90    0.86
   1   1   2   11.91    0.91
   1   1   2   10.72    0.41
   1   1   2   10.21    0.90
   1   1   2   10.36    0.91
   1   1   2   12.11    0.91
  -2  -1  -2  323.87    9.32
  -2  -1  -2  315.54   10.31
  -2  -1  -2  335.10   11.09
  -2  -1  -2  304.46   10.01
   2   1   2  314.75    9.31
   2   1   2  319.32   10.08
   2   1   2  321.96    9.65
   2   1   2  313.15   11.12
  -3  -1  -2  306.07    8.97
  -3  -1  -2  295.88    9.94
   3   1   2  302.98   10.58
   3   1   2  304.26    9.80
   3   1   2  295.36    8.95
  -4  -1  -2   24.46    1.62
  -4  -1  -2   24.65    1.45
   4   1   2   26.47    1.42
   4   1   2   25.98    2.00
   4   1   2   20.51    1.38
  -5  -1  -2   90.96    3.65
   5   1   2   96.19    3.83
   5   1   2   94.62    3.71
   5   1   2   96.66    4.14
  -6  -1  -2   92.81    3.77
   6   1   2   97.24    4.73
   6   1   2   97.83    4.00
   6   1   2   95.46    3.96
  -7  -1  -2   36.32    2.36
   7   1   2   34.78    2.97
   7   1   2   32.11    2.29
  -8  -1  -2    4.20    1.45
   8   1   2    4.22    1.48
   8   1   2    5.48    2.74
  -9  -1  -2   45.12    3.78
   9   1   2   47.03    4.10
   9   1   2   46.76    3.86
 -10  -1  -2   15.77    2.90
  10   1   2   13.93    3.71
  10   1   2   16.15    2.91
  12  -2  -2   -0.18    2.16
  12  -2  -2    1.19    3.17
 -12   2   2   -0.51    2.13
  11  -2  -2   45.45    4.03
  11  -2  -2   48.06    3.78
 -11   2   2   48.71    3.76
  10  -2  -2   74.31    4.02
  10  -2  -2   84.77    5.17
 -10   2   2   74.25    3.99
   9  -2  -2    8.50    1.61
   9  -2  -2   10.64    2.30
  -9   2   2   12.99    1.78
   8  -2  -2   63.94    3.76
   8  -2  -2   67.46    2.83
  -8   2   2   65.42    2.84
   7  -2  -2  198.73    6.13
   7  -2  -2  181.49    6.96
  -7   2   2  185.95    6.10
   6  -2  -2  103.01    3.44
   6  -2  -2  101.96    4.13
  -6   2   2   96.90    3.41
   5  -2  -2   75.09    2.59
   5  -2  -2   71.81    2.95
  -5   2   2   72.36    2.52
   4  -2  -2  571.89   15.86
   4  -2  -2  556.17   17.32
  -4   2   2  552.85   15.86
   3  -2  -2  256.99    8.29
   3  -2  -2  263.40    7.93
   3  -2  -2  262.13    7.58
  -3   2   2  264.81    7.59
  -3   2   2  274.62    8.62
   2  -2  -2    1.48    0.38
   2  -2  -2    1.07    0.32
   2  -2  -2    1.90    0.26
   2  -2  -2    1.67    0.33
  -2   2   2    0.41    0.78
  -2   2   2    1.84    0.52
  -2   2   2    1.38    0.26
  -2   2   2    2.43    0.37
  -2   2   2    2.15    0.36
   1  -2  -2  158.05    5.46
   1  -2  -2  154.81    4.57
   1  -2  -2  151.37    5.23
   1  -2  -2  154.13    4.54
   1  -2  -2  151.70    5.03
  -1   2   2  162.94    5.48
  -1   2   2  157.39    4.77
  -1   2   2  157.60    5.24
  -1   2   2  152.31    4.57
  -1   2   2  161.35    4.56
   0  -2  -2  614.70   20.76
   0  -2  -2  626.30   18.75
   0  -2  -2  629.29   17.54
   0  -2  -2  627.45   19.45
   0   2   2  625.80   17.55
   0   2   2  613.46   18.76
   0   2   2  617.35   18.86
   0   2   2  633.78   19.49
   0   2   2  614.18   17.56
  -1  -2  -2  102.71    3.28
  -1  -2  -2   98.03    4.03
  -1  -2  -2  104.16    3.71
  -1  -2  -2   96.51    3.73
  -1  -2  -2  100.51    3.38
  -1  -2  -2  100.96    3.48
   1   2   2  102.10    3.24
   1   2   2  107.73    3.43
   1   2   2  102.53    3.54
   1   2   2  100.12    3.27
  -2  -2  -2  102.72    3.82
  -2  -2  -2   99.90    3.38
   2   2   2  103.06    3.39
   2   2   2  101.32    3.26
   2   2   2  100.54    3.59
   2   2   2  100.36    3.80
  -3  -2  -2  351.19   11.29
  -3  -2  -2  331.47   10.03
   3   2   2  336.63   11.81
   3   2   2  335.05   10.05
   3   2   2  331.43   10.92
   3   2   2  343.83   10.41
  -4  -2  -2  121.83    4.63
  -4  -2  -2  106.25    3.87
   4   2   2  110.16    3.91
   4   2   2  113.02    4.52
   4   2   2  112.67    3.70
   4   2   2  106.35    4.22
  -5  -2  -2   -0.90    1.22
  -5  -2  -2    0.46    0.96
   5   2   2    1.50    1.03
   5   2   2    1.54    0.60
   5   2   2   -0.57    1.34
  -6  -2  -2   95.95    4.14
   6   2   2   97.45    4.15
   6   2   2  105.39    5.00
  -7  -2  -2   76.80    3.92
   7   2   2   82.54    4.85
   7   2   2   72.34    3.87
  -8  -2  -2    1.72    1.89
   8   2   2    1.09    1.94
   8   2   2    3.26    2.73
  -9  -2  -2   20.08    2.92
   9   2   2   20.92    3.00
   9   2   2   24.33    3.98
 -10  -2  -2   30.13    3.62
  10   2   2   27.17    3.56
  10   2   2   27.30    3.71
  10   2   2   35.55    4.42
  12  -3  -2   12.91    3.58
 -12   3   2    6.54    1.84
  11  -3  -2   14.75    2.40
  11  -3  -2   13.86    1.88
  11  -3  -2   20.00    2.74
 -11   3   2   16.90    2.07
 -11   3   2   16.26    2.59
  10  -3  -2   73.91    3.85
  10  -3  -2   82.85    4.99
 -10   3   2   73.15    3.52
   9  -3  -2   59.54    3.98
   9  -3  -2   54.07    2.97
  -9   3   2   53.29    2.96
   8  -3  -2    2.92    0.82
   8  -3  -2    5.09    1.69
  -8   3   2    3.99    0.89
   7  -3  -2  193.15    6.97
   7  -3  -2  187.19    5.94
  -7   3   2  183.88    5.94
   6  -3  -2  305.59    8.87
   6  -3  -2  291.24    9.87
  -6   3   2  297.63    8.86
   5  -3  -2   10.01    0.84
   5  -3  -2    8.45    1.18
  -5   3   2   10.73    0.86
   4  -3  -2  232.20    7.83
   4  -3  -2  240.92    7.04
   4  -3  -2  254.09    7.44
  -4   3   2  240.69    7.05
  -4   3   2  247.44    8.45
  -4   3   2  239.29    7.05
   3  -3  -2  349.87    9.67
   3  -3  -2  337.77   10.21
   3  -3  -2  332.99   10.63
  -3   3   2  341.10    9.67
  -3   3   2  345.24    9.68
  -3   3   2  337.10   11.28
   2  -3  -2   67.25    2.70
   2  -3  -2   67.98    2.26
   2  -3  -2   66.35    2.12
   2  -3  -2   71.69    2.45
  -2   3   2   73.15    2.13
  -2   3   2   65.80    2.87
  -2   3   2   70.40    2.28
  -2   3   2   68.58    2.14
   1  -3  -2   43.56    1.61
   1  -3  -2   43.49    2.00
   1  -3  -2   43.77    1.57
  -1   3   2   45.83    1.54
  -1   3   2   43.33    1.61
  -1   3   2   46.99    1.60
  -1   3   2   44.38    2.07
  -1   3   2   44.24    1.83
   0  -3  -2  511.52   16.62
   0  -3  -2  520.19   15.80
   0  -3  -2  532.29   16.00
   0  -3  -2  514.86   14.74
   0  -3  -2  519.09   17.53
   0   3   2  534.55   16.55
   0   3   2  512.86   14.75
   0   3   2  519.86   15.94
   0   3   2  519.76   15.69
   0   3   2  522.40   14.80
  -1  -3  -2  253.74    9.29
  -1  -3  -2  270.66    7.85
  -1  -3  -2  251.27    9.42
  -1  -3  -2  264.49    8.95
  -1  -3  -2  271.88    8.42
   1   3   2  268.18    7.85
   1   3   2  273.59    8.81
   1   3   2  284.58    8.36
   1   3   2  271.62    8.43
   1   3   2  265.87    8.43
  -2  -3  -2    3.51    0.60
  -2  -3  -2    2.87    0.39
  -2  -3  -2    4.29    0.89
   2   3   2    4.18    0.80
   2   3   2    2.68    0.45
   2   3   2    3.67    0.62
  -3  -3  -2  152.03    5.75
  -3  -3  -2  148.75    4.89
   3   3   2  148.00    4.90
   3   3   2  156.47    4.92
   3   3   2  148.72    5.43
  -4  -3  -2  170.95    6.59
  -4  -3  -2  179.56    5.74
   4   3   2  171.28    5.56
   4   3   2  165.68    5.70
   4   3   2  170.15    6.36
  -5  -3  -2   11.44    1.92
  -5  -3  -2   17.42    1.68
   5   3   2   11.68    1.02
   5   3   2   12.82    1.58
   5   3   2   14.67    2.09
  -6  -3  -2   64.95    4.04
  -6  -3  -2   57.66    2.96
   6   3   2   60.48    3.28
   6   3   2   62.63    4.02
  -7  -3  -2   95.09    4.56
   7   3   2   93.51    4.52
   7   3   2   94.17    5.46
  -8  -3  -2   26.82    2.87
   8   3   2   23.15    3.05
   8   3   2   22.02    3.58
   8   3   2   25.65    2.97
  -9  -3  -2    1.27    2.27
   9   3   2   -0.07    2.31
   9   3   2    1.66    3.04
   9   3   2    2.49    2.90
 -10  -3  -2   23.34    3.33
  12  -4  -2   16.41    3.06
 -12   4   2   22.92    2.80
  11  -4  -2   -1.33    1.67
  11  -4  -2   -1.55    1.71
 -11   4   2   -1.17    1.62
 -11   4   2   -0.31    1.83
  10  -4  -2   28.39    2.90
  10  -4  -2   29.23    2.14
 -10   4   2   30.35    2.19
 -10   4   2   26.64    2.90
   9  -4  -2   80.46    3.46
   9  -4  -2   70.86    4.00
  -9   4   2   79.02    3.50
  -9   4   2   84.73    4.47
   8  -4  -2   30.74    1.93
   8  -4  -2   28.95    2.35
  -8   4   2   32.23    2.89
  -8   4   2   32.08    1.99
   7  -4  -2   48.96    2.22
   7  -4  -2   58.17    3.10
  -7   4   2   55.00    2.99
  -7   4   2   49.55    2.25
   6  -4  -2  205.49    6.33
   6  -4  -2  218.56    7.39
  -6   4   2  207.65    6.34
  -6   4   2  208.36    7.80
   5  -4  -2   75.65    3.22
   5  -4  -2   78.45    2.56
  -5   4   2   76.14    2.57
  -5   4   2   78.62    2.58
  -5   4   2   72.73    3.59
   4  -4  -2   24.65    1.55
   4  -4  -2   24.69    1.02
  -4   4   2   24.65    1.73
  -4   4   2   24.06    1.04
  -4   4   2   23.89    1.07
   3  -4  -2  200.18    5.68
   3  -4  -2  198.54    6.44
  -3   4   2  199.06    5.68
  -3   4   2  195.15    6.99
  -3   4   2  196.36    5.66
  -3   4   2  193.37    6.13
   2  -4  -2  223.86    7.82
   2  -4  -2  218.42    6.42
   2  -4  -2  228.98    7.11
  -2   4   2  225.94    7.68
  -2   4   2  217.99    7.27
  -2   4   2  214.95    6.42
  -2   4   2  232.52    6.93
   1  -4  -2    0.65    0.31
   1  -4  -2    0.05    0.63
   1  -4  -2   -0.05    0.33
  -1   4   2    0.13    0.60
  -1   4   2    1.38    0.81
  -1   4   2    0.50    0.35
  -1   4   2    0.43    0.46
  -1   4   2    0.11    0.33
   0  -4  -2  225.16    6.56
   0  -4  -2  220.83    7.97
   0  -4  -2  220.90    7.71
   0   4   2  220.30    7.58
   0   4   2  226.05    6.57
   0   4   2  224.53    6.65
   0   4   2  228.05    7.12
   0   4   2  223.03    7.19
  -1  -4  -2  246.47    9.20
  -1  -4  -2  260.13    8.87
  -1  -4  -2  259.11    8.94
  -1  -4  -2  258.00    7.59
   1   4   2  249.11    8.18
   1   4   2  261.27    8.15
   1   4   2  268.63    8.24
   1   4   2  256.27    7.60
   1   4   2  249.42    8.60
  -2  -4  -2   22.06    1.98
  -2  -4  -2   24.34    1.39
   2   4   2   23.22    1.22
   2   4   2   22.51    1.56
   2   4   2   23.26    1.40
   2   4   2   22.27    1.48
  -3  -4  -2   57.32    2.96
  -3  -4  -2   57.82    2.36
   3   4   2   53.95    2.68
   3   4   2   59.17    2.28
   3   4   2   57.57    2.84
   3   4   2   56.34    2.36
  -4  -4  -2  198.19    7.60
  -4  -4  -2  202.75    6.63
   4   4   2  207.34    7.42
   4   4   2  204.59    6.66
   4   4   2  200.50    7.34
   4   4   2  200.14    6.56
  -5  -4  -2   60.26    3.95
  -5  -4  -2   63.40    3.10
   5   4   2   65.37    3.82
   5   4   2   60.62    3.13
   5   4   2   57.83    3.32
  -6  -4  -2    9.54    1.76
  -6  -4  -2   14.64    2.62
   6   4   2    9.09    1.89
   6   4   2   12.53    2.48
   6   4   2   11.53    1.61
  -7  -4  -2   64.38    3.53
   7   4   2   64.39    3.51
   7   4   2   67.73    4.83
   7   4   2   67.64    4.94
  -8  -4  -2   34.28    3.26
   8   4   2   37.21    4.30
   8   4   2   51.34    4.66
   8   4   2   43.26    3.81
  -9  -4  -2    0.52    2.31
   9   4   2   -0.07    3.42
   9   4   2    2.83    2.55
   9   4   2   -1.86    3.08
  12  -5  -2   23.90    3.20
  12  -5  -2   23.98    3.86
 -12   5   2   23.43    2.76
  11  -5  -2   15.34    3.13
 -11   5   2    8.40    1.91
 -11   5   2   11.19    2.45
  10  -5  -2    1.10    1.58
 -10   5   2    3.27    2.02
 -10   5   2    3.19    1.44
   9  -5  -2   35.74    2.33
   9  -5  -2   43.99    3.11
  -9   5   2   44.56    2.49
  -9   5   2   46.27    3.59
   8  -5  -2   79.84    3.23
   8  -5  -2   87.43    4.39
  -8   5   2   94.20    4.57
  -8   5   2   83.38    3.30
   7  -5  -2    3.71    1.39
   7  -5  -2    2.17    0.71
  -7   5   2    3.35    1.10
  -7   5   2    2.75    0.79
   6  -5  -2   78.59    3.53
   6  -5  -2   78.43    2.67
  -6   5   2   78.05    3.86
  -6   5   2   74.53    2.68
   5  -5  -2   84.39    2.71
   5  -5  -2   84.98    3.50
  -5   5   2   82.03    2.71
  -5   5   2   81.42    2.71
  -5   5   2   89.27    3.83
   4  -5  -2   21.21    0.92
   4  -5  -2   21.16    1.49
  -4   5   2   21.10    1.98
  -4   5   2   20.30    0.86
  -4   5   2   21.36    0.94
   3  -5  -2  149.82    5.65
   3  -5  -2  153.26    4.44
   3  -5  -2  159.22    5.23
  -3   5   2  145.28    5.62
  -3   5   2  150.67    4.44
  -3   5   2  159.01    4.95
  -3   5   2  145.78    5.40
   2  -5  -2  227.07    7.98
   2  -5  -2  224.57    6.43
  -2   5   2  218.69    6.43
  -2   5   2  218.94    7.42
  -2   5   2  230.56    7.09
   1  -5  -2   60.64    2.04
   1  -5  -2   66.13    2.80
  -1   5   2   61.41    2.09
  -1   5   2   63.63    2.06
  -1   5   2   62.39    2.39
  -1   5   2   62.54    2.95
  -1   5   2   60.49    2.60
   0  -5  -2   17.46    1.72
   0  -5  -2   15.87    0.89
   0  -5  -2   15.46    1.46
   0   5   2   18.26    1.65
   0   5   2   14.99    1.21
   0   5   2   15.20    0.91
   0   5   2   14.56    1.04
   0   5   2   15.98    1.28
  -1  -5  -2  196.09    5.99
  -1  -5  -2  200.27    7.28
  -1  -5  -2  193.46    7.40
  -1  -5  -2  203.43    6.96
   1   5   2  188.17    6.56
   1   5   2  202.22    6.53
   1   5   2  195.24    6.01
  -2  -5  -2   93.73    4.16
  -2  -5  -2   97.90    3.33
   2   5   2   97.11    3.72
   2   5   2   93.02    3.32
   2   5   2   93.59    3.75
   2   5   2   96.89    3.49
  -3  -5  -2   -1.34    0.89
  -3  -5  -2    1.68    0.85
   3   5   2   -0.26    0.80
   3   5   2   -0.66    1.03
   3   5   2    0.73    0.75
   3   5   2    0.66    0.63
  -4  -5  -2  120.38    5.52
  -4  -5  -2  117.52    4.29
   4   5   2  114.67    4.20
   4   5   2  115.41    5.16
   4   5   2  115.53    4.31
   4   5   2  126.67    5.19
  -5  -5  -2  101.93    4.18
  -5  -5  -2  105.90    5.49
   5   5   2  110.95    5.28
   5   5   2  103.62    5.20
   5   5   2  109.56    4.46
  -6  -5  -2    3.49    1.65
  -6  -5  -2    2.22    2.39
   6   5   2    3.59    2.32
   6   5   2    4.13    1.77
   6   5   2    6.86    2.44
  -7  -5  -2   10.80    2.31
   7   5   2   13.00    3.11
   7   5   2    6.41    2.26
   7   5   2   14.06    2.99
   8   5   2   41.02    4.03
   8   5   2   35.08    3.16
   8   5   2   34.18    4.33
  13  -6  -2    0.88    2.44
  12  -6  -2   13.34    2.38
  12  -6  -2   18.29    3.52
 -12   6   2   15.41    2.02
  11  -6  -2   18.36    3.26
 -11   6   2   25.09    3.03
 -11   6   2   24.79    2.42
  10  -6  -2   14.71    2.69
 -10   6   2   15.76    1.79
 -10   6   2   10.16    2.29
   9  -6  -2   30.37    2.76
  -9   6   2   31.03    2.16
  -9   6   2   38.04    3.41
   8  -6  -2   66.80    3.96
  -8   6   2   68.18    2.79
  -8   6   2   67.34    4.08
   7  -6  -2   28.59    2.58
  -7   6   2   28.70    1.58
  -7   6   2   34.04    2.78
   6  -6  -2   11.22    0.86
   6  -6  -2   14.38    1.70
  -6   6   2   14.13    1.73
  -6   6   2   11.59    0.93
   5  -6  -2  128.27    4.79
   5  -6  -2  125.24    3.77
  -5   6   2  120.05    3.75
  -5   6   2  117.43    5.08
  -5   6   2  126.10    3.77
   4  -6  -2   97.99    2.93
   4  -6  -2  100.87    3.83
  -4   6   2   99.76    3.49
  -4   6   2   94.18    4.30
  -4   6   2   96.54    2.90
  -4   6   2   94.54    2.93
   3  -6  -2    0.60    0.80
   3  -6  -2    0.38    0.26
   3  -6  -2    0.49    0.69
  -3   6   2    0.21    0.27
  -3   6   2   -0.26    0.61
  -3   6   2    0.90    0.46
   2  -6  -2   99.11    3.97
   2  -6  -2   96.12    2.85
  -2   6   2   96.72    2.86
  -2   6   2   95.96    3.74
  -2   6   2   96.71    2.85
  -2   6   2   96.14    3.46
  -2   6   2   92.97    4.16
   1  -6  -2  124.66    4.86
   1  -6  -2  121.41    3.70
   1  -6  -2  128.42    5.07
  -1   6   2  122.74    3.71
  -1   6   2  125.43    4.37
  -1   6   2  120.59    4.54
  -1   6   2  116.91    4.93
   0  -6  -2    7.61    0.68
   0  -6  -2    6.57    1.21
   0  -6  -2    7.44    1.53
   0   6   2    8.89    1.12
   0   6   2    8.84    1.27
   0   6   2    7.81    1.11
   0   6   2    5.91    0.85
   0   6   2    8.14    0.73
  -1  -6  -2   17.62    1.83
  -1  -6  -2   13.59    1.06
  -1  -6  -2   12.20    1.84
   1   6   2   12.22    1.09
   1   6   2   12.51    1.49
   1   6   2   12.42    1.26
  -2  -6  -2  179.02    7.17
  -2  -6  -2  183.05    5.79
   2   6   2  180.80    5.82
   2   6   2  172.80    6.41
   2   6   2  188.35    6.22
  -3  -6  -2   21.47    1.79
  -3  -6  -2   25.62    2.44
   3   6   2   29.65    2.56
   3   6   2   24.99    1.62
   3   6   2   29.48    2.46
   3   6   2   24.70    1.90
  -4  -6  -2    8.15    1.20
  -4  -6  -2   16.75    2.55
   4   6   2   11.61    2.06
   4   6   2   12.90    2.20
   4   6   2   10.12    1.28
  -5  -6  -2   44.10    3.98
   5   6   2   45.53    3.02
   5   6   2   40.20    3.19
   5   6   2   51.47    3.45
  -6  -6  -2   29.43    3.76
   6   6   2   26.70    3.51
   6   6   2   28.14    2.72
   6   6   2   32.01    3.58
   7   6   2    1.55    2.17
   7   6   2   -5.61    2.70
   7   6   2    3.71    2.93
   8   6   2   18.66    3.92
  13  -7  -2    1.57    2.55
  12  -7  -2    6.18    3.03
  12  -7  -2    0.69    2.58
 -12   7   2    4.40    1.87
  11  -7  -2   48.09    3.91
 -11   7   2   54.72    3.25
  10  -7  -2   34.01    3.53
 -10   7   2   27.21    2.29
 -10   7   2   30.16    3.30
   9  -7  -2    0.88    1.32
  -9   7   2    4.26    1.93
  -9   7   2    1.24    1.01
   8  -7  -2   61.37    3.85
  -8   7   2   60.59    3.63
  -8   7   2   61.70    2.53
   7  -7  -2   88.59    4.31
  -7   7   2   92.96    3.07
  -7   7   2   83.27    4.34
   6  -7  -2   11.94    1.76
  -6   7   2    9.46    0.81
  -6   7   2    9.23    1.93
   5  -7  -2   37.99    2.32
  -5   7   2   36.01    2.82
  -5   7   2   34.99    1.28
  -5   7   2   35.96    1.29
   4  -7  -2  159.48    6.18
   4  -7  -2  157.88    5.71
  -4   7   2  161.55    5.45
   3  -7  -2   43.69    2.43
   3  -7  -2   45.31    2.30
  -3   7   2   45.54    2.16
  -3   7   2   42.45    2.59
  -3   7   2   43.11    2.60
   2  -7  -2   14.47    1.40
  -2   7   2   13.56    0.58
  -2   7   2   12.57    1.53
  -2   7   2   12.64    1.84
  -2   7   2   13.80    0.59
   1  -7  -2   30.34    2.03
   1  -7  -2   24.16    2.10
  -1   7   2   24.67    2.38
  -1   7   2   27.35    2.01
  -1   7   2   30.95    1.19
  -1   7   2   31.77    1.74
   0  -7  -2  118.23    5.19
   0  -7  -2  118.90    5.13
   0   7   2  121.01    4.69
   0   7   2  130.05    5.37
   0   7   2  123.77    4.70
   0   7   2  128.66    3.95
  -1  -7  -2   -0.35    1.44
  -1  -7  -2   -0.58    1.15
   1   7   2    0.28    0.89
   1   7   2    0.64    1.17
   1   7   2    2.17    0.70
  -2  -7  -2   48.24    3.13
   2   7   2   47.17    2.28
   2   7   2   48.30    2.42
   2   7   2   45.26    3.01
  -3  -7  -2   63.27    4.23
   3   7   2   56.77    3.63
   3   7   2   57.60    2.84
  -4  -7  -2    6.87    2.43
   4   7   2    6.33    1.55
   4   7   2    5.08    2.09
  -5  -7  -2   17.33    3.19
   5   7   2   18.49    3.05
   5   7   2   19.98    2.25
  -6  -7  -2   33.54    4.14
   6   7   2   28.97    2.60
   6   7   2   22.45    3.61
   7   7   2    5.63    2.43
   7   7   2    7.22    2.62
  12  -8  -2    2.35    2.10
  12  -8  -2   -2.48    2.50
 -12   8   2   -0.98    1.91
  11  -8  -2   21.42    3.44
 -11   8   2   25.95    2.23
 -11   8   2   25.16    3.21
  10  -8  -2   52.04    4.49
 -10   8   2   59.30    4.37
 -10   8   2   54.56    2.79
   9  -8  -2   21.61    2.85
  -9   8   2   20.80    1.72
  -9   8   2   18.98    2.91
   8  -8  -2   12.94    2.25
  -8   8   2   16.78    2.32
  -8   8   2   13.93    1.24
   7  -8  -2  107.53    5.00
  -7   8   2  107.12    3.50
  -7   8   2  112.18    5.22
   6  -8  -2   81.46    3.93
  -6   8   2   74.55    2.44
  -6   8   2   80.91    4.46
   5  -8  -2    4.33    1.30
   5  -8  -2    3.71    1.25
   4  -8  -2   88.53    3.93
   4  -8  -2   85.28    3.70
  -4   8   2   77.13    4.05
  -4   8   2   78.82    4.00
  -4   8   2   89.01    3.49
   3  -8  -2   62.59    3.21
   3  -8  -2   62.38    3.02
  -3   8   2   63.43    2.91
  -3   8   2   70.88    3.84
  -3   8   2   65.25    3.19
   2  -8  -2   10.57    1.61
   2  -8  -2   10.99    1.46
  -2   8   2    8.16    1.47
  -2   8   2    8.33    1.55
   1  -8  -2   52.64    3.48
   1  -8  -2   49.93    2.93
  -1   8   2   49.78    3.42
  -1   8   2   54.87    2.79
  -1   8   2   53.41    2.91
  -1   8   2   53.53    1.84
   0  -8  -2   85.04    4.22
   0  -8  -2   90.35    4.71
   0   8   2   88.13    3.85
   0   8   2   92.19    4.62
   0   8   2   86.23    2.96
   0   8   2   91.80    3.98
  -1  -8  -2   36.74    2.84
  -1  -8  -2   34.88    3.34
   1   8   2   30.83    2.67
   1   8   2   34.48    1.78
   1   8   2   33.14    2.30
  -2  -8  -2   15.99    2.28
   2   8   2   13.13    1.54
   2   8   2   10.21    1.94
   2   8   2   16.16    1.47
  -3  -8  -2   53.61    3.92
   3   8   2   54.65    3.88
   3   8   2   56.63    2.91
  -4  -8  -2   22.02    2.94
   4   8   2   25.29    2.28
   4   8   2   26.57    2.82
  -5  -8  -2   -0.21    2.83
   5   8   2    0.25    1.78
   5   8   2   -0.29    1.66
  -6  -8  -2   20.51    3.79
   6   8   2   17.20    3.00
  12  -9  -2    8.35    2.42
  12  -9  -2    8.92    3.32
  11  -9  -2    8.85    3.00
  11  -9  -2    4.19    2.72
 -11   9   2    0.95    2.32
 -11   9   2    3.78    1.34
  10  -9  -2   41.36    3.58
 -10   9   2   44.04    2.53
 -10   9   2   47.22    4.44
   9  -9  -2   44.79    3.95
  -9   9   2   40.28    1.99
  -9   9   2   41.27    3.54
   8  -9  -2    2.72    1.81
  -8   9   2   -1.31    2.00
   7  -9  -2   77.24    3.91
   6  -9  -2  102.29    4.75
   6  -9  -2  104.92    4.96
  -6   9   2   99.63    5.48
   5  -9  -2   10.01    1.65
   5  -9  -2    6.67    1.59
  -5   9   2    9.22    2.22
  -5   9   2    7.50    1.30
   4  -9  -2   32.32    2.47
   4  -9  -2   35.31    2.57
  -4   9   2   36.22    2.32
  -4   9   2   37.33    3.34
  -4   9   2   32.45    2.47
   3  -9  -2  122.09    5.10
   3  -9  -2  107.52    5.23
   3  -9  -2  118.04    4.75
  -3   9   2  126.87    4.70
  -3   9   2  108.00    5.55
  -3   9   2  114.62    4.93
   2  -9  -2   49.76    2.96
   2  -9  -2   49.04    3.64
  -2   9   2   48.85    3.67
  -2   9   2   47.34    2.80
  -2   9   2   46.82    2.76
   1  -9  -2    9.01    1.68
   1  -9  -2    6.73    2.11
  -1   9   2    7.11    0.63
  -1   9   2    8.83    1.68
  -1   9   2   11.32    2.34
  -1   9   2    7.60    1.29
   0  -9  -2   93.93    5.17
   0  -9  -2   88.07    4.56
   0   9   2   97.66    4.40
   0   9   2   92.67    4.25
  -1  -9  -2   65.26    4.16
   1   9   2   74.29    4.04
   1   9   2   67.02    3.53
   1   9   2   72.02    2.75
  -2  -9  -2    1.01    1.74
   2   9   2    0.58    1.30
   2   9   2    1.03    1.00
   2   9   2    0.98    1.25
  -3  -9  -2   28.09    3.86
   3   9   2   29.14    2.27
   3   9   2   20.19    2.56
  -4  -9  -2   56.41    5.27
   4   9   2   53.21    4.72
  -5  -9  -2    4.97    3.40
   5   9   2    9.96    2.20
   5   9   2    6.00    3.16
  12 -10  -2   21.17    3.05
  11 -10  -2    1.37    2.73
  11 -10  -2    0.16    1.90
  10 -10  -2   26.79    3.03
   9 -10  -2   60.61    4.60
   8 -10  -2   20.48    2.71
  -8  10   2   20.82    3.22
   7 -10  -2   26.94    2.52
   7 -10  -2   34.40    3.36
  -7  10   2   28.32    3.49
   6 -10  -2   94.26    4.62
   6 -10  -2   96.53    4.66
  -6  10   2   91.56    5.10
   5 -10  -2   34.77    2.89
   5 -10  -2   40.49    3.03
  -5  10   2   42.09    2.70
  -5  10   2   33.81    3.23
   4 -10  -2    1.79    1.37
   4 -10  -2    0.24    1.40
   4 -10  -2    3.13    1.99
  -4  10   2    1.08    1.51
  -4  10   2    2.25    1.31
  -4  10   2    2.73    1.01
   3 -10  -2   95.25    4.51
   3 -10  -2   86.87    4.24
   3 -10  -2   88.94    5.20
  -3  10   2   93.94    3.99
  -3  10   2   99.03    5.41
  -3  10   2   87.32    4.67
   2 -10  -2  103.92    4.98
   2 -10  -2   96.25    5.56
  -2  10   2  112.78    4.73
  -2  10   2  107.86    5.81
  -2  10   2  108.58    5.04
   1 -10  -2    4.13    1.57
   1 -10  -2    1.52    2.21
  -1  10   2    2.60    2.12
  -1  10   2    4.56    1.74
  -1  10   2    3.30    1.61
   0 -10  -2   26.75    3.40
   0  10   2   32.96    2.90
   0  10   2   30.08    2.85
  -1 -10  -2   58.16    4.34
   1  10   2   67.46    4.18
  -2 -10  -2   19.85    3.00
   2  10   2   23.33    2.64
   2  10   2   16.84    1.63
  -3 -10  -2   -0.49    3.14
   3  10   2    7.60    2.18
   3  10   2    5.77    1.52
  -4 -10  -2   49.39    5.21
   4  10   2   41.81    3.17
   4  10   2   33.51    4.27
  11 -11  -2   12.21    3.60
  11 -11  -2    1.58    3.01
 -11  11   2    5.50    2.89
  10 -11  -2    2.02    2.59
  10 -11  -2    6.02    2.99
 -10  11   2    4.39    2.90
   9 -11  -2   50.22    4.56
   9 -11  -2   48.11    4.21
  -9  11   2   40.15    4.05
   8 -11  -2   33.88    3.21
  -8  11   2   31.38    4.07
   7 -11  -2    1.04    1.78
   7 -11  -2   -1.03    1.91
  -7  11   2    2.92    1.88
   6 -11  -2   46.32    3.70
   6 -11  -2   46.61    3.50
  -6  11   2   52.84    4.74
   5 -11  -2   57.01    4.58
   5 -11  -2   59.80    3.88
   5 -11  -2   59.73    3.75
  -5  11   2   68.07    3.61
  -5  11   2   59.96    5.01
   4 -11  -2   13.13    1.79
   4 -11  -2    6.26    2.01
  -4  11   2   12.09    2.44
  -4  11   2   15.20    2.05
  -4  11   2   13.48    2.95
   3 -11  -2   31.01    2.85
   3 -11  -2   34.85    3.61
  -3  11   2   30.77    3.17
  -3  11   2   30.02    3.69
  -3  11   2   30.25    2.70
   2 -11  -2   68.00    4.99
  -2  11   2   61.05    3.84
  -2  11   2   66.86    4.27
  -2  11   2   74.10    5.16
   1 -11  -2   17.63    2.70
  -1  11   2   18.63    2.51
  -1  11   2   23.00    2.36
   0 -11  -2    3.24    2.65
   0  11   2    1.53    1.78
   0  11   2    2.77    1.97
  -1 -11  -2   56.16    5.12
   1  11   2   46.46    4.12
  -2 -11  -2   35.74    4.10
   2  11   2   41.19    3.57
   3  11   2    0.58    2.76
  10 -12  -2    1.42    2.23
  10 -12  -2   -0.82    2.84
 -10  12   2    5.36    3.16
   9 -12  -2   14.85    2.91
   9 -12  -2   10.64    2.45
  -9  12   2   11.95    3.54
   8 -12  -2   24.12    3.30
   8 -12  -2   27.11    3.84
  -8  12   2   32.63    4.37
   7 -12  -2   13.65    2.86
   7 -12  -2    8.87    1.96
  -7  12   2    7.67    3.22
   6 -12  -2    9.11    2.11
   6 -12  -2    5.48    2.17
   6 -12  -2    6.11    2.25
  -6  12   2    7.23    3.03
   5 -12  -2   46.68    3.31
   5 -12  -2   54.74    4.70
   5 -12  -2   53.18    4.18
  -5  12   2   52.67    5.19
  -5  12   2   55.87    3.65
   4 -12  -2   23.97    3.52
  -4  12   2   22.59    2.61
  -4  12   2   20.33    3.72
   3 -12  -2   -2.46    2.35
  -3  12   2    1.45    2.22
  -3  12   2    0.91    1.70
  -3  12   2    0.25    2.69
   2 -12  -2   34.39    4.04
  -2  12   2   33.46    3.17
  -2  12   2   29.09    3.19
   1 -12  -2   24.04    3.79
  -1  12   2   21.19    2.83
  -1  12   2   29.55    3.20
   0 -12  -2    3.98    3.04
  -1 -12  -2   18.29    4.05
   1  12   2   14.68    2.51
   9 -13  -2    0.47    2.77
   9 -13  -2   -1.51    2.97
   8 -13  -2   21.32    3.40
   8 -13  -2   23.24    3.92
  -8  13   2   19.95    3.98
   7 -13  -2   26.55    3.64
   7 -13  -2   21.74    3.43
  -7  13   2   23.89    4.32
   6 -13  -2    0.00    2.15
   6 -13  -2    4.17    2.59
  -6  13   2    2.80    2.37
   5 -13  -2   18.56    3.49
  -5  13   2   15.29    2.51
  -5  13   2   13.34    3.63
   4 -13  -2   32.36    4.11
  -4  13   2   29.30    4.45
  -4  13   2   27.48    3.03
   3 -13  -2    7.57    3.29
  -3  13   2   -0.19    2.00
  -3  13   2    4.46    2.56
  -3  13   2    3.58    3.32
   2 -13  -2    7.26    2.54
  -2  13   2    3.52    1.71
  -2  13   2    7.00    2.63
   1 -13  -2   22.16    4.29
  -1  13   2   20.10    2.51
  -1  13   2   18.71    2.52
   0  13   2   18.64    3.35
   8 -14  -2    2.65    2.05
   7 -14  -2   22.14    3.81
   7 -14  -2   20.81    3.65
   6 -14  -2   11.25    2.60
   5 -14  -2    3.01    2.90
   4 -14  -2    7.84    3.44
  -4  14   2   15.07    2.72
   3 -14  -2    5.70    3.46
  -3  14   2   12.65    2.82
  -2  14  -3   -0.15    2.83
  -2  14  -3    5.99    2.67
   2 -14   3    2.04    2.56
  -3  14  -3   22.45    2.80
   3 -14   3   18.59    3.34
  -4  14  -3   14.20    3.88
   4 -14   3   18.38    3.55
   5 -14   3   -1.42    2.94
   6 -14   3    7.73    3.36
   6 -14   3   10.00    2.44
   1  13  -3    1.19    2.71
  -1 -13   3    2.07    2.85
   0  13  -3   17.68    3.03
   0  13  -3   16.53    3.31
   0 -13   3   15.20    2.50
  -1  13  -3   29.99    3.40
  -1  13  -3   30.17    3.81
   1 -13   3   19.09    2.65
  -2  13  -3    5.32    3.01
  -2  13  -3    7.71    2.04
   2 -13   3    5.00    2.73
   2 -13   3    5.57    2.25
  -3  13  -3   13.39    2.68
  -3  13  -3   10.03    2.68
   3 -13   3   11.81    3.04
  -4  13  -3   23.11    3.86
   4 -13   3   27.00    3.41
   4 -13   3   28.87    3.92
  -5  13  -3   14.82    3.51
   5 -13   3   11.18    2.90
   5 -13   3   13.03    3.26
  -6  13  -3    1.96    3.05
  -6  13  -3    0.13    2.51
   6 -13   3    2.41    2.18
   6 -13   3    4.87    2.78
  -7  13  -3    8.23    2.85
   7 -13   3   12.79    2.87
   7 -13   3   18.53    3.10
  -8  13  -3   12.58    2.88
   8 -13   3    8.19    2.63
   8 -13   3   10.35    3.70
   3  12  -3    6.28    2.72
  -3 -12   3   12.18    3.40
   2  12  -3   31.40    3.57
   2  12  -3   29.63    3.21
  -2 -12   3   28.82    3.88
   1  12  -3    4.25    1.75
   1  12  -3   -0.39    2.39
  -1 -12   3    5.19    2.58
   0  12  -3    4.57    2.67
   0  12  -3    8.67    2.42
   0 -12   3    5.61    2.35
  -1  12  -3   68.48    4.98
  -1  12  -3   56.95    3.66
   1 -12   3   57.60    4.29
  -2  12  -3   24.31    3.46
  -2  12  -3   26.12    2.97
   2 -12   3   18.37    2.50
  -3  12  -3   -1.55    1.60
  -3  12  -3    3.10    1.91
   3 -12   3    0.55    1.46
   3 -12   3   -2.48    1.62
   3 -12   3   -1.75    2.17
  -4  12  -3   30.17    3.85
   4 -12   3   37.23    3.27
   4 -12   3   33.81    3.70
  -5  12  -3   41.41    3.86
  -5  12  -3   43.62    3.55
   5 -12   3   39.42    3.57
   5 -12   3   35.40    3.64
  -6  12  -3    1.54    2.28
  -6  12  -3    2.50    2.87
   6 -12   3    0.09    1.89
   6 -12   3    3.81    2.57
  -7  12  -3   20.28    3.08
   7 -12   3   19.17    3.07
   7 -12   3   21.83    3.13
  -8  12  -3   27.33    3.32
   8 -12   3   24.83    3.45
   8 -12   3   29.98    3.68
   9 -12   3    5.69    3.17
   9 -12   3   10.18    2.96
  -4 -11   3    4.78    2.31
   3  11  -3    2.43    2.30
  -3 -11   3    5.52    2.09
   2  11  -3   61.82    4.34
   2  11  -3   57.73    3.87
  -2 -11   3   51.22    4.02
   1  11  -3   44.97    3.16
   1  11  -3   37.99    3.66
  -1 -11   3   42.60    4.11
   0  11  -3   -0.41    2.07
   0  11  -3    1.48    1.22
   0 -11   3    1.59    1.90
  -1  11  -3   40.90    3.93
  -1  11  -3   41.01    3.37
   1 -11   3   43.31    3.48
  -2  11  -3   87.65    4.76
  -2  11  -3   87.00    4.22
   2 -11   3   87.31    4.85
   2 -11   3   89.10    4.46
  -3  11  -3   10.75    2.15
  -3  11  -3   12.71    2.26
   3 -11   3   13.82    2.35
   3 -11   3   11.18    2.56
   3 -11   3   10.80    1.84
  -4  11  -3   18.31    2.58
  -4  11  -3   25.03    2.70
   4 -11   3   25.95    3.04
   4 -11   3   20.21    3.07
  -5  11  -3   69.42    4.62
  -5  11  -3   77.82    5.10
   5 -11   3   64.05    4.28
   5 -11   3   68.83    4.93
  -6  11  -3   45.05    3.88
  -6  11  -3   40.58    3.75
   6 -11   3   46.81    3.73
   6 -11   3   44.95    4.20
  -7  11  -3    2.87    2.11
   7 -11   3    8.46    3.09
   7 -11   3    7.33    2.07
   8 -11   3   28.13    3.88
   8 -11   3   28.68    4.13
   9 -11   3   17.74    3.88
   9 -11   3   25.11    3.83
   6  10  -3    3.60    1.90
   5  10  -3   21.14    3.03
   5  10  -3   21.55    2.17
   5  10  -3   29.26    3.65
  -5 -10   3   24.24    3.85
   4  10  -3   40.54    3.83
   4  10  -3   42.72    3.83
  -4 -10   3   39.48    4.17
   3  10  -3   -0.70    1.81
   3  10  -3    3.33    2.11
   3  10  -3    0.58    0.96
  -3 -10   3    2.39    2.49
   2  10  -3   54.39    3.29
   2  10  -3   46.56    3.94
   2  10  -3   49.24    2.15
  -2 -10   3   52.41    3.64
   1  10  -3   88.01    4.50
  -1 -10   3   85.22    4.94
   0  10  -3   27.23    3.00
   0  10  -3   29.02    2.32
   0 -10   3   30.86    3.02
  -1  10  -3   16.80    2.53
  -1  10  -3   17.49    1.94
   1 -10   3   18.03    2.21
   1 -10   3   20.97    2.22
  -2  10  -3   97.87    4.36
  -2  10  -3  105.14    5.23
   2 -10   3   94.92    4.50
   2 -10   3  107.38    5.15
  -3  10  -3   50.40    3.43
  -3  10  -3   53.36    3.78
  -3  10  -3   50.34    3.26
   3 -10   3   54.09    3.69
   3 -10   3   48.15    3.35
   3 -10   3   52.81    3.01
  -4  10  -3   -2.45    1.79
  -4  10  -3    0.41    1.73
   4 -10   3   -1.95    1.58
   4 -10   3    0.93    1.09
   4 -10   3    2.14    1.94
  -5  10  -3   97.47    4.90
  -5  10  -3   89.54    5.24
   5 -10   3   84.77    5.22
   5 -10   3   94.43    5.33
  -6  10  -3   67.67    4.07
  -6  10  -3   62.17    4.70
   6 -10   3   63.76    4.68
   6 -10   3   62.42    4.78
  -7  10  -3   -0.41    1.66
   7 -10   3    4.06    2.05
   7 -10   3    5.50    2.39
  -8  10  -3   13.36    2.24
   8 -10   3   21.41    3.65
   8 -10   3   16.56    3.07
   9 -10   3   36.13    3.75
   9 -10   3   38.55    4.54
  10 -10   3   11.32    2.66
  10 -10   3    8.80    3.64
   7   9  -3   10.08    2.35
   6   9  -3    3.74    1.75
   6   9  -3    2.84    2.54
   5   9  -3   24.20    2.22
   5   9  -3   26.15    3.27
   5   9  -3   20.84    2.79
  -5  -9   3   31.53    3.85
   4   9  -3   54.08    2.80
   4   9  -3   53.01    3.99
   4   9  -3   51.09    3.82
  -4  -9   3   50.92    3.85
   3   9  -3   24.28    2.05
   3   9  -3   24.52    2.79
   3   9  -3   26.69    2.53
  -3  -9   3   27.41    2.85
   2   9  -3    8.78    1.02
   2   9  -3   10.15    2.07
  -2  -9   3   11.24    2.24
   1   9  -3   77.63    3.77
   1   9  -3   78.81    4.46
   1   9  -3   87.10    2.88
  -1  -9   3   93.46    4.56
   0   9  -3   46.92    3.45
   0   9  -3   50.00    3.02
   0   9  -3   48.82    1.70
   0  -9   3   52.22    3.17
   0  -9   3   50.80    3.01
  -1   9  -3    1.21    1.59
  -1   9  -3   -0.36    1.22
   1  -9   3    0.18    0.85
   1  -9   3    1.19    1.05
  -2   9  -3   60.93    3.82
  -2   9  -3   60.64    3.01
   2  -9   3   64.36    3.64
   2  -9   3   59.36    2.69
   2  -9   3   60.66    3.13
  -3   9  -3  136.97    5.32
  -3   9  -3  141.80    6.00
  -3   9  -3  138.34    6.05
   3  -9   3  141.83    6.31
   3  -9   3  135.75    5.74
   3  -9   3  138.71    5.38
  -4   9  -3    3.75    1.80
  -4   9  -3    4.83    1.61
   4  -9   3    9.16    1.34
   4  -9   3   11.08    1.88
   4  -9   3    7.85    1.94
  -5   9  -3   25.59    2.89
  -5   9  -3   26.77    2.63
   5  -9   3   26.46    2.86
   5  -9   3   26.95    3.02
   5  -9   3   26.87    1.90
  -6   9  -3   95.79    5.23
  -6   9  -3   92.57    4.58
   6  -9   3   93.82    5.35
   6  -9   3   94.27    5.39
  -7   9  -3   28.82    2.77
  -7   9  -3   25.93    1.52
   7  -9   3   29.20    3.23
   7  -9   3   21.52    2.86
  -8   9  -3    6.83    1.15
  -8   9  -3    7.49    1.79
   8  -9   3    5.95    2.92
   8  -9   3    7.87    1.99
  -9   9  -3   39.19    2.35
   9  -9   3   49.34    4.78
   9  -9   3   42.69    3.80
 -10   9  -3   30.60    2.52
  10  -9   3   32.25    4.43
  10  -9   3   33.47    4.09
  11  -9   3    1.35    1.98
   7   8  -3   21.71    2.20
   7   8  -3   29.56    3.45
   6   8  -3   25.94    3.20
   6   8  -3   22.98    2.32
   6   8  -3   18.15    2.55
   5   8  -3    3.39    1.33
   5   8  -3    0.93    1.71
   5   8  -3    3.55    1.54
  -5  -8   3   -0.84    2.22
   4   8  -3   52.39    3.50
   4   8  -3   48.38    2.57
   4   8  -3   48.84    3.04
  -4  -8   3   43.94    3.40
   3   8  -3   58.85    2.57
   3   8  -3   58.95    3.51
   3   8  -3   58.94    3.66
  -3  -8   3   59.54    3.93
   2   8  -3    4.48    1.47
   2   8  -3    1.93    0.81
   2   8  -3    3.13    1.56
  -2  -8   3    2.21    1.58
   1   8  -3   41.41    1.65
   1   8  -3   44.23    2.40
   1   8  -3   36.82    2.94
  -1  -8   3   40.29    2.42
  -1  -8   3   45.40    2.92
   0   8  -3   85.79    3.66
   0   8  -3   91.16    2.81
   0   8  -3   89.03    4.30
   0  -8   3   92.37    4.19
   0  -8   3   86.86    4.01
  -1   8  -3   26.59    2.13
   1  -8   3   28.63    2.04
   1  -8   3   30.45    2.06
   1  -8   3   28.53    1.51
  -2   8  -3   20.92    1.97
  -2   8  -3   19.00    1.91
  -2   8  -3   19.28    2.15
   2  -8   3   21.30    1.75
   2  -8   3   20.50    1.38
   2  -8   3   22.64    2.20
  -3   8  -3  130.74    5.49
  -3   8  -3  127.31    5.34
  -3   8  -3  130.41    5.02
   3  -8   3  127.89    5.77
   3  -8   3  122.41    5.43
   3  -8   3  134.11    4.91
  -4   8  -3   71.11    3.55
  -4   8  -3   71.89    3.53
  -4   8  -3   64.89    2.01
   4  -8   3   64.88    2.94
   4  -8   3   68.88    3.91
   4  -8   3   66.33    3.82
  -5   8  -3    1.20    0.45
  -5   8  -3    0.18    1.56
  -5   8  -3    1.10    1.23
   5  -8   3    0.22    1.60
   5  -8   3    0.62    1.03
  -6   8  -3   72.25    2.58
  -6   8  -3   69.26    4.18
  -6   8  -3   67.03    3.59
   6  -8   3   66.69    3.93
   6  -8   3   64.87    4.51
  -7   8  -3   74.81    3.80
  -7   8  -3   75.03    2.99
   7  -8   3   74.65    4.73
   7  -8   3   70.66    4.91
  -8   8  -3    4.96    1.46
  -8   8  -3    1.03    1.24
   8  -8   3    0.10    2.55
   8  -8   3    4.23    1.75
  -9   8  -3   23.43    2.05
   9  -8   3   26.04    3.47
   9  -8   3   20.81    3.61
 -10   8  -3   33.65    2.85
  10  -8   3   32.30    4.35
  10  -8   3   37.04    3.74
 -11   8  -3    6.36    1.95
  11  -8   3    7.23    3.08
   8   7  -3    3.11    2.54
   8   7  -3   -0.27    2.02
   7   7  -3   21.63    2.48
   7   7  -3   23.63    3.04
   6   7  -3   53.27    3.58
   6   7  -3   52.28    3.95
   6   7  -3   55.58    3.22
   5   7  -3   17.69    1.79
   5   7  -3   14.39    2.29
   5   7  -3   13.78    2.11
  -5  -7   3   12.71    2.61
   4   7  -3   13.36    2.00
   4   7  -3   11.54    1.92
   4   7  -3   10.45    1.33
  -4  -7   3   11.89    1.90
   3   7  -3   84.25    3.89
   3   7  -3   83.64    4.14
   3   7  -3   84.44    3.15
  -3  -7   3   87.35    4.34
   2   7  -3   50.28    2.01
   2   7  -3   53.87    2.78
   2   7  -3   48.43    3.04
  -2  -7   3   45.38    2.71
   1   7  -3    3.57    0.57
   1   7  -3    3.98    1.40
  -1  -7   3    3.19    0.90
  -1  -7   3    3.87    1.28
   0   7  -3  107.20    3.24
   0   7  -3   97.72    3.94
   0   7  -3  102.68    4.36
   0  -7   3  103.67    3.77
   0  -7   3  106.73    3.26
   0  -7   3  110.20    4.56
   0  -7   3  103.89    4.24
  -1   7  -3  107.78    4.26
  -1   7  -3  112.15    3.45
  -1   7  -3  115.61    3.38
  -1   7  -3  111.95    4.78
   1  -7   3  120.10    4.92
   1  -7   3  125.66    4.26
   1  -7   3  119.44    4.41
  -2   7  -3   10.07    0.45
  -2   7  -3   11.96    1.60
  -2   7  -3   12.99    1.49
  -2   7  -3   13.94    1.45
  -2   7  -3   10.72    0.48
   2  -7   3   13.49    1.28
   2  -7   3   10.92    1.54
  -3   7  -3   48.47    2.46
  -3   7  -3   45.63    1.50
  -3   7  -3   48.42    1.53
  -3   7  -3   44.40    2.82
   3  -7   3   42.79    2.60
   3  -7   3   48.59    2.23
   3  -7   3   48.09    2.73
  -4   7  -3  122.60    3.66
  -4   7  -3  121.55    4.79
  -4   7  -3  120.33    5.05
   4  -7   3  117.63    5.16
   4  -7   3  112.17    5.21
  -5   7  -3   29.22    2.12
  -5   7  -3   27.53    1.35
  -5   7  -3   27.89    2.61
   5  -7   3   29.97    2.65
   5  -7   3   26.06    2.36
  -6   7  -3   14.59    1.66
  -6   7  -3   14.25    1.17
   6  -7   3   12.02    1.97
   6  -7   3   13.75    2.16
  -7   7  -3   72.07    3.57
  -7   7  -3   76.79    3.10
   7  -7   3   77.53    4.64
   7  -7   3   84.61    5.00
  -8   7  -3   34.60    2.28
   8  -7   3   29.81    2.93
   8  -7   3   32.10    3.27
  -9   7  -3    0.07    1.25
   9  -7   3    1.08    1.64
   9  -7   3   -0.57    1.90
 -10   7  -3   17.62    2.27
  10  -7   3   19.57    3.16
  10  -7   3   10.27    2.75
 -11   7  -3   21.95    2.61
  11  -7   3   14.51    3.15
  11  -7   3   14.08    3.93
   9   6  -3   33.57    3.26
   9   6  -3   26.64    4.19
   9   6  -3   30.68    3.53
   8   6  -3   27.32    3.22
   8   6  -3   28.44    2.90
   8   6  -3   37.70    4.24
   7   6  -3    0.09    1.64
   7   6  -3    0.17    1.07
   7   6  -3    1.43    2.34
   7   6  -3    1.56    2.00
   6   6  -3   54.93    3.21
   6   6  -3   57.92    3.64
   6   6  -3   62.34    3.19
  -6  -6   3   52.26    3.01
   5   6  -3   80.83    3.96
   5   6  -3   92.04    4.19
   5   6  -3   86.52    3.43
  -5  -6   3   85.54    3.54
  -5  -6   3   91.88    4.75
   4   6  -3    2.77    0.94
   4   6  -3    2.37    1.37
   4   6  -3    3.28    1.04
  -4  -6   3    2.67    0.73
  -4  -6   3    3.05    1.52
   3   6  -3   49.60    2.66
   3   6  -3   47.75    2.13
   3   6  -3   53.45    3.02
  -3  -6   3   53.17    2.82
  -3  -6   3   50.26    2.13
   2   6  -3  179.00    6.23
   2   6  -3  179.41    6.67
   2   6  -3  180.57    5.50
  -2  -6   3  180.46    6.67
  -2  -6   3  178.99    6.70
  -2  -6   3  180.68    5.48
   1   6  -3   38.33    1.54
   1   6  -3   39.65    2.48
  -1  -6   3   39.26    2.18
  -1  -6   3   41.84    1.53
  -1  -6   3   41.98    2.32
   0   6  -3   26.38    1.84
   0   6  -3   28.86    1.17
   0   6  -3   27.79    1.58
   0  -6   3   29.76    1.15
   0  -6   3   27.87    1.61
   0  -6   3   28.15    1.89
   0  -6   3   28.93    1.23
  -1   6  -3  164.98    4.73
  -1   6  -3  165.00    5.63
  -1   6  -3  168.04    6.03
  -1   6  -3  158.48    4.82
   1  -6   3  156.78    4.81
   1  -6   3  162.92    5.72
   1  -6   3  173.33    6.49
  -2   6  -3  109.44    4.29
  -2   6  -3  106.33    3.19
  -2   6  -3  109.22    3.25
  -2   6  -3  102.42    3.93
  -2   6  -3  103.94    4.33
   2  -6   3  110.54    3.94
   2  -6   3  112.29    4.61
  -3   6  -3    0.10    0.78
  -3   6  -3    0.15    0.31
  -3   6  -3    0.22    0.24
  -3   6  -3    0.71    0.99
   3  -6   3    0.47    0.36
   3  -6   3   -0.70    0.92
   3  -6   3   -1.43    1.05
   3  -6   3    0.20    0.62
  -4   6  -3  103.02    4.12
  -4   6  -3  107.81    3.38
  -4   6  -3   98.69    4.21
   4  -6   3   99.32    4.57
   4  -6   3  106.54    3.36
   4  -6   3  106.28    4.78
  -5   6  -3   89.68    3.68
  -5   6  -3   99.16    4.17
  -5   6  -3   89.56    3.09
   5  -6   3   80.30    4.32
   5  -6   3   87.73    3.09
   5  -6   3   82.86    4.10
  -6   6  -3   12.81    1.43
  -6   6  -3   11.95    1.22
   6  -6   3   11.42    1.91
   6  -6   3   11.77    1.90
  -7   6  -3   37.05    2.21
  -7   6  -3   35.37    2.23
   7  -6   3   34.10    3.20
   7  -6   3   39.71    3.53
  -8   6  -3   45.88    2.69
   8  -6   3   43.56    3.93
   8  -6   3   43.92    3.79
  -9   6  -3    9.39    1.76
   9  -6   3   12.01    3.05
   9  -6   3   10.23    2.61
 -10   6  -3    3.09    1.85
  10  -6   3    0.49    2.26
  10  -6   3    6.37    3.17
 -11   6  -3   21.67    2.88
  11  -6   3   22.16    3.47
  11  -6   3   18.29    3.30
  10   5  -3    0.40    2.50
   9   5  -3   35.14    2.97
   9   5  -3   34.77    3.86
   9   5  -3   34.34    3.45
  -9  -5   3   31.75    2.86
   8   5  -3   47.93    3.58
   8   5  -3   56.75    4.07
   8   5  -3   56.67    3.94
   8   5  -3   49.36    3.65
  -8  -5   3   52.16    3.53
   7   5  -3   13.59    2.08
   7   5  -3   19.80    2.41
   7   5  -3   23.40    2.57
   7   5  -3   18.22    2.25
  -7  -5   3   18.82    1.83
   6   5  -3   26.31    2.20
   6   5  -3   34.64    3.11
   6   5  -3   32.29    2.72
   6   5  -3   29.81    2.32
  -6  -5   3   30.42    2.31
   5   5  -3  136.41    4.71
   5   5  -3  137.43    5.33
   5   5  -3  129.85    5.58
   5   5  -3  144.91    5.64
  -5  -5   3  144.31    5.90
  -5  -5   3  130.63    4.66
   4   5  -3   78.96    3.70
   4   5  -3   84.77    3.57
   4   5  -3   82.36    3.15
  -4  -5   3   90.24    3.19
  -4  -5   3   84.19    4.05
   3   5  -3   11.61    1.03
   3   5  -3   13.12    1.37
   3   5  -3    9.50    1.53
  -3  -5   3   14.21    1.08
  -3  -5   3   11.74    1.55
   2   5  -3  201.56    6.72
   2   5  -3  199.87    6.08
   2   5  -3  202.37    7.14
  -2  -5   3  201.24    7.10
  -2  -5   3  206.99    7.42
  -2  -5   3  205.81    6.07
   1   5  -3  305.22    8.68
   1   5  -3  301.81   10.06
   1   5  -3  300.32    8.69
  -1  -5   3  294.91    8.67
  -1  -5   3  301.36    9.97
  -1  -5   3  304.34   10.86
   0   5  -3    1.65    0.72
   0   5  -3    2.63    0.45
   0   5  -3    2.47    0.78
   0   5  -3    1.84    0.33
   0  -5   3    2.09    0.34
   0  -5   3    2.24    0.66
   0  -5   3    1.98    0.40
   0  -5   3    2.31    0.84
  -1   5  -3   77.91    3.38
  -1   5  -3   79.66    3.09
  -1   5  -3   80.90    3.32
  -1   5  -3   78.86    2.57
   1  -5   3   81.95    3.60
   1  -5   3   84.19    3.02
   1  -5   3   80.80    2.57
  -2   5  -3  284.94    9.70
  -2   5  -3  293.72    8.39
  -2   5  -3  304.17    8.44
  -2   5  -3  279.29    9.25
  -2   5  -3  284.47    9.61
   2  -5   3  296.27    9.72
   2  -5   3  299.69    8.43
   2  -5   3  288.77   10.70
   2  -5   3  299.48    9.41
  -3   5  -3   47.16    2.36
  -3   5  -3   53.49    2.35
  -3   5  -3   49.09    1.83
   3  -5   3   50.55    2.74
   3  -5   3   55.92    2.84
   3  -5   3   49.96    1.83
  -4   5  -3   35.92    1.59
  -4   5  -3   38.57    2.25
  -4   5  -3   35.78    1.72
  -4   5  -3   36.54    1.90
   4  -5   3   35.19    2.21
   4  -5   3   38.98    2.61
   4  -5   3   35.38    1.57
  -5   5  -3  183.01    5.65
  -5   5  -3  176.98    6.22
   5  -5   3  181.17    5.62
   5  -5   3  174.07    6.91
   5  -5   3  176.63    7.26
  -6   5  -3   57.98    2.44
  -6   5  -3   60.00    2.64
   6  -5   3   59.81    3.28
   6  -5   3   58.49    3.75
   6  -5   3   57.18    2.54
  -7   5  -3    0.05    1.06
   7  -5   3    1.35    1.02
   7  -5   3    0.54    1.04
   7  -5   3    0.12    1.88
  -8   5  -3   55.89    3.07
   8  -5   3   52.90    3.53
   8  -5   3   60.70    4.49
  -9   5  -3   40.16    2.99
   9  -5   3   40.41    3.79
   9  -5   3   29.76    3.71
 -10   5  -3    0.52    1.77
  10  -5   3   -0.14    2.80
  10  -5   3    2.58    2.21
 -11   5  -3   12.27    2.67
  11  -5   3    7.52    2.68
  11  -5   3    8.43    2.57
  10   4  -3    6.59    3.48
  10   4  -3    5.46    1.83
  10   4  -3    1.85    2.46
 -10  -4   3    5.57    1.81
   9   4  -3   13.40    2.01
   9   4  -3   16.60    3.30
   9   4  -3   10.85    2.46
  -9  -4   3   16.04    2.05
   8   4  -3   78.90    5.01
   8   4  -3   80.69    4.22
   8   4  -3   80.77    4.42
  -8  -4   3   85.76    4.14
   7   4  -3   61.14    2.98
   7   4  -3   56.98    3.94
   7   4  -3   62.62    3.51
  -7  -4   3   62.84    2.97
   6   4  -3    1.62    1.06
   6   4  -3    1.43    1.11
   6   4  -3    2.19    1.25
  -6  -4   3    1.40    1.07
   5   4  -3  124.26    5.00
   5   4  -3  123.63    4.38
   5   4  -3  135.76    4.89
  -5  -4   3  130.23    4.39
   4   4  -3  276.11    8.67
   4   4  -3  237.93    8.42
   4   4  -3  246.11    8.10
   4   4  -3  234.48    7.48
  -4  -4   3  240.65    7.48
  -4  -4   3  244.07    8.71
   3   4  -3   33.48    1.68
   3   4  -3   36.96    1.61
  -3  -4   3   34.25    2.13
  -3  -4   3   34.85    1.49
   2   4  -3  120.11    4.69
   2   4  -3  118.80    4.21
   2   4  -3  124.78    3.83
  -2  -4   3  122.50    4.66
  -2  -4   3  125.56    3.81
  -2  -4   3  122.11    4.54
   1   4  -3  330.77    9.42
   1   4  -3  336.65   10.75
  -1  -4   3  317.03   11.67
  -1  -4   3  321.15   10.65
  -1  -4   3  336.64    9.40
   0   4  -3  241.10    8.23
   0   4  -3  256.04    7.20
   0   4  -3  247.77    7.84
   0   4  -3  255.07    7.17
   0  -4   3  254.13    7.19
   0  -4   3  248.13    9.10
   0  -4   3  245.14    8.10
  -1   4  -3   54.54    2.27
  -1   4  -3   60.17    2.04
  -1   4  -3   58.55    2.50
  -1   4  -3   59.38    1.96
  -1   4  -3   58.70    2.51
   1  -4   3   61.65    2.03
   1  -4   3   63.41    2.25
   1  -4   3   61.63    2.75
  -2   4  -3  323.09    9.44
  -2   4  -3  318.03   10.45
  -2   4  -3  318.82   10.54
  -2   4  -3  322.38    9.41
   2  -4   3  320.92   10.59
   2  -4   3  338.07   10.28
   2  -4   3  335.66   11.80
   2  -4   3  329.52    9.41
  -3   4  -3  319.97   10.25
  -3   4  -3  325.31    9.24
  -3   4  -3  319.90    9.32
  -3   4  -3  316.82   10.24
   3  -4   3  298.49   10.39
   3  -4   3  322.89    9.22
   3  -4   3  308.48   11.48
  -4   4  -3    4.14    0.77
  -4   4  -3    4.42    0.70
  -4   4  -3    3.11    0.97
   4  -4   3    6.05    1.40
   4  -4   3    4.10    1.12
   4  -4   3    5.76    0.78
  -5   4  -3  145.28    4.61
   5  -4   3  132.63    5.75
   5  -4   3  138.37    4.50
   5  -4   3  129.14    5.42
  -6   4  -3  149.18    5.08
  -6   4  -3  154.32    5.34
   6  -4   3  153.69    5.08
   6  -4   3  152.49    6.33
   6  -4   3  147.76    6.28
  -7   4  -3   25.63    2.08
  -7   4  -3   25.15    1.68
   7  -4   3   28.59    2.66
   7  -4   3   24.97    2.09
   7  -4   3   20.44    2.35
  -8   4  -3   21.75    2.16
   8  -4   3   17.79    2.02
   8  -4   3   21.85    2.54
   8  -4   3   21.36    2.28
  -9   4  -3   76.03    4.10
   9  -4   3   72.31    4.05
   9  -4   3   78.22    4.75
   9  -4   3   79.20    5.42
 -10   4  -3   23.67    2.76
  10  -4   3   19.06    2.37
  10  -4   3   18.92    3.75
 -11   4  -3    3.69    2.49
  11  -4   3   -4.10    3.16
  11   3  -3   35.98    3.75
  11   3  -3   24.13    3.35
 -11  -3   3   34.18    3.59
  10   3  -3   39.52    3.98
  10   3  -3   28.64    3.13
  10   3  -3   30.04    3.30
 -10  -3   3   30.27    3.15
   9   3  -3    0.39    2.46
   9   3  -3    1.89    1.85
   9   3  -3    2.14    1.91
  -9  -3   3   -0.34    1.66
   8   3  -3   63.65    3.85
   8   3  -3   61.39    3.54
   8   3  -3   63.12    3.64
  -8  -3   3   63.51    3.54
   7   3  -3   81.77    3.81
   7   3  -3   74.16    3.91
   7   3  -3   79.04    3.64
  -7  -3   3   85.46    3.64
   6   3  -3   32.07    2.19
   6   3  -3   29.31    2.21
   6   3  -3   33.58    1.85
  -6  -3   3   30.46    1.81
   5   3  -3   82.48    3.65
   5   3  -3   88.28    3.51
   5   3  -3   86.31    3.30
  -5  -3   3   97.05    3.37
   4   3  -3  222.64    7.33
   4   3  -3  220.26    7.66
   4   3  -3  226.83    6.91
  -4  -3   3  235.65    6.92
   3   3  -3  130.98    4.42
   3   3  -3  131.18    4.68
   3   3  -3  131.74    4.15
  -3  -3   3  135.02    4.14
  -3  -3   3  125.59    4.79
   2   3  -3   -0.06    0.07
   2   3  -3   -0.01    0.36
   2   3  -3    0.19    0.42
  -2  -3   3    1.21    0.71
  -2  -3   3    0.45    0.33
  -2  -3   3   -0.62    0.49
   1   3  -3  445.80   14.28
   1   3  -3  479.98   12.84
   1   3  -3  461.63   12.84
  -1  -3   3  462.79   12.83
  -1  -3   3  419.49   15.82
  -1  -3   3  448.67   14.31
   0   3  -3  373.08   10.63
   0   3  -3  393.36   10.62
   0   3  -3  379.40   11.85
   0   3  -3  357.94   11.37
   0   3  -3  365.41   11.82
   0  -3   3  375.34   11.76
   0  -3   3  375.48   10.63
   0  -3   3  373.78   13.20
  -1   3  -3   14.34    0.93
  -1   3  -3   15.85    1.09
  -1   3  -3   15.41    0.90
   1  -3   3   16.65    0.73
   1  -3   3   14.96    0.91
   1  -3   3   15.31    1.40
  -2   3  -3  159.35    5.43
  -2   3  -3  160.16    5.04
  -2   3  -3  166.78    5.51
  -2   3  -3  162.93    5.00
   2  -3   3  148.34    5.59
   2  -3   3  166.59    5.00
   2  -3   3  167.76    6.28
   2  -3   3  180.17    5.68
  -3   3  -3  560.96   17.31
  -3   3  -3  553.41   15.96
  -3   3  -3  563.92   17.50
   3  -3   3  556.64   15.95
   3  -3   3  546.04   17.61
   3  -3   3  559.56   19.56
   3  -3   3  564.02   17.62
  -4   3  -3   68.28    2.65
   4  -3   3   76.19    2.62
   4  -3   3   74.57    3.46
   4  -3   3   77.81    2.69
   4  -3   3   69.04    3.28
  -5   3  -3   17.66    1.14
  -5   3  -3   16.90    1.46
   5  -3   3   17.11    1.79
   5  -3   3   20.48    1.50
   5  -3   3   17.03    2.00
  -6   3  -3  186.55    6.32
  -6   3  -3  192.48    6.27
   6  -3   3  184.65    7.42
   6  -3   3  193.14    7.38
   6  -3   3  184.09    6.21
  -7   3  -3  100.96    3.92
   7  -3   3   91.83    3.84
   7  -3   3  104.02    4.62
   7  -3   3   96.66    4.77
  -8   3  -3    0.00    1.43
   8  -3   3    0.54    1.37
   8  -3   3   -0.11    1.34
   8  -3   3   -2.36    2.05
  -9   3  -3   47.14    3.47
   9  -3   3   43.79    3.12
   9  -3   3   46.21    3.84
   9  -3   3   51.41    3.49
 -10   3  -3   54.28    3.97
  10  -3   3   48.01    3.98
  10  -3   3   63.01    5.43
 -11   3  -3    5.34    2.62
  11  -3   3    6.04    3.42
  11   2  -3    7.24    2.50
  11   2  -3    9.60    2.71
  11   2  -3    7.69    3.49
 -11  -2   3   15.40    2.79
  10   2  -3   37.80    4.20
  10   2  -3   35.47    3.29
  10   2  -3   38.35    3.45
 -10  -2   3   41.78    3.64
   9   2  -3    9.03    2.09
   9   2  -3    6.93    1.90
   9   2  -3   11.99    1.81
  -9  -2   3   10.04    1.60
   8   2  -3   19.73    2.57
   8   2  -3   17.62    1.80
   8   2  -3   18.54    2.01
  -8  -2   3   17.26    1.98
   7   2  -3  126.79    5.33
   7   2  -3  133.84    4.89
   7   2  -3  131.24    5.06
  -7  -2   3  135.70    4.88
   6   2  -3   49.72    2.91
   6   2  -3   50.99    2.46
   6   2  -3   50.50    2.35
  -6  -2   3   54.83    2.51
   5   2  -3    3.56    0.69
   5   2  -3    2.90    0.67
   5   2  -3    3.19    0.86
  -5  -2   3    3.38    0.84
   4   2  -3  148.51    4.74
   4   2  -3  147.20    4.92
   4   2  -3  152.46    5.29
  -4  -2   3  150.65    4.74
   3   2  -3  191.37    6.32
   3   2  -3  187.13    5.70
   3   2  -3  187.04    6.01
  -3  -2   3  195.83    5.71
   2   2  -3   18.96    0.92
   2   2  -3   18.67    1.24
   2   2  -3   20.60    0.96
  -2  -2   3   20.46    0.92
   1   2  -3  221.10    6.23
   1   2  -3  209.01    6.94
   1   2  -3  214.02    6.61
   1   2  -3  215.70    6.22
  -1  -2   3  229.24    7.10
  -1  -2   3  215.59    6.22
  -1  -2   3  194.24    7.75
   0   2  -3  604.83   18.37
   0   2  -3  621.36   16.68
   0   2  -3  583.29   17.70
   0   2  -3  590.85   16.68
   0   2  -3  585.35   18.23
   0  -2   3  566.99   20.51
   0  -2   3  578.73   19.62
   0  -2   3  608.44   16.68
  -1   2  -3  205.28    5.95
  -1   2  -3  198.01    6.38
  -1   2  -3  194.90    5.92
   1  -2   3  202.34    6.50
   1  -2   3  196.18    6.35
   1  -2   3  191.94    5.91
   1  -2   3  197.93    6.40
   1  -2   3  204.07    7.33
  -2   2  -3   35.08    1.35
  -2   2  -3   34.53    1.53
  -2   2  -3   34.59    1.58
   2  -2   3   32.62    1.96
   2  -2   3   34.41    1.47
   2  -2   3   36.59    1.60
   2  -2   3   35.50    1.96
   2  -2   3   36.15    1.44
   2  -2   3   34.96    1.19
  -3   2  -3  191.71    6.05
  -3   2  -3  183.77    5.74
  -3   2  -3  189.46    5.94
   3  -2   3  183.54    5.73
   3  -2   3  186.48    6.95
   3  -2   3  172.06    6.46
   3  -2   3  186.93    5.93
  -4   2  -3  275.04    8.60
  -4   2  -3  260.63    8.17
   4  -2   3  270.97    8.17
   4  -2   3  286.68    9.98
   4  -2   3  257.27    9.12
  -5   2  -3   -0.07    0.77
  -5   2  -3    0.18    0.45
   5  -2   3    0.49    0.88
   5  -2   3    0.82    0.94
   5  -2   3   -0.20    0.80
  -6   2  -3   94.07    3.79
  -6   2  -3   90.15    3.40
   6  -2   3  103.38    3.86
   6  -2   3   91.64    4.35
   6  -2   3   95.68    4.20
  -7   2  -3  125.04    4.82
   7  -2   3  129.36    4.84
   7  -2   3  133.95    5.58
   7  -2   3  134.21    6.10
  -8   2  -3   24.99    2.45
   8  -2   3   23.61    3.17
   8  -2   3   24.33    2.40
   8  -2   3   22.72    2.42
  -9   2  -3   19.02    2.45
   9  -2   3   13.80    2.10
   9  -2   3   24.49    3.53
   9  -2   3   16.24    2.35
 -10   2  -3   52.42    4.13
  10  -2   3   47.19    4.05
  10  -2   3   51.83    5.02
 -11   2  -3   13.48    3.11
  11  -2   3   18.87    3.29
  11  -2   3   14.86    2.94
  12   1  -3   -0.32    2.58
 -12  -1   3    3.21    2.79
  11   1  -3    2.42    3.01
  11   1  -3   -2.88    2.14
  11   1  -3    1.41    2.04
 -11  -1   3    0.05    2.16
  10   1  -3   27.47    2.90
  10   1  -3   33.36    3.73
  10   1  -3   29.22    2.80
 -10  -1   3   26.51    2.89
   9   1  -3   39.50    3.84
   9   1  -3   46.70    3.05
   9   1  -3   45.55    3.25
  -9  -1   3   47.88    3.18
   8   1  -3    0.03    1.16
   8   1  -3    0.05    0.88
   8   1  -3    1.29    1.73
  -8  -1   3    0.44    0.88
   7   1  -3   74.33    3.21
   7   1  -3   69.50    3.02
   7   1  -3   72.29    3.70
  -7  -1   3   75.79    3.21
   6   1  -3   98.45    3.63
   6   1  -3  100.24    4.17
   6   1  -3   95.32    3.64
  -6  -1   3  104.73    3.70
   5   1  -3   19.65    1.62
   5   1  -3   18.48    1.33
   5   1  -3   17.26    1.22
  -5  -1   3   17.64    1.33
   4   1  -3   63.82    2.53
   4   1  -3   60.97    2.24
   4   1  -3   63.95    2.31
  -4  -1   3   60.18    2.23
   3   1  -3  281.60    8.14
   3   1  -3  272.39    8.83
   3   1  -3  276.17    8.50
  -3  -1   3  288.04    8.14
   2   1  -3  168.00    5.38
   2   1  -3  168.94    5.14
   2   1  -3  164.04    4.94
  -2  -1   3  168.11    4.94
  -2  -1   3  166.60    5.15
   1   1  -3   24.80    1.09
   1   1  -3   23.96    1.06
   1   1  -3   24.68    1.05
   1   1  -3   22.74    0.98
  -1  -1   3   23.17    0.98
  -1  -1   3   26.83    1.07
  -1  -1   3   22.99    1.58
  -1  -1   3   24.08    0.98
   0   1  -3  399.19   11.23
   0   1  -3  424.38   11.26
   0  -1   3  368.54   13.78
   0  -1   3  397.49   11.22
   0  -1   3  379.82   13.21
  -1   1  -3  224.95    6.97
  -1   1  -3  216.82    6.66
  -1   1  -3  232.66    6.97
  -1   1  -3  225.66    6.68
   1  -1   3  224.58    7.00
   1  -1   3  218.24    8.09
   1  -1   3  218.14    7.18
   1  -1   3  228.81    6.69
  -2   1  -3   19.61    0.91
  -2   1  -3   16.18    1.20
   2  -1   3   19.26    1.43
   2  -1   3   20.48    1.29
   2  -1   3   18.43    0.85
   2  -1   3   17.61    0.83
   2  -1   3   18.11    1.29
  -3   1  -3  104.15    3.28
  -3   1  -3  103.44    3.54
   3  -1   3  105.38    4.18
   3  -1   3  102.82    3.52
   3  -1   3  102.84    3.53
   3  -1   3  101.02    4.03
   3  -1   3   96.86    3.31
  -4   1  -3  222.69    7.18
  -4   1  -3  224.84    7.04
   4  -1   3  222.34    7.88
   4  -1   3  222.71    7.02
   4  -1   3  233.16    8.35
  -5   1  -3   37.65    1.97
  -5   1  -3   40.51    1.65
   5  -1   3   39.94    1.99
   5  -1   3   35.16    2.39
   5  -1   3   38.94    2.14
  -6   1  -3   19.46    1.81
  -6   1  -3   15.77    1.14
   6  -1   3   16.54    1.70
   6  -1   3   17.61    2.29
   6  -1   3   17.32    1.78
  -7   1  -3   89.83    4.05
   7  -1   3   90.08    4.57
   7  -1   3   92.47    4.26
   7  -1   3   85.59    3.78
  -8   1  -3   55.02    3.44
   8  -1   3   54.30    3.45
   8  -1   3   47.15    3.05
   8  -1   3   40.84    3.53
  -9   1  -3    0.67    1.84
   9  -1   3   -0.59    1.90
   9  -1   3   -2.80    2.59
 -10   1  -3   30.26    3.38
  10  -1   3   24.50    3.22
  10  -1   3   28.22    4.21
  11  -1   3   27.03    3.56
  12   0  -3    9.76    2.71
  12   0  -3   19.73    4.06
 -12   0   3   16.91    2.99
  11   0  -3    4.05    3.08
  11   0  -3    4.48    1.99
  11   0  -3    5.08    1.77
 -11   0   3    6.74    1.79
  10   0  -3    7.00    1.79
  10   0  -3    4.93    1.95
  10   0  -3   10.81    2.11
 -10   0   3    9.14    2.06
   9   0  -3   94.02    4.24
   9   0  -3   85.20    4.50
   9   0  -3   91.32    4.11
  -9   0   3   89.86    4.14
   8   0  -3   25.44    1.90
   8   0  -3   26.73    2.28
  -8   0   3   24.95    1.86
   7   0  -3    5.42    1.48
   7   0  -3    5.50    1.14
  -7   0   3    5.75    1.16
   6   0  -3   77.41    3.39
   6   0  -3   86.20    3.05
  -6   0   3   81.73    3.01
   5   0  -3  152.82    4.78
   5   0  -3  146.99    5.25
  -5   0   3  152.12    4.78
   4   0  -3    2.81    0.62
   4   0  -3    2.14    0.45
   4   0  -3    1.60    0.46
  -4   0   3    1.75    0.47
   3   0  -3  185.28    5.95
   3   0  -3  181.17    5.47
   3   0  -3  183.70    5.61
  -3   0   3  188.51    5.49
   2   0  -3  342.19   10.65
   2   0  -3  350.71    9.92
   2   0  -3  358.61   11.63
  -2   0   3  337.00    9.91
  -2   0   3  349.88   10.31
  -2   0   3  344.60   10.67
   1   0  -3  117.82    3.59
   1   0  -3  118.82    4.20
   1   0  -3  113.70    3.58
  -1   0   3  123.28    3.58
  -1   0   3  118.07    3.59
  -1   0   3  123.22    4.20
  -1   0   3  114.80    3.63
   0   0  -3   74.89    2.98
   0   0  -3   78.23    2.58
   0   0  -3   81.12    2.62
   0   0   3   70.41    2.95
   0   0   3   77.56    2.59
   0   0   3   75.83    2.56
   0   0   3   72.94    3.12
   0   0   3   76.76    2.57
  -1   0  -3  207.94    6.26
  -1   0  -3  208.78    6.68
  -1   0  -3  217.87    6.34
  -1   0  -3  207.54    6.66
   1   0   3  197.38    7.57
   1   0   3  207.81    6.71
  -2   0  -3  104.54    3.63
  -2   0  -3   99.79    3.49
   2   0   3  102.97    3.51
   2   0   3  101.26    4.09
   2   0   3  104.72    3.57
   2   0   3  107.17    3.85
  -3   0  -3   12.98    0.64
  -3   0  -3   12.04    1.13
  -3   0  -3   15.52    1.28
   3   0   3   15.04    1.49
   3   0   3   13.36    0.57
   3   0   3   14.28    1.27
   3   0   3   14.02    1.23
  -4   0  -3  128.43    4.48
   4   0   3  131.97    5.12
   4   0   3  126.25    5.04
   4   0   3  131.22    4.49
  -5   0  -3   86.12    3.56
   5   0   3   94.50    3.61
   5   0   3   85.47    3.95
   5   0   3   87.23    3.83
  -6   0  -3    1.08    1.18
   6   0   3    1.70    1.71
   6   0   3    2.43    1.26
   6   0   3    3.69    1.02
  -7   0  -3   28.98    2.59
   7   0   3   29.14    2.54
   7   0   3   26.82    2.11
   7   0   3   27.30    3.08
  -8   0  -3   51.45    3.12
   8   0   3   45.13    3.73
   8   0   3   52.60    3.12
  -9   0  -3    8.68    1.91
   9   0   3    6.87    1.80
   9   0   3   10.35    2.51
 -10   0  -3    4.96    1.92
  10   0   3    2.82    3.31
  10   0   3    4.81    1.94
  12  -1  -3   21.71    3.10
  12  -1  -3   30.36    4.39
 -12   1   3   23.62    3.13
  11  -1  -3   39.29    3.85
  11  -1  -3   45.68    3.66
 -11   1   3   43.57    3.66
  10  -1  -3    4.20    2.39
  10  -1  -3    2.62    1.75
 -10   1   3    2.80    1.67
   9  -1  -3   45.26    3.64
   9  -1  -3   43.32    2.92
  -9   1   3   50.17    2.97
   8  -1  -3   92.39    3.75
   8  -1  -3   93.54    4.40
  -8   1   3   83.71    3.66
   7  -1  -3   25.69    1.74
   7  -1  -3   26.08    2.23
  -7   1   3   23.40    1.76
   6  -1  -3   23.78    1.51
   6  -1  -3   25.38    1.87
  -6   1   3   25.07    1.38
   5  -1  -3  162.01    5.50
   5  -1  -3  156.43    4.97
  -5   1   3  162.02    5.03
   4  -1  -3  200.92    6.43
   4  -1  -3  195.60    5.89
  -4   1   3  193.36    5.87
   3  -1  -3   24.08    1.02
   3  -1  -3   24.18    1.15
  -3   1   3   21.29    1.29
  -3   1   3   22.52    1.02
   2  -1  -3  141.23    4.41
   2  -1  -3  138.31    4.99
   2  -1  -3  141.79    4.21
  -2   1   3  140.02    4.45
  -2   1   3  139.06    4.22
  -2   1   3  147.54    4.23
   1  -1  -3  296.59    8.64
   1  -1  -3  307.27   10.21
  -1   1   3  295.03    8.64
  -1   1   3  314.25    8.65
  -1   1   3  292.26    9.05
   0  -1  -3   10.26    0.99
   0  -1  -3    9.49    0.79
   0  -1  -3    9.92    0.56
   0   1   3    7.91    0.84
   0   1   3    8.68    0.79
   0   1   3    9.03    0.64
   0   1   3    8.51    0.70
  -1  -1  -3  247.37    8.98
  -1  -1  -3  245.89    7.90
  -1  -1  -3  253.43    7.94
  -1  -1  -3  261.22    7.54
  -1  -1  -3  245.50    8.19
   1   1   3  257.31    7.96
   1   1   3  253.42    9.05
   1   1   3  253.05    7.53
   1   1   3  251.71    7.94
  -2  -1  -3  229.67    7.51
  -2  -1  -3  231.69    6.88
   2   1   3  223.30    7.37
   2   1   3  217.40    6.85
   2   1   3  219.81    8.15
  -3  -1  -3   18.40    1.25
  -3  -1  -3   19.09    1.54
   3   1   3   18.21    1.43
   3   1   3   21.38    1.47
   3   1   3   20.54    1.29
  -4  -1  -3   22.53    1.82
  -4  -1  -3   22.56    1.69
   4   1   3   23.07    2.06
   4   1   3   20.22    1.47
   4   1   3   21.63    1.70
  -5  -1  -3  114.54    4.74
  -5  -1  -3  115.02    4.32
   5   1   3  106.60    4.52
   5   1   3  110.38    4.90
   5   1   3  113.77    4.31
  -6  -1  -3   26.43    2.00
   6   1   3   28.85    2.53
   6   1   3   26.80    1.86
   6   1   3   29.51    2.05
  -7  -1  -3   -0.51    1.47
   7   1   3   -0.08    1.55
   7   1   3   -2.82    1.97
  -8  -1  -3   36.24    3.19
   8   1   3   35.64    3.43
   8   1   3   36.23    3.20
  -9  -1  -3   30.38    3.23
   9   1   3   30.37    4.03
   9   1   3   22.31    3.07
 -10  -1  -3   -2.07    2.36
  10   1   3    3.00    2.55
  10   1   3    4.40    3.41
  12  -2  -3   15.50    2.69
  12  -2  -3   17.09    3.56
 -12   2   3   12.48    2.66
  11  -2  -3   62.66    4.42
  11  -2  -3   66.08    4.12
 -11   2   3   64.76    4.06
  10  -2  -3   28.98    3.23
  10  -2  -3   26.83    2.44
 -10   2   3   24.59    2.42
   9  -2  -3    6.17    1.47
   9  -2  -3    4.08    1.52
  -9   2   3    6.26    1.47
   8  -2  -3  106.46    4.76
   8  -2  -3  106.98    3.92
  -8   2   3  105.78    3.93
   7  -2  -3   76.27    3.04
   7  -2  -3   86.50    3.68
  -7   2   3   72.33    3.02
   6  -2  -3    0.68    0.48
   6  -2  -3    1.56    0.71
  -6   2   3    1.15    0.68
   5  -2  -3  182.23    5.47
   5  -2  -3  174.74    6.02
  -5   2   3  181.37    5.48
   4  -2  -3  217.73    7.19
   4  -2  -3  231.97    6.62
  -4   2   3  222.53    6.62
   3  -2  -3   66.23    2.38
   3  -2  -3   67.45    2.23
   3  -2  -3   66.66    2.06
  -3   2   3   67.01    2.24
  -3   2   3   65.57    2.56
  -3   2   3   72.13    2.23
   2  -2  -3  102.61    3.23
   2  -2  -3  102.58    3.86
   2  -2  -3  103.97    3.17
  -2   2   3  107.30    3.19
  -2   2   3  108.17    3.14
  -2   2   3  104.03    3.18
  -2   2   3   96.22    3.87
  -2   2   3  100.12    3.29
   1  -2  -3  421.50   12.08
   1  -2  -3  423.50   14.28
   1  -2  -3  417.88   13.06
  -1   2   3  444.90   12.08
  -1   2   3  422.19   13.48
  -1   2   3  409.46   12.08
   0  -2  -3  301.16   10.73
   0  -2  -3  307.33    9.45
   0  -2  -3  331.16    9.10
   0  -2  -3  310.04    9.90
   0  -2  -3  308.05    9.54
   0   2   3  309.06    9.06
   0   2   3  305.63    9.08
   0   2   3  309.53    9.45
  -1  -2  -3   66.82    3.22
  -1  -2  -3   68.45    2.49
  -1  -2  -3   71.09    2.31
  -1  -2  -3   72.62    2.60
  -1  -2  -3   72.19    2.90
   1   2   3   72.16    2.60
   1   2   3   70.96    2.61
   1   2   3   67.02    2.57
  -2  -2  -3  235.84    7.19
  -2  -2  -3  231.09    7.98
   2   2   3  228.05    7.17
   2   2   3  235.85    7.14
   2   2   3  237.41    8.50
   2   2   3  239.92    7.69
  -3  -2  -3  168.62    5.58
  -3  -2  -3  167.63    6.16
   3   2   3  172.00    5.26
   3   2   3  168.32    5.59
   3   2   3  179.15    6.40
   3   2   3  173.01    6.02
  -4  -2  -3    3.52    1.25
  -4  -2  -3    4.81    0.91
   4   2   3    3.61    1.33
   4   2   3    3.42    0.36
   4   2   3    3.98    0.91
   4   2   3    3.99    0.78
  -5  -2  -3   44.89    2.62
  -5  -2  -3   44.83    2.99
   5   2   3   43.91    3.09
   5   2   3   43.08    2.27
   5   2   3   40.50    2.58
  -6  -2  -3   93.04    3.98
   6   2   3   92.69    5.01
   6   2   3  100.34    4.09
  -7  -2  -3   11.66    2.06
   7   2   3    7.81    2.56
   7   2   3    9.48    2.02
  -8  -2  -3    3.30    2.08
   8   2   3    5.24    2.21
   8   2   3    1.51    2.55
  -9  -2  -3   28.92    3.34
   9   2   3   28.57    3.40
   9   2   3   26.75    3.95
 -10  -2  -3    5.30    2.56
  10   2   3    6.18    2.75
  12  -3  -3    9.92    3.37
  12  -3  -3    2.23    2.13
 -12   3   3    4.33    2.12
  11  -3  -3   47.97    2.92
  11  -3  -3   42.86    3.66
 -11   3   3   40.21    2.84
  10  -3  -3   64.55    3.54
  10  -3  -3   67.74    4.52
 -10   3   3   62.74    3.50
   9  -3  -3    0.38    0.82
   9  -3  -3    1.09    1.61
  -9   3   3    0.58    0.82
   8  -3  -3   97.20    4.24
   8  -3  -3   98.94    3.61
  -8   3   3   95.65    3.74
   7  -3  -3  219.16    7.72
   7  -3  -3  225.06    6.85
  -7   3   3  213.59    6.84
   6  -3  -3   24.75    1.83
   6  -3  -3   27.30    1.32
  -6   3   3   25.00    1.43
   5  -3  -3   55.86    2.47
   5  -3  -3   56.99    2.10
   5  -3  -3   61.15    2.06
  -5   3   3   54.56    2.11
   4  -3  -3  339.82    9.67
   4  -3  -3  340.58   10.05
   4  -3  -3  325.10   10.52
  -4   3   3  339.01    9.68
  -4   3   3  335.65    9.67
   3  -3  -3  232.68    6.77
   3  -3  -3  221.19    7.05
   3  -3  -3  224.47    6.53
  -3   3   3  240.32    6.56
  -3   3   3  221.30    7.82
  -3   3   3  226.73    6.79
  -3   3   3  221.17    6.54
  -3   3   3  210.59    7.12
   2  -3  -3    8.56    0.54
   2  -3  -3    7.57    0.63
   2  -3  -3    9.01    0.99
  -2   3   3    7.79    0.54
  -2   3   3    8.88    1.16
  -2   3   3    7.23    0.64
  -2   3   3    7.40    0.69
   1  -3  -3  556.44   15.66
   1  -3  -3  554.97   18.54
   1  -3  -3  543.25   16.56
  -1   3   3  558.18   15.64
  -1   3   3  533.62   15.65
  -1   3   3  564.04   17.54
  -1   3   3  546.17   16.47
   0  -3  -3  481.68   15.43
   0  -3  -3  471.93   14.52
   0  -3  -3  495.82   13.75
   0  -3  -3  447.18   16.28
   0  -3  -3  480.20   14.71
   0   3   3  487.83   13.75
   0   3   3  493.25   14.56
   0   3   3  496.48   15.28
   0   3   3  480.31   14.66
   0   3   3  468.10   13.76
   0   3   3  459.07   14.49
  -1  -3  -3   57.06    2.25
  -1  -3  -3   52.25    2.82
  -1  -3  -3   57.45    2.70
  -1  -3  -3   57.44    2.10
   1   3   3   56.22    2.25
   1   3   3   60.12    2.22
   1   3   3   56.21    2.02
   1   3   3   58.82    2.39
  -2  -3  -3   89.01    3.09
  -2  -3  -3   82.12    3.52
   2   3   3   87.07    2.84
   2   3   3   82.81    3.06
   2   3   3   87.24    3.31
  -3  -3  -3  178.73    6.70
  -3  -3  -3  190.33    6.01
   3   3   3  180.99    5.75
   3   3   3  187.43    6.52
   3   3   3  182.51    5.99
  -4  -3  -3   82.02    3.89
  -4  -3  -3   88.87    3.57
   4   3   3   89.63    3.58
   4   3   3   85.43    3.98
  -5  -3  -3   11.08    1.95
  -5  -3  -3    9.78    1.33
   5   3   3    8.89    1.34
   5   3   3   10.80    2.00
  -6  -3  -3   74.55    4.11
  -6  -3  -3   80.97    3.95
   6   3   3   78.20    3.93
   6   3   3   78.06    4.67
  -7  -3  -3   45.92    3.60
   7   3   3   50.60    3.64
   7   3   3   62.49    4.59
  -8  -3  -3   -0.61    2.06
   8   3   3   -1.05    2.63
   8   3   3    3.42    2.82
   8   3   3    0.49    2.18
  -9  -3  -3   14.65    2.91
   9   3   3    8.13    2.87
   9   3   3   15.55    3.79
   9   3   3   10.10    3.23
  12  -4  -3   -0.63    1.95
  12  -4  -3    3.79    2.23
 -12   4   3    3.62    2.05
  11  -4  -3   28.23    3.05
 -11   4   3   29.74    2.37
 -11   4   3   32.63    3.47
  10  -4  -3   96.48    4.23
  10  -4  -3   96.64    5.27
 -10   4   3  106.85    5.54
 -10   4   3   95.77    4.24
   9  -4  -3   39.82    3.34
   9  -4  -3   42.38    2.51
  -9   4   3   44.56    2.56
  -9   4   3   45.01    3.73
   8  -4  -3   25.37    2.36
   8  -4  -3   23.29    1.71
  -8   4   3   22.62    1.76
  -8   4   3   29.02    2.88
   7  -4  -3  264.94    7.80
   7  -4  -3  261.40    8.80
  -7   4   3  262.38    7.82
  -7   4   3  230.27    9.29
   6  -4  -3  106.96    3.52
   6  -4  -3  106.13    4.05
  -6   4   3  103.04    4.78
  -6   4   3  107.26    3.55
   5  -4  -3    2.55    0.52
   5  -4  -3    2.02    0.79
  -5   4   3    1.97    0.56
  -5   4   3    2.48    1.31
   4  -4  -3  153.80    4.54
   4  -4  -3  151.29    5.07
   4  -4  -3  147.23    4.69
  -4   4   3  151.03    4.54
  -4   4   3  151.47    4.53
  -4   4   3  149.93    5.81
   3  -4  -3  494.84   16.96
   3  -4  -3  501.96   15.36
   3  -4  -3  506.55   14.15
   3  -4  -3  506.02   14.95
  -3   4   3  486.61   14.14
  -3   4   3  500.08   16.35
  -3   4   3  509.76   14.13
  -3   4   3  499.29   14.97
   2  -4  -3   48.12    1.79
   2  -4  -3   46.63    2.29
   2  -4  -3   45.73    1.71
  -2   4   3   47.35    1.75
  -2   4   3   45.32    2.27
  -2   4   3   48.64    1.66
  -2   4   3   47.42    1.79
   1  -4  -3   67.92    2.89
   1  -4  -3   68.10    2.25
   1  -4  -3   68.52    2.36
  -1   4   3   67.62    2.84
  -1   4   3   66.08    2.60
  -1   4   3   67.05    2.36
  -1   4   3   66.11    2.43
   0  -4  -3  365.33   13.23
   0  -4  -3  385.60   12.65
   0  -4  -3  385.00   11.06
   0   4   3  387.25   11.15
   0   4   3  386.65   12.48
   0   4   3  382.99   11.78
   0   4   3  376.34   11.86
   0   4   3  379.30   11.07
  -1  -4  -3  140.36    5.82
  -1  -4  -3  147.15    4.73
  -1  -4  -3  149.51    5.54
   1   4   3  144.19    5.12
   1   4   3  150.79    4.86
   1   4   3  152.64    5.34
   1   4   3  141.24    4.72
   1   4   3  153.24    5.02
  -2  -4  -3   14.12    1.25
  -2  -4  -3   12.68    1.47
   2   4   3   10.02    0.87
   2   4   3    8.43    1.08
   2   4   3   11.26    1.27
   2   4   3   14.34    1.32
  -3  -4  -3  136.55    4.68
  -3  -4  -3  134.09    5.51
   3   4   3  127.86    4.66
   3   4   3  132.84    5.25
   3   4   3  137.09    5.12
   3   4   3  129.09    4.35
  -4  -4  -3  146.21    5.17
  -4  -4  -3  138.29    6.05
   4   4   3  148.14    5.90
   4   4   3  140.70    5.73
   4   4   3  139.80    5.04
  -5  -4  -3    3.44    1.43
  -5  -4  -3    0.36    1.78
   5   4   3    0.69    1.76
   5   4   3    4.67    1.49
   5   4   3    2.67    1.84
  -6  -4  -3   40.64    3.28
  -6  -4  -3   37.91    3.12
   6   4   3   46.85    3.97
   6   4   3   39.82    3.72
   6   4   3   37.95    3.09
  -7  -4  -3   56.37    3.95
   7   4   3   55.20    4.21
   7   4   3   53.69    4.74
   7   4   3   60.69    4.01
  -8  -4  -3   17.99    2.80
   8   4   3   21.10    3.12
   8   4   3   17.30    3.54
   8   4   3   21.37    3.13
  -9  -4  -3    1.87    2.46
   9   4   3    4.03    3.30
  12  -5  -3   18.48    3.40
 -12   5   3   14.80    2.42
 -12   5   3   16.88    2.98
  11  -5  -3    3.77    2.46
 -11   5   3    3.34    2.31
 -11   5   3    2.03    1.21
  10  -5  -3   54.36    4.15
 -10   5   3   56.70    3.13
 -10   5   3   57.72    4.39
   9  -5  -3  107.72    4.18
   9  -5  -3  118.82    5.35
  -9   5   3  108.21    4.23
  -9   5   3  119.43    5.77
   8  -5  -3    0.63    1.03
   8  -5  -3    0.74    0.81
  -8   5   3    1.35    0.91
  -8   5   3    0.60    1.57
   7  -5  -3   71.06    2.66
   7  -5  -3   69.49    3.41
  -7   5   3   70.23    3.71
  -7   5   3   67.28    2.67
   6  -5  -3  142.64    4.29
   6  -5  -3  133.43    5.03
  -6   5   3  128.28    5.56
  -6   5   3  133.23    4.28
   5  -5  -3   47.89    1.75
   5  -5  -3   44.28    2.23
  -5   5   3   44.53    2.66
  -5   5   3   49.23    1.77
   4  -5  -3   51.18    2.56
   4  -5  -3   49.84    2.18
   4  -5  -3   50.91    1.77
  -4   5   3   49.48    1.77
  -4   5   3   55.50    2.98
  -4   5   3   50.60    2.00
  -4   5   3   51.79    1.75
   3  -5  -3  322.30    9.98
   3  -5  -3  321.22   11.10
   3  -5  -3  300.54    9.09
  -3   5   3  326.12    9.73
  -3   5   3  301.80    9.09
  -3   5   3  315.70   10.79
  -3   5   3  328.95    9.04
   2  -5  -3  183.04    5.77
   2  -5  -3  177.26    6.56
   2  -5  -3  172.40    5.30
  -2   5   3  178.03    5.23
  -2   5   3  173.68    6.49
  -2   5   3  176.83    6.07
  -2   5   3  184.10    5.72
  -2   5   3  171.93    5.31
   1  -5  -3    3.08    0.95
   1  -5  -3    3.89    0.58
  -1   5   3    4.81    1.12
  -1   5   3    4.73    0.67
  -1   5   3    3.72    0.60
  -1   5   3    3.24    0.78
  -1   5   3    4.17    0.75
   0  -5  -3  181.02    6.85
   0  -5  -3  192.24    5.76
   0  -5  -3  173.73    6.98
   0   5   3  194.88    6.26
   0   5   3  183.04    5.75
   0   5   3  193.10    6.78
   0   5   3  196.83    6.31
  -1  -5  -3  187.03    5.75
  -1  -5  -3  179.99    7.12
  -1  -5  -3  174.41    6.77
   1   5   3  186.56    6.04
   1   5   3  187.70    6.64
   1   5   3  181.80    5.75
   1   5   3  180.20    6.23
  -2  -5  -3   18.32    2.09
  -2  -5  -3   17.49    1.42
   2   5   3   15.92    1.42
   2   5   3   14.38    1.33
   2   5   3   16.76    1.13
   2   5   3   17.80    1.80
  -3  -5  -3  103.06    4.86
  -3  -5  -3   99.49    3.86
   3   5   3  101.21    4.32
   3   5   3  100.94    3.56
   3   5   3   97.94    3.87
   3   5   3   98.99    4.47
  -4  -5  -3  115.91    5.41
  -4  -5  -3  116.37    4.49
   4   5   3  126.03    5.55
   4   5   3  126.90    5.38
   4   5   3  124.21    4.60
  -5  -5  -3   43.06    3.86
  -5  -5  -3   39.79    2.88
   5   5   3   35.03    2.44
   5   5   3   40.45    3.49
   5   5   3   42.45    3.66
  -6  -5  -3    1.84    1.66
  -6  -5  -3    4.21    2.51
   6   5   3    0.86    1.79
   6   5   3    2.52    1.38
   6   5   3    2.33    2.29
  -7  -5  -3   45.16    3.24
   7   5   3   45.18    3.32
   7   5   3   44.07    4.30
   7   5   3   55.61    5.12
   8   5   3   31.96    3.20
   8   5   3   32.72    4.44
   8   5   3   32.53    4.16
  13  -6  -3    5.61    2.83
  13  -6  -3    9.52    3.54
 -13   6   3    3.70    2.17
  12  -6  -3   22.48    3.58
 -12   6   3   19.24    3.16
 -12   6   3   26.94    2.39
  11  -6  -3   10.46    2.76
 -11   6   3   12.62    1.95
 -11   6   3   10.36    2.72
  10  -6  -3   11.37    2.45
 -10   6   3   16.34    2.81
 -10   6   3   18.49    1.88
   9  -6  -3   59.60    3.92
  -9   6   3   67.80    2.93
  -9   6   3   56.24    4.29
   8  -6  -3   29.65    2.75
  -8   6   3   24.79    1.73
  -8   6   3   30.93    3.07
   7  -6  -3   13.62    1.68
  -7   6   3   11.78    2.14
  -7   6   3   10.36    1.04
   6  -6  -3  102.30    4.13
  -6   6   3  106.91    3.37
  -6   6   3   95.56    4.61
   5  -6  -3  108.30    4.20
  -5   6   3  115.63    4.89
  -5   6   3  112.50    3.51
   4  -6  -3    0.75    0.72
   4  -6  -3    1.57    0.41
   4  -6  -3    1.57    0.77
  -4   6   3    1.46    0.45
  -4   6   3    2.01    0.59
  -4   6   3    2.05    1.24
   3  -6  -3  141.01    4.25
   3  -6  -3  139.46    5.45
   3  -6  -3  145.28    4.84
  -3   6   3  138.13    5.49
  -3   6   3  138.11    4.25
  -3   6   3  135.69    4.64
   2  -6  -3  187.00    5.39
   2  -6  -3  188.29    6.82
  -2   6   3  177.02    6.30
  -2   6   3  167.08    5.30
  -2   6   3  181.14    6.70
  -2   6   3  180.52    5.96
  -2   6   3  183.48    5.40
   1  -6  -3   30.27    1.32
   1  -6  -3   28.30    2.35
   1  -6  -3   29.21    2.05
  -1   6   3   32.02    1.36
  -1   6   3   28.31    1.56
  -1   6   3   28.53    1.79
  -1   6   3   31.61    2.27
   0  -6  -3   45.21    1.82
   0  -6  -3   39.58    2.82
   0  -6  -3   42.75    2.46
   0   6   3   40.83    2.25
   0   6   3   44.42    2.67
   0   6   3   45.93    1.86
   0   6   3   43.77    2.16
  -1  -6  -3  232.57    7.24
  -1  -6  -3  228.16    8.89
  -1  -6  -3  230.71    8.65
   1   6   3  243.08    7.30
   1   6   3  230.62    7.95
   1   6   3  250.65    7.83
  -2  -6  -3   71.03    2.97
  -2  -6  -3   67.90    3.71
   2   6   3   74.34    3.01
   2   6   3   71.41    3.58
   2   6   3   73.57    2.89
  -3  -6  -3    5.37    1.20
  -3  -6  -3    6.51    2.07
   3   6   3    8.63    1.89
   3   6   3    7.73    1.64
   3   6   3    9.72    1.24
  -4  -6  -3   62.55    3.92
  -4  -6  -3   60.22    3.23
   4   6   3   62.96    3.03
   4   6   3   65.25    4.12
   4   6   3   59.90    3.89
  -5  -6  -3   57.17    4.62
   5   6   3   58.06    3.16
   5   6   3   57.70    4.24
   5   6   3   61.21    4.50
  -6  -6  -3    2.30    2.76
   6   6   3    2.66    2.05
   6   6   3    1.86    2.51
   6   6   3    5.08    2.93
   7   6   3   14.56    3.43
   7   6   3   12.82    2.66
   7   6   3   17.11    3.04
  13  -7  -3   -0.28    2.55
  12  -7  -3   22.16    3.62
 -12   7   3   18.31    2.31
 -12   7   3   14.81    3.02
  11  -7  -3   31.13    3.14
 -11   7   3   30.61    2.65
 -11   7   3   31.88    3.67
  10  -7  -3    1.54    2.06
 -10   7   3   -1.72    2.06
 -10   7   3   -0.45    1.20
   9  -7  -3   23.21    2.63
  -9   7   3   24.28    3.07
  -9   7   3   20.61    1.82
   8  -7  -3   73.86    3.96
  -8   7   3   73.24    4.16
  -8   7   3   69.34    2.80
   7  -7  -3   12.16    1.78
  -7   7   3   11.31    1.01
  -7   7   3   11.28    1.93
   6  -7  -3   35.32    2.31
  -6   7   3   34.26    1.46
  -6   7   3   35.17    3.07
   5  -7  -3  116.08    4.99
   5  -7  -3  126.16    4.58
  -5   7   3  119.11    3.66
  -5   7   3  112.77    5.33
   4  -7  -3   66.46    2.98
   4  -7  -3   66.80    3.27
  -4   7   3   64.08    2.05
  -4   7   3   65.02    2.17
  -4   7   3   68.24    2.70
  -4   7   3   65.61    3.46
   3  -7  -3    3.14    0.84
   3  -7  -3    4.16    1.16
  -3   7   3    4.48    0.90
  -3   7   3    3.51    0.39
  -3   7   3    3.95    0.48
  -3   7   3    4.79    1.55
   2  -7  -3  101.83    4.38
  -2   7   3   94.71    4.56
  -2   7   3  102.55    3.83
  -2   7   3  103.65    3.15
  -2   7   3   98.70    4.12
   1  -7  -3  111.39    5.05
   1  -7  -3  112.67    4.80
  -1   7   3  116.23    3.59
  -1   7   3  107.62    4.88
  -1   7   3  106.59    4.12
  -1   7   3  111.20    4.36
   0  -7  -3    6.53    1.50
   0  -7  -3    8.79    1.80
   0   7   3    6.32    1.09
   0   7   3    8.34    1.21
   0   7   3    8.89    1.75
   0   7   3    8.03    0.90
  -1  -7  -3   97.32    4.62
  -1  -7  -3   92.98    4.70
   1   7   3   98.91    4.23
   1   7   3   95.44    3.81
   1   7   3   97.66    3.52
  -2  -7  -3   76.31    4.60
   2   7   3   84.04    3.36
   2   7   3   80.71    4.12
  -3  -7  -3   11.52    2.06
   3   7   3   11.93    1.61
   3   7   3   11.47    2.26
  -4  -7  -3    9.88    2.73
   4   7   3   10.08    1.82
   4   7   3   10.83    2.51
  -5  -7  -3   49.18    4.66
   5   7   3   41.56    4.12
   5   7   3   34.72    2.72
  -6  -7  -3   15.47    3.50
   6   7   3   12.86    2.48
   6   7   3   13.51    2.80
  12  -8  -3    9.43    2.37
 -12   8   3    6.94    1.81
 -12   8   3    6.89    2.77
  11  -8  -3   29.26    3.50
 -11   8   3   31.65    2.55
 -11   8   3   34.13    3.38
  10  -8  -3   19.62    2.85
 -10   8   3   16.62    1.67
 -10   8   3   21.41    3.32
   9  -8  -3    2.51    1.92
  -9   8   3    2.54    0.95
  -9   8   3    2.57    2.16
   8  -8  -3   64.45    3.66
  -8   8   3   52.36    3.80
  -8   8   3   58.14    2.47
   7  -8  -3   65.48    3.53
  -7   8   3   67.51    2.34
  -7   8   3   58.89    3.88
   6  -8  -3    1.42    1.05
   6  -8  -3    0.70    1.24
  -6   8   3    0.47    1.72
  -6   8   3    0.84    0.52
   5  -8  -3   42.80    2.45
   5  -8  -3   42.84    2.75
  -5   8   3   39.23    1.39
  -5   8   3   41.33    2.18
   4  -8  -3   68.86    3.11
   4  -8  -3   65.18    3.32
  -4   8   3   70.07    3.78
  -4   8   3   74.34    3.02
   3  -8  -3   32.06    1.96
   3  -8  -3   29.88    2.36
  -3   8   3   33.46    2.52
  -3   8   3   34.68    2.05
  -3   8   3   29.98    1.01
  -3   8   3   30.37    2.44
   2  -8  -3   17.90    2.35
   2  -8  -3   14.79    1.79
  -2   8   3   16.86    2.25
  -2   8   3   17.26    1.67
  -2   8   3   13.54    1.73
  -2   8   3   14.64    0.84
   1  -8  -3  115.60    5.56
   1  -8  -3  119.54    5.27
  -1   8   3  120.59    3.76
  -1   8   3  122.85    4.82
  -1   8   3  117.63    4.68
  -1   8   3  116.75    5.24
   0  -8  -3   36.81    2.93
   0  -8  -3   37.31    2.91
   0   8   3   38.03    1.89
   0   8   3   35.64    2.32
   0   8   3   39.55    2.42
   0   8   3   38.78    3.26
  -1  -8  -3    1.67    1.96
  -1  -8  -3    3.44    1.71
   1   8   3    1.58    1.05
   1   8   3    1.91    1.06
   1   8   3    2.18    0.90
  -2  -8  -3   40.16    3.79
   2   8   3   45.44    3.48
   2   8   3   48.72    2.53
  -3  -8  -3   36.11    3.84
   3   8   3   39.00    3.59
   3   8   3   28.63    2.44
  -4  -8  -3    3.18    2.72
   4   8   3   -1.59    1.53
   4   8   3   -1.14    2.31
  -5  -8  -3   18.14    3.61
   5   8   3   15.91    2.48
   5   8   3   15.63    3.52
  -6  -8  -3   18.15    4.05
   6   8   3   21.65    2.83
  12  -9  -3   -2.70    2.58
 -12   9   3   -0.76    2.70
  11  -9  -3   16.35    3.05
 -11   9   3   25.23    2.14
 -11   9   3   19.61    3.42
  10  -9  -3   46.21    4.10
 -10   9   3   43.20    2.31
 -10   9   3   44.14    4.43
   9  -9  -3    6.53    2.09
  -9   9   3    6.49    0.95
  -9   9   3    6.23    2.12
   8  -9  -3   23.07    2.53
  -8   9   3   26.28    3.34
   7  -9  -3  103.34    5.11
  -7   9   3   91.61    5.14
   6  -9  -3   14.05    1.85
   6  -9  -3   19.76    2.32
   5  -9  -3    3.28    1.48
   5  -9  -3    1.68    1.11
  -5   9   3    1.16    1.90
  -5   9   3    2.33    1.07
   4  -9  -3   60.04    3.11
   4  -9  -3   69.84    3.64
  -4   9   3   64.05    3.04
  -4   9   3   58.89    3.78
   3  -9  -3   67.31    4.34
   3  -9  -3   72.49    3.83
   3  -9  -3   68.34    3.40
  -3   9   3   70.80    3.55
  -3   9   3   73.92    3.41
  -3   9   3   76.97    4.47
   2  -9  -3   -0.09    1.29
   2  -9  -3    1.57    1.02
  -2   9   3    0.12    1.38
  -2   9   3   -0.28    1.70
   1  -9  -3   60.02    3.56
   1  -9  -3   55.77    4.10
  -1   9   3   57.43    3.24
  -1   9   3   56.62    3.63
  -1   9   3   54.82    2.12
  -1   9   3   58.38    3.27
   0  -9  -3   56.23    4.31
   0  -9  -3   56.50    3.83
   0   9   3   55.86    3.17
   0   9   3   63.07    2.40
   0   9   3   63.71    3.29
  -1  -9  -3   13.65    2.84
   1   9   3   12.49    1.45
   1   9   3   14.79    2.32
   1   9   3    8.97    1.52
  -2  -9  -3   16.41    3.25
   2   9   3   19.73    2.28
   2   9   3   17.64    1.76
  -3  -9  -3   37.20    4.36
   3   9   3   35.58    3.30
   3   9   3   37.94    3.02
  -4  -9  -3   20.86    3.94
   4   9   3   13.88    3.18
   4   9   3   20.23    2.36
 -12  10   3    6.55    2.36
  11 -10  -3    2.51    2.55
 -11  10   3    8.53    3.02
  10 -10  -3   43.24    4.15
 -10  10   3   53.53    4.35
   9 -10  -3   29.04    3.04
   8 -10  -3    4.22    1.80
   8 -10  -3    3.09    2.12
   7 -10  -3   56.42    4.03
  -7  10   3   52.23    4.75
   6 -10  -3   56.89    3.31
   6 -10  -3   58.80    3.82
  -6  10   3   47.58    4.54
   5 -10  -3    0.80    1.21
   5 -10  -3    0.89    1.63
  -5  10   3    2.75    1.32
  -5  10   3    3.54    1.75
   4 -10  -3   37.30    2.98
  -4  10   3   34.19    3.59
  -4  10   3   31.81    2.50
   3 -10  -3  129.31    5.75
   3 -10  -3  114.20    5.84
  -3  10   3  125.61    5.67
  -3  10   3  134.73    5.19
  -3  10   3  120.24    5.97
   2 -10  -3   21.29    2.70
   2 -10  -3   22.11    2.49
  -2  10   3   22.16    2.03
  -2  10   3   23.00    2.19
  -2  10   3   22.92    3.11
   1 -10  -3   10.33    2.03
   1 -10  -3    7.75    2.01
  -1  10   3    6.67    1.81
  -1  10   3    5.28    1.70
  -1  10   3    2.76    2.28
   0 -10  -3   61.40    4.22
   0  10   3   64.63    3.63
   0  10   3   64.18    3.63
  -1 -10  -3   34.25    4.05
   1  10   3   39.22    3.46
   1  10   3   38.99    2.28
  -2 -10  -3    3.83    2.84
   2  10   3   -1.38    1.51
  -3 -10  -3   35.46    4.59
   3  10   3   38.55    4.19
   4  10   3   25.97    2.60
 -11  11   3    2.77    3.13
  10 -11  -3   29.83    3.45
 -10  11   3   37.04    4.63
   9 -11  -3   44.07    4.50
  -9  11   3   41.26    4.23
   8 -11  -3    2.28    1.69
  -8  11   3    0.18    1.80
   7 -11  -3   26.65    3.14
  -7  11   3   28.57    3.94
   6 -11  -3   78.05    4.68
  -6  11   3   71.33    5.58
   5 -11  -3   35.20    3.36
  -5  11   3   39.87    2.91
  -5  11   3   38.72    4.17
   4 -11  -3    6.49    1.89
   4 -11  -3    6.74    2.71
  -4  11   3    6.84    1.44
  -4  11   3    7.86    2.73
   3 -11  -3   58.86    3.94
   3 -11  -3   59.78    4.97
  -3  11   3   64.62    4.36
  -3  11   3   65.23    3.75
   2 -11  -3   57.56    4.31
  -2  11   3   59.64    5.09
  -2  11   3   62.89    3.87
  -2  11   3   67.42    4.12
   1 -11  -3    2.98    2.62
  -1  11   3    1.72    1.76
   0 -11  -3   35.35    4.19
   0  11   3   32.47    3.23
  -1 -11  -3   57.91    4.74
   1  11   3   52.66    4.45
  -2 -11  -3    7.44    3.73
   2  11   3   10.76    2.95
  10 -12  -3   14.30    3.48
 -10  12   3   12.04    3.66
   9 -12  -3   27.79    3.67
  -9  12   3   30.05    4.49
   8 -12  -3   26.03    3.49
  -8  12   3   20.37    4.10
   7 -12  -3    0.42    2.25
  -7  12   3    4.89    3.08
   6 -12  -3   51.82    5.08
   6 -12  -3   49.86    4.19
  -6  12   3   55.13    4.62
   5 -12  -3   44.47    3.80
   5 -12  -3   46.33    4.49
  -5  12   3   45.77    3.42
  -5  12   3   41.45    4.78
   4 -12  -3    1.75    1.89
   4 -12  -3    4.76    2.14
  -4  12   3    5.08    2.22
  -4  12   3    4.19    1.81
   3 -12  -3   25.74    3.87
  -3  12   3   23.19    2.63
  -3  12   3   27.12    4.13
   2 -12  -3   44.01    4.20
  -2  12   3   49.60    3.83
   1 -12  -3   14.11    3.62
  -1  12   3   13.72    2.51
  -1  12   3    9.50    2.50
   0 -12  -3    5.77    2.40
   1  12   3   45.90    4.27
   9 -13  -3   11.41    2.93
   9 -13  -3   14.71    2.71
   8 -13  -3   31.80    4.01
   8 -13  -3   19.83    2.82
  -8  13   3   19.11    4.14
   7 -13  -3    3.80    2.65
   7 -13  -3    3.17    2.70
   7 -13  -3    6.67    2.64
  -7  13   3    4.36    3.51
   6 -13  -3   14.59    2.92
   6 -13  -3   12.01    2.76
  -6  13   3    8.35    3.72
   5 -13  -3   22.00    3.27
  -5  13   3   37.52    4.20
   4 -13  -3    8.76    3.28
  -4  13   3    9.13    2.32
  -4  13   3    9.11    2.81
   3 -13  -3    0.46    2.92
  -3  13   3    0.20    3.09
  -3  13   3    2.82    2.11
   2 -13  -3   28.47    4.30
  -2  13   3   27.68    3.19
  -1  13   3   26.46    3.37
   8 -14  -3   17.67    3.57
   7 -14  -3    7.48    3.28
   6 -14  -3    0.65    2.90
   5 -14  -3   11.02    3.72
   2 -14   4   23.32    3.41
  -3  14  -4   29.70    3.73
   3 -14   4   26.41    4.18
   4 -14   4   -0.50    2.04
   5 -14   4   10.29    3.56
   5 -14   4   12.78    3.25
   6 -14   4   19.68    3.72
  -2 -13   4    2.26    2.08
   1  13  -4    7.71    3.05
  -1 -13   4    5.49    2.73
   0  13  -4   29.32    3.95
   0  13  -4   36.95    3.72
   0 -13   4   17.92    3.04
  -1  13  -4   16.55    3.41
  -1  13  -4   10.22    2.68
  -2  13  -4    3.74    3.09
  -2  13  -4   12.28    2.67
   2 -13   4   10.76    2.49
  -3  13  -4   32.41    3.17
  -3  13  -4   33.20    4.19
   3 -13   4   25.67    3.79
  -4  13  -4   20.77    3.23
   4 -13   4   16.88    3.45
   4 -13   4   12.08    2.93
  -5  13  -4    1.29    2.03
   5 -13   4   -2.58    2.85
   5 -13   4   -0.23    2.37
  -6  13  -4   21.68    4.07
   6 -13   4   17.32    3.53
   6 -13   4   16.07    3.64
   7 -13   4   16.67    2.99
   7 -13   4   13.85    3.05
   3  12  -4   15.89    3.22
   3  12  -4   20.27    3.27
  -3 -12   4   14.79    2.84
   2  12  -4   15.72    3.15
   2  12  -4   15.13    2.43
  -2 -12   4   16.69    2.65
   1  12  -4    0.35    2.59
   1  12  -4   -0.62    2.08
  -1 -12   4   -1.18    2.23
   0  12  -4   34.33    3.45
   0  12  -4   26.77    3.59
   0 -12   4   34.52    3.38
  -1  12  -4   39.65    3.54
  -1  12  -4   42.60    4.20
   1 -12   4   36.38    3.47
  -2  12  -4    2.72    2.53
  -2  12  -4    1.46    1.49
  -3  12  -4   16.36    2.75
  -3  12  -4   15.24    2.62
   3 -12   4   12.69    2.65
   3 -12   4   14.43    2.57
  -4  12  -4   27.25    3.39
   4 -12   4   32.69    3.46
   4 -12   4   29.63    3.26
  -5  12  -4   10.43    3.17
   5 -12   4    7.07    2.64
   5 -12   4   10.95    2.46
  -6  12  -4   13.05    3.24
   6 -12   4    4.05    2.63
   6 -12   4    8.80    2.55
  -7  12  -4   28.71    3.29
   7 -12   4   27.64    4.15
   7 -12   4   29.89    3.58
   8 -12   4    7.70    2.76
   8 -12   4    7.52    2.48
   4  11  -4   -4.60    2.28
   4  11  -4   -1.10    2.23
  -4 -11   4   -1.22    2.70
   3  11  -4   15.13    2.95
   3  11  -4   19.03    2.99
  -3 -11   4   14.63    3.22
   2  11  -4   48.92    4.06
  -2 -11   4   44.35    4.21
   1  11  -4    6.95    2.16
   1  11  -4    3.40    2.42
  -1 -11   4    9.54    2.39
   0  11  -4   16.72    2.45
   0  11  -4   16.24    2.85
   0 -11   4   17.68    2.44
  -1  11  -4   55.29    3.30
  -1  11  -4   57.69    4.51
   1 -11   4   53.25    3.58
  -2  11  -4   29.20    2.53
  -2  11  -4   30.88    3.13
   2 -11   4   28.18    3.03
   2 -11   4   26.07    2.50
  -3  11  -4    2.08    1.74
  -3  11  -4    5.00    1.52
   3 -11   4    1.60    2.31
   3 -11   4    4.24    2.04
  -4  11  -4   47.61    4.45
   4 -11   4   56.51    4.42
   4 -11   4   51.85    4.48
  -5  11  -4   37.03    3.56
  -5  11  -4   37.83    3.63
   5 -11   4   38.96    3.58
   5 -11   4   43.47    4.21
  -6  11  -4    2.87    2.49
  -6  11  -4   -1.20    1.82
   6 -11   4   -0.76    2.47
   6 -11   4    0.28    2.33
  -7  11  -4   20.89    2.78
   7 -11   4   25.59    3.26
   7 -11   4   22.11    3.78
   8 -11   4   31.31    4.02
   8 -11   4   20.09    3.86
   9 -11   4   10.62    3.32
   9 -11   4    3.23    3.29
   6  10  -4   23.73    2.46
   5  10  -4   20.71    3.03
   5  10  -4   29.32    3.09
   5  10  -4   24.27    2.26
   4  10  -4   11.70    2.81
   4  10  -4   11.04    1.56
  -4 -10   4   16.37    3.14
   3  10  -4   20.29    2.73
   3  10  -4   19.93    2.38
   3  10  -4   16.20    1.63
  -3 -10   4   12.95    2.74
   2  10  -4   78.54    4.83
   2  10  -4   74.30    4.34
   2  10  -4   76.14    2.86
  -2 -10   4   75.56    4.75
   1  10  -4   41.75    3.29
   1  10  -4   40.96    3.86
  -1 -10   4   42.75    3.52
   0  10  -4   -1.17    0.98
   0 -10   4    1.91    1.52
  -1  10  -4   70.51    3.77
  -1  10  -4   67.80    4.44
   1 -10   4   67.04    3.61
   1 -10   4   64.60    4.01
  -2  10  -4   86.94    4.06
  -2  10  -4   86.50    4.63
   2 -10   4   88.68    4.59
   2 -10   4   90.77    4.05
  -3  10  -4    2.94    2.13
  -3  10  -4    6.85    1.79
   3 -10   4    5.95    2.17
   3 -10   4    5.99    1.32
   3 -10   4    3.91    1.47
  -4  10  -4   38.72    3.55
  -4  10  -4   33.30    3.06
   4 -10   4   32.15    2.99
   4 -10   4   34.12    3.52
  -5  10  -4   85.89    4.71
  -5  10  -4   97.48    5.37
   5 -10   4   81.99    4.92
   5 -10   4   93.18    5.42
  -6  10  -4   22.18    2.59
  -6  10  -4   27.40    3.33
   6 -10   4   20.01    2.79
   6 -10   4   22.29    3.12
  -7  10  -4   -0.32    1.57
   7 -10   4   -0.10    1.87
   7 -10   4    1.91    2.27
   8 -10   4   37.59    4.44
   8 -10   4   34.46    3.98
   9 -10   4   31.87    4.37
   9 -10   4   30.17    4.09
  10 -10   4    1.79    2.15
   7   9  -4    6.02    2.02
   6   9  -4    4.83    2.54
   6   9  -4    2.84    2.32
   6   9  -4    3.89    1.67
   5   9  -4   66.98    4.60
   5   9  -4   75.63    3.61
  -5  -9   4   78.69    5.36
   4   9  -4   41.28    2.44
   4   9  -4   31.19    3.26
   4   9  -4   39.30    3.52
  -4  -9   4   42.30    3.93
   3   9  -4    1.55    1.85
   3   9  -4    0.57    0.87
  -3  -9   4   -0.42    1.85
   2   9  -4   55.88    4.06
   2   9  -4   61.68    2.48
   2   9  -4   59.98    3.60
  -2  -9   4   68.58    4.06
   1   9  -4  111.01    3.53
   1   9  -4   98.99    4.39
   1   9  -4  104.81    5.28
  -1  -9   4  106.96    4.71
   0   9  -4   12.89    0.92
   0   9  -4   12.66    1.80
   0   9  -4   15.63    2.30
   0  -9   4   17.05    1.99
   0  -9   4   15.82    2.03
  -1   9  -4   33.14    3.03
  -1   9  -4   28.68    2.46
   1  -9   4   31.54    2.72
   1  -9   4   27.23    2.22
  -2   9  -4  140.51    5.54
  -2   9  -4  136.81    6.09
   2  -9   4  135.13    6.24
   2  -9   4  137.40    5.31
  -3   9  -4   68.22    4.16
   3  -9   4   69.60    3.12
   3  -9   4   67.48    3.85
   3  -9   4   68.96    4.10
  -4   9  -4   16.70    1.96
  -4   9  -4   19.50    2.54
   4  -9   4   17.74    2.64
   4  -9   4   19.82    2.50
  -5   9  -4   42.99    3.06
  -5   9  -4   42.59    3.64
   5  -9   4   38.84    3.16
   5  -9   4   31.73    2.97
  -6   9  -4   67.42    2.43
  -6   9  -4   61.96    3.90
  -6   9  -4   71.35    3.80
   6  -9   4   63.67    4.72
   6  -9   4   62.62    4.13
  -7   9  -4    1.26    1.38
  -7   9  -4    1.90    0.80
   7  -9   4    0.03    1.35
   7  -9   4    2.58    1.94
   8  -9   4   30.88    4.05
   8  -9   4   28.01    3.60
   9  -9   4   45.56    4.89
   9  -9   4   39.43    3.87
 -10   9  -4   13.30    1.86
  10  -9   4    9.47    3.62
  10  -9   4   13.59    2.72
   8   8  -4    6.67    2.86
   7   8  -4   30.83    3.58
   7   8  -4   35.53    3.15
   6   8  -4   -1.26    1.48
   6   8  -4   -0.25    1.97
   6   8  -4    0.76    2.07
   5   8  -4   30.03    2.42
   5   8  -4   28.57    2.96
   5   8  -4   32.30    2.70
  -5  -8   4   35.40    3.65
   4   8  -4   72.25    4.32
   4   8  -4   72.71    3.15
   4   8  -4   66.13    3.56
  -4  -8   4   73.00    4.60
   3   8  -4   25.53    2.50
   3   8  -4   27.11    2.47
   3   8  -4   25.36    1.74
  -3  -8   4   24.00    2.72
   2   8  -4   21.91    2.24
   2   8  -4   20.53    1.40
  -2  -8   4   26.55    2.18
   1   8  -4   85.53    4.49
   1   8  -4   93.54    3.01
   1   8  -4   85.04    3.90
  -1  -8   4   84.95    4.18
  -1  -8   4   91.75    4.17
   0   8  -4   80.44    2.59
   0   8  -4   76.91    3.53
   0   8  -4   72.96    4.03
   0  -8   4   76.41    3.93
   0  -8   4   73.80    3.54
  -1   8  -4    1.86    0.45
  -1   8  -4    1.71    1.03
  -1   8  -4    1.44    0.85
   1  -8   4    3.02    0.99
   1  -8   4    3.97    1.37
  -2   8  -4  126.39    4.97
  -2   8  -4  135.54    5.67
  -2   8  -4  135.16    3.84
   2  -8   4  133.81    5.80
   2  -8   4  130.31    4.92
  -3   8  -4   85.12    2.57
  -3   8  -4   81.55    3.98
  -3   8  -4   86.11    4.02
   3  -8   4   85.92    4.47
   3  -8   4   80.07    3.98
  -4   8  -4    3.84    1.61
  -4   8  -4    2.56    0.56
  -4   8  -4    5.09    1.39
   4  -8   4    1.70    1.25
   4  -8   4    4.09    1.69
   4  -8   4    2.31    0.71
  -5   8  -4   48.16    3.16
  -5   8  -4   57.26    2.11
  -5   8  -4   52.09    3.04
   5  -8   4   50.27    3.36
   5  -8   4   54.49    3.77
  -6   8  -4   81.93    3.88
  -6   8  -4   83.22    3.09
  -6   8  -4   77.27    4.53
   6  -8   4   80.29    4.87
   6  -8   4   79.65    4.98
  -7   8  -4   22.04    2.19
  -7   8  -4   20.32    1.66
   7  -8   4   20.62    2.61
   7  -8   4   20.14    3.22
  -8   8  -4   11.00    1.51
   8  -8   4   12.71    3.09
   8  -8   4   11.31    2.67
  -9   8  -4   49.65    3.05
   9  -8   4   56.37    5.33
   9  -8   4   48.12    4.09
 -10   8  -4   24.15    2.47
  10  -8   4   18.45    4.13
  10  -8   4   25.73    3.72
 -11   8  -4    1.79    2.05
  11  -8   4    2.37    2.84
   8   7  -4    7.64    2.13
   8   7  -4    6.30    2.20
   7   7  -4   39.65    3.12
   7   7  -4   44.16    3.23
   7   7  -4   32.02    3.18
   6   7  -4   18.69    2.57
   6   7  -4   21.81    2.19
   6   7  -4   20.90    2.66
   5   7  -4    3.20    1.28
   5   7  -4    4.35    1.86
   5   7  -4    3.30    1.73
  -5  -7   4    4.44    2.10
   4   7  -4   57.25    2.67
   4   7  -4   52.69    3.63
   4   7  -4   59.18    3.37
  -4  -7   4   60.77    3.84
   3   7  -4   40.19    2.63
   3   7  -4   37.67    3.01
   3   7  -4   36.15    1.91
  -3  -7   4   35.43    2.82
   2   7  -4    3.01    0.72
   2   7  -4    3.77    1.44
  -2  -7   4    3.78    0.98
  -2  -7   4    1.64    1.30
   1   7  -4   89.40    3.55
   1   7  -4   85.48    4.22
   1   7  -4   93.19    3.00
  -1  -7   4   83.00    4.03
  -1  -7   4   83.54    3.81
   0   7  -4  133.28    4.93
   0   7  -4  127.26    4.05
   0   7  -4  133.74    5.46
   0  -7   4  137.18    5.65
   0  -7   4  132.12    4.50
   0  -7   4  129.65    4.96
  -1   7  -4   18.69    1.78
  -1   7  -4   18.73    1.04
  -1   7  -4   21.95    2.12
   1  -7   4   20.24    1.75
   1  -7   4   22.13    1.53
  -2   7  -4   48.21    2.68
  -2   7  -4   40.45    1.58
  -2   7  -4   47.91    2.38
  -2   7  -4   51.85    1.79
   2  -7   4   53.80    2.33
   2  -7   4   51.24    3.05
  -3   7  -4  143.74    5.52
  -3   7  -4  144.44    5.76
  -3   7  -4  145.01    4.38
   3  -7   4  138.95    6.09
   3  -7   4  139.71    4.98
   3  -7   4  152.31    5.87
  -4   7  -4   40.39    1.62
  -4   7  -4   38.99    2.79
  -4   7  -4   36.58    2.31
   4  -7   4   32.92    2.52
   4  -7   4   34.83    2.91
  -5   7  -4   14.92    2.03
  -5   7  -4   16.24    1.38
  -5   7  -4   16.47    1.65
   5  -7   4   14.19    2.11
   5  -7   4   15.32    2.31
  -6   7  -4   89.21    3.29
  -6   7  -4   87.12    3.78
   6  -7   4   76.69    4.82
   6  -7   4   87.14    4.86
  -7   7  -4   74.39    3.19
   7  -7   4   69.78    4.26
   7  -7   4   73.86    4.94
  -8   7  -4   -2.09    1.07
   8  -7   4    0.73    1.92
   8  -7   4   -0.98    1.74
  -9   7  -4   22.48    2.31
   9  -7   4   23.17    3.37
   9  -7   4   18.76    2.96
 -10   7  -4   39.46    3.34
  10  -7   4   34.07    3.96
  10  -7   4   37.85    4.72
 -11   7  -4    7.90    1.91
  11  -7   4    5.98    2.16
   9   6  -4   20.44    2.41
   9   6  -4   16.60    2.96
   8   6  -4   -0.25    1.72
   8   6  -4   -0.01    1.96
   8   6  -4   -2.63    1.98
   7   6  -4   25.07    2.45
   7   6  -4   29.49    2.84
   7   6  -4   25.98    2.89
   6   6  -4   60.61    3.85
   6   6  -4   58.52    3.13
   6   6  -4   60.08    3.59
  -6  -6   4   56.68    3.07
   5   6  -4    2.25    1.45
   5   6  -4    5.44    1.76
   5   6  -4    4.60    1.20
  -5  -6   4    5.18    0.95
   4   6  -4   26.77    2.57
   4   6  -4   22.37    1.70
   4   6  -4   23.46    2.15
  -4  -6   4   21.92    1.66
  -4  -6   4   21.30    2.08
   3   6  -4   96.99    3.90
   3   6  -4   99.04    4.48
   3   6  -4   94.86    3.35
  -3  -6   4   92.17    3.31
  -3  -6   4   92.27    4.06
   2   6  -4   47.63    2.53
   2   6  -4   51.92    2.05
   2   6  -4   56.14    2.91
  -2  -6   4   53.92    2.04
  -2  -6   4   54.50    2.79
  -2  -6   4   50.63    2.66
   1   6  -4    7.87    0.76
   1   6  -4    7.28    1.23
   1   6  -4    7.27    0.68
   1   6  -4    7.78    1.00
  -1  -6   4    7.86    1.28
  -1  -6   4    7.76    1.15
  -1  -6   4    6.01    0.65
   0   6  -4  150.87    4.58
   0   6  -4  148.60    5.67
   0   6  -4  143.10    5.19
   0  -6   4  154.92    5.10
   0  -6   4  150.89    6.11
   0  -6   4  152.38    4.57
   0  -6   4  151.24    5.35
  -1   6  -4   91.92    2.83
  -1   6  -4   88.40    3.46
  -1   6  -4   89.77    3.93
  -1   6  -4   87.76    2.95
   1  -6   4   93.88    3.40
   1  -6   4   91.35    4.17
   1  -6   4   89.92    2.96
  -2   6  -4    2.48    0.48
  -2   6  -4    3.30    0.61
   2  -6   4    3.34    0.59
   2  -6   4    4.22    1.20
   2  -6   4    3.04    0.59
  -3   6  -4  101.28    3.32
  -3   6  -4  106.55    4.32
  -3   6  -4   99.45    4.02
   3  -6   4   98.17    4.23
   3  -6   4  101.67    3.54
   3  -6   4  104.49    4.74
  -4   6  -4  112.15    4.73
  -4   6  -4  122.45    3.89
  -4   6  -4  116.97    4.42
   4  -6   4  111.54    5.10
   4  -6   4  111.74    3.76
   4  -6   4  112.84    5.03
  -5   6  -4   15.11    1.83
  -5   6  -4   16.26    1.46
  -5   6  -4   14.34    1.24
   5  -6   4   14.88    1.92
   5  -6   4   12.25    1.14
   5  -6   4    9.34    1.83
  -6   6  -4   28.28    1.85
  -6   6  -4   28.84    1.92
   6  -6   4   27.02    2.65
   6  -6   4   32.07    2.94
  -7   6  -4   60.40    2.96
   7  -6   4   55.94    4.39
   7  -6   4   59.68    4.11
  -8   6  -4   24.37    2.25
   8  -6   4   21.59    3.30
   8  -6   4   26.37    2.80
  -9   6  -4    0.58    1.61
   9  -6   4    1.90    1.55
   9  -6   4    0.81    2.79
 -10   6  -4   29.39    3.01
  10  -6   4   26.43    3.51
  10  -6   4   26.76    4.04
 -11   6  -4   15.96    2.87
  11  -6   4   18.75    2.89
  10   5  -4    6.82    1.97
  10   5  -4    4.59    2.53
   9   5  -4   40.60    3.85
   9   5  -4   41.60    4.03
   9   5  -4   44.79    3.16
  -9  -5   4   44.33    3.07
   8   5  -4   24.11    2.75
   8   5  -4   22.53    2.66
   8   5  -4   21.81    2.79
   8   5  -4   25.97    2.59
  -8  -5   4   22.85    2.46
   7   5  -4    5.29    1.76
   7   5  -4    6.00    1.73
   7   5  -4    3.10    1.52
  -7  -5   4    3.20    1.51
   6   5  -4   77.03    4.25
   6   5  -4   76.42    3.77
   6   5  -4   83.49    3.55
  -6  -5   4   76.71    3.47
   5   5  -4   68.64    2.99
   5   5  -4   68.68    3.33
  -5  -5   4   71.45    2.98
   4   5  -4    0.84    0.76
   4   5  -4   -0.36    0.89
   4   5  -4   -0.15    0.67
  -4  -5   4    0.23    0.73
  -4  -5   4   -0.01    0.88
   3   5  -4   77.62    3.21
   3   5  -4   79.72    2.77
   3   5  -4   79.98    3.64
  -3  -5   4   75.88    3.37
  -3  -5   4   78.28    2.74
   2   5  -4  170.96    5.10
   2   5  -4  163.88    5.58
   2   5  -4  164.59    6.14
  -2  -5   4  163.91    6.35
  -2  -5   4  164.50    5.88
  -2  -5   4  164.03    5.06
   1   5  -4   36.63    1.50
   1   5  -4   36.08    2.37
   1   5  -4   36.66    1.89
  -1  -5   4   37.79    1.49
  -1  -5   4   34.85    2.06
  -1  -5   4   38.86    1.93
   0   5  -4   30.59    1.38
   0   5  -4   33.48    1.34
   0   5  -4   30.01    1.73
   0   5  -4   34.98    1.98
   0  -5   4   32.88    1.38
   0  -5   4   31.72    1.59
   0  -5   4   31.44    2.11
  -1   5  -4  154.67    5.32
  -1   5  -4  157.21    5.62
  -1   5  -4  154.57    4.77
  -1   5  -4  150.96    4.64
   1  -5   4  155.54    6.18
   1  -5   4  160.34    5.21
   1  -5   4  157.43    4.77
  -2   5  -4   81.22    3.21
  -2   5  -4   78.06    2.71
  -2   5  -4   83.80    2.74
   2  -5   4   82.52    2.78
   2  -5   4   72.52    3.42
   2  -5   4   77.87    3.76
   2  -5   4   77.33    2.70
  -3   5  -4    6.53    1.02
  -3   5  -4    9.52    0.92
  -3   5  -4    7.07    0.86
  -3   5  -4    7.75    0.97
   3  -5   4    8.25    0.83
   3  -5   4    6.05    0.57
   3  -5   4    6.16    1.12
   3  -5   4    7.67    1.17
  -4   5  -4  120.80    4.05
  -4   5  -4  120.26    4.37
  -4   5  -4  122.71    4.71
   4  -5   4  118.67    5.32
   4  -5   4  115.30    4.89
   4  -5   4  124.28    4.04
  -5   5  -4   58.76    2.81
  -5   5  -4   52.65    2.51
  -5   5  -4   54.43    2.48
   5  -5   4   58.05    3.18
   5  -5   4   62.57    2.50
   5  -5   4   58.52    3.54
  -6   5  -4    0.86    0.99
  -6   5  -4    0.10    0.74
   6  -5   4    0.41    0.90
   6  -5   4    2.97    1.80
   6  -5   4   -0.14    1.36
  -7   5  -4   24.36    2.16
   7  -5   4   24.59    2.93
   7  -5   4   25.09    2.42
   7  -5   4   25.14    2.17
  -8   5  -4   47.14    3.09
   8  -5   4   53.75    4.00
   8  -5   4   43.93    4.06
  -9   5  -4    4.09    1.37
   9  -5   4    3.83    1.45
   9  -5   4    5.65    2.90
 -10   5  -4   11.10    2.01
  10  -5   4   18.94    3.70
  10  -5   4   15.65    2.89
 -11   5  -4   23.30    3.23
 -11  -4   4   16.28    3.02
  10   4  -4    1.90    2.02
  10   4  -4    0.77    2.27
  10   4  -4    3.33    2.19
 -10  -4   4   -3.57    1.97
   9   4  -4   43.90    3.51
   9   4  -4   39.38    2.94
   9   4  -4   48.52    4.38
  -9  -4   4   37.84    2.91
   8   4  -4   74.35    3.89
   8   4  -4   70.58    3.91
   8   4  -4   69.22    4.67
  -8  -4   4   69.63    3.80
   7   4  -4   12.41    2.18
   7   4  -4    9.58    1.63
   7   4  -4   12.07    1.82
  -7  -4   4   10.19    1.63
   6   4  -4   53.58    2.72
   6   4  -4   50.26    2.87
   6   4  -4   53.86    3.29
  -6  -4   4   53.88    2.70
   5   4  -4  173.62    6.64
   5   4  -4  178.39    5.88
   5   4  -4  187.52    6.30
  -5  -4   4  180.76    5.87
   4   4  -4   70.91    3.35
   4   4  -4   76.28    2.75
   4   4  -4   75.51    3.06
  -4  -4   4   74.28    2.72
   3   4  -4   12.60    1.01
   3   4  -4   14.56    1.23
  -3  -4   4   12.28    1.22
  -3  -4   4   12.32    1.02
   2   4  -4  199.48    6.06
   2   4  -4  199.10    6.51
   2   4  -4  203.19    7.20
  -2  -4   4  201.82    7.54
  -2  -4   4  206.57    6.91
  -2  -4   4  202.85    6.05
   1   4  -4  190.96    6.62
   1   4  -4  183.58    6.05
   1   4  -4  189.39    5.58
  -1  -4   4  177.39    7.05
  -1  -4   4  193.29    5.56
  -1  -4   4  184.46    6.25
   0   4  -4    2.20    0.46
   0   4  -4    3.32    0.53
   0   4  -4    2.94    0.98
   0   4  -4    2.77    0.71
   0  -4   4    4.10    1.03
   0  -4   4    2.74    0.56
   0  -4   4    2.75    0.51
  -1   4  -4  157.97    4.75
  -1   4  -4  156.09    5.52
  -1   4  -4  152.09    4.81
   1  -4   4  155.64    6.18
   1  -4   4  156.65    4.82
   1  -4   4  160.23    5.06
  -2   4  -4  223.85    6.77
  -2   4  -4  216.43    6.72
   2  -4   4  225.11    6.98
   2  -4   4  229.75    7.65
   2  -4   4  221.59    8.42
  -3   4  -4   21.96    1.37
  -3   4  -4   24.35    1.29
  -3   4  -4   23.84    1.61
   3  -4   4   20.57    1.97
   3  -4   4   22.73    1.38
   3  -4   4   23.89    1.96
  -4   4  -4   62.15    2.44
  -4   4  -4   63.71    2.77
  -4   4  -4   61.08    2.51
   4  -4   4   59.86    2.12
   4  -4   4   63.99    2.52
   4  -4   4   59.70    3.11
   4  -4   4   60.49    3.28
  -5   4  -4   95.85    3.43
  -5   4  -4   92.99    3.54
   5  -4   4   88.84    4.20
   5  -4   4   95.89    3.53
   5  -4   4   91.99    4.31
  -6   4  -4   32.64    1.90
  -6   4  -4   32.73    1.65
   6  -4   4   32.76    2.14
   6  -4   4   32.87    2.69
   6  -4   4   36.56    3.15
  -7   4  -4    3.33    1.35
   7  -4   4    4.09    1.59
   7  -4   4    2.84    1.30
   7  -4   4    3.51    1.24
  -8   4  -4   59.25    3.41
   8  -4   4   55.93    3.54
   8  -4   4   55.05    3.90
   8  -4   4   55.22    3.03
  -9   4  -4   39.08    3.30
   9  -4   4   36.43    3.60
   9  -4   4   34.79    3.08
   9  -4   4   40.50    4.20
 -10   4  -4    1.89    2.16
  10  -4   4    1.60    3.20
  10  -4   4    0.81    2.01
 -11   4  -4   13.84    2.98
  11   3  -4   32.75    3.14
 -11  -3   4   27.47    3.37
  10   3  -4    7.16    2.22
  10   3  -4   15.37    3.39
  10   3  -4   10.38    2.01
 -10  -3   4    7.21    1.72
   9   3  -4   24.34    3.28
   9   3  -4   13.73    2.19
   9   3  -4   17.27    2.39
  -9  -3   4   24.82    2.58
   8   3  -4  106.42    5.04
   8   3  -4  106.49    4.39
   8   3  -4  114.13    4.75
  -8  -3   4  102.65    4.32
   7   3  -4   58.41    2.83
   7   3  -4   62.22    3.14
   7   3  -4   64.07    3.72
  -7  -3   4   58.59    2.81
   6   3  -4    0.97    0.96
   6   3  -4    0.29    0.91
   6   3  -4    0.25    0.92
  -6  -3   4    1.01    0.95
   5   3  -4  226.29    7.88
   5   3  -4  237.98    7.54
   5   3  -4  218.86    7.08
  -5  -3   4  234.64    7.16
   4   3  -4  201.22    6.90
   4   3  -4  201.80    6.56
   4   3  -4  199.92    6.24
  -4  -3   4  204.99    6.24
   3   3  -4   23.15    1.14
   3   3  -4   22.05    1.29
  -3  -3   4   22.14    1.12
   2   3  -4  129.36    4.04
  -2  -3   4  131.27    4.03
  -2  -3   4  131.71    5.13
   1   3  -4  487.89   14.63
   1   3  -4  487.07   13.75
   1   3  -4  484.48   13.73
  -1  -3   4  517.16   15.89
  -1  -3   4  437.53   16.97
  -1  -3   4  482.67   13.73
   0   3  -4   85.11    3.17
   0   3  -4   89.79    3.48
   0   3  -4   98.61    3.04
   0   3  -4   94.76    3.21
   0   3  -4   96.32    2.98
   0  -3   4   92.34    3.44
   0  -3   4   96.93    3.01
   0  -3   4   87.49    3.87
  -1   3  -4   65.54    2.66
  -1   3  -4   68.19    2.32
  -1   3  -4   62.73    2.36
   1  -3   4   62.72    2.36
   1  -3   4   66.75    3.01
  -2   3  -4  340.94   10.34
   2  -3   4  360.17   12.75
   2  -3   4  346.94   11.39
   2  -3   4  356.88   11.25
   2  -3   4  357.62   10.36
  -3   3  -4  216.64    6.66
  -3   3  -4  223.17    7.09
  -3   3  -4  215.39    6.93
   3  -3   4  209.79    6.70
   3  -3   4  207.38    8.12
   3  -3   4  224.24    6.67
   3  -3   4  209.32    7.42
  -4   3  -4    8.23    0.70
  -4   3  -4   10.29    1.15
   4  -3   4    9.31    1.32
   4  -3   4    6.96    0.66
   4  -3   4    8.99    1.38
   4  -3   4   10.08    1.15
  -5   3  -4   88.51    3.07
  -5   3  -4   86.07    3.46
   5  -3   4   79.50    3.95
   5  -3   4   91.18    4.21
   5  -3   4   93.45    3.50
  -6   3  -4  133.93    4.84
   6  -3   4  119.70    5.65
   6  -3   4  127.04    5.69
   6  -3   4  134.14    4.82
  -7   3  -4   12.33    1.79
   7  -3   4   12.22    1.76
   7  -3   4   13.58    2.06
   7  -3   4   12.78    2.46
  -8   3  -4   26.58    2.30
   8  -3   4   28.57    2.60
   8  -3   4   31.88    3.48
   8  -3   4   28.23    2.98
  -9   3  -4   49.38    3.78
   9  -3   4   50.92    3.75
   9  -3   4   57.13    4.16
   9  -3   4   46.00    3.33
 -10   3  -4   17.84    2.79
  10  -3   4   20.46    3.67
  10  -3   4   15.57    2.77
  11   2  -4   43.67    4.79
  11   2  -4   43.04    3.80
 -11  -2   4   36.31    3.55
  10   2  -4   29.17    3.09
  10   2  -4   36.12    3.93
  10   2  -4   29.67    2.86
 -10  -2   4   31.68    3.08
   9   2  -4    3.01    1.75
   9   2  -4    0.57    1.44
   9   2  -4    2.23    1.34
  -9  -2   4    2.33    1.24
   8   2  -4   66.82    3.43
   8   2  -4   72.66    3.59
   8   2  -4   72.19    4.19
  -8  -2   4   71.31    3.53
   7   2  -4  177.77    6.19
   7   2  -4  189.66    6.37
   7   2  -4  177.44    6.88
  -7  -2   4  179.69    6.19
   6   2  -4    9.49    1.55
   6   2  -4    9.23    1.19
   6   2  -4    9.49    1.09
  -6  -2   4    8.33    1.04
   5   2  -4   44.76    2.48
   5   2  -4   47.46    2.01
   5   2  -4   46.66    1.98
  -5  -2   4   46.77    2.14
   4   2  -4  319.70   10.11
   4   2  -4  325.14    9.67
   4   2  -4  337.49   10.61
  -4  -2   4  333.81    9.67
   3   2  -4  136.32    4.71
   3   2  -4  132.28    4.30
   3   2  -4  142.44    4.47
  -3  -2   4  138.73    4.31
   2   2  -4   36.27    1.39
   2   2  -4   36.57    1.48
   2   2  -4   35.07    1.47
  -2  -2   4   34.13    1.46
  -2  -2   4   33.50    1.99
   1   2  -4  492.45   14.44
   1   2  -4  462.50   15.07
   1   2  -4  487.88   13.67
   1   2  -4  453.83   15.97
  -1  -2   4  459.46   16.89
  -1  -2   4  511.69   15.92
  -1  -2   4  492.16   13.66
   0   2  -4  538.12   15.23
   0   2  -4  549.83   16.62
   0   2  -4  556.33   16.63
   0   2  -4  526.70   15.23
   0  -2   4  504.11   17.90
   0  -2   4  551.74   15.25
   0  -2   4  524.78   18.79
  -1   2  -4   19.59    1.18
  -1   2  -4   16.95    1.23
   1  -2   4   20.31    0.97
   1  -2   4   18.45    1.24
   1  -2   4   18.32    1.66
   1  -2   4   17.60    1.39
  -2   2  -4  323.46    9.65
  -2   2  -4  308.59    9.15
   2  -2   4  306.61   11.16
   2  -2   4  304.92    9.66
   2  -2   4  293.95    9.92
   2  -2   4  304.51    9.15
  -3   2  -4  210.86    6.66
  -3   2  -4  221.25    6.87
   3  -2   4  212.14    6.66
   3  -2   4  212.19    8.03
   3  -2   4  209.84    7.39
   3  -2   4  212.04    6.77
  -4   2  -4   94.57    3.02
  -4   2  -4   95.15    3.43
   4  -2   4   90.15    3.90
   4  -2   4   95.39    4.17
   4  -2   4   87.26    3.37
  -5   2  -4   81.52    3.40
  -5   2  -4   77.75    2.74
   5  -2   4   90.17    3.45
   5  -2   4   81.76    4.07
   5  -2   4   82.51    3.92
  -6   2  -4  135.57    5.05
   6  -2   4  137.46    5.91
   6  -2   4  131.96    5.78
   6  -2   4  132.57    5.01
  -7   2  -4   70.60    3.53
   7  -2   4   68.11    3.54
   7  -2   4   61.43    4.30
   7  -2   4   65.22    3.71
  -8   2  -4   -0.45    1.12
   8  -2   4   -5.09    2.11
   8  -2   4    1.50    1.23
   8  -2   4    0.12    1.39
  -9   2  -4   44.92    3.86
   9  -2   4   51.24    4.85
   9  -2   4   50.26    3.91
 -10   2  -4   31.84    3.53
  10  -2   4   30.19    3.50
  10  -2   4   28.35    4.14
  11  -2   4   -2.88    2.41
  12   1  -4   -1.45    1.68
 -12  -1   4   -0.89    1.68
  11   1  -4   19.38    3.65
  11   1  -4   17.74    2.33
 -11  -1   4   18.98    2.39
  10   1  -4   44.00    3.18
  10   1  -4   47.83    3.67
  10   1  -4   43.77    4.09
 -10  -1   4   47.61    3.56
   9   1  -4   11.43    1.98
   9   1  -4   14.19    2.55
   9   1  -4   10.55    1.69
  -9  -1   4   16.64    2.10
   8   1  -4   46.95    2.43
   8   1  -4   43.58    3.31
   8   1  -4   51.08    2.89
  -8  -1   4   51.74    2.91
   7   1  -4   90.91    3.48
   7   1  -4   85.30    3.54
   7   1  -4   80.34    3.75
  -7  -1   4   88.81    3.57
   6   1  -4   90.30    3.41
   6   1  -4   96.61    3.48
   6   1  -4   95.28    3.98
  -6  -1   4   98.38    3.55
   5   1  -4    7.75    1.16
   5   1  -4    7.01    0.79
   5   1  -4    7.16    0.93
  -5  -1   4    6.85    0.93
   4   1  -4  265.36    8.00
   4   1  -4  273.48    8.73
   4   1  -4  272.34    8.29
  -4  -1   4  268.54    8.00
   3   1  -4  223.63    7.07
   3   1  -4  236.40    7.69
   3   1  -4  238.12    7.34
  -3  -1   4  271.80    7.51
  -3  -1   4  232.83    7.08
   2   1  -4   66.23    2.42
   2   1  -4   63.91    2.16
   2   1  -4   63.47    2.24
  -2  -1   4   63.63    2.17
  -2  -1   4   63.72    2.18
   1   1  -4  199.99    7.05
   1   1  -4  206.35    6.06
  -1  -1   4  202.25    6.27
  -1  -1   4  212.36    7.04
  -1  -1   4  208.04    6.06
  -1  -1   4  197.30    7.61
   0   1  -4  502.15   14.61
   0   1  -4  516.90   17.30
   0  -1   4  507.23   18.00
   0  -1   4  522.36   14.63
  -1   1  -4   68.57    2.40
  -1   1  -4   70.79    2.28
  -1   1  -4   67.62    2.56
   1  -1   4   68.28    2.68
   1  -1   4   62.12    2.99
   1  -1   4   66.98    2.24
   1  -1   4   69.80    2.59
  -2   1  -4    8.24    0.89
  -2   1  -4    7.23    0.67
  -2   1  -4    6.36    0.59
   2  -1   4    8.44    0.89
   2  -1   4    6.08    0.90
   2  -1   4    6.25    1.12
  -3   1  -4  407.68   12.00
   3  -1   4  405.18   13.05
   3  -1   4  398.14   14.41
   3  -1   4  406.26   11.99
  -4   1  -4  114.79    4.18
   4  -1   4  122.83    4.21
   4  -1   4  108.01    4.69
   4  -1   4  112.62    4.67
  -5   1  -4    0.73    0.77
  -5   1  -4    0.28    0.24
   5  -1   4    0.90    1.37
   5  -1   4   -0.05    0.65
   5  -1   4   -0.36    0.78
  -6   1  -4   92.82    3.93
   6  -1   4  101.60    4.56
   6  -1   4   96.19    4.90
   6  -1   4  101.19    4.01
  -7   1  -4  107.92    4.69
   7  -1   4  104.83    4.70
   7  -1   4  104.19    4.90
   7  -1   4  103.86    5.48
  -8   1  -4    4.14    1.98
   8  -1   4    5.59    1.91
   8  -1   4    5.12    1.97
  -9   1  -4   22.19    2.97
   9  -1   4   20.03    2.82
   9  -1   4   25.46    3.66
 -10   1  -4   54.57    4.74
  10  -1   4   46.38    4.92
  10  -1   4   43.46    4.05
  12   0  -4   13.20    3.48
  12   0  -4    6.21    2.56
 -12   0   4    5.20    2.58
  11   0  -4    5.30    2.94
  11   0  -4    5.48    1.75
 -11   0   4    5.85    1.59
  10   0  -4   48.36    3.12
  10   0  -4   52.87    4.25
  10   0  -4   52.50    3.58
 -10   0   4   57.52    3.60
   9   0  -4   34.85    2.10
   9   0  -4   37.76    3.35
   9   0  -4   36.83    2.81
  -9   0   4   31.60    2.30
   8   0  -4    1.23    0.94
   8   0  -4   -0.78    1.44
   8   0  -4    0.14    1.12
  -8   0   4   -0.76    1.11
   7   0  -4   65.02    3.28
   7   0  -4   65.16    2.64
   7   0  -4   61.03    2.65
  -7   0   4   62.28    2.66
   6   0  -4  123.19    4.14
   6   0  -4  122.27    4.20
   6   0  -4  125.80    4.69
  -6   0   4  118.51    4.12
   5   0  -4   14.46    1.18
   5   0  -4   14.07    0.88
   5   0  -4   14.61    1.31
  -5   0   4   14.37    1.20
   4   0  -4   78.62    2.90
   4   0  -4   79.29    2.59
   4   0  -4   76.70    2.74
  -4   0   4   79.13    2.75
   3   0  -4  372.57   11.52
   3   0  -4  373.23   10.74
   3   0  -4  377.77   11.09
  -3   0   4  366.29   10.73
   2   0  -4   87.20    3.19
   2   0  -4   85.60    2.78
  -2   0   4   86.65    2.69
  -2   0   4   86.40    2.78
  -2   0   4   85.94    2.88
   1   0  -4    0.49    0.37
   1   0  -4    0.42    0.42
  -1   0   4    0.11    0.37
   0   0  -4  222.85    6.76
   0   0  -4  221.93    7.99
   0   0   4  221.50    8.29
   0   0   4  226.05    6.77
   0   0   4  231.31    7.08
  -1   0  -4  235.08    7.13
  -1   0  -4  237.11    7.50
  -1   0  -4  231.00    7.06
   1   0   4  241.03    7.10
   1   0   4  233.56    7.51
   1   0   4  232.39    7.21
   1   0   4  219.07    8.58
  -2   0  -4    0.47    0.76
  -2   0  -4    1.27    0.55
   2   0   4    2.03    0.84
   2   0   4    0.62    0.56
   2   0   4    0.25    0.60
  -3   0  -4  115.96    4.00
  -3   0  -4  109.84    4.08
   3   0   4  107.89    3.94
   3   0   4  106.40    4.45
   3   0   4  109.63    4.21
  -4   0  -4  202.28    6.65
  -4   0  -4  213.74    7.10
   4   0   4  190.96    7.16
   4   0   4  200.50    7.70
   4   0   4  203.92    6.65
  -5   0  -4   28.93    1.93
   5   0   4   30.20    2.68
   5   0   4   28.54    2.09
   5   0   4   32.24    2.00
  -6   0  -4   32.14    2.60
   6   0   4   38.29    2.83
   6   0   4   31.54    2.32
   6   0   4   39.95    2.71
  -7   0  -4   72.60    3.97
   7   0   4   77.94    4.03
   7   0   4   69.85    4.16
  -8   0  -4   43.27    3.60
   8   0   4   42.42    3.61
   8   0   4   41.07    3.55
  -9   0  -4   -1.10    1.47
   9   0   4   -0.12    1.62
   9   0   4   -2.57    1.78
 -10   0  -4   29.47    3.79
  10   0   4   30.61    3.27
  10   0   4   35.10    4.53
  13  -1  -4    7.25    2.17
  12  -1  -4   24.48    3.89
  12  -1  -4   21.53    2.58
 -12   1   4   25.40    3.15
  11  -1  -4   -0.41    1.25
  11  -1  -4    2.72    1.91
 -11   1   4    3.75    1.50
  10  -1  -4   20.93    2.51
  10  -1  -4   20.72    2.02
  10  -1  -4   29.91    2.60
 -10   1   4   27.66    2.55
   9  -1  -4   58.75    3.39
   9  -1  -4   55.74    2.85
  -9   1   4   54.95    3.12
   8  -1  -4   26.03    1.79
   8  -1  -4   28.93    2.54
  -8   1   4   26.54    2.11
   7  -1  -4   15.99    1.71
   7  -1  -4   16.30    1.45
  -7   1   4   17.03    1.50
   6  -1  -4  121.73    4.12
   6  -1  -4  120.43    4.56
  -6   1   4  121.89    4.07
   5  -1  -4  167.46    5.17
   5  -1  -4  169.60    5.18
   5  -1  -4  162.78    5.65
  -5   1   4  164.67    5.18
   4  -1  -4    2.50    0.32
   4  -1  -4    2.91    0.53
   4  -1  -4    2.65    0.61
  -4   1   4    3.84    0.65
   3  -1  -4  110.36    3.40
   3  -1  -4  105.69    3.51
   3  -1  -4  110.09    3.99
  -3   1   4  101.55    3.58
  -3   1   4  105.22    3.39
   2  -1  -4  185.31    5.43
   2  -1  -4  188.84    6.41
  -2   1   4  181.10    5.42
  -2   1   4  173.99    5.64
  -2   1   4  180.84    5.43
   1  -1  -4   23.41    1.24
   1  -1  -4   23.65    1.49
  -1   1   4   25.12    0.89
  -1   1   4   20.38    1.24
   0  -1  -4   68.07    2.50
   0  -1  -4   62.86    3.01
   0  -1  -4   72.07    2.37
   0   1   4   69.02    2.51
   0   1   4   72.80    2.50
   0   1   4   69.75    2.41
  -1  -1  -4  228.16    7.57
  -1  -1  -4  229.17    7.04
  -1  -1  -4  228.31    8.41
   1   1   4  227.19    7.37
   1   1   4  227.77    7.25
   1   1   4  234.22    8.51
   1   1   4  227.85    7.01
  -2  -1  -4   47.49    2.19
  -2  -1  -4   46.69    2.21
  -2  -1  -4   46.08    1.67
   2   1   4   47.60    2.26
   2   1   4   51.22    2.26
   2   1   4   50.10    2.48
  -3  -1  -4    6.18    1.10
  -3  -1  -4    5.08    0.91
   3   1   4    4.39    0.93
   3   1   4    6.28    1.04
   3   1   4    5.32    0.88
  -4  -1  -4  117.72    4.52
  -4  -1  -4  111.83    3.73
  -4  -1  -4  116.78    4.27
   4   1   4  106.95    4.50
   4   1   4  106.05    4.59
   4   1   4  108.70    4.21
  -5  -1  -4   53.22    2.82
  -5  -1  -4   53.72    2.69
   5   1   4   58.47    3.47
   5   1   4   52.21    2.78
   5   1   4   51.29    2.67
  -6  -1  -4   -1.30    1.30
   6   1   4    0.64    0.92
   6   1   4    0.02    1.84
   6   1   4   -0.43    1.37
  -7  -1  -4   41.16    2.84
   7   1   4   41.26    3.92
   7   1   4   41.77    2.89
  -8  -1  -4   44.23    3.78
   8   1   4   44.73    3.76
   8   1   4   45.14    3.80
  -9  -1  -4   10.07    2.67
   9   1   4    2.92    2.51
   9   1   4    4.82    2.91
 -10  -1  -4    8.67    3.01
  10   1   4    8.52    3.62
  10   1   4    7.56    3.03
  13  -2  -4    4.57    1.62
  12  -2  -4   31.22    3.98
  12  -2  -4   30.17    3.10
 -12   2   4   38.86    3.05
  11  -2  -4   23.39    2.94
  11  -2  -4   24.50    2.68
 -11   2   4   26.07    2.72
  10  -2  -4   -0.96    2.04
  10  -2  -4   -0.48    1.01
 -10   2   4   -0.31    0.96
   9  -2  -4   41.69    3.32
   9  -2  -4   43.46    2.76
  -9   2   4   43.06    2.39
   8  -2  -4   89.62    3.49
   8  -2  -4   96.35    4.29
  -8   2   4   90.78    3.51
   7  -2  -4   13.09    1.60
   7  -2  -4   15.10    1.35
  -7   2   4   14.93    1.22
   6  -2  -4   50.33    2.08
   6  -2  -4   44.77    2.17
  -6   2   4   44.80    2.04
   5  -2  -4  193.30    6.44
   5  -2  -4  198.08    5.93
  -5   2   4  192.87    5.93
   4  -2  -4   98.13    3.46
   4  -2  -4  105.21    3.29
   4  -2  -4  100.61    3.01
  -4   2   4   99.20    3.28
   3  -2  -4   16.15    0.86
   3  -2  -4   17.99    1.30
   3  -2  -4   16.64    0.98
  -3   2   4   14.90    0.97
  -3   2   4   17.75    1.02
   2  -2  -4  162.03    5.68
   2  -2  -4  156.98    4.71
  -2   2   4  155.59    4.71
  -2   2   4  147.66    4.76
  -2   2   4  156.57    4.72
   1  -2  -4  142.02    5.22
   1  -2  -4  141.84    4.41
  -1   2   4  137.75    4.40
  -1   2   4  142.71    4.92
   0  -2  -4    1.35    0.93
   0  -2  -4    1.84    0.75
   0  -2  -4    2.54    0.40
   0  -2  -4    3.14    0.38
   0   2   4    1.84    0.40
   0   2   4    2.39    0.59
   0   2   4    2.22    0.60
  -1  -2  -4  117.47    4.29
  -1  -2  -4  109.71    4.72
  -1  -2  -4  124.52    4.03
  -1  -2  -4  113.87    3.63
   1   2   4  118.81    3.99
   1   2   4  116.63    4.01
   1   2   4  117.22    3.99
  -2  -2  -4  104.59    4.10
  -2  -2  -4  105.71    3.81
   2   2   4  106.17    3.93
   2   2   4  110.54    4.37
   2   2   4   98.71    3.76
  -3  -2  -4   15.62    1.62
  -3  -2  -4   14.67    1.31
   3   2   4   13.81    1.43
   3   2   4   14.54    1.47
   3   2   4   14.04    1.40
  -4  -2  -4   25.39    1.94
  -4  -2  -4   28.71    2.09
   4   2   4   26.30    1.82
   4   2   4   21.33    1.93
   4   2   4   25.80    1.92
  -5  -2  -4   67.12    3.18
  -5  -2  -4   73.36    3.85
   5   2   4   70.19    3.67
   5   2   4   70.12    3.24
  -6  -2  -4   19.31    2.26
   6   2   4   19.50    2.22
   6   2   4   18.61    2.73
  -7  -2  -4    5.04    1.55
   7   2   4    7.99    2.64
   7   2   4    4.86    1.58
  -8  -2  -4   24.86    3.03
   8   2   4   20.81    3.05
   8   2   4   27.82    3.34
  -9  -2  -4    9.56    2.77
   9   2   4   13.20    3.32
   9   2   4   14.37    3.08
  12  -3  -4   23.34    3.70
  12  -3  -4   20.31    2.57
 -12   3   4   21.11    2.64
  11  -3  -4   45.13    4.15
  11  -3  -4   37.69    2.68
 -11   3   4   43.56    2.81
  10  -3  -4   19.57    2.09
  10  -3  -4   20.37    2.73
 -10   3   4   24.82    2.28
   9  -3  -4   14.82    1.65
   9  -3  -4   16.90    2.31
  -9   3   4   14.55    1.72
   8  -3  -4  125.02    4.41
   8  -3  -4  120.55    4.90
  -8   3   4  124.56    4.46
   7  -3  -4   82.88    3.67
   7  -3  -4   85.51    3.18
  -7   3   4   86.65    3.22
   6  -3  -4    0.67    0.78
   6  -3  -4    0.21    0.62
  -6   3   4    0.59    0.67
   5  -3  -4  137.12    4.65
   5  -3  -4  132.84    4.22
   5  -3  -4  136.54    4.15
  -5   3   4  132.81    4.24
   4  -3  -4  284.23    8.29
   4  -3  -4  272.08    8.73
   4  -3  -4  285.12    8.17
  -4   3   4  275.52    8.17
   3  -3  -4   16.90    0.98
   3  -3  -4   18.76    0.83
   3  -3  -4   16.91    1.22
  -3   3   4   16.66    0.99
  -3   3   4   17.67    0.70
  -3   3   4   17.50    1.00
  -3   3   4   18.41    1.70
  -3   3   4   16.86    0.91
   2  -3  -4  151.83    5.48
   2  -3  -4  144.73    4.55
  -2   3   4  152.33    4.60
  -2   3   4  149.86    5.38
  -2   3   4  147.04    4.53
  -2   3   4  140.80    4.55
   1  -3  -4  333.20    9.97
   1  -3  -4  328.70   11.53
   1  -3  -4  340.18    9.75
  -1   3   4  319.58    9.72
  -1   3   4  337.62   10.87
  -1   3   4  330.84   10.12
   0  -3  -4   74.87    2.77
   0  -3  -4   74.94    2.64
   0  -3  -4   64.73    3.19
   0  -3  -4   70.13    2.48
   0   3   4   76.13    2.80
   0   3   4   77.52    2.52
   0   3   4   79.22    2.96
  -1  -3  -4   17.11    1.58
  -1  -3  -4   15.12    0.81
  -1  -3  -4   16.29    1.36
  -1  -3  -4   18.13    1.80
   1   3   4   14.55    1.05
   1   3   4   15.50    1.16
   1   3   4   15.64    1.36
  -2  -3  -4  127.73    4.89
  -2  -3  -4  120.65    4.25
   2   3   4  125.43    4.50
   2   3   4  119.81    4.26
  -3  -3  -4   75.87    3.68
  -3  -3  -4   76.58    3.27
   3   3   4   75.66    3.25
   3   3   4   80.82    3.51
  -4  -3  -4   -1.30    0.99
  -4  -3  -4   -0.07    1.33
   4   3   4    1.00    1.37
   4   3   4   -1.56    1.07
  -5  -3  -4   61.21    3.30
  -5  -3  -4   59.07    3.71
   5   3   4   56.08    3.27
   5   3   4   50.71    3.70
  -6  -3  -4   45.91    2.88
  -6  -3  -4   46.52    3.79
   6   3   4   45.58    2.91
   6   3   4   42.29    3.27
  -7  -3  -4    3.49    2.01
   7   3   4    4.24    2.13
   7   3   4    3.58    1.87
  -8  -3  -4    6.83    2.45
   8   3   4    8.00    2.64
   8   3   4    7.45    3.05
  -9  -3  -4   12.03    2.93
   9   3   4    6.97    3.22
   9   3   4   17.79    3.47
  13  -4  -4   10.44    3.39
  12  -4  -4    3.56    2.11
 -12   4   4    4.11    2.72
 -12   4   4    7.52    2.29
  11  -4  -4   73.48    4.80
 -11   4   4   69.54    5.12
 -11   4   4   66.63    3.40
  10  -4  -4   55.15    3.96
  10  -4  -4   51.51    2.72
 -10   4   4   53.22    2.79
 -10   4   4   52.33    4.40
   9  -4  -4   -1.43    0.93
   9  -4  -4    1.14    1.14
  -9   4   4   -0.07    1.09
   8  -4  -4   94.93    3.48
   8  -4  -4   99.40    4.31
  -8   4   4   92.94    3.49
   7  -4  -4  188.65    6.70
   7  -4  -4  192.88    5.98
  -7   4   4  185.14    5.98
   6  -4  -4   28.99    1.49
   6  -4  -4   29.76    1.64
  -6   4   4   32.32    1.55
  -6   4   4   24.09    2.22
   5  -4  -4   36.43    1.28
   5  -4  -4   33.96    1.79
   5  -4  -4   35.20    1.51
  -5   4   4   34.43    1.46
  -5   4   4   32.43    2.58
   4  -4  -4  404.07   14.04
   4  -4  -4  418.82   12.15
   4  -4  -4  402.37   12.57
   4  -4  -4  416.22   11.70
  -4   4   4  391.40   13.64
  -4   4   4  409.05   11.70
   3  -4  -4  238.79    7.01
   3  -4  -4  241.23    8.50
   3  -4  -4  234.28    7.36
  -3   4   4  243.56    7.26
  -3   4   4  234.68    8.36
  -3   4   4  243.60    6.99
  -3   4   4  228.71    7.00
   2  -4  -4   20.33    1.42
   2  -4  -4   20.83    0.83
   2  -4  -4   20.23    1.15
   2  -4  -4   19.97    0.76
  -2   4   4   19.65    1.68
  -2   4   4   21.04    1.03
  -2   4   4   17.84    1.06
  -2   4   4   19.80    1.19
   1  -4  -4  197.53    5.98
   1  -4  -4  192.25    5.98
   1  -4  -4  192.57    7.20
  -1   4   4  187.34    5.99
  -1   4   4  203.75    6.04
  -1   4   4  193.38    6.22
   0  -4  -4  233.04    8.34
   0  -4  -4  210.19    8.69
   0  -4  -4  251.97    7.37
   0  -4  -4  249.11    7.52
   0   4   4  252.87    8.22
   0   4   4  241.87    7.37
   0   4   4  242.85    7.75
  -1  -4  -4   18.42    1.45
  -1  -4  -4   15.72    1.61
  -1  -4  -4   19.57    1.85
   1   4   4   18.88    1.22
   1   4   4   17.63    1.43
   1   4   4   16.06    1.41
   1   4   4   19.23    1.63
  -2  -4  -4   79.61    3.83
  -2  -4  -4   77.91    3.23
   2   4   4   80.92    2.78
   2   4   4   85.79    3.31
   2   4   4   83.32    3.35
  -3  -4  -4  122.94    4.55
  -3  -4  -4  116.51    5.05
   3   4   4  119.13    4.55
   3   4   4  130.03    4.93
  -4  -4  -4   40.44    2.85
  -4  -4  -4   42.25    2.65
   4   4   4   41.34    2.74
   4   4   4   43.75    2.99
  -5  -4  -4   12.86    1.70
  -5  -4  -4   12.07    2.33
   5   4   4   12.35    2.32
   5   4   4   14.61    1.73
  -6  -4  -4   46.38    3.58
  -6  -4  -4   51.91    3.59
   6   4   4   58.67    4.57
   6   4   4   40.81    3.99
   6   4   4   53.76    3.63
  -7  -4  -4   20.80    2.81
   7   4   4   21.54    3.41
   7   4   4   27.91    3.14
   7   4   4   22.45    3.71
  -8  -4  -4   -2.43    2.24
   8   4   4    2.65    2.83
   8   4   4    1.02    3.12
   8   4   4   -2.29    2.42
  13  -5  -4   23.59    3.26
 -13   5   4   26.07    3.08
  12  -5  -4   -0.88    2.49
 -12   5   4    1.11    2.33
 -12   5   4    1.41    1.92
  11  -5  -4   50.03    4.23
 -11   5   4   49.19    3.97
 -11   5   4   55.62    3.34
  10  -5  -4   93.43    5.09
 -10   5   4  102.41    5.91
 -10   5   4  103.66    4.24
   9  -5  -4   30.71    2.44
   9  -5  -4   35.82    2.16
  -9   5   4   30.99    2.20
  -9   5   4   37.55    3.65
   8  -5  -4   43.22    2.14
   8  -5  -4   36.35    2.43
  -8   5   4   39.44    3.65
  -8   5   4   47.93    2.24
   7  -5  -4  125.98    4.67
   7  -5  -4  120.19    4.11
  -7   5   4  125.41    4.15
  -7   5   4  117.51    5.46
   6  -5  -4  182.62    5.48
   6  -5  -4  176.90    6.13
  -6   5   4  165.07    7.09
  -6   5   4  179.64    5.49
   5  -5  -4   -0.08    0.44
   5  -5  -4   -0.04    0.61
  -5   5   4   -0.08    0.89
  -5   5   4   -0.20    0.59
   4  -5  -4  249.61    8.95
   4  -5  -4  251.25    7.30
   4  -5  -4  248.19    7.90
  -4   5   4  239.74    8.93
  -4   5   4  239.01    7.29
  -4   5   4  260.60    7.69
   3  -5  -4  299.38    9.14
   3  -5  -4  293.65   10.40
   3  -5  -4  282.34    8.58
  -3   5   4  300.75   10.23
  -3   5   4  299.28    8.52
  -3   5   4  285.53    8.59
   2  -5  -4   43.34    2.42
   2  -5  -4   44.73    1.56
   2  -5  -4   46.67    1.70
   2  -5  -4   43.11    1.83
  -2   5   4   43.99    1.86
  -2   5   4   42.65    1.73
  -2   5   4   42.56    2.51
  -2   5   4   40.67    1.81
   1  -5  -4   65.83    3.19
   1  -5  -4   63.74    2.22
   1  -5  -4   65.07    2.46
  -1   5   4   63.20    2.48
  -1   5   4   69.22    3.12
  -1   5   4   66.11    2.50
  -1   5   4   62.75    2.58
   0  -5  -4  232.46    7.21
   0  -5  -4  219.99    8.73
   0  -5  -4  225.95    8.36
   0   5   4  244.64    7.26
   0   5   4  240.70    8.23
   0   5   4  236.42    7.72
   0   5   4  241.49    7.63
  -1  -5  -4   64.37    3.44
  -1  -5  -4   61.49    3.28
  -1  -5  -4   65.70    2.67
   1   5   4   61.20    3.01
   1   5   4   64.91    2.46
   1   5   4   65.94    3.06
   1   5   4   62.98    2.69
  -2  -5  -4    5.98    1.32
  -2  -5  -4    4.07    0.87
   2   5   4    4.70    0.67
   2   5   4    4.74    1.42
   2   5   4    4.17    0.88
   2   5   4    5.59    1.17
  -3  -5  -4  149.58    5.28
  -3  -5  -4  146.59    6.18
   3   5   4  153.67    5.87
   3   5   4  154.21    6.19
   3   5   4  151.15    5.33
  -4  -5  -4   62.97    4.21
  -4  -5  -4   65.09    3.39
   4   5   4   66.92    3.79
   4   5   4   68.76    4.26
   4   5   4   65.55    3.47
  -5  -5  -4    4.35    2.21
  -5  -5  -4    3.43    1.69
   5   5   4    2.89    1.51
   5   5   4    5.84    1.86
   5   5   4    6.79    1.89
  -6  -5  -4   25.53    2.50
  -6  -5  -4   33.76    3.75
   6   5   4   31.99    3.12
   6   5   4   37.79    3.69
   6   5   4   43.30    4.26
   7   5   4   40.73    3.36
   7   5   4   38.98    4.01
   7   5   4   52.62    5.01
  13  -6  -4   25.59    3.93
 -13   6   4   29.80    3.04
  12  -6  -4   20.21    3.40
 -12   6   4   18.22    3.28
 -12   6   4   20.04    2.46
  11  -6  -4    5.82    1.87
 -11   6   4   10.49    2.88
 -11   6   4   11.09    1.88
  10  -6  -4   83.14    4.28
 -10   6   4   85.37    3.77
 -10   6   4   90.85    5.61
   9  -6  -4   40.27    2.76
  -9   6   4   45.06    4.07
  -9   6   4   41.22    2.37
   8  -6  -4    4.94    1.51
  -8   6   4    1.45    1.98
  -8   6   4    4.38    1.00
   7  -6  -4  115.43    4.59
  -7   6   4  117.79    3.89
  -7   6   4  107.18    5.51
   6  -6  -4  163.62    5.63
   6  -6  -4  160.97    4.92
  -6   6   4  139.90    6.37
  -6   6   4  160.67    4.93
   5  -6  -4   37.56    1.51
   5  -6  -4   34.74    1.81
   5  -6  -4   36.89    2.37
  -5   6   4   36.59    1.53
  -5   6   4   30.38    2.44
   4  -6  -4   50.88    1.94
   4  -6  -4   51.37    2.80
   4  -6  -4   54.79    2.19
  -4   6   4   55.55    2.12
  -4   6   4   46.80    3.13
  -4   6   4   53.66    1.97
   3  -6  -4  233.74    8.73
   3  -6  -4  236.76    7.15
   3  -6  -4  250.67    7.66
  -3   6   4  230.42    7.14
  -3   6   4  243.61    8.71
   2  -6  -4   79.98    2.89
   2  -6  -4   82.88    3.79
   2  -6  -4   85.11    2.99
  -2   6   4   81.19    3.86
  -2   6   4   84.23    2.95
  -2   6   4   83.07    3.14
   1  -6  -4   11.09    1.07
   1  -6  -4   12.43    1.62
   1  -6  -4   10.46    1.57
  -1   6   4   12.57    1.25
  -1   6   4   12.66    1.16
  -1   6   4   12.69    1.76
   0  -6  -4  139.47    5.73
   0  -6  -4  131.28    5.72
   0  -6  -4  138.38    4.53
   0   6   4  130.89    5.40
   0   6   4  131.91    4.54
   0   6   4  140.74    5.04
   0   6   4  138.94    4.90
  -1  -6  -4  194.22    7.64
  -1  -6  -4  195.44    7.90
  -1  -6  -4  194.28    6.29
   1   6   4  201.85    6.36
   1   6   4  195.39    6.99
   1   6   4  189.37    6.53
  -2  -6  -4    1.57    1.00
  -2  -6  -4    1.59    1.63
   2   6   4    0.12    0.72
   2   6   4    1.41    1.04
   2   6   4    0.67    1.31
  -3  -6  -4   25.66    2.23
  -3  -6  -4   29.79    3.03
   3   6   4   30.19    2.63
   3   6   4   27.88    2.79
   3   6   4   26.53    2.35
  -4  -6  -4  103.14    5.21
   4   6   4   94.01    4.95
   4   6   4   97.41    5.45
   4   6   4  109.75    4.63
  -5  -6  -4   26.29    3.50
   5   6   4   21.88    2.86
   5   6   4   24.50    3.53
   5   6   4   28.12    2.73
  -6  -6  -4   11.81    3.23
   6   6   4   12.01    2.59
   6   6   4   12.53    2.81
   6   6   4    7.77    2.65
   7   6   4   31.63    3.52
   7   6   4   34.12    4.51
  13  -7  -4    8.55    3.37
 -13   7   4   21.16    2.59
 -13   7   4   19.78    3.80
  12  -7  -4   21.99    3.39
 -12   7   4   33.89    2.93
  11  -7  -4   -0.94    2.12
 -11   7   4   -0.12    2.58
 -11   7   4   -1.81    1.33
  10  -7  -4   22.17    2.74
 -10   7   4   18.13    1.85
 -10   7   4   18.70    3.21
   9  -7  -4   65.98    3.85
  -9   7   4   56.95    4.78
  -9   7   4   68.19    2.92
   8  -7  -4   24.63    2.30
  -8   7   4   25.36    1.66
  -8   7   4   23.28    2.80
   7  -7  -4   21.19    1.91
  -7   7   4   23.74    2.62
  -7   7   4   18.60    1.33
   6  -7  -4  140.64    5.75
   6  -7  -4  132.84    5.01
  -6   7   4  135.45    6.17
  -6   7   4  133.35    4.30
   5  -7  -4   94.26    4.33
   5  -7  -4   92.75    3.63
  -5   7   4   95.92    3.46
  -5   7   4  100.24    4.83
  -5   7   4   92.71    3.13
   4  -7  -4    0.20    1.10
   4  -7  -4    0.08    0.77
  -4   7   4    1.87    1.47
  -4   7   4    0.65    0.59
  -4   7   4    0.06    0.63
   3  -7  -4  115.31    4.84
   3  -7  -4  117.91    4.14
  -3   7   4  111.00    5.13
  -3   7   4  117.86    3.75
   2  -7  -4  152.21    6.25
  -2   7   4  157.05    6.38
  -2   7   4  163.28    4.95
  -2   7   4  158.93    5.51
   1  -7  -4   15.79    1.95
   1  -7  -4   14.31    2.10
  -1   7   4   17.48    1.64
  -1   7   4   16.93    1.38
  -1   7   4   16.00    1.43
  -1   7   4   13.39    1.95
   0  -7  -4   72.35    3.97
   0  -7  -4   84.30    4.25
   0   7   4   77.26    3.61
   0   7   4   82.40    3.09
   0   7   4   80.59    3.37
   0   7   4   86.12    4.18
  -1  -7  -4  105.32    5.12
  -1  -7  -4   94.69    4.73
   1   7   4  101.03    3.80
   1   7   4   97.41    4.43
   1   7   4   95.85    3.90
  -2  -7  -4   47.90    3.89
   2   7   4   46.88    3.03
   2   7   4   48.08    2.69
  -3  -7  -4    7.46    1.97
   3   7   4    2.85    1.39
   3   7   4    4.62    2.19
  -4  -7  -4   53.68    4.67
   4   7   4   57.04    3.95
   4   7   4   50.73    3.44
  -5  -7  -4   38.15    4.31
   5   7   4   41.49    3.51
   5   7   4   33.97    4.04
  -6  -7  -4   -2.79    2.95
   6   7   4    3.60    3.22
   6   7   4   -2.80    2.09
  13  -8  -4    0.95    2.80
 -13   8   4    2.14    1.89
  12  -8  -4   21.48    3.18
 -12   8   4   22.19    2.27
 -12   8   4   24.50    3.55
  11  -8  -4   11.97    2.62
 -11   8   4   16.36    3.26
 -11   8   4   12.88    1.77
  10  -8  -4    1.62    1.41
 -10   8   4    1.33    1.16
 -10   8   4    1.66    1.74
   9  -8  -4   41.50    3.27
  -9   8   4   38.00    4.08
  -9   8   4   40.18    2.17
   8  -8  -4   68.27    3.70
  -8   8   4   70.61    4.42
  -8   8   4   68.84    2.79
   7  -8  -4    6.58    1.78
   7  -8  -4    8.58    1.48
  -7   8   4    5.68    0.78
  -7   8   4    5.86    2.24
   6  -8  -4   47.44    2.65
   6  -8  -4   42.57    3.05
  -6   8   4   45.94    3.28
  -6   8   4   42.38    1.84
   5  -8  -4   84.09    3.55
   5  -8  -4   82.65    3.95
  -5   8   4   76.24    4.28
  -5   8   4   81.22    2.80
  -5   8   4   89.04    3.35
   4  -8  -4   47.53    2.45
   4  -8  -4   51.32    3.14
  -4   8   4   49.03    3.57
  -4   8   4   50.51    1.83
  -4   8   4   50.31    2.42
   3  -8  -4   18.90    1.42
   3  -8  -4   19.03    1.89
  -3   8   4   18.33    1.02
  -3   8   4   23.12    2.69
  -3   8   4   18.04    1.68
   2  -8  -4  148.06    6.01
   2  -8  -4  133.15    6.12
  -2   8   4  135.31    4.33
  -2   8   4  143.94    5.17
  -2   8   4  129.40    5.82
   1  -8  -4   53.39    3.48
   1  -8  -4   61.11    3.67
  -1   8   4   58.95    3.02
  -1   8   4   55.05    3.03
  -1   8   4   59.15    2.38
  -1   8   4   61.81    3.83
   0  -8  -4   -0.60    1.84
   0  -8  -4    1.78    1.69
   0   8   4   -1.38    1.19
   0   8   4    0.18    1.58
   0   8   4   -0.79    0.73
   0   8   4    0.33    1.07
  -1  -8  -4   42.21    3.32
  -1  -8  -4   50.90    3.70
   1   8   4   40.46    2.36
   1   8   4   39.39    2.72
   1   8   4   40.33    2.35
  -2  -8  -4   46.25    4.26
   2   8   4   40.08    3.62
   2   8   4   49.70    2.78
  -3  -8  -4    5.66    2.71
   3   8   4    2.61    1.57
   3   8   4    2.66    1.79
  -4  -8  -4   11.56    3.26
   4   8   4   15.26    3.30
   4   8   4   14.90    2.30
  -5  -8  -4   34.56    4.37
   5   8   4   34.13    3.31
   5   8   4   37.53    4.51
 -12   9   4    5.93    2.99
  11  -9  -4   26.08    3.17
 -11   9   4   37.32    4.37
 -11   9   4   32.75    2.36
  10  -9  -4    8.89    2.27
 -10   9   4   12.69    3.33
 -10   9   4   10.01    1.30
   9  -9  -4    5.42    1.86
  -9   9   4    4.35    2.05
  -9   9   4    4.18    1.05
   8  -9  -4   61.36    4.18
  -8   9   4   69.94    4.41
  -8   9   4   52.52    2.31
   7  -9  -4   40.94    2.73
   7  -9  -4   42.65    3.46
  -7   9   4   43.34    4.10
   6  -9  -4   -0.84    0.90
   6  -9  -4    1.86    1.20
   5  -9  -4   41.00    3.11
  -5   9   4   40.05    3.27
  -5   9   4   41.15    2.36
   4  -9  -4   87.61    4.39
  -4   9   4   99.15    3.93
  -4   9   4   97.90    5.29
   3  -9  -4   11.72    2.37
   3  -9  -4   10.04    1.91
  -3   9   4   12.94    2.10
  -3   9   4   10.40    1.56
   2  -9  -4   38.37    3.64
   2  -9  -4   36.36    3.06
  -2   9   4   36.50    1.54
  -2   9   4   36.67    2.55
  -2   9   4   39.50    3.59
   1  -9  -4   48.00    3.56
   1  -9  -4   47.39    3.54
  -1   9   4   50.57    3.08
  -1   9   4   52.97    2.13
  -1   9   4   54.68    3.20
  -1   9   4   60.38    4.11
   0  -9  -4   12.44    2.73
   0  -9  -4   17.84    2.57
   0   9   4   15.09    1.77
   0   9   4   15.75    1.90
   0   9   4   17.80    1.50
  -1  -9  -4    3.34    2.39
   1   9   4    4.90    1.19
   1   9   4    7.39    2.01
  -2  -9  -4   47.85    4.49
   2   9   4   36.48    2.63
   2   9   4   40.81    3.27
  -3  -9  -4   21.54    3.72
   3   9   4   19.73    2.25
   3   9   4   18.70    3.27
  -4  -9  -4   -0.31    3.06
   4   9   4   -0.54    1.91
   4   9   4   -0.34    1.78
 -12  10   4    0.15    3.29
 -11  10   4   37.24    4.53
  10 -10  -4   31.86    3.86
 -10  10   4   25.43    4.02
   9 -10  -4    2.30    1.76
  -9  10   4   -3.60    2.58
   8 -10  -4   19.27    2.88
   7 -10  -4   48.65    3.93
  -7  10   4   48.11    4.08
   6 -10  -4   23.07    2.77
  -6  10   4   31.62    3.80
   5 -10  -4    8.14    2.04
  -5  10   4   11.44    1.65
  -5  10   4    9.19    2.76
   4 -10  -4   82.63    4.47
  -4  10   4   79.55    3.72
  -4  10   4   69.89    4.52
   3 -10  -4   37.45    3.35
   3 -10  -4   48.55    3.52
  -3  10   4   47.18    2.94
  -3  10   4   43.34    4.17
   2 -10  -4    0.41    2.19
   2 -10  -4   -1.70    1.60
  -2  10   4    1.18    2.30
   1 -10  -4   37.27    3.80
   1 -10  -4   32.19    3.28
  -1  10   4   32.71    3.60
  -1  10   4   27.58    2.50
   0 -10  -4   34.73    4.02
   0 -10  -4   41.21    3.77
   0  10   4   42.78    2.06
   0  10   4   39.23    2.99
  -1 -10  -4    2.55    2.91
   1  10   4    5.25    1.44
   1  10   4    2.96    2.19
  -2 -10  -4   21.67    3.77
   2  10   4   16.10    2.10
   2  10   4   21.16    3.29
  -3 -10  -4   27.30    4.33
   3  10   4   21.66    3.69
   3  10   4   28.18    2.61
  11 -11  -4   12.78    3.54
  10 -11  -4   37.12    4.27
   9 -11  -4    9.28    2.24
  -9  11   4   10.08    3.54
  -8  11   4    7.55    3.06
   7 -11  -4   54.06    4.19
  -7  11   4   42.58    4.88
   6 -11  -4   60.87    4.28
  -6  11   4   59.30    4.55
   5 -11  -4    1.35    1.37
  -5  11   4    1.86    1.37
  -5  11   4    1.36    1.80
   4 -11  -4   39.91    4.08
   4 -11  -4   36.05    3.50
  -4  11   4   41.96    3.01
  -4  11   4   34.58    4.07
   3 -11  -4   59.77    4.13
   3 -11  -4   51.32    4.10
  -3  11   4   59.04    3.59
  -3  11   4   57.89    4.94
   2 -11  -4   12.06    2.49
   2 -11  -4   14.74    3.07
  -2  11   4   16.84    3.28
  -2  11   4   17.66    2.43
   1 -11  -4   19.51    3.55
  -1  11   4   12.80    2.42
   0 -11  -4   58.81    5.13
   0  11   4   40.75    3.44
  -1 -11  -4   23.11    3.44
   1  11   4   17.27    3.10
   2  11   4   -0.03    2.71
  10 -12  -4   23.26    3.23
 -10  12   4   30.62    4.05
   9 -12  -4   26.81    3.79
  -9  12   4   18.30    4.19
   8 -12  -4    8.22    2.64
  -8  12   4    1.13    3.38
   7 -12  -4   27.29    3.43
  -7  12   4   29.95    3.88
   6 -12  -4   60.21    4.60
  -6  12   4   73.69    6.13
   5 -12  -4   13.18    2.63
   5 -12  -4   17.22    3.43
  -5  12   4   20.51    3.87
   4 -12  -4    3.84    2.83
   4 -12  -4    4.22    2.10
  -4  12   4    1.49    1.75
  -4  12   4    5.07    3.06
   3 -12  -4   57.53    4.58
  -3  12   4   47.95    4.47
   2 -12  -4   33.93    4.34
  -2  12   4   33.52    3.19
  -2  12   4   28.43    4.12
   1 -12  -4   -4.62    2.71
   0 -12  -4   18.58    4.03
   0  12   4   21.78    2.78
   8 -13  -4    9.58    2.96
  -8  13   4   13.52    3.55
   7 -13  -4    1.97    1.84
   7 -13  -4   -0.68    2.90
  -7  13   4   -2.54    3.24
   6 -13  -4   28.85    3.50
   6 -13  -4   23.53    4.08
  -6  13   4   39.06    4.98
   5 -13  -4   24.26    4.04
  -5  13   4   24.61    4.36
   4 -13  -4   -2.17    1.99
  -4  13   4   -1.30    3.15
   3 -13  -4   15.92    4.04
  -3  13   4   19.81    3.30
  -3  13   4   17.71    2.71
   2 -13  -4   40.10    4.99
  -2  13   4   28.81    3.34
  -1  13   4    4.15    2.66
   2 -14   5   29.24    4.25
   3 -14   5   -0.35    3.18
   5 -14   5   17.58    3.87
  -2 -13   5    8.66    3.01
   1  13  -5   26.80    4.10
   0  13  -5   14.02    3.45
   0  13  -5   11.34    2.86
  -1  13  -5    7.86    2.60
  -1  13  -5   -0.73    2.98
  -2  13  -5   42.27    3.52
  -2  13  -5   42.25    4.24
   2 -13   5   41.58    4.44
  -3  13  -5   13.63    3.73
   3 -13   5   20.55    3.10
  -4  13  -5    1.92    2.98
   4 -13   5    0.01    2.35
   4 -13   5   -2.19    2.63
  -5  13  -5   18.95    3.98
   5 -13   5   18.40    3.92
   5 -13   5   21.90    3.15
  -6  13  -5   36.52    4.68
   6 -13   5   28.43    3.68
   6 -13   5   34.80    4.68
   7 -13   5   -0.32    2.86
  -3 -12   5   12.28    3.24
   2  12  -5   -1.06    2.38
   2  12  -5   -0.83    2.71
  -2 -12   5    1.89    2.52
   1  12  -5   35.89    4.06
   1  12  -5   35.15    3.19
  -1 -12   5   32.65    3.40
   0  12  -5   37.00    3.17
   0  12  -5   37.68    4.17
   0 -12   5   39.64    3.72
  -1  12  -5    5.52    2.21
  -1  12  -5    2.89    2.08
  -2  12  -5    9.87    3.13
  -2  12  -5   13.66    2.64
   2 -12   5   11.32    3.00
  -3  12  -5   42.03    4.46
   3 -12   5   40.47    4.23
   3 -12   5   44.43    4.43
  -4  12  -5    9.61    3.14
   4 -12   5    9.66    2.87
   4 -12   5   15.10    3.37
  -5  12  -5    2.33    2.06
   5 -12   5    4.45    2.48
   5 -12   5    3.88    2.87
  -6  12  -5   28.17    3.95
   6 -12   5   31.55    3.64
   6 -12   5   28.04    4.13
   7 -12   5   21.34    3.22
   7 -12   5   27.27    4.24
   8 -12   5    1.26    2.10
   5  11  -5   -0.64    2.51
   4  11  -5    3.83    2.62
   4  11  -5    4.75    2.55
  -4 -11   5    2.62    2.76
   3  11  -5   52.87    4.08
   3  11  -5   49.75    3.67
  -3 -11   5   52.26    4.68
   2  11  -5   18.91    2.79
   2  11  -5   14.36    3.10
  -2 -11   5   13.00    2.71
   1  11  -5    3.85    2.02
  -1 -11   5    7.30    2.12
   0  11  -5   32.06    3.41
   0  11  -5   35.50    3.19
   0 -11   5   41.08    3.31
  -1  11  -5   37.24    3.76
  -1  11  -5   28.38    2.62
   1 -11   5   29.48    2.86
   1 -11   5   32.46    2.81
  -2  11  -5    2.13    1.80
  -2  11  -5    1.79    2.15
   2 -11   5   -0.74    1.90
  -3  11  -5   28.62    3.52
   3 -11   5   26.46    2.95
   3 -11   5   29.97    3.17
  -4  11  -5   32.38    3.85
   4 -11   5   36.92    3.81
   4 -11   5   38.14    3.87
  -5  11  -5    4.75    2.58
   5 -11   5    2.70    2.48
   5 -11   5    8.17    2.64
  -6  11  -5   24.54    3.53
   6 -11   5   21.07    3.61
   6 -11   5   23.07    3.49
   7 -11   5   21.27    3.14
   7 -11   5   25.30    3.92
   8 -11   5    9.85    3.56
   8 -11   5   18.99    3.46
   9 -11   5    3.24    3.05
   6  10  -5   13.60    3.03
   6  10  -5   15.01    2.17
   5  10  -5   20.81    2.74
   4  10  -5   -0.14    2.36
   4  10  -5    1.06    1.17
   4  10  -5   -0.02    2.23
  -4 -10   5   -0.40    1.73
   3  10  -5   30.77    2.81
   3  10  -5   28.46    1.98
   3  10  -5   34.37    3.58
  -3 -10   5   31.21    3.36
   2  10  -5   59.03    2.53
   2  10  -5   52.00    4.39
   2  10  -5   52.86    3.73
  -2 -10   5   58.27    4.08
   1  10  -5    4.08    2.22
   1  10  -5    3.17    1.73
  -1 -10   5    4.52    1.84
   0  10  -5   25.04    2.25
   0  10  -5   30.59    3.36
   0 -10   5   24.89    2.40
   0 -10   5   28.61    2.87
  -1  10  -5   63.76    3.72
  -1  10  -5   56.46    3.92
   1 -10   5   65.82    4.26
   1 -10   5   62.77    3.35
  -2  10  -5   26.53    2.67
  -2  10  -5   26.49    3.15
   2 -10   5   23.86    2.58
  -3  10  -5   15.05    2.68
   3 -10   5   17.90    2.37
   3 -10   5   17.01    2.33
  -4  10  -5   80.18    4.83
   4 -10   5   68.97    4.74
   4 -10   5   70.92    4.41
  -5  10  -5   32.63    3.58
   5 -10   5   30.36    3.55
   5 -10   5   31.42    3.15
  -6  10  -5    1.69    1.58
  -6  10  -5    1.82    2.31
   6 -10   5    0.25    2.18
   6 -10   5    1.98    2.52
   7 -10   5   44.18    4.62
   7 -10   5   38.95    4.33
   8 -10   5   34.62    4.41
   8 -10   5   32.03    3.69
   9 -10   5   -0.72    2.79
   9 -10   5    0.06    3.25
   7   9  -5    0.01    1.79
   7   9  -5    0.75    1.79
   6   9  -5   20.31    3.23
   6   9  -5   23.53    2.39
   6   9  -5   25.39    3.25
   5   9  -5   49.12    2.94
   5   9  -5   50.92    4.07
   5   9  -5   43.51    4.18
   4   9  -5   14.55    1.62
   4   9  -5    9.27    2.48
  -4  -9   5   10.39    2.10
   3   9  -5   23.25    3.06
   3   9  -5   25.25    2.37
   3   9  -5   21.41    1.79
  -3  -9   5   26.99    2.61
   2   9  -5   90.16    3.27
   2   9  -5   83.06    5.04
   2   9  -5   89.28    4.37
  -2  -9   5   90.65    4.61
   1   9  -5   36.96    1.80
   1   9  -5   36.89    2.46
   1   9  -5   41.74    3.73
  -1  -9   5   31.65    2.85
  -1  -9   5   39.78    2.89
   0   9  -5    7.04    2.12
   0   9  -5    4.55    1.22
   0   9  -5    4.45    0.70
   0  -9   5    5.17    1.40
   0  -9   5    4.34    1.71
  -1   9  -5   98.85    4.37
  -1   9  -5  105.58    3.31
   1  -9   5  117.95    5.50
   1  -9   5  102.69    4.34
  -2   9  -5   94.52    4.75
  -2   9  -5  107.60    4.59
   2  -9   5   99.22    4.99
  -3   9  -5    2.97    1.89
   3  -9   5    4.41    1.74
   3  -9   5    3.81    1.45
  -4   9  -5   29.39    2.73
   4  -9   5   30.75    3.32
   4  -9   5   29.65    2.77
  -5   9  -5   92.63    4.40
  -5   9  -5   92.86    5.07
   5  -9   5   83.09    5.32
   5  -9   5   90.57    5.30
  -6   9  -5   36.48    3.47
  -6   9  -5   33.60    1.74
  -6   9  -5   31.26    2.73
   6  -9   5   35.56    3.66
   6  -9   5   35.93    3.47
  -7   9  -5    9.08    1.35
   7  -9   5    8.31    2.61
   7  -9   5   12.46    3.15
  -8   9  -5   61.63    3.14
   8  -9   5   56.16    5.39
   8  -9   5   50.26    4.94
   9  -9   5   15.71    3.86
   9  -9   5   22.33    3.64
 -10   9  -5    0.40    1.61
  10  -9   5   -0.67    2.62
   8   8  -5   22.84    2.80
   8   8  -5   19.01    3.08
   7   8  -5    9.49    2.11
   7   8  -5    6.26    2.52
   7   8  -5    8.88    2.50
   6   8  -5   15.66    2.73
   6   8  -5   16.06    2.07
   6   8  -5   21.16    2.39
   5   8  -5   76.21    4.79
   5   8  -5   76.69    3.55
   5   8  -5   73.79    4.29
   4   8  -5   47.38    2.49
   4   8  -5   40.82    3.22
   4   8  -5   42.46    3.20
  -4  -8   5   43.90    3.15
   3   8  -5    0.25    0.81
   3   8  -5   -1.07    0.92
   3   8  -5    0.37    1.25
  -3  -8   5    0.81    1.19
   2   8  -5   95.72    3.36
   2   8  -5   89.14    4.55
   2   8  -5   89.21    3.95
  -2  -8   5   92.09    4.53
  -2  -8   5  102.70    4.50
   1   8  -5  125.23    4.03
   1   8  -5  119.46    4.77
   1   8  -5  128.65    5.72
  -1  -8   5  126.66    5.07
  -1  -8   5  119.44    5.60
   0   8  -5    6.51    1.89
   0   8  -5    7.98    0.88
   0   8  -5    8.57    1.26
   0  -8   5    7.70    1.75
   0  -8   5   10.35    1.41
  -1   8  -5   57.85    3.13
  -1   8  -5   60.81    2.23
  -1   8  -5   65.62    3.72
   1  -8   5   62.48    2.78
   1  -8   5   54.66    3.34
  -2   8  -5  127.57    3.97
  -2   8  -5  123.38    4.89
  -2   8  -5  123.54    5.35
   2  -8   5  131.48    5.96
   2  -8   5  126.03    4.62
  -3   8  -5   45.19    3.24
  -3   8  -5   44.29    1.74
   3  -8   5   36.04    2.86
   3  -8   5   45.93    3.23
  -4   8  -5    2.01    1.62
  -4   8  -5    1.94    0.74
   4  -8   5    0.44    1.82
   4  -8   5    2.66    1.62
  -5   8  -5   88.61    3.18
  -5   8  -5   84.03    4.60
  -5   8  -5   83.27    3.94
   5  -8   5   80.30    4.93
   5  -8   5   85.99    4.91
  -6   8  -5   80.27    4.51
  -6   8  -5   79.04    3.72
   6  -8   5   71.67    4.46
   6  -8   5   80.51    4.56
  -7   8  -5   -1.45    1.26
   7  -8   5    0.60    2.08
   7  -8   5    0.67    2.43
  -8   8  -5   42.81    2.75
   8  -8   5   39.72    4.17
   8  -8   5   46.70    4.55
  -9   8  -5   47.40    3.19
   9  -8   5   36.44    4.55
   9  -8   5   44.00    4.51
 -10   8  -5    7.27    2.03
  10  -8   5    8.92    3.08
  10  -8   5    0.68    3.39
   9   7  -5    3.37    2.48
   8   7  -5   31.83    2.97
   8   7  -5   32.76    3.42
   8   7  -5   27.50    3.24
   7   7  -5   32.17    3.12
   7   7  -5   35.29    3.48
   7   7  -5   34.30    2.83
   6   7  -5   -2.41    1.29
   6   7  -5    1.78    2.07
   6   7  -5   -1.03    1.64
   5   7  -5   46.90    3.78
   5   7  -5   44.88    2.65
   5   7  -5   47.49    3.23
   4   7  -5   79.54    4.50
   4   7  -5   79.11    3.58
   4   7  -5   74.62    3.21
  -4  -7   5   79.74    4.25
   3   7  -5   12.20    1.23
   3   7  -5   10.70    2.12
  -3  -7   5    9.98    1.83
   2   7  -5   43.56    3.19
   2   7  -5   36.18    2.41
   2   7  -5   39.40    1.85
  -2  -7   5   40.01    2.58
  -2  -7   5   40.11    2.60
   1   7  -5  188.04    6.69
   1   7  -5  197.15    5.89
   1   7  -5  184.74    7.40
  -1  -7   5  187.80    7.74
  -1  -7   5  197.81    6.90
   0   7  -5   37.60    2.53
   0   7  -5   38.08    1.66
   0   7  -5   41.10    2.36
   0  -7   5   41.23    2.84
   0  -7   5   38.86    2.08
  -1   7  -5   15.75    1.07
  -1   7  -5   16.42    1.70
  -1   7  -5   17.13    2.00
   1  -7   5   15.51    1.26
   1  -7   5   20.00    2.12
  -2   7  -5  110.35    3.56
   2  -7   5  102.14    3.78
   2  -7   5  106.01    4.91
  -3   7  -5   82.85    2.91
  -3   7  -5   77.91    3.70
   3  -7   5   79.79    4.29
   3  -7   5   74.88    3.99
  -4   7  -5    0.91    0.98
  -4   7  -5    1.39    0.99
  -4   7  -5    0.81    0.80
   4  -7   5    1.94    1.50
   4  -7   5   -0.05    1.50
  -5   7  -5   72.53    2.93
  -5   7  -5   75.88    3.37
  -5   7  -5   74.86    3.97
   5  -7   5   75.80    4.40
   5  -7   5   68.20    4.03
  -6   7  -5  113.93    4.04
  -6   7  -5  101.60    4.21
   6  -7   5   95.59    5.23
   6  -7   5  105.80    5.63
  -7   7  -5   24.07    2.15
   7  -7   5   21.49    2.84
   7  -7   5   26.70    3.21
  -8   7  -5   14.12    1.89
   8  -7   5   10.82    3.14
   8  -7   5   15.29    2.46
  -9   7  -5   46.16    3.38
   9  -7   5   49.35    4.90
   9  -7   5   45.34    3.98
 -10   7  -5   22.53    2.75
  10  -7   5   22.45    3.22
  10  -7   5   25.41    3.53
   9   6  -5    1.74    1.63
   9   6  -5    4.54    2.27
   8   6  -5   15.66    2.64
   8   6  -5   21.08    2.33
   8   6  -5   18.53    2.43
   7   6  -5   32.89    2.84
   7   6  -5   33.35    3.10
   7   6  -5   27.72    3.09
   6   6  -5   17.64    2.68
   6   6  -5   19.14    1.91
   6   6  -5   13.64    1.79
  -6  -6   5   14.21    1.70
   5   6  -5   17.16    2.51
   5   6  -5   16.22    1.61
   5   6  -5   19.86    2.03
  -5  -6   5   15.83    1.58
   4   6  -5   71.58    3.15
   4   6  -5   66.37    4.08
   4   6  -5   68.89    2.76
  -4  -6   5   72.25    2.77
   3   6  -5   72.04    3.19
   3   6  -5   65.21    2.56
   3   6  -5   68.97    3.90
  -3  -6   5   72.18    3.45
  -3  -6   5   67.12    2.56
   2   6  -5    5.02    1.11
   2   6  -5    5.11    1.26
   2   6  -5    6.00    0.80
  -2  -6   5    6.41    1.27
  -2  -6   5    4.98    0.74
  -2  -6   5    4.27    1.16
   1   6  -5  147.34    5.28
   1   6  -5  154.77    4.76
   1   6  -5  146.21    5.98
  -1  -6   5  152.93    4.73
  -1  -6   5  149.02    5.44
  -1  -6   5  157.61    6.34
   0   6  -5  127.51    4.04
   0   6  -5  116.45    4.96
   0   6  -5  125.78    4.63
   0  -6   5  130.27    4.04
   0  -6   5  125.63    4.40
   0  -6   5  128.95    5.51
   0  -6   5  127.21    4.51
  -1   6  -5    0.96    0.90
  -1   6  -5    0.89    0.55
  -1   6  -5    1.66    1.14
  -1   6  -5    0.56    0.43
   1  -6   5    1.51    0.55
   1  -6   5    0.95    0.60
   1  -6   5    2.36    1.19
  -2   6  -5   64.22    3.25
  -2   6  -5   66.87    2.50
  -2   6  -5   69.48    2.39
   2  -6   5   65.48    3.44
   2  -6   5   62.05    3.10
   2  -6   5   66.91    2.43
  -3   6  -5  199.86    7.23
  -3   6  -5  201.37    6.20
   3  -6   5  203.02    7.41
   3  -6   5  203.93    6.22
   3  -6   5  195.68    8.09
   3  -6   5  192.56    6.33
  -4   6  -5   26.93    1.72
  -4   6  -5   28.43    2.34
  -4   6  -5   26.66    1.75
   4  -6   5   27.90    2.27
   4  -6   5   28.65    1.65
   4  -6   5   30.73    2.69
  -5   6  -5   23.36    2.17
  -5   6  -5   17.84    1.57
  -5   6  -5   21.17    1.68
   5  -6   5   18.76    2.36
   5  -6   5   18.33    2.48
  -6   6  -5  104.64    4.08
   6  -6   5  104.89    5.46
   6  -6   5  102.49    5.43
  -7   6  -5   54.32    3.07
   7  -6   5   70.56    4.66
   7  -6   5   49.10    3.63
  -8   6  -5    0.87    1.46
   8  -6   5   -0.08    2.08
   8  -6   5    1.34    1.87
  -9   6  -5   44.10    3.43
   9  -6   5   42.60    4.02
   9  -6   5   41.18    4.17
 -10   6  -5   29.94    3.12
  10  -6   5   30.12    4.39
  10  -6   5   33.83    4.06
  11  -6   5    1.26    2.70
  10   5  -5   23.91    3.53
  10   5  -5   17.67    2.87
  10   5  -5   27.09    3.20
   9   5  -5    6.80    2.31
   9   5  -5   13.59    2.45
   9   5  -5   12.30    2.40
   9   5  -5    9.14    2.55
  -9  -5   5    9.15    2.26
   8   5  -5    1.62    1.71
   8   5  -5   -2.95    1.52
   8   5  -5   -0.60    1.69
  -8  -5   5    0.48    1.58
   7   5  -5   33.41    2.86
   7   5  -5   39.34    3.49
   7   5  -5   32.00    2.71
  -7  -5   5   32.41    2.66
   6   5  -5   45.22    2.79
   6   5  -5   40.38    2.56
  -6  -5   5   41.40    2.55
   5   5  -5    0.69    0.96
   5   5  -5    1.18    0.80
  -5  -5   5    2.08    0.97
   4   5  -5   45.44    2.14
   4   5  -5   43.61    2.39
  -4  -5   5   42.40    2.08
   3   5  -5  154.22    4.84
   3   5  -5  141.68    5.14
   3   5  -5  139.96    6.01
  -3  -5   5  159.32    4.83
   2   5  -5   31.30    1.85
   2   5  -5   37.14    1.61
   2   5  -5   31.23    2.50
  -2  -5   5   34.75    2.24
  -2  -5   5   32.49    1.93
  -2  -5   5   34.11    1.55
   1   5  -5   49.43    2.24
   1   5  -5   50.21    2.91
   1   5  -5   53.47    2.03
  -1  -5   5   49.37    2.90
  -1  -5   5   56.15    2.02
  -1  -5   5   53.79    2.23
   0   5  -5  144.90    4.34
   0   5  -5  133.44    5.24
   0   5  -5  142.57    4.43
   0   5  -5  140.89    4.86
   0  -5   5  140.86    4.41
   0  -5   5  135.98    5.76
   0  -5   5  139.44    4.76
   0  -5   5  142.54    4.96
  -1   5  -5   99.10    4.12
  -1   5  -5  106.66    3.55
  -1   5  -5  107.53    3.43
   1  -5   5  105.75    4.64
   1  -5   5  104.98    3.57
   1  -5   5  110.99    3.57
  -2   5  -5   16.27    1.17
  -2   5  -5   15.49    1.19
  -2   5  -5   13.26    1.51
   2  -5   5   13.16    1.75
   2  -5   5   21.55    1.90
   2  -5   5   15.06    0.67
  -3   5  -5  120.70    4.23
  -3   5  -5  126.92    4.80
   3  -5   5  128.63    4.24
   3  -5   5  123.68    5.42
   3  -5   5  127.13    5.12
  -4   5  -5  120.98    4.16
  -4   5  -5  124.49    4.68
  -4   5  -5  116.42    4.20
   4  -5   5  112.90    5.34
   4  -5   5  110.71    5.03
   4  -5   5  113.96    4.09
  -5   5  -5    3.72    1.08
  -5   5  -5    3.56    0.80
  -5   5  -5    3.01    1.20
   5  -5   5    4.53    1.10
   5  -5   5    3.00    1.76
   5  -5   5    4.50    1.25
  -6   5  -5   32.42    2.33
   6  -5   5   36.11    3.41
   6  -5   5   30.07    2.98
   6  -5   5   32.63    2.28
  -7   5  -5   82.76    3.80
   7  -5   5   80.05    3.75
   7  -5   5   77.51    4.96
   7  -5   5   78.13    4.73
  -8   5  -5   19.35    2.27
   8  -5   5   18.02    2.76
   8  -5   5   15.09    2.52
  -9   5  -5   11.72    2.27
   9  -5   5   11.77    3.13
   9  -5   5   12.76    2.72
 -10   5  -5   32.52    2.92
  10  -5   5   25.86    4.05
  10  -5   5   23.74    2.98
 -11  -4   5   -0.31    1.61
  10   4  -5   11.69    2.42
  10   4  -5   17.52    2.73
  10   4  -5   15.37    2.92
 -10  -4   5   12.34    2.53
   9   4  -5   47.47    4.51
   9   4  -5   45.51    3.04
   9   4  -5   43.98    3.41
  -9  -4   5   42.58    2.98
   8   4  -5   11.40    1.63
   8   4  -5   10.79    2.56
   8   4  -5    7.64    1.81
  -8  -4   5    8.25    1.89
   7   4  -5   13.44    1.76
   7   4  -5   11.61    1.46
   7   4  -5   10.67    2.12
  -7  -4   5   10.61    1.44
   6   4  -5   70.58    3.47
   6   4  -5   69.68    3.25
   6   4  -5   67.49    3.12
  -6  -4   5   67.78    3.10
   5   4  -5  100.72    3.83
   5   4  -5  100.39    4.29
   5   4  -5   90.57    3.49
  -5  -4   5   97.08    3.51
   4   4  -5    6.76    1.02
   4   4  -5    5.99    0.47
   4   4  -5    5.66    0.78
  -4  -4   5    4.64    0.75
   3   4  -5   73.84    2.83
   3   4  -5   75.23    2.72
  -3  -4   5   73.74    2.69
   2   4  -5  159.69    4.97
   2   4  -5  164.34    5.34
  -2  -4   5  158.83    4.94
  -2  -4   5  155.62    6.30
   1   4  -5   16.48    1.49
   1   4  -5   13.53    1.20
   1   4  -5   13.95    1.03
  -1  -4   5   16.99    1.79
  -1  -4   5   16.31    1.03
  -1  -4   5   16.39    0.68
   0   4  -5  115.57    3.68
   0   4  -5  109.30    4.40
   0   4  -5  115.34    4.03
   0   4  -5  117.18    3.67
   0  -4   5  115.33    3.70
   0  -4   5  112.93    4.17
   0  -4   5  112.34    4.82
  -1   4  -5  131.30    4.41
  -1   4  -5  144.23    5.08
   1  -4   5  141.13    4.49
   1  -4   5  139.35    5.69
  -2   4  -5   45.25    2.06
  -2   4  -5   49.24    2.34
   2  -4   5   49.91    2.58
   2  -4   5   47.75    2.83
  -3   4  -5   21.07    1.54
  -3   4  -5   18.90    1.28
   3  -4   5   21.72    1.75
   3  -4   5   21.61    1.79
   3  -4   5   20.16    1.33
  -4   4  -5  107.56    4.07
  -4   4  -5  102.34    3.78
   4  -4   5  106.62    4.90
   4  -4   5  107.82    3.88
   4  -4   5  101.62    4.46
  -5   4  -5   27.59    1.80
   5  -4   5   31.44    2.07
   5  -4   5   30.27    2.89
   5  -4   5   30.51    2.28
  -6   4  -5    0.40    1.06
   6  -4   5    1.86    1.23
   6  -4   5   -1.22    1.19
   6  -4   5    1.13    1.43
  -7   4  -5   78.93    3.86
   7  -4   5   81.13    4.91
   7  -4   5   80.83    3.84
   7  -4   5   74.70    4.24
  -8   4  -5   45.58    3.33
   8  -4   5   46.99    3.39
   8  -4   5   44.42    3.83
   8  -4   5   40.70    3.61
  -9   4  -5    2.62    1.98
   9  -4   5    1.19    1.45
   9  -4   5    1.90    2.07
 -10   4  -5   11.94    2.80
  10  -4   5    8.04    3.41
  11   3  -5   23.55    3.88
  11   3  -5   13.94    2.87
 -11  -3   5   13.44    2.73
  10   3  -5    2.51    2.70
  10   3  -5    2.98    1.73
  10   3  -5   -0.18    1.46
 -10  -3   5    1.12    1.42
   9   3  -5   50.12    4.32
   9   3  -5   53.23    3.40
   9   3  -5   63.84    3.78
  -9  -3   5   53.90    3.57
   8   3  -5   63.21    3.43
   8   3  -5   59.23    4.04
   8   3  -5   57.42    2.95
  -8  -3   5   62.37    3.40
   7   3  -5    8.43    1.51
   7   3  -5    9.05    1.58
   7   3  -5   10.88    1.50
  -7  -3   5    9.53    1.54
   6   3  -5   83.01    3.36
   6   3  -5   80.35    3.32
   6   3  -5   85.27    3.89
  -6  -3   5   75.08    3.31
   5   3  -5  131.83    4.95
   5   3  -5  121.74    4.32
   5   3  -5  123.51    4.44
  -5  -3   5  126.20    4.34
   4   3  -5   61.93    2.53
   4   3  -5   59.24    2.40
   4   3  -5   68.72    2.41
   4   3  -5   64.05    2.92
  -4  -3   5   65.45    2.43
   3   3  -5   33.46    1.28
   3   3  -5   30.89    1.57
   3   3  -5   30.78    1.54
  -3  -3   5   32.17    1.54
   2   3  -5  198.03    5.94
   2   3  -5  188.73    6.21
  -2  -3   5  197.81    5.92
  -2  -3   5  197.32    7.50
   1   3  -5  130.22    4.43
   1   3  -5  130.69    4.19
  -1  -3   5  132.44    4.18
  -1  -3   5  129.18    5.49
  -1  -3   5  141.55    4.65
   0   3  -5    7.10    0.70
   0   3  -5    7.59    0.83
   0   3  -5    8.72    1.16
   0  -3   5   10.63    0.92
   0  -3   5    9.52    1.41
  -1   3  -5  181.13    6.11
  -1   3  -5  176.42    5.61
   1  -3   5  179.19    7.09
   1  -3   5  178.40    6.15
   1  -3   5  186.08    5.67
  -2   3  -5  119.91    4.08
  -2   3  -5  119.11    4.23
   2  -3   5  118.24    4.54
   2  -3   5  122.19    4.08
   2  -3   5  114.58    4.97
  -3   3  -5    1.86    0.87
  -3   3  -5    3.84    0.77
   3  -3   5    2.68    1.15
   3  -3   5    2.44    0.89
   3  -3   5    1.26    1.06
  -4   3  -5   34.28    1.82
  -4   3  -5   29.66    1.78
   4  -3   5   31.38    1.80
   4  -3   5   33.13    2.56
   4  -3   5   29.64    2.38
  -5   3  -5  145.73    5.25
   5  -3   5  157.26    5.42
   5  -3   5  157.04    6.23
   5  -3   5  148.01    6.44
  -6   3  -5   18.38    1.93
   6  -3   5   18.62    2.26
   6  -3   5   21.74    2.58
   6  -3   5   19.50    1.76
  -7   3  -5   13.99    1.71
   7  -3   5   18.13    2.74
   7  -3   5   15.42    2.22
   7  -3   5   12.34    1.66
  -8   3  -5   66.79    4.04
   8  -3   5   68.75    4.36
   8  -3   5   71.77    4.99
   8  -3   5   60.25    3.96
  -9   3  -5   21.86    2.83
   9  -3   5   16.72    2.21
   9  -3   5   24.86    3.72
   9  -3   5   17.24    2.25
 -10   3  -5    1.12    2.37
  10  -3   5    1.44    3.17
  11   2  -5   39.10    3.31
  11   2  -5   46.97    4.75
 -11  -2   5   43.82    3.36
  10   2  -5    7.81    2.21
  10   2  -5   11.07    2.87
  10   2  -5    6.59    1.84
 -10  -2   5    5.55    2.09
   9   2  -5   37.47    2.73
   9   2  -5   41.67    3.15
   9   2  -5   42.54    3.74
  -9  -2   5   38.05    3.08
   8   2  -5  125.22    4.85
   8   2  -5  130.32    5.66
   8   2  -5  117.67    4.70
  -8  -2   5  128.14    4.96
   7   2  -5   59.75    2.90
   7   2  -5   55.31    3.31
   7   2  -5   55.12    2.69
  -7  -2   5   57.63    2.89
   6   2  -5    7.33    1.19
   6   2  -5    9.38    1.51
   6   2  -5    9.89    1.08
  -6  -2   5    8.76    1.25
   5   2  -5  189.71    6.09
   5   2  -5  197.77    6.27
   5   2  -5  192.74    6.69
  -5  -2   5  195.14    6.09
   4   2  -5  157.94    5.53
   4   2  -5  157.67    5.13
   4   2  -5  158.20    5.04
  -4  -2   5  159.66    5.03
   3   2  -5    0.28    0.57
   3   2  -5    0.57    0.34
  -3  -2   5    0.61    0.57
   2   2  -5  212.61    6.63
   2   2  -5  224.15    7.57
   2   2  -5  219.16    6.88
  -2  -2   5  223.25    6.64
  -2  -2   5  231.20    8.39
   1   2  -5  456.20   12.90
   1   2  -5  455.75   15.13
   1   2  -5  439.49   14.13
   1   2  -5  440.27   13.54
  -1  -2   5  414.74   15.94
  -1  -2   5  458.03   12.89
  -1  -2   5  471.51   15.04
   0   2  -5   19.06    1.22
   0   2  -5   15.95    1.19
   0   2  -5   19.76    0.88
   0  -2   5   17.63    1.56
   0  -2   5   19.45    1.26
  -1   2  -5  104.49    3.70
  -1   2  -5  104.03    3.64
   1  -2   5  106.79    3.92
   1  -2   5  106.85    4.59
   1  -2   5  104.28    3.57
   1  -2   5  107.23    3.67
  -2   2  -5  205.14    6.42
  -2   2  -5  189.15    6.27
   2  -2   5  200.09    6.31
   2  -2   5  205.25    6.28
   2  -2   5  186.20    7.58
   2  -2   5  201.06    6.84
  -3   2  -5  127.42    4.49
  -3   2  -5  136.10    4.44
   3  -2   5  130.37    4.51
   3  -2   5  130.82    5.52
   3  -2   5  132.25    5.06
  -4   2  -5   10.50    1.34
   4  -2   5    8.05    1.33
   4  -2   5    9.44    1.53
  -5   2  -5  128.74    4.83
   5  -2   5  131.46    5.63
   5  -2   5  124.03    4.66
   5  -2   5  127.66    5.46
  -6   2  -5  113.52    4.63
   6  -2   5  110.48    5.36
   6  -2   5  116.25    4.66
   6  -2   5  106.97    5.01
  -7   2  -5    8.08    1.87
   7  -2   5    6.75    2.38
   7  -2   5    6.53    1.92
   7  -2   5    4.89    1.67
  -8   2  -5   33.88    3.09
   8  -2   5   29.46    3.61
   8  -2   5   30.22    3.15
   8  -2   5   31.61    2.97
  -9   2  -5   46.01    4.10
   9  -2   5   45.35    4.02
   9  -2   5   54.34    4.78
 -10   2  -5    3.07    2.68
  10  -2   5    8.14    2.69
  10  -2   5    9.95    2.78
  12   1  -5    5.53    2.63
 -12  -1   5    8.07    2.65
  11   1  -5   53.20    4.81
  11   1  -5   47.00    3.41
 -11  -1   5   53.20    4.08
  10   1  -5   40.60    3.80
  10   1  -5   38.17    2.85
  10   1  -5   42.89    3.44
 -10  -1   5   38.24    3.31
   9   1  -5    2.60    1.41
   9   1  -5    3.65    1.28
   9   1  -5    2.48    1.23
  -9  -1   5    3.84    1.24
   8   1  -5  111.62    4.31
   8   1  -5  115.48    4.31
   8   1  -5  102.73    4.73
  -8  -1   5  118.52    4.56
   7   1  -5  115.37    4.22
   7   1  -5  115.76    4.68
   7   1  -5  115.60    4.36
  -7  -1   5  123.21    4.41
   6   1  -5   13.25    1.11
   6   1  -5   13.95    1.34
   6   1  -5   12.15    1.53
  -6  -1   5   12.67    1.30
   5   1  -5  142.99    5.16
   5   1  -5  143.88    4.72
   5   1  -5  142.48    4.66
  -5  -1   5  147.04    4.73
   4   1  -5  351.22   11.46
   4   1  -5  364.65   10.65
   4   1  -5  372.79   11.00
  -4  -1   5  363.59   10.64
   3   1  -5  105.12    3.52
   3   1  -5  108.38    3.45
   3   1  -5  107.69    3.89
  -3  -1   5  107.20    3.53
   2   1  -5   73.26    2.52
   2   1  -5   71.56    2.45
   2   1  -5   74.06    2.83
  -2  -1   5   72.46    2.46
  -2  -1   5   73.30    2.51
   1   1  -5  520.18   18.62
   1   1  -5  565.12   15.86
  -1  -1   5  570.76   15.86
  -1  -1   5  565.64   19.60
   0   1  -5  245.30    8.71
   0   1  -5  238.13    7.33
   0  -1   5  234.88    9.08
   0  -1   5  248.86    7.78
   0  -1   5  247.75    7.36
  -1   1  -5    5.52    0.64
  -1   1  -5    4.19    0.89
  -1   1  -5    5.10    0.52
   1  -1   5    4.17    1.19
   1  -1   5    5.19    0.44
   1  -1   5    5.53    0.88
   1  -1   5    4.64    0.95
  -2   1  -5  192.05    6.28
  -2   1  -5  203.04    6.42
  -2   1  -5  209.16    6.24
   2  -1   5  186.38    7.56
   2  -1   5  199.15    6.31
   2  -1   5  197.22    6.78
  -3   1  -5  266.24    8.36
   3  -1   5  273.85    8.38
   3  -1   5  270.15   10.07
   3  -1   5  264.38    9.06
  -4   1  -5   22.75    1.88
   4  -1   5   19.87    2.00
   4  -1   5   24.82    1.96
   4  -1   5   24.22    2.23
  -5   1  -5   53.79    2.95
   5  -1   5   49.24    2.91
   5  -1   5   53.90    3.41
   5  -1   5   56.71    3.14
  -6   1  -5  117.38    4.76
   6  -1   5  129.65    5.68
   6  -1   5  114.27    4.73
   6  -1   5  124.00    5.49
  -7   1  -5   37.15    3.24
   7  -1   5   44.45    3.10
   7  -1   5   48.05    4.06
   7  -1   5   46.52    3.35
  -8   1  -5    2.97    2.08
   8  -1   5    2.24    1.59
   8  -1   5    3.16    1.90
  -9   1  -5   49.07    4.35
   9  -1   5   48.01    4.29
   9  -1   5   53.97    5.09
 -10   1  -5   21.98    2.97
  10  -1   5   19.84    2.75
  10  -1   5   28.86    4.06
  12   0  -5    2.16    2.99
  12   0  -5   -0.63    2.29
 -12   0   5   -2.05    2.33
  11   0  -5   33.43    2.89
  11   0  -5   34.49    3.94
 -11   0   5   35.49    3.19
  10   0  -5   55.96    3.64
  10   0  -5   59.63    4.30
 -10   0   5   57.36    3.63
   9   0  -5    8.20    1.67
   9   0  -5    8.23    1.61
   9   0  -5    4.76    1.34
  -9   0   5    7.46    1.67
   8   0  -5   29.99    2.72
   8   0  -5   32.81    2.40
   8   0  -5   35.94    2.11
  -8   0   5   36.58    2.41
   7   0  -5  143.51    4.79
   7   0  -5  134.09    5.34
   7   0  -5  142.88    4.70
  -7   0   5  134.26    4.76
   6   0  -5   73.11    2.87
   6   0  -5   70.03    2.58
   6   0  -5   70.89    3.14
  -6   0   5   75.42    2.90
   5   0  -5   25.51    1.50
   5   0  -5   25.89    1.62
   5   0  -5   24.04    1.13
  -5   0   5   26.79    1.53
   4   0  -5  283.52    9.36
   4   0  -5  302.81    8.89
   4   0  -5  297.03    8.76
  -4   0   5  298.54    8.76
   3   0  -5  349.87   10.36
   3   0  -5  342.45   10.78
   3   0  -5  355.39   10.13
   3   0  -5  348.36   11.80
  -3   0   5  351.08   10.13
  -3   0   5  339.00   10.37
   2   0  -5   -0.09    0.60
   2   0  -5    1.04    0.57
  -2   0   5    1.18    0.43
  -2   0   5    1.05    0.33
  -2   0   5    0.79    0.58
   1   0  -5  202.77    6.05
   1   0  -5  189.06    7.07
  -1   0   5  205.25    7.67
  -1   0   5  200.70    6.05
   0   0  -5  389.18   13.62
   0   0  -5  381.14   11.52
   0   0   5  403.95   11.56
   0   0   5  394.12   14.16
   0   0   5  397.65   12.17
  -1   0  -5   35.21    1.30
  -1   0  -5   34.48    1.53
  -1   0  -5   32.82    1.85
   1   0   5   35.88    1.19
   1   0   5   32.95    1.74
   1   0   5   32.16    1.86
   1   0   5   33.23    2.25
  -2   0  -5  103.35    3.77
  -2   0  -5  102.26    3.71
   2   0   5   97.58    4.40
   2   0   5  101.53    3.78
   2   0   5  103.51    3.91
  -3   0  -5  258.63    8.13
  -3   0  -5  259.15    8.53
   3   0   5  256.02    8.71
   3   0   5  251.19    8.11
   3   0   5  253.39    9.56
  -4   0  -5   99.37    4.14
  -4   0  -5  104.90    4.13
   4   0   5  103.47    4.63
   4   0   5  116.59    4.27
   4   0   5  100.73    4.50
  -5   0  -5    6.15    1.51
   5   0   5    6.14    1.79
   5   0   5    4.43    1.06
   5   0   5    6.45    1.57
  -6   0  -5   98.13    4.46
   6   0   5   89.52    4.50
   6   0   5  101.12    4.54
   6   0   5  100.95    5.05
  -7   0  -5   75.83    4.32
   7   0   5   76.04    4.36
   7   0   5   75.65    4.29
  -8   0  -5    6.26    2.29
   8   0   5   -1.30    1.97
   8   0   5    2.42    1.89
  -9   0  -5   32.74    3.22
   9   0   5   32.93    3.65
   9   0   5   28.89    3.16
  10   0   5   22.67    3.75
  13  -1  -5   15.33    3.15
  12  -1  -5    1.80    2.75
  12  -1  -5    1.25    2.28
 -12   1   5    3.52    2.37
  11  -1  -5    8.47    2.61
  11  -1  -5    6.83    1.58
 -11   1   5    6.95    1.69
  10  -1  -5   44.90    3.81
  10  -1  -5   49.34    3.32
 -10   1   5   47.40    3.23
   9  -1  -5   32.83    3.02
   9  -1  -5   34.51    2.60
   9  -1  -5   29.97    1.92
  -9   1   5   33.45    2.57
   8  -1  -5    2.20    0.88
   8  -1  -5    3.10    1.41
   8  -1  -5    2.46    0.76
  -8   1   5    3.09    0.93
   7  -1  -5  102.13    4.06
   7  -1  -5  101.48    3.67
   7  -1  -5  105.00    3.54
  -7   1   5   98.44    3.69
   6  -1  -5  108.26    3.79
   6  -1  -5  109.96    4.12
   6  -1  -5  104.91    3.50
  -6   1   5  110.36    3.81
   5  -1  -5   23.72    1.47
   5  -1  -5   23.12    0.96
   5  -1  -5   26.04    1.45
  -5   1   5   26.16    1.45
   4  -1  -5  137.24    4.11
   4  -1  -5  137.33    5.11
   4  -1  -5  134.85    4.38
   4  -1  -5  140.21    4.59
  -4   1   5  140.40    4.41
   3  -1  -5  187.72    6.62
   3  -1  -5  183.59    5.63
   3  -1  -5  189.96    5.84
  -3   1   5  185.49    5.65
  -3   1   5  178.73    5.90
   2  -1  -5   76.51    2.64
   2  -1  -5   76.27    3.10
  -2   1   5   78.21    2.71
  -2   1   5   78.33    2.55
   1  -1  -5   69.55    3.06
   1  -1  -5   71.65    2.61
  -1   1   5   67.48    2.59
  -1   1   5   71.54    2.34
   0  -1  -5  285.91   10.76
   0  -1  -5  308.84    9.16
   0   1   5  311.47    9.17
   0   1   5  313.79    9.73
   0   1   5  301.95    9.48
  -1  -1  -5  197.19    6.14
  -1  -1  -5  208.46    6.15
  -1  -1  -5  200.85    6.84
  -1  -1  -5  198.81    6.42
   1   1   5  202.23    6.44
   1   1   5  211.93    7.86
   1   1   5  199.16    6.67
   1   1   5  210.31    6.49
  -2  -1  -5    8.95    1.23
  -2  -1  -5    7.99    1.01
   2   1   5    7.65    1.21
   2   1   5    8.86    1.33
   2   1   5   10.21    1.21
  -3  -1  -5  121.34    4.57
  -3  -1  -5  122.04    4.71
   3   1   5  124.52    4.85
   3   1   5  122.24    5.18
   3   1   5  130.12    4.63
  -4  -1  -5  160.83    6.08
  -4  -1  -5  165.22    5.83
   4   1   5  164.69    6.54
   4   1   5  163.19    6.25
   4   1   5  158.87    5.82
  -5  -1  -5    2.54    1.38
  -5  -1  -5    6.97    1.62
   5   1   5    6.56    1.29
   5   1   5    5.57    1.56
   5   1   5    4.76    1.83
  -6  -1  -5   35.97    3.09
   6   1   5   42.81    3.60
   6   1   5   38.66    3.18
  -7  -1  -5  103.79    4.80
   7   1   5  111.15    5.72
   7   1   5   98.46    4.72
  -8  -1  -5   22.53    3.05
   8   1   5   19.89    3.02
   8   1   5   22.49    2.93
  -9  -1  -5    1.75    1.92
   9   1   5    4.14    2.64
   9   1   5    3.65    2.93
  13  -2  -5   12.41    2.74
  12  -2  -5   24.73    3.57
  12  -2  -5   19.36    2.34
 -12   2   5   20.20    2.35
  11  -2  -5    0.21    2.19
  11  -2  -5   -1.80    1.70
 -11   2   5    0.78    1.78
  10  -2  -5   17.41    2.48
  10  -2  -5   15.22    2.03
 -10   2   5   15.67    2.03
   9  -2  -5   68.91    3.40
   9  -2  -5   72.04    3.96
  -9   2   5   76.30    3.48
   8  -2  -5   11.71    1.26
   8  -2  -5   13.32    1.77
  -8   2   5   13.55    1.31
   7  -2  -5   23.77    1.93
   7  -2  -5   23.96    1.65
   7  -2  -5   22.59    1.18
  -7   2   5   25.95    1.73
   6  -2  -5  108.94    4.15
   6  -2  -5  113.56    3.86
   6  -2  -5  113.74    3.54
  -6   2   5  112.70    3.87
   5  -2  -5   77.70    2.32
   5  -2  -5   76.21    2.31
   5  -2  -5   78.84    2.78
   5  -2  -5   77.55    2.90
  -5   2   5   74.54    2.78
   4  -2  -5    3.82    0.55
   4  -2  -5    4.80    0.74
   4  -2  -5    3.14    0.87
  -4   2   5    3.23    0.68
   3  -2  -5  136.35    4.22
   3  -2  -5  135.62    5.06
   3  -2  -5  134.63    4.23
  -3   2   5  124.83    4.33
  -3   2   5  139.54    4.26
   2  -2  -5  106.27    3.48
   2  -2  -5  102.03    4.08
  -2   2   5  106.03    3.48
   1  -2  -5   14.14    1.46
   1  -2  -5   13.09    1.13
  -1   2   5   12.74    1.17
  -1   2   5   14.13    1.18
   0  -2  -5  171.28    5.16
   0  -2  -5  149.19    6.14
   0  -2  -5  159.78    5.19
   0  -2  -5  161.01    5.29
   0   2   5  164.32    5.17
   0   2   5  166.27    5.48
   0   2   5  163.24    5.30
  -1  -2  -5  135.79    5.70
  -1  -2  -5  136.32    5.05
  -1  -2  -5  143.79    4.78
   1   2   5  140.45    4.71
   1   2   5  133.20    4.73
   1   2   5  139.54    4.66
  -2  -2  -5   44.52    2.35
  -2  -2  -5   42.53    2.34
   2   2   5   43.38    2.33
   2   2   5   47.09    2.58
   2   2   5   42.47    2.22
  -3  -2  -5   32.15    2.20
  -3  -2  -5   28.33    2.16
   3   2   5   32.86    2.18
   3   2   5   29.57    2.18
   3   2   5   31.93    2.25
  -4  -2  -5  101.39    4.14
  -4  -2  -5  103.43    4.61
   4   2   5  105.02    4.67
   4   2   5   96.82    4.11
   4   2   5  117.69    4.75
  -5  -2  -5   52.00    3.41
  -5  -2  -5   59.41    3.05
   5   2   5   53.17    2.99
   5   2   5   53.44    3.67
  -6  -2  -5    2.67    1.79
   6   2   5    1.75    1.84
   6   2   5    2.01    2.10
  -7  -2  -5   43.95    3.21
   7   2   5   52.45    4.37
   7   2   5   37.45    3.16
  -8  -2  -5   39.05    3.75
   8   2   5   45.97    4.32
   8   2   5   40.94    3.94
  -9  -2  -5   -0.93    2.44
   9   2   5    4.46    3.07
   9   2   5   -0.70    2.61
  13  -3  -5   10.75    3.40
 -13   3   5    0.37    2.72
  12  -3  -5   32.08    3.34
  12  -3  -5   23.38    2.73
 -12   3   5   29.02    2.91
  11  -3  -5   24.61    2.48
  11  -3  -5   20.11    2.92
 -11   3   5   25.42    2.56
  10  -3  -5    0.99    1.86
  10  -3  -5    0.45    1.37
 -10   3   5    1.28    1.41
   9  -3  -5   48.63    2.79
   9  -3  -5   55.08    3.40
  -9   3   5   57.02    2.91
   8  -3  -5   75.04    3.62
   8  -3  -5   76.83    3.16
  -8   3   5   75.99    3.20
   7  -3  -5    7.47    1.24
   7  -3  -5    5.23    0.98
  -7   3   5    5.36    1.00
   6  -3  -5   58.31    2.52
   6  -3  -5   59.17    1.88
   6  -3  -5   56.59    2.33
  -6   3   5   56.02    2.34
   5  -3  -5   93.93    3.25
   5  -3  -5   96.83    3.41
  -5   3   5   96.58    3.29
   4  -3  -5   37.24    1.50
   4  -3  -5   36.16    1.93
   4  -3  -5   36.77    1.61
  -4   3   5   35.47    1.62
   3  -3  -5   55.15    2.56
   3  -3  -5   54.06    2.02
   3  -3  -5   51.90    1.70
  -3   3   5   48.61    2.68
  -3   3   5   52.42    2.03
  -3   3   5   54.55    1.70
  -3   3   5   48.09    1.74
   2  -3  -5  162.59    6.13
   2  -3  -5  159.49    5.10
  -2   3   5  162.18    5.12
  -2   3   5  169.51    5.11
  -2   3   5  158.29    5.85
   1  -3  -5   43.91    2.39
   1  -3  -5   40.15    1.92
  -1   3   5   43.09    2.09
  -1   3   5   37.53    1.91
   0  -3  -5    0.16    0.55
   0  -3  -5    1.16    1.04
   0  -3  -5    1.07    0.40
   0  -3  -5    0.50    0.36
   0   3   5    0.71    0.59
   0   3   5    1.06    0.39
   0   3   5    1.16    0.67
  -1  -3  -5  126.11    4.34
  -1  -3  -5  124.62    4.74
  -1  -3  -5  110.24    5.02
   1   3   5  119.69    4.31
   1   3   5  122.36    4.21
   1   3   5  118.94    4.31
  -2  -3  -5   64.85    3.22
  -2  -3  -5   65.83    3.00
   2   3   5   66.33    3.00
   2   3   5   66.60    2.89
  -3  -3  -5    1.49    1.12
  -3  -3  -5    2.21    1.31
   3   3   5    0.42    1.13
   3   3   5   -0.06    1.08
  -4  -3  -5   33.10    2.83
  -4  -3  -5   31.61    2.54
   4   3   5   34.47    2.67
   4   3   5   35.56    2.73
  -5  -3  -5   83.59    4.48
  -5  -3  -5   85.47    4.16
   5   3   5   76.72    4.07
   5   3   5   78.06    4.09
  -6  -3  -5    9.98    1.75
  -6  -3  -5    9.32    1.92
   6   3   5    7.00    1.88
   6   3   5   10.59    2.28
  -7  -3  -5    3.12    2.12
   7   3   5   10.17    2.59
   7   3   5    5.69    2.57
  -8  -3  -5   19.93    3.14
   8   3   5   25.63    3.77
   8   3   5   21.01    3.29
  -9  -3  -5    9.80    3.08
  13  -4  -5   -2.89    2.70
 -13   4   5    3.01    2.92
 -13   4   5    1.49    1.63
  12  -4  -5   23.71    3.39
 -12   4   5   22.68    2.72
 -12   4   5   25.36    3.72
  11  -4  -5   50.97    4.11
 -11   4   5   53.73    4.90
 -11   4   5   45.35    3.26
  10  -4  -5   14.66    1.77
  10  -4  -5   15.87    2.35
 -10   4   5   16.54    1.92
   9  -4  -5   17.46    1.86
   9  -4  -5   13.05    1.58
  -9   4   5   15.52    1.68
   8  -4  -5  128.00    5.07
   8  -4  -5  131.50    4.52
  -8   4   5  122.75    4.49
   7  -4  -5   40.00    1.97
   7  -4  -5   39.61    2.29
  -7   4   5   39.70    2.03
   6  -4  -5    0.87    0.24
   6  -4  -5    0.86    0.71
   6  -4  -5    1.51    0.65
  -6   4   5    0.52    1.45
  -6   4   5    0.32    0.66
   5  -4  -5  159.34    6.15
   5  -4  -5  159.28    5.26
   5  -4  -5  168.81    5.02
  -5   4   5  161.37    5.02
  -5   4   5  145.85    6.35
   4  -4  -5  130.09    4.07
   4  -4  -5  125.60    5.04
   4  -4  -5  129.04    4.11
  -4   4   5  126.60    5.22
  -4   4   5  124.09    4.06
  -4   4   5  125.36    4.18
   3  -4  -5   -0.04    0.86
   3  -4  -5   -0.38    0.49
   3  -4  -5    0.09    0.17
  -3   4   5    0.05    0.55
  -3   4   5    0.33    0.29
  -3   4   5    0.49    0.77
   2  -4  -5   76.40    2.77
   2  -4  -5   76.99    3.43
  -2   4   5   72.79    2.77
  -2   4   5   71.31    3.29
  -2   4   5   75.78    2.64
   1  -4  -5  146.86    5.87
   1  -4  -5  158.03    4.99
   1  -4  -5  152.40    4.62
  -1   4   5  148.20    4.96
  -1   4   5  149.06    5.00
   0  -4  -5   22.45    2.12
   0  -4  -5   24.39    1.16
   0  -4  -5   26.51    1.71
   0  -4  -5   20.77    1.97
   0   4   5   28.89    1.75
   0   4   5   26.29    1.73
   0   4   5   26.32    1.51
  -1  -4  -5   29.16    2.58
  -1  -4  -5   34.96    2.35
  -1  -4  -5   33.96    1.81
   1   4   5   30.44    1.84
   1   4   5   32.51    1.64
   1   4   5   31.91    1.81
  -2  -4  -5   78.99    3.99
  -2  -4  -5   89.05    3.43
   2   4   5   85.13    3.50
   2   4   5   85.20    3.43
  -3  -4  -5   51.19    3.02
  -3  -4  -5   51.79    2.88
   3   4   5   51.51    2.91
   3   4   5   51.85    2.92
  -4  -4  -5    3.13    1.50
  -4  -4  -5    4.01    1.37
   4   4   5    3.84    1.68
   4   4   5    4.53    1.54
  -5  -4  -5   33.90    2.63
  -5  -4  -5   36.63    3.36
   5   4   5   37.16    3.24
   5   4   5   31.29    2.93
  -6  -4  -5   35.51    3.23
  -6  -4  -5   36.27    3.29
   6   4   5   30.39    3.34
   6   4   5   31.11    3.24
   6   4   5   29.30    3.80
  -7  -4  -5    0.29    2.19
   7   4   5    0.00    2.36
   7   4   5    4.35    3.04
   7   4   5    0.10    2.21
  -8  -4  -5    9.61    2.31
   8   4   5    6.76    3.07
  13  -5  -5    8.96    3.09
 -13   5   5    7.22    1.85
 -13   5   5    5.70    2.38
  12  -5  -5    6.26    2.69
 -12   5   5    6.83    2.37
 -12   5   5    5.38    2.03
  11  -5  -5   57.91    4.28
 -11   5   5   65.18    3.60
 -11   5   5   65.28    5.27
  10  -5  -5   47.09    3.53
 -10   5   5   58.45    4.87
 -10   5   5   49.10    2.93
   9  -5  -5   -0.39    0.93
   9  -5  -5    0.00    1.01
  -9   5   5    1.02    1.07
  -9   5   5   -4.31    1.87
   8  -5  -5   82.19    3.61
   8  -5  -5   71.41    2.87
  -8   5   5   73.60    2.93
  -8   5   5   73.06    4.78
   7  -5  -5  162.81    5.24
   7  -5  -5  162.65    5.78
  -7   5   5  153.78    6.99
  -7   5   5  165.03    5.27
   6  -5  -5   12.95    1.63
   6  -5  -5   14.98    1.30
   6  -5  -5   15.51    1.19
  -6   5   5   12.34    2.14
  -6   5   5   15.63    1.27
   5  -5  -5   81.75    3.72
   5  -5  -5   81.23    2.82
   5  -5  -5   81.61    2.96
  -5   5   5   76.51    4.10
  -5   5   5   79.00    2.83
   4  -5  -5  237.94    9.04
   4  -5  -5  248.27    7.41
   4  -5  -5  249.27    7.73
  -4   5   5  254.65    7.62
  -4   5   5  236.44    7.39
  -4   5   5  234.64    8.95
  -4   5   5  270.36    7.43
   3  -5  -5   78.00    2.60
   3  -5  -5   82.62    2.90
   3  -5  -5   79.94    3.59
  -3   5   5   87.76    2.85
  -3   5   5   82.94    2.85
  -3   5   5   80.05    3.80
  -3   5   5   79.77    2.90
   2  -5  -5   12.37    0.52
   2  -5  -5   15.20    1.67
   2  -5  -5   13.67    1.19
   2  -5  -5   11.84    0.49
  -2   5   5   14.69    1.23
  -2   5   5   13.72    1.04
  -2   5   5   13.57    1.61
   1  -5  -5  139.11    4.58
   1  -5  -5  131.63    4.25
   1  -5  -5  130.45    5.56
  -1   5   5  138.53    4.60
  -1   5   5  135.32    5.24
  -1   5   5  135.71    4.71
   0  -5  -5  118.75    4.87
   0  -5  -5  118.50    4.20
   0  -5  -5  107.15    4.99
   0   5   5  121.76    4.25
   0   5   5  120.26    4.37
   0   5   5  120.40    4.68
  -1  -5  -5    1.51    0.74
  -1  -5  -5    0.69    1.09
  -1  -5  -5   -0.54    1.27
   1   5   5    0.51    0.96
   1   5   5    2.08    0.76
   1   5   5   -0.01    1.11
  -2  -5  -5   82.37    3.58
  -2  -5  -5   80.01    3.98
   2   5   5   82.00    3.61
   2   5   5   83.36    3.54
   2   5   5   86.47    4.13
  -3  -5  -5   73.47    3.50
  -3  -5  -5   73.74    3.87
   3   5   5   70.27    3.51
   3   5   5   62.90    3.48
   3   5   5   72.80    3.87
  -4  -5  -5   20.65    2.77
  -4  -5  -5   18.86    2.19
   4   5   5   17.35    2.27
   4   5   5   18.12    1.98
   4   5   5   15.03    2.28
  -5  -5  -5   12.72    2.21
  -5  -5  -5   20.10    3.13
   5   5   5   14.56    2.40
   5   5   5   15.42    3.01
   5   5   5   11.91    2.41
  -6  -5  -5   35.40    3.04
  -6  -5  -5   34.63    3.75
   6   5   5   37.17    3.84
   6   5   5   36.67    3.50
   7   5   5    8.50    2.68
   7   5   5    3.63    1.89
  13  -6  -5   23.63    3.09
 -13   6   5   21.69    3.81
 -13   6   5   24.07    2.85
  12  -6  -5   -2.95    2.24
 -12   6   5   -1.39    2.60
 -12   6   5    0.39    1.78
 -11   6   5   48.01    3.16
 -11   6   5   51.14    4.79
  10  -6  -5   71.30    4.15
 -10   6   5   72.55    5.46
 -10   6   5   70.64    3.43
   9  -6  -5   25.34    2.34
  -9   6   5   22.93    2.00
  -9   6   5   23.15    3.29
   8  -6  -5   23.74    2.22
  -8   6   5   24.87    3.13
  -8   6   5   23.44    1.77
   7  -6  -5  197.79    6.79
  -7   6   5  186.66    8.10
  -7   6   5  198.77    6.16
   6  -6  -5   90.76    4.25
   6  -6  -5   89.55    3.18
   6  -6  -5   92.85    3.50
  -6   6   5   94.91    3.22
  -6   6   5   85.59    4.70
   5  -6  -5    2.79    1.23
   5  -6  -5    2.89    0.73
   5  -6  -5    2.03    0.60
  -5   6   5    3.17    0.71
  -5   6   5    2.05    1.54
   4  -6  -5  137.86    4.62
   4  -6  -5  155.36    5.97
   4  -6  -5  146.67    4.76
  -4   6   5  138.84    4.64
  -4   6   5  154.78    4.81
  -4   6   5  142.87    6.04
   3  -6  -5  153.65    4.98
   3  -6  -5  165.73    6.34
   3  -6  -5  147.78    4.99
  -3   6   5  171.95    5.25
  -3   6   5  152.83    6.22
  -3   6   5  151.10    5.06
   2  -6  -5    7.73    1.49
   2  -6  -5    6.81    0.65
   2  -6  -5    6.82    0.90
  -2   6   5    4.37    1.44
  -2   6   5    5.74    0.97
  -2   6   5    7.84    1.04
   1  -6  -5   71.71    3.81
   1  -6  -5   68.83    3.79
   1  -6  -5   74.63    2.93
  -1   6   5   80.11    3.02
  -1   6   5   73.68    3.64
  -1   6   5   76.16    3.04
   0  -6  -5  170.35    6.89
   0  -6  -5  167.70    7.11
   0  -6  -5  169.44    5.71
   0   6   5  171.90    6.20
   0   6   5  175.89    6.57
   0   6   5  177.93    5.79
  -1  -6  -5   44.08    3.38
  -1  -6  -5   42.50    3.24
  -1  -6  -5   40.68    2.36
   1   6   5   39.34    2.16
   1   6   5   43.43    2.83
  -2  -6  -5   18.78    1.85
  -2  -6  -5   16.03    2.42
   2   6   5   18.60    2.31
   2   6   5   18.93    1.77
  -3  -6  -5   79.20    4.80
  -3  -6  -5   71.05    3.66
   3   6   5   73.54    3.89
   3   6   5   74.43    4.14
   3   6   5   83.45    3.88
  -4  -6  -5   50.08    3.70
   4   6   5   46.90    3.46
   4   6   5   43.70    3.64
  -5  -6  -5   -3.17    2.28
   5   6   5    0.09    2.07
   5   6   5    1.10    2.63
  -6  -6  -5   28.92    3.91
   6   6   5   30.77    4.23
   6   6   5   25.64    3.29
  13  -7  -5   28.48    3.87
 -13   7   5   27.02    4.10
 -13   7   5   37.16    3.15
  12  -7  -5    8.15    2.67
 -12   7   5    7.29    3.21
 -12   7   5    7.82    1.99
  11  -7  -5   12.02    2.45
 -11   7   5   14.66    3.47
 -11   7   5   11.20    1.84
  10  -7  -5   56.55    3.69
 -10   7   5   64.14    5.12
 -10   7   5   50.90    2.91
   9  -7  -5   66.71    3.68
  -9   7   5   67.08    2.98
  -9   7   5   60.54    4.96
   8  -7  -5    0.54    1.16
  -8   7   5   -0.13    0.83
  -8   7   5    0.60    2.07
   7  -7  -5  104.65    4.13
   7  -7  -5  101.98    4.91
  -7   7   5  102.56    5.56
  -7   7   5  100.38    3.57
   6  -7  -5  119.07    5.29
  -6   7   5  121.51    3.95
  -6   7   5  116.66    5.51
   5  -7  -5   17.25    1.16
   5  -7  -5   15.53    1.92
  -5   7   5   13.39    1.26
  -5   7   5   13.57    1.10
  -5   7   5   15.63    2.30
   4  -7  -5   54.78    2.21
   4  -7  -5   59.53    3.28
  -4   7   5   58.00    2.37
  -4   7   5   53.78    3.20
  -4   7   5   54.29    2.34
   3  -7  -5  162.79    6.60
  -3   7   5  160.18    5.50
  -3   7   5  160.46    5.18
  -3   7   5  160.24    6.59
   2  -7  -5   50.82    2.99
  -2   7   5   56.46    2.61
  -2   7   5   57.32    2.46
  -2   7   5   50.37    3.03
   1  -7  -5   18.45    2.42
   1  -7  -5   18.21    2.26
  -1   7   5   17.75    2.17
  -1   7   5   20.34    1.57
  -1   7   5   20.67    1.81
   0  -7  -5  119.12    5.41
   0  -7  -5  118.04    5.74
   0   7   5  127.18    4.45
   0   7   5  122.35    5.36
   0   7   5  122.05    4.80
  -1  -7  -5   84.15    4.47
  -1  -7  -5   86.17    4.94
   1   7   5   95.00    4.44
   1   7   5   86.58    3.69
  -2  -7  -5    0.37    1.97
   2   7   5   -0.21    1.80
   2   7   5    2.01    1.43
  -3  -7  -5   52.62    3.86
   3   7   5   53.45    3.39
   3   7   5   49.41    4.24
  -4  -7  -5   67.74    5.17
   4   7   5   68.54    5.16
   4   7   5   59.78    4.00
  -5  -7  -5    4.87    3.15
   5   7   5    6.66    3.28
   5   7   5    5.15    2.30
  -6  -7  -5    0.91    3.23
 -13   8   5   11.36    2.18
  12  -8  -5   14.29    2.87
 -12   8   5   24.11    2.31
 -12   8   5   17.84    3.66
  11  -8  -5    1.67    1.97
 -11   8   5    1.95    2.09
 -11   8   5    0.60    1.34
  10  -8  -5   21.57    2.58
 -10   8   5   26.01    2.12
 -10   8   5   25.28    3.91
   9  -8  -5   68.97    3.85
  -9   8   5   68.05    5.37
  -9   8   5   75.31    3.06
   8  -8  -5   15.02    1.78
   8  -8  -5   13.12    2.30
  -8   8   5   16.91    3.16
  -8   8   5   16.92    1.43
   7  -8  -5   28.84    2.75
   7  -8  -5   27.93    2.05
  -7   8   5   23.37    3.16
  -7   8   5   20.72    1.40
   6  -8  -5  110.36    5.02
  -6   8   5  102.35    5.54
  -6   8   5   94.58    3.39
   5  -8  -5   34.20    2.97
  -5   8   5   41.24    1.88
  -5   8   5   41.20    3.59
  -5   8   5   41.06    2.06
   4  -8  -5    3.01    1.15
  -4   8   5    3.78    0.95
  -4   8   5    3.12    0.81
  -4   8   5    3.29    1.46
   3  -8  -5  143.39    6.19
  -3   8   5  135.96    6.31
  -3   8   5  143.79    4.62
   2  -8  -5   87.05    4.78
   2  -8  -5   86.61    4.63
  -2   8   5   91.19    3.82
  -2   8   5   89.27    3.23
  -2   8   5   95.36    4.81
   1  -8  -5    2.82    1.69
   1  -8  -5    5.51    1.59
  -1   8   5    4.67    1.15
  -1   8   5    6.74    1.92
  -1   8   5    5.49    1.03
   0  -8  -5   38.81    3.47
   0  -8  -5   32.47    3.39
   0   8   5   39.00    2.43
   0   8   5   35.27    3.13
   0   8   5   33.70    2.80
  -1  -8  -5   77.12    4.63
   1   8   5   84.63    4.17
   1   8   5   87.02    3.71
  -2  -8  -5   27.12    3.36
   2   8   5   22.93    2.67
   2   8   5   26.35    2.36
  -3  -8  -5   19.94    3.38
   3   8   5   10.60    2.09
   3   8   5   13.06    3.14
  -4  -8  -5   48.50    4.69
   4   8   5   41.37    4.04
   4   8   5   50.91    3.78
  -5  -8  -5   23.86    4.11
   5   8   5   27.75    3.29
 -12   9   5   14.22    3.61
 -11   9   5   16.39    1.98
 -11   9   5   16.49    3.67
  10  -9  -5    2.64    2.42
 -10   9   5    1.75    1.07
 -10   9   5    0.51    2.99
   9  -9  -5   45.63    3.40
  -9   9   5   42.72    4.66
  -9   9   5   40.42    2.30
   8  -9  -5   55.57    4.03
  -8   9   5   47.62    2.22
  -8   9   5   49.42    4.79
   7  -9  -5   -1.13    1.66
  -7   9   5    1.25    0.72
  -7   9   5    0.68    2.29
   6  -9  -5   40.70    3.36
  -6   9   5   43.01    4.06
   5  -9  -5   93.65    4.80
  -5   9   5   92.67    3.73
  -5   9   5   84.34    5.32
   4  -9  -5    9.55    1.68
  -4   9   5    9.78    2.03
  -4   9   5   10.58    1.44
   3  -9  -5   21.86    2.28
   3  -9  -5   23.42    2.96
  -3   9   5   20.52    1.36
  -3   9   5   22.14    2.95
   2  -9  -5   79.13    4.88
   2  -9  -5   80.38    4.60
  -2   9   5   77.86    4.73
  -2   9   5   77.68    3.52
  -2   9   5   75.65    2.83
   1  -9  -5   21.83    2.69
   1  -9  -5   20.95    2.68
  -1   9   5   21.16    2.31
  -1   9   5   23.55    2.98
  -1   9   5   23.97    1.83
   0  -9  -5   -1.06    1.85
   0  -9  -5    0.37    2.20
   0   9   5    0.91    1.23
   0   9   5    1.15    1.23
  -1  -9  -5   51.42    4.82
   1   9   5   57.38    4.13
   1   9   5   61.19    3.32
  -2  -9  -5   37.98    4.19
   2   9   5   34.46    3.73
   2   9   5   27.60    2.48
  -3  -9  -5    2.42    2.91
   3   9   5    3.83    2.71
   3   9   5   -0.34    1.73
  -4  -9  -5   15.03    3.87
   4   9   5   18.59    3.79
   4   9   5   13.95    2.64
  11 -10  -5   30.62    4.06
 -11  10   5   26.50    3.77
  10 -10  -5    8.12    2.85
 -10  10   5   10.66    3.58
   9 -10  -5    7.26    2.02
  -9  10   5    5.90    2.31
   8 -10  -5   47.05    4.06
  -8  10   5   43.39    4.36
   7 -10  -5   34.11    3.03
   6 -10  -5    5.14    2.07
  -6  10   5    3.92    2.55
   5 -10  -5   55.48    3.98
  -5  10   5   56.54    4.74
   4 -10  -5   49.52    3.72
  -4  10   5   46.47    2.89
  -4  10   5   44.00    4.32
   3 -10  -5   -1.45    1.41
   3 -10  -5   -1.00    1.22
  -3  10   5    1.45    0.97
  -3  10   5    1.87    2.29
   2 -10  -5   18.75    3.08
   2 -10  -5   11.59    2.41
  -2  10   5   19.43    3.11
  -2  10   5   18.82    2.26
   1 -10  -5   40.93    3.84
   1 -10  -5   43.54    4.23
  -1  10   5   42.61    3.45
  -1  10   5   44.73    3.95
   0 -10  -5    9.58    2.99
   0 -10  -5    2.09    2.21
   0  10   5    3.73    2.09
   0  10   5    2.85    0.97
  -1 -10  -5    8.95    3.15
   1  10   5    7.86    1.50
   1  10   5   10.06    2.71
  -2 -10  -5   31.70    4.35
   2  10   5   31.19    3.79
   2  10   5   39.18    2.92
   3  10   5    8.75    2.03
  10 -11  -5   25.15    3.85
   9 -11  -5    2.64    1.95
   8 -11  -5   17.60    3.06
  -8  11   5   15.58    3.83
   7 -11  -5   56.63    3.92
  -7  11   5   64.64    5.00
   6 -11  -5    6.14    2.33
  -6  11   5    6.00    3.02
   5 -11  -5   12.44    2.57
  -5  11   5   13.86    3.33
   4 -11  -5   41.44    3.76
   4 -11  -5   38.52    4.25
  -4  11   5   34.22    3.64
  -4  11   5   37.57    2.89
   3 -11  -5   21.25    2.97
   3 -11  -5   24.39    3.05
  -3  11   5   20.77    3.46
  -3  11   5   25.70    2.63
   2 -11  -5    6.79    3.02
   2 -11  -5    1.95    2.12
  -2  11   5    3.34    2.78
   1 -11  -5   38.31    4.34
  -1  11   5   26.81    2.70
   0 -11  -5   27.53    4.09
   0  11   5   24.18    3.17
  -1 -11  -5    0.26    2.17
   1  11   5    0.82    1.86
   9 -12  -5   10.42    3.00
  -9  12   5   15.70    3.45
   8 -12  -5    5.57    1.96
  -8  12   5    6.05    3.75
   7 -12  -5   42.82    4.43
  -7  12   5   44.00    5.20
   6 -12  -5   28.54    3.01
  -6  12   5   31.53    4.54
   5 -12  -5    0.22    2.62
   5 -12  -5    1.01    2.15
  -5  12   5    0.21    2.95
   4 -12  -5   27.13    4.03
   4 -12  -5   21.23    3.01
  -4  12   5   26.11    4.17
   3 -12  -5   38.88    3.97
  -3  12   5   36.32    4.44
   2 -12  -5    4.51    3.23
  -2  12   5    3.03    2.19
  -2  12   5    0.66    2.93
   1 -12  -5    7.64    2.61
   0  12   5   29.37    3.74
   8 -13  -5   -0.24    2.58
   7 -13  -5   15.11    3.20
   7 -13  -5   13.14    3.60
  -7  13   5   17.53    3.52
   6 -13  -5   42.61    4.94
   6 -13  -5   38.45    4.03
  -6  13   5   27.46    4.57
   5 -13  -5   14.86    3.56
  -5  13   5    9.94    3.80
   4 -13  -5    5.30    3.29
  -4  13   5    2.85    3.43
  -3  13   5   26.61    3.63
   0  13  -6   -0.94    2.92
   0  13  -6   -0.23    2.42
  -1  13  -6   21.60    4.00
  -1  13  -6   32.64    3.73
  -2  13  -6   33.18    3.60
  -2  13  -6   41.25    4.76
   2 -13   6   34.43    4.34
  -3  13  -6    5.25    2.49
   3 -13   6    6.98    3.39
  -4  13  -6   13.30    2.86
   4 -13   6   14.21    2.84
   4 -13   6    7.44    3.03
  -5  13  -6   45.67    5.15
   5 -13   6   34.56    4.04
   5 -13   6   49.15    5.24
   6 -13   6   11.22    2.90
   3  12  -6    0.64    2.94
   2  12  -6   25.06    2.87
  -2 -12   6   24.35    3.20
   1  12  -6   33.38    3.48
   1  12  -6   34.22    4.30
   0  12  -6    8.55    2.48
   0  12  -6    9.78    2.58
  -1  12  -6    9.95    1.96
  -1  12  -6    6.01    3.13
  -2  12  -6   42.62    4.06
  -2  12  -6   48.70    3.96
   2 -12   6   43.14    3.99
   2 -12   6   41.25    4.39
  -3  12  -6   32.43    3.71
   3 -12   6   32.77    3.49
   3 -12   6   27.37    3.68
  -4  12  -6    0.44    2.69
   4 -12   6    2.05    2.57
   4 -12   6   -1.15    2.85
  -5  12  -6   29.69    4.04
   5 -12   6   38.16    4.39
   5 -12   6   38.44    4.36
  -6  12  -6   40.58    4.58
   6 -12   6   33.19    4.37
   6 -12   6   40.01    4.13
   7 -12   6    2.94    3.06
   7 -12   6    0.63    3.28
   5  11  -6    4.39    2.94
   4  11  -6   21.29    3.61
   4  11  -6   28.67    3.52
   3  11  -6   21.38    3.03
   3  11  -6   21.82    3.11
  -3 -11   6   27.27    3.32
   2  11  -6    7.55    2.92
   2  11  -6    8.35    2.41
  -2 -11   6    4.27    2.25
   1  11  -6   27.76    3.38
   1  11  -6   28.21    2.74
  -1 -11   6   32.62    3.02
   0  11  -6   30.81    3.07
  -1  11  -6    4.29    2.01
  -1  11  -6    1.69    1.96
   1 -11   6    3.35    2.15
  -2  11  -6   30.57    2.97
  -2  11  -6   24.38    3.52
   2 -11   6   21.96    2.79
   2 -11   6   31.62    3.65
  -3  11  -6   50.77    4.01
   3 -11   6   54.70    4.66
   3 -11   6   54.20    4.08
  -4  11  -6    8.89    2.83
   4 -11   6   11.82    2.95
   4 -11   6    6.44    2.62
  -5  11  -6    7.26    2.89
   5 -11   6    6.67    2.71
   5 -11   6    3.74    2.16
  -6  11  -6   40.02    4.28
   6 -11   6   40.35    4.54
   6 -11   6   42.26    4.03
   7 -11   6    9.36    2.64
   7 -11   6   18.63    3.14
   8 -11   6   -1.79    2.15
   8 -11   6    1.04    2.89
   6  10  -6   17.03    2.25
   6  10  -6   20.73    3.50
   6  10  -6   14.72    3.12
   5  10  -6    2.34    2.31
   5  10  -6    1.35    1.84
   5  10  -6    0.33    1.51
   4  10  -6   29.58    3.88
   4  10  -6   31.10    2.31
   4  10  -6   37.59    3.51
   3  10  -6   42.53    4.12
   3  10  -6   37.97    3.38
  -3 -10   6   35.00    3.08
   2  10  -6   10.36    2.15
   2  10  -6   12.97    1.37
   2  10  -6   11.88    2.84
  -2 -10   6   15.28    2.33
   1  10  -6    7.72    2.01
   1  10  -6    8.77    2.13
  -1 -10   6    8.62    1.53
   0  10  -6   47.03    4.18
   0  10  -6   40.59    2.81
   0 -10   6   43.38    3.77
  -1  10  -6   26.34    3.39
  -1  10  -6   28.27    2.75
   1 -10   6   26.09    3.13
  -2  10  -6    2.68    2.20
   2 -10   6    3.59    2.16
   2 -10   6    2.60    1.54
  -3  10  -6   48.75    4.20
   3 -10   6   47.23    4.28
   3 -10   6   48.88    4.20
  -4  10  -6   37.10    3.35
   4 -10   6   37.29    3.46
   4 -10   6   35.53    3.31
  -5  10  -6    0.51    1.70
   5 -10   6    1.42    2.40
   5 -10   6   -0.58    2.18
  -6  10  -6   15.64    3.01
   6 -10   6   15.95    3.16
   6 -10   6   17.19    3.21
   7 -10   6   44.77    4.62
   7 -10   6   39.16    4.44
   8 -10   6    1.10    3.07
   8 -10   6    0.93    2.08
   9 -10   6    5.15    3.18
   7   9  -6    8.21    2.06
   7   9  -6    2.77    2.61
   6   9  -6   51.57    4.76
   6   9  -6   49.45    3.36
   5   9  -6   17.35    1.98
   5   9  -6   16.50    3.22
   5   9  -6   16.47    2.25
   4   9  -6    0.85    1.20
   4   9  -6    1.08    2.16
   4   9  -6    1.81    1.82
   3   9  -6   44.11    2.37
   3   9  -6   41.49    2.85
   3   9  -6   48.01    4.25
  -3  -9   6   46.19    3.07
   2   9  -6   46.08    2.89
   2   9  -6   48.55    4.26
   2   9  -6   52.60    2.47
  -2  -9   6   51.47    3.45
   1   9  -6    1.85    1.45
   1   9  -6   -0.48    1.45
   1   9  -6    0.51    0.82
  -1  -9   6    0.36    0.96
  -1  -9   6   -0.45    1.51
   0   9  -6   35.62    1.82
   0   9  -6   34.52    2.99
   0   9  -6   38.48    2.50
   0  -9   6   34.62    3.34
   0  -9   6   39.27    2.44
  -1   9  -6   89.66    4.08
  -1   9  -6   98.77    4.78
  -1   9  -6   90.41    3.17
   1  -9   6   99.18    5.24
   1  -9   6   88.06    3.78
  -2   9  -6   14.73    1.21
  -2   9  -6   15.45    2.58
   2  -9   6   13.42    2.44
  -3   9  -6   20.79    2.74
  -3   9  -6   18.93    1.21
   3  -9   6   23.03    2.95
   3  -9   6   17.08    2.23
  -4   9  -6   63.20    4.28
  -4   9  -6   60.49    2.40
   4  -9   6   61.31    4.55
   4  -9   6   62.32    4.36
  -5   9  -6   43.03    1.99
  -5   9  -6   44.58    3.31
   5  -9   6   40.73    3.47
   5  -9   6   45.17    4.29
  -6   9  -6    1.96    2.07
  -6   9  -6    5.50    1.24
   6  -9   6    7.08    2.56
   6  -9   6   -0.74    2.50
   7  -9   6   36.87    4.13
   7  -9   6   45.08    4.42
  -8   9  -6   19.42    1.95
   8  -9   6   24.25    3.97
   8  -9   6   25.02    3.40
  -9   9  -6    0.32    1.55
   9  -9   6    0.34    3.32
   9  -9   6    2.28    2.78
   8   8  -6   14.68    2.36
   8   8  -6   13.52    2.95
   8   8  -6   19.25    2.61
   7   8  -6    0.95    2.19
   7   8  -6    0.66    2.43
   7   8  -6   -0.56    1.73
   6   8  -6   51.22    4.48
   6   8  -6   51.34    3.23
   6   8  -6   46.72    3.26
   5   8  -6   57.94    3.13
   5   8  -6   65.17    4.74
   4   8  -6    6.52    2.40
   4   8  -6    5.43    1.25
   4   8  -6    7.65    1.89
   3   8  -6   34.57    2.80
   3   8  -6   38.46    3.12
   3   8  -6   40.46    2.16
  -3  -8   6   35.41    3.05
   2   8  -6  108.32    4.70
   2   8  -6  116.02    3.93
   2   8  -6  110.93    5.65
  -2  -8   6  110.44    5.23
  -2  -8   6  110.56    4.87
   1   8  -6   51.27    2.27
   1   8  -6   52.39    2.97
   1   8  -6   44.74    3.23
  -1  -8   6   52.79    2.83
  -1  -8   6   50.90    3.51
   0   8  -6   20.03    1.33
   0   8  -6   19.67    2.24
   0   8  -6   20.31    2.06
   0  -8   6   20.13    2.25
   0  -8   6   20.95    1.95
  -1   8  -6   96.32    4.20
  -1   8  -6   91.07    4.80
  -1   8  -6   93.13    3.35
   1  -8   6   95.54    4.80
  -2   8  -6  113.64    5.37
  -2   8  -6  115.27    3.87
   2  -8   6  109.87    5.16
   2  -8   6  113.78    5.71
  -3   8  -6    7.51    1.07
  -3   8  -6    6.13    1.88
   3  -8   6    7.46    2.00
   3  -8   6    7.46    2.05
  -4   8  -6   66.72    4.00
  -4   8  -6   67.72    2.77
   4  -8   6   60.24    4.32
   4  -8   6   67.87    4.31
  -5   8  -6  106.10    3.92
  -5   8  -6  105.86    5.12
   5  -8   6   90.80    4.99
   5  -8   6  102.39    5.76
  -6   8  -6   17.21    2.47
  -6   8  -6   15.24    1.58
   6  -8   6   13.48    2.79
   6  -8   6   17.18    2.91
  -7   8  -6   19.28    2.08
   7  -8   6   13.58    2.68
   7  -8   6   12.37    2.87
  -8   8  -6   39.43    2.94
   8  -8   6   44.52    4.05
   8  -8   6   38.51    3.77
  -9   8  -6   10.12    2.09
   9  -8   6   18.23    3.60
   9  -8   6   12.21    2.81
 -10   8  -6    0.46    2.08
  10  -8   6   -1.71    2.82
   9   7  -6   21.16    3.06
   8   7  -6   42.67    4.09
   8   7  -6   36.23    2.89
   8   7  -6   37.96    3.51
   7   7  -6    7.61    1.95
   7   7  -6    4.14    2.06
   7   7  -6    1.03    2.25
   6   7  -6   24.28    3.33
   6   7  -6   23.39    2.03
   6   7  -6   26.34    2.61
   5   7  -6  104.46    4.15
   5   7  -6   98.68    5.16
   5   7  -6  104.48    4.43
   4   7  -6   41.26    3.69
   4   7  -6   44.33    2.37
   3   7  -6    5.11    1.38
   3   7  -6    3.78    0.96
   3   7  -6    2.19    1.88
   2   7  -6  152.22    5.78
   2   7  -6  143.56    6.37
   2   7  -6  174.38    5.23
  -2  -7   6  155.93    6.68
  -2  -7   6  157.63    5.96
   1   7  -6  119.07    4.67
   1   7  -6  115.80    5.18
   1   7  -6  116.83    4.00
  -1  -7   6  124.26    4.64
  -1  -7   6  121.34    5.59
   0   7  -6   11.60    1.38
   0   7  -6   13.09    1.98
   0   7  -6    9.01    1.02
   0  -7   6   11.51    1.17
   0  -7   6   12.31    2.03
  -1   7  -6   40.75    2.98
  -1   7  -6   43.48    2.04
  -1   7  -6   37.85    2.23
   1  -7   6   40.41    3.13
   1  -7   6   39.17    1.80
  -2   7  -6  138.81    4.55
   2  -7   6  138.22    6.31
   2  -7   6  131.44    5.45
  -3   7  -6   71.18    3.84
  -3   7  -6   78.40    3.03
   3  -7   6   69.57    4.00
   3  -7   6   71.57    3.96
  -4   7  -6   28.47    2.52
  -4   7  -6   27.33    1.99
   4  -7   6   23.79    2.67
   4  -7   6   25.24    2.81
  -5   7  -6  113.64    4.30
  -5   7  -6  111.13    5.07
   5  -7   6  108.91    5.81
   5  -7   6  108.11    5.58
  -6   7  -6   67.23    3.11
   6  -7   6   58.86    3.95
   6  -7   6   53.06    4.45
  -7   7  -6   -0.19    1.29
   7  -7   6    0.41    1.44
   7  -7   6   -1.68    2.38
  -8   7  -6   31.04    2.71
   8  -7   6   35.41    3.98
   8  -7   6   40.47    4.31
  -9   7  -6   33.26    3.09
   9  -7   6   33.83    4.19
   9  -7   6   31.16    4.21
 -10   7  -6   -0.12    2.14
  10  -7   6    3.83    2.83
   9   6  -6    6.50    2.63
   9   6  -6    7.60    2.40
   9   6  -6    4.28    2.27
   8   6  -6   39.09    2.97
   8   6  -6   49.48    3.48
   8   6  -6   42.80    4.11
   7   6  -6   33.49    3.11
   7   6  -6   37.24    3.69
   7   6  -6   41.16    2.93
   6   6  -6    2.88    1.00
   6   6  -6    1.16    1.45
   6   6  -6    0.64    2.13
  -6  -6   6    1.77    0.92
   5   6  -6   79.35    3.42
   5   6  -6   81.43    3.55
   5   6  -6   76.81    4.29
  -5  -6   6   82.16    3.42
   4   6  -6  102.01    5.30
   4   6  -6  109.31    3.96
  -4  -6   6  107.61    3.91
   3   6  -6    6.08    1.21
   3   6  -6    2.98    1.79
   3   6  -6    5.21    0.95
  -3  -6   6    6.20    0.97
   2   6  -6   80.96    2.95
   2   6  -6   76.00    4.13
   2   6  -6   80.85    3.38
  -2  -6   6   80.72    2.93
  -2  -6   6   77.37    4.00
   1   6  -6  131.93    5.48
   1   6  -6  126.58    4.73
   1   6  -6  128.73    4.20
  -1  -6   6  127.49    4.64
  -1  -6   6  117.73    5.64
  -1  -6   6  130.72    4.19
   0   6  -6   32.84    1.68
   0   6  -6   32.74    2.57
   0   6  -6   32.83    2.12
   0  -6   6   34.11    1.67
   0  -6   6   34.75    1.64
   0  -6   6   35.19    2.77
  -1   6  -6    7.00    1.28
  -1   6  -6    8.02    0.98
   1  -6   6    6.25    1.36
   1  -6   6    7.21    0.70
   1  -6   6    7.20    0.91
  -2   6  -6  159.50    5.21
  -2   6  -6  162.72    6.00
   2  -6   6  155.24    6.01
   2  -6   6  157.48    6.73
  -3   6  -6  120.22    4.25
  -3   6  -6  117.87    4.95
   3  -6   6  125.07    5.27
   3  -6   6  120.10    5.70
  -4   6  -6   -0.27    0.90
  -4   6  -6   -1.61    1.04
   4  -6   6   -1.84    1.37
   4  -6   6    0.52    0.86
   4  -6   6    0.26    1.08
  -5   6  -6   77.34    3.40
  -5   6  -6   78.38    3.85
   5  -6   6   79.37    4.14
   5  -6   6   76.29    4.26
  -6   6  -6  101.61    4.13
   6  -6   6   94.16    5.40
   6  -6   6   92.63    5.05
  -7   6  -6   14.63    2.03
   7  -6   6   16.02    2.84
   7  -6   6   17.43    2.55
  -8   6  -6   24.21    2.61
   8  -6   6   20.81    3.52
   8  -6   6   17.40    3.12
  -9   6  -6   46.56    3.83
   9  -6   6   52.04    4.46
   9  -6   6   51.91    4.21
 -10   6  -6   13.48    2.68
  10  -6   6   11.24    3.17
  10  -6   6   10.08    3.00
  10   5  -6   17.64    2.88
   9   5  -6    0.17    1.43
   9   5  -6    0.21    1.82
  -9  -5   6   -1.09    1.86
   8   5  -6   25.32    2.54
   8   5  -6   23.54    2.19
  -8  -5   6   19.66    2.01
   7   5  -6   51.59    3.15
   7   5  -6   48.86    3.13
  -7  -5   6   50.31    3.05
   6   5  -6    9.21    1.52
   6   5  -6   15.51    1.79
  -6  -5   6   11.24    1.58
   5   5  -6   48.58    2.65
   5   5  -6   45.84    2.46
  -5  -5   6   48.33    2.43
   4   5  -6  142.94    4.78
  -4  -5   6  145.51    4.77
   3   5  -6   35.24    2.01
   3   5  -6   32.86    1.77
   3   5  -6   32.62    2.48
  -3  -5   6   34.37    1.75
   2   5  -6   22.98    1.66
   2   5  -6   26.78    2.41
   2   5  -6   25.35    1.47
  -2  -5   6   25.68    1.44
  -2  -5   6   25.35    2.23
   1   5  -6  153.91    4.79
   1   5  -6  139.09    5.77
   1   5  -6  149.85    5.20
  -1  -5   6  143.74    6.30
  -1  -5   6  153.73    4.76
   0   5  -6  111.14    4.56
   0   5  -6  110.13    3.71
   0   5  -6  107.32    4.06
   0  -5   6  107.16    3.70
   0  -5   6  110.45    5.05
  -1   5  -6    0.31    0.64
  -1   5  -6    0.07    0.97
   1  -5   6    0.39    0.70
   1  -5   6    1.28    1.21
  -2   5  -6  119.71    4.18
  -2   5  -6  123.45    4.73
   2  -5   6  120.72    4.89
   2  -5   6  124.71    5.52
   2  -5   6  114.62    4.18
  -3   5  -6  193.43    6.73
  -3   5  -6  194.34    6.16
   3  -5   6  180.77    7.67
   3  -5   6  192.25    7.09
   3  -5   6  180.80    6.04
  -4   5  -6   29.86    1.80
  -4   5  -6   33.14    2.25
   4  -5   6   33.74    2.49
   4  -5   6   29.77    2.04
   4  -5   6   29.65    2.39
  -5   5  -6   20.57    1.97
  -5   5  -6   20.86    1.77
   5  -5   6   19.42    2.22
   5  -5   6   20.63    1.85
   5  -5   6   23.58    2.39
  -6   5  -6  102.41    4.22
   6  -5   6   90.10    4.10
   6  -5   6   89.36    4.86
   6  -5   6  101.27    5.31
  -7   5  -6   60.24    3.48
   7  -5   6   55.99    4.32
   7  -5   6   55.85    3.92
  -8   5  -6    1.70    1.79
   8  -5   6   -0.84    2.44
   8  -5   6    1.81    2.13
  -9   5  -6   29.90    3.17
   9  -5   6   35.09    3.65
   9  -5   6   23.45    3.44
 -10   5  -6   21.98    3.22
  10  -5   6   26.00    4.26
 -11  -4   6    6.90    1.92
  10   4  -6   18.38    2.99
  10   4  -6   22.28    2.92
 -10  -4   6   19.01    2.83
   9   4  -6   11.71    2.24
   9   4  -6    9.11    1.95
   9   4  -6   10.16    2.23
  -9  -4   6   11.89    2.18
   8   4  -6    5.00    1.73
   8   4  -6    5.83    1.74
   8   4  -6    2.32    1.45
  -8  -4   6    3.97    1.60
   7   4  -6   60.46    3.13
   7   4  -6   55.21    2.77
   7   4  -6   54.50    3.74
  -7  -4   6   54.66    3.07
   6   4  -6   59.53    2.97
   6   4  -6   64.81    3.02
  -6  -4   6   62.53    2.98
   5   4  -6   -0.89    0.83
   5   4  -6   -0.85    0.87
  -5  -4   6    0.80    0.89
   4   4  -6  133.91    4.52
   4   4  -6  139.02    4.83
  -4  -4   6  137.62    4.51
   3   4  -6   95.87    3.43
   3   4  -6   97.02    3.60
  -3  -4   6  101.58    3.44
   2   4  -6   12.64    1.13
   2   4  -6   13.69    1.23
  -2  -4   6   14.65    1.13
  -2  -4   6   12.63    1.51
   1   4  -6   96.59    3.47
   1   4  -6   86.81    3.97
   1   4  -6   86.55    3.15
  -1  -4   6   94.68    3.23
  -1  -4   6  102.16    3.38
  -1  -4   6   88.17    4.37
   0   4  -6  241.20    8.34
   0   4  -6  249.13    7.90
   0   4  -6  246.21    7.43
   0  -4   6  245.79    7.42
   0  -4   6  235.06    9.42
  -1   4  -6   59.41    2.54
  -1   4  -6   64.64    2.89
   1  -4   6   65.42    2.57
   1  -4   6   63.99    3.48
  -2   4  -6   10.26    1.21
  -2   4  -6    9.07    1.13
   2  -4   6    5.89    1.33
   2  -4   6    5.79    1.45
  -3   4  -6  123.77    4.58
  -3   4  -6  123.50    4.34
   3  -4   6  116.42    5.39
   3  -4   6  127.25    4.35
   3  -4   6  126.96    4.95
  -4   4  -6  106.97    4.11
  -4   4  -6   98.78    3.99
   4  -4   6  103.13    4.72
   4  -4   6   98.31    4.96
   4  -4   6  105.72    4.03
  -5   4  -6   -0.17    1.11
   5  -4   6   -2.23    1.60
   5  -4   6    0.26    1.12
   5  -4   6    0.27    1.00
  -6   4  -6   50.43    2.75
   6  -4   6   50.14    3.32
   6  -4   6   50.41    2.75
   6  -4   6   58.13    3.96
  -7   4  -6   66.34    3.50
   7  -4   6   68.71    3.48
   7  -4   6   73.28    4.81
   7  -4   6   70.90    4.52
  -8   4  -6   11.08    2.17
   8  -4   6    3.56    2.61
   8  -4   6    2.35    1.86
   8  -4   6    3.40    2.07
  -9   4  -6    2.29    2.26
   9  -4   6    3.08    2.34
   9  -4   6    5.60    3.01
 -10   4  -6   17.33    3.12
  10  -4   6   13.17    3.83
  11   3  -6   -2.00    2.97
  11   3  -6   -0.46    2.30
 -11  -3   6   -1.35    2.05
  10   3  -6   21.74    2.40
  10   3  -6   19.88    2.78
 -10  -3   6   20.12    2.28
   9   3  -6   36.29    2.80
   9   3  -6   37.92    3.20
   9   3  -6   45.37    3.34
  -9  -3   6   38.07    3.22
   8   3  -6    7.74    1.48
   8   3  -6    6.42    1.34
   8   3  -6    8.98    1.79
  -8  -3   6    6.18    1.34
   7   3  -6   15.19    1.62
   7   3  -6   20.54    2.30
   7   3  -6   15.76    1.83
  -7  -3   6   20.36    1.90
   6   3  -6  160.33    6.06
   6   3  -6  157.15    5.43
   6   3  -6  149.51    5.35
  -6  -3   6  155.98    5.37
   5   3  -6   28.71    1.41
   5   3  -6   28.62    1.82
   5   3  -6   26.37    1.48
   5   3  -6   30.56    2.21
  -5  -3   6   28.05    1.79
   4   3  -6    4.13    0.72
   4   3  -6    4.99    0.56
  -4  -3   6    5.17    0.88
   3   3  -6  168.40    5.81
   3   3  -6  168.35    5.31
   3   3  -6  168.95    5.53
  -3  -3   6  170.57    5.34
   2   3  -6  137.29    4.37
   2   3  -6  133.31    4.48
  -2  -3   6  137.76    4.35
  -2  -3   6  129.96    5.64
   1   3  -6   -0.04    0.57
   1   3  -6    0.44    0.43
  -1  -3   6   -0.38    0.59
  -1  -3   6   -0.08    1.06
   0   3  -6  113.29    3.76
   0   3  -6  112.60    3.84
   0   3  -6  114.91    4.22
   0  -3   6  115.90    3.85
   0  -3   6  106.79    4.88
  -1   3  -6  139.69    4.73
  -1   3  -6  139.66    4.96
   1  -3   6  141.72    5.16
   1  -3   6  152.39    4.78
   1  -3   6  135.16    5.87
  -2   3  -6   28.42    1.62
  -2   3  -6   27.23    1.59
   2  -3   6   30.27    1.37
   2  -3   6   33.18    2.10
   2  -3   6   25.15    2.02
  -3   3  -6   29.33    1.98
  -3   3  -6   32.60    1.78
   3  -3   6   35.04    2.10
   3  -3   6   30.76    2.53
   3  -3   6   30.45    2.07
  -4   3  -6  109.76    3.87
  -4   3  -6   98.00    3.93
   4  -3   6  104.69    3.97
   4  -3   6   99.36    4.90
   4  -3   6  103.95    4.67
  -5   3  -6   41.55    2.73
   5  -3   6   50.92    2.90
   5  -3   6   49.00    3.22
   5  -3   6   43.95    3.39
  -6   3  -6   25.63    2.11
   6  -3   6   24.94    2.65
   6  -3   6   23.13    2.44
   6  -3   6   24.26    2.14
  -7   3  -6   36.89    2.70
   7  -3   6   35.27    3.15
   7  -3   6   34.98    2.66
   7  -3   6   40.80    3.45
  -8   3  -6   20.31    2.78
   8  -3   6   28.85    3.60
   8  -3   6   21.78    2.98
   8  -3   6   23.12    2.78
  -9   3  -6   -1.54    2.04
   9  -3   6   -3.00    2.72
   9  -3   6    0.59    2.25
  10  -3   6   15.99    3.00
 -12  -2   6   20.29    3.22
  11   2  -6   11.16    3.30
  11   2  -6    9.12    2.02
 -11  -2   6    7.39    1.99
  10   2  -6    0.39    1.94
  10   2  -6    4.63    1.92
 -10  -2   6    1.16    1.83
   9   2  -6   69.05    3.84
   9   2  -6   61.51    4.36
   9   2  -6   66.28    3.32
  -9  -2   6   69.29    3.79
   8   2  -6   64.56    3.07
   8   2  -6   66.40    3.59
   8   2  -6   69.27    3.46
  -8  -2   6   66.01    3.42
   7   2  -6    0.05    0.82
   7   2  -6   -0.75    1.00
   7   2  -6   -0.66    1.26
  -7  -2   6    2.87    1.20
   6   2  -6   45.76    2.42
   6   2  -6   53.52    2.22
   6   2  -6   48.14    2.77
  -6  -2   6   47.86    2.46
   5   2  -6  188.21    6.65
   5   2  -6  190.35    6.07
   5   2  -6  182.65    6.09
   5   2  -6  198.29    6.67
  -5  -2   6  187.24    6.05
   4   2  -6   10.89    0.97
   4   2  -6   10.20    0.91
  -4  -2   6   11.01    0.99
   3   2  -6   61.36    2.28
   3   2  -6   64.34    2.48
   3   2  -6   61.81    2.41
  -3  -2   6   60.69    2.40
   2   2  -6  216.87    6.48
   2   2  -6  214.32    6.68
   2   2  -6  198.55    7.39
  -2  -2   6  218.72    6.47
  -2  -2   6  216.30    8.27
   1   2  -6   97.93    3.28
   1   2  -6   98.26    3.85
  -1  -2   6   89.80    4.27
  -1  -2   6   97.47    3.27
   0   2  -6   25.34    1.57
   0   2  -6   25.60    1.54
   0  -2   6   25.56    1.56
   0  -2   6   25.02    1.91
  -1   2  -6   97.79    3.51
  -1   2  -6  100.73    3.54
   1  -2   6   99.82    3.37
   1  -2   6   94.21    3.48
   1  -2   6  100.04    3.77
   1  -2   6   91.87    4.34
  -2   2  -6  114.88    4.07
   2  -2   6  112.23    4.97
   2  -2   6  118.67    3.63
   2  -2   6  113.99    4.42
   2  -2   6  109.89    4.14
  -3   2  -6    8.76    0.81
  -3   2  -6    6.87    1.27
   3  -2   6    9.98    1.33
   3  -2   6    9.19    1.59
   3  -2   6    9.61    1.21
  -4   2  -6  160.33    5.77
   4  -2   6  169.86    6.33
   4  -2   6  152.07    6.67
   4  -2   6  169.48    5.83
  -5   2  -6   74.76    3.65
   5  -2   6   79.43    4.15
   5  -2   6   76.51    3.84
   5  -2   6   74.72    3.41
  -6   2  -6   13.31    1.95
   6  -2   6   12.94    1.98
   6  -2   6    9.22    1.63
   6  -2   6   10.42    1.84
  -7   2  -6   21.17    2.57
   7  -2   6   27.47    3.17
   7  -2   6   21.17    2.56
   7  -2   6   24.14    2.67
  -8   2  -6   37.88    3.13
   8  -2   6   37.69    3.09
   8  -2   6   47.84    4.22
  -9   2  -6   16.25    2.88
   9  -2   6    7.02    2.60
   9  -2   6    7.50    2.38
  10  -2   6   -0.55    1.74
  12   1  -6   26.39    4.28
  12   1  -6   27.36    3.33
 -12  -1   6   24.11    3.25
  11   1  -6   44.47    4.33
  11   1  -6   46.53    4.02
 -11  -1   6   55.40    4.07
  10   1  -6    1.86    1.73
  10   1  -6    1.59    1.84
 -10  -1   6    0.54    1.87
   9   1  -6   45.81    2.64
   9   1  -6   51.11    3.26
   9   1  -6   51.03    3.78
  -9  -1   6   54.54    3.25
   8   1  -6  106.93    4.94
   8   1  -6  113.35    4.20
   8   1  -6  108.59    4.24
  -8  -1   6  107.48    4.22
   7   1  -6   38.52    1.88
   7   1  -6   39.65    2.32
   7   1  -6   38.22    2.66
  -7  -1   6   35.08    2.33
   6   1  -6   30.32    1.90
   6   1  -6   31.20    1.49
   6   1  -6   30.03    2.10
  -6  -1   6   29.47    1.91
   5   1  -6  226.21    7.08
   5   1  -6  236.08    7.65
   5   1  -6  237.55    8.00
   5   1  -6  219.47    7.05
  -5  -1   6  217.51    7.04
   4   1  -6  135.79    4.37
   4   1  -6  144.99    5.00
   4   1  -6  140.00    4.46
   4   1  -6  135.06    4.73
  -4  -1   6  130.54    4.42
   3   1  -6    6.81    0.81
   3   1  -6    4.82    0.81
   3   1  -6    5.58    0.61
  -3  -1   6    6.66    0.78
   2   1  -6  309.70   10.67
   2   1  -6  308.63    9.17
  -2  -1   6  312.77    9.17
   1   1  -6  173.70    5.33
   1   1  -6  161.55    6.22
  -1  -1   6  170.71    5.32
  -1  -1   6  171.95    6.89
   0   1  -6   32.95    1.71
   0  -1   6   39.64    1.81
   0  -1   6   42.17    2.42
   0  -1   6   36.97    1.91
  -1   1  -6   92.39    3.47
  -1   1  -6   90.36    3.18
   1  -1   6   91.06    4.18
   1  -1   6   92.84    3.49
   1  -1   6   94.19    3.52
   1  -1   6   92.45    3.03
  -2   1  -6  296.44    8.92
  -2   1  -6  293.35    8.97
  -2   1  -6  295.17    9.19
   2  -1   6  277.75    9.47
   2  -1   6  292.28    8.98
   2  -1   6  268.07   10.77
  -3   1  -6   83.94    3.17
  -3   1  -6   84.44    3.60
   3  -1   6   87.78    3.47
   3  -1   6   84.38    4.16
   3  -1   6   88.09    3.79
  -4   1  -6   12.29    1.69
   4  -1   6   15.78    1.87
   4  -1   6   12.61    1.77
   4  -1   6   11.30    1.65
  -5   1  -6  124.17    5.07
   5  -1   6  125.76    5.67
   5  -1   6  126.22    5.50
   5  -1   6  126.32    5.08
  -6   1  -6   59.20    3.31
   6  -1   6   67.51    4.19
   6  -1   6   63.16    3.39
   6  -1   6   63.99    3.78
  -7   1  -6   -3.27    1.66
   7  -1   6    0.94    1.48
   7  -1   6   -1.07    1.86
   7  -1   6   -2.88    1.39
  -8   1  -6   26.03    3.16
   8  -1   6   23.52    3.06
   8  -1   6   26.41    3.50
  -9   1  -6   39.27    3.61
   9  -1   6   32.80    3.97
   9  -1   6   34.42    3.31
  10  -1   6   -2.85    2.80
  12   0  -6   16.13    3.41
  12   0  -6   20.13    2.97
 -12   0   6   21.87    3.12
  11   0  -6   62.92    4.80
  11   0  -6   52.83    3.49
 -11   0   6   58.34    4.08
  10   0  -6   35.71    2.89
  10   0  -6   32.11    2.96
 -10   0   6   34.49    2.89
   9   0  -6   16.13    2.00
   9   0  -6   15.47    2.20
  -9   0   6   13.24    1.90
   8   0  -6  122.62    5.12
   8   0  -6  119.35    4.24
   8   0  -6  119.56    4.64
  -8   0   6  121.74    4.66
   7   0  -6  116.03    4.29
   7   0  -6  114.34    4.52
   7   0  -6  119.17    3.96
  -7   0   6  117.84    4.33
   6   0  -6    0.44    0.46
   6   0  -6   -0.31    0.55
   6   0  -6   -0.82    0.87
  -6   0   6   -0.09    0.59
   5   0  -6  213.21    7.21
   5   0  -6  219.86    6.78
   5   0  -6  221.08    7.76
   5   0  -6  220.45    6.67
  -5   0   6  215.30    6.74
   4   0  -6  422.11   12.65
   4   0  -6  443.02   14.75
   4   0  -6  433.97   13.52
   4   0  -6  432.67   12.94
  -4   0   6  441.21   12.68
   3   0  -6   17.03    1.08
   3   0  -6   18.79    1.30
  -3   0   6   17.87    1.11
   2   0  -6   75.10    3.08
   2   0  -6   72.35    2.68
  -2   0   6   72.45    2.69
  -2   0   6   70.96    2.45
   1   0  -6  373.88   13.44
   1   0  -6  394.43   11.45
  -1   0   6  399.40   11.46
   0   0  -6  166.97    6.71
   0   0  -6  174.41    5.70
   0   0   6  186.14    7.10
   0   0   6  175.13    5.71
   0   0   6  181.74    5.80
  -1   0  -6    4.38    0.69
  -1   0  -6    3.87    1.01
  -1   0  -6    3.79    0.43
   1   0   6    3.84    0.32
   1   0   6    3.02    1.01
   1   0   6    4.67    0.86
   1   0   6    3.69    1.27
  -2   0  -6  233.49    7.40
  -2   0  -6  224.06    7.15
   2   0   6  212.19    7.12
   2   0   6  211.14    8.52
   2   0   6  227.12    7.53
  -3   0  -6  206.75    7.17
  -3   0  -6  215.15    7.10
   3   0   6  204.98    8.27
   3   0   6  216.30    7.47
   3   0   6  212.41    7.09
  -4   0  -6   22.24    2.10
  -4   0  -6   19.20    1.89
   4   0   6   16.97    1.72
   4   0   6   20.62    2.09
   4   0   6   24.63    2.23
  -5   0  -6   53.18    3.22
   5   0   6   48.51    3.15
   5   0   6   53.30    3.47
   5   0   6   50.88    3.23
  -6   0  -6   96.98    4.65
   6   0   6   93.01    4.64
   6   0   6   92.81    4.58
   6   0   6   86.94    4.56
  -7   0  -6   31.97    3.03
   7   0   6   29.43    3.12
   7   0   6   32.42    3.40
  -8   0  -6    8.61    2.12
   8   0   6   10.38    2.15
   8   0   6    9.00    2.81
  -9   0  -6   24.64    3.51
   9   0   6   22.71    3.60
   9   0   6   33.25    4.11
  13  -1  -6    8.72    2.17
  12  -1  -6   -0.76    2.16
  12  -1  -6    1.49    2.68
 -12   1   6    2.89    2.31
  11  -1  -6   44.63    3.50
  11  -1  -6   37.61    3.69
 -11   1   6   37.28    2.82
  10  -1  -6   53.50    3.32
  10  -1  -6   46.64    2.88
 -10   1   6   49.39    2.88
   9  -1  -6    3.10    1.67
   9  -1  -6    1.26    1.30
  -9   1   6    2.09    1.33
   8  -1  -6   83.09    3.33
   8  -1  -6   80.25    3.01
   8  -1  -6   82.87    3.87
  -8   1   6   79.18    3.33
   7  -1  -6  180.34    6.35
   7  -1  -6  176.48    5.56
   7  -1  -6  179.38    5.88
  -7   1   6  171.85    5.87
   6  -1  -6   72.76    2.94
   6  -1  -6   67.52    2.25
   6  -1  -6   68.55    2.77
  -6   1   6   64.02    2.75
   5  -1  -6   59.90    2.39
   5  -1  -6   57.83    2.37
   5  -1  -6   60.30    2.69
   5  -1  -6   54.82    1.81
  -5   1   6   58.75    2.40
   4  -1  -6  374.59   11.31
   4  -1  -6  365.96   12.54
   4  -1  -6  354.55   10.66
  -4   1   6  360.06   10.68
   3  -1  -6  170.59    5.43
   3  -1  -6  177.28    6.37
  -3   1   6  171.76    5.44
  -3   1   6  176.21    5.61
   2  -1  -6    4.96    0.81
   2  -1  -6    4.22    0.99
  -2   1   6    3.63    0.78
  -2   1   6    4.93    0.49
   1  -1  -6  242.49    9.06
   1  -1  -6  251.91    7.75
  -1   1   6  254.56    7.76
  -1   1   6  264.12    7.87
   0  -1  -6  363.13   13.30
   0  -1  -6  372.01   11.25
   0   1   6  387.39   11.73
   0   1   6  391.48   12.01
   0   1   6  371.91   11.26
  -1  -1  -6   24.15    1.47
  -1  -1  -6   22.52    0.77
  -1  -1  -6   21.10    1.72
  -1  -1  -6   20.14    0.75
   1   1   6   19.47    1.48
   1   1   6   22.36    2.09
   1   1   6   21.69    0.96
   1   1   6   20.77    1.41
  -2  -1  -6   69.58    2.96
  -2  -1  -6   66.67    3.10
   2   1   6   67.82    3.02
   2   1   6   74.61    3.63
   2   1   6   67.96    3.13
  -3  -1  -6  195.19    6.73
  -3  -1  -6  198.97    7.08
   3   1   6  197.56    6.75
   3   1   6  205.02    7.16
   3   1   6  203.90    7.86
  -4  -1  -6   70.15    3.33
  -4  -1  -6   63.42    3.44
   4   1   6   65.77    3.59
   4   1   6   70.40    3.61
   4   1   6   68.92    3.55
  -5  -1  -6   10.41    1.69
  -5  -1  -6    5.87    1.78
   5   1   6    6.66    1.90
   5   1   6   10.54    2.08
   5   1   6   10.56    1.69
  -6  -1  -6  111.15    5.08
   6   1   6  104.79    5.32
   6   1   6   92.07    4.94
  -7  -1  -6   52.25    4.06
   7   1   6   49.62    4.40
   7   1   6   54.76    4.15
  -8  -1  -6    2.96    1.84
   8   1   6   -0.02    2.43
   8   1   6    2.61    2.71
  -9  -1  -6   18.44    3.35
   9   1   6   16.57    3.42
   9   1   6   19.20    3.47
  13  -2  -6   14.33    2.78
  12  -2  -6    2.14    1.55
  12  -2  -6    4.00    1.90
 -12   2   6    5.94    1.72
  11  -2  -6   12.79    2.24
  11  -2  -6   13.08    2.24
 -11   2   6   17.30    2.36
  10  -2  -6   45.50    3.52
  10  -2  -6   51.53    3.19
 -10   2   6   45.09    3.10
   9  -2  -6   35.98    2.81
   9  -2  -6   29.80    2.44
  -9   2   6   34.72    2.47
   8  -2  -6   15.70    1.61
   8  -2  -6   17.63    1.86
  -8   2   6   12.12    1.49
   7  -2  -6  119.92    4.14
   7  -2  -6  118.81    3.73
   7  -2  -6  119.13    4.55
  -7   2   6  117.73    4.15
   6  -2  -6  126.78    4.53
   6  -2  -6  126.43    4.30
  -6   2   6  127.84    4.34
   5  -2  -6    2.25    0.87
   5  -2  -6    0.70    0.47
   5  -2  -6    1.29    0.58
  -5   2   6    0.41    0.50
   4  -2  -6  178.16    5.39
   4  -2  -6  167.68    6.30
   4  -2  -6  171.19    5.46
  -4   2   6  166.92    5.38
   3  -2  -6  263.62    9.31
   3  -2  -6  263.15    7.86
  -3   2   6  248.49    8.10
  -3   2   6  272.93    7.76
  -3   2   6  262.69    7.84
  -3   2   6  258.01    7.76
   2  -2  -6   36.04    1.76
   2  -2  -6   35.68    2.11
  -2   2   6   34.28    1.75
  -2   2   6   35.61    1.99
   1  -2  -6   87.23    3.86
   1  -2  -6   90.57    3.37
  -1   2   6   99.06    3.52
  -1   2   6   85.87    3.35
  -1   2   6   94.05    2.88
   0  -2  -6  315.95    9.59
   0  -2  -6  320.64    9.47
   0  -2  -6  281.16   11.09
   0   2   6  310.53    9.46
   0   2   6  319.59   10.00
   0   2   6  301.95    9.59
  -1  -2  -6  111.23    4.23
  -1  -2  -6  111.64    4.93
  -1  -2  -6  105.67    3.95
   1   2   6  104.92    3.87
   1   2   6  104.50    3.96
   1   2   6  110.19    3.74
  -2  -2  -6    8.25    1.40
  -2  -2  -6    9.55    1.32
   2   2   6    9.52    1.25
   2   2   6    6.94    1.39
  -3  -2  -6  133.06    5.29
  -3  -2  -6  128.99    5.12
   3   2   6  131.71    5.24
   3   2   6  144.52    5.81
   3   2   6  133.77    5.16
  -4  -2  -6  130.65    5.08
  -4  -2  -6  131.96    5.46
   4   2   6  126.47    5.08
   4   2   6  136.82    5.53
  -5  -2  -6    2.64    1.27
  -5  -2  -6    4.16    1.63
   5   2   6    3.46    1.40
   5   2   6    3.01    1.73
  -6  -2  -6   52.77    3.94
   6   2   6   58.45    4.30
   6   2   6   57.55    4.04
  -7  -2  -6   59.51    4.50
   7   2   6   59.84    4.66
   7   2   6   63.59    4.64
  -8  -2  -6   10.72    2.86
   8   2   6   11.74    3.06
   8   2   6   17.53    3.34
  13  -3  -6    8.98    3.05
 -13   3   6   11.46    2.09
  12  -3  -6   11.83    2.23
  12  -3  -6   13.77    2.97
 -12   3   6   14.50    2.42
  11  -3  -6   -3.59    1.96
  11  -3  -6    0.18    1.60
 -11   3   6   -1.91    1.61
  10  -3  -6   32.41    2.58
  10  -3  -6   35.74    3.10
 -10   3   6   31.39    2.69
   9  -3  -6   47.75    2.82
   9  -3  -6   59.12    3.32
  -9   3   6   58.59    2.97
   8  -3  -6    8.77    1.29
   8  -3  -6    8.08    1.21
  -8   3   6    7.87    1.32
   7  -3  -6   36.79    1.98
   7  -3  -6   37.87    2.16
  -7   3   6   35.67    2.04
   6  -3  -6  120.53    4.80
   6  -3  -6  112.07    3.92
   6  -3  -6  113.82    4.09
  -6   3   6  111.46    3.95
   5  -3  -6   39.82    1.82
   5  -3  -6   37.51    1.62
   5  -3  -6   35.88    2.06
  -5   3   6   38.84    1.83
   4  -3  -6   18.46    1.43
   4  -3  -6   19.64    0.90
   4  -3  -6   17.28    1.25
  -4   3   6   19.03    1.31
   3  -3  -6  243.81    8.74
   3  -3  -6  247.87    7.36
  -3   3   6  240.27    7.35
  -3   3   6  225.79    8.42
  -3   3   6  249.70    7.29
   2  -3  -6  142.53    4.57
   2  -3  -6  137.17    5.46
  -2   3   6  137.05    5.11
  -2   3   6  135.99    4.42
  -2   3   6  133.68    4.55
   1  -3  -6   -0.26    0.74
   1  -3  -6   -0.29    0.69
  -1   3   6    0.51    0.70
  -1   3   6   -0.10    0.54
   0  -3  -6   97.87    4.57
   0  -3  -6  103.96    4.29
   0  -3  -6  114.17    3.54
   0  -3  -6  103.91    3.96
   0  -3  -6  108.06    3.62
   0   3   6  109.57    4.02
   0   3   6  108.02    3.53
  -1  -3  -6  159.90    6.68
  -1  -3  -6  162.06    6.12
  -1  -3  -6  171.57    5.72
   1   3   6  166.77    5.66
   1   3   6  163.79    5.72
   1   3   6  164.45    5.58
  -2  -3  -6   12.97    1.69
  -2  -3  -6   13.33    1.67
   2   3   6   14.93    1.71
   2   3   6   13.88    1.46
  -3  -3  -6   44.71    2.92
  -3  -3  -6   48.88    2.85
   3   3   6   32.76    2.56
   3   3   6   41.16    2.79
  -4  -3  -6  138.62    5.67
  -4  -3  -6  129.71    5.31
   4   3   6  123.43    5.28
   4   3   6  118.82    5.42
  -5  -3  -6   45.47    3.51
  -5  -3  -6   41.83    3.34
   5   3   6   44.64    3.47
   5   3   6   36.33    3.47
  -6  -3  -6    4.02    2.17
  -6  -3  -6    6.21    1.68
   6   3   6    7.95    1.90
   6   3   6    5.33    2.36
  -7  -3  -6   20.03    3.03
   7   3   6   33.08    3.66
   7   3   6   32.84    3.58
  -8  -3  -6   14.90    2.51
   8   3   6   19.68    2.91
  13  -4  -6    2.73    1.97
 -13   4   6    0.17    2.99
 -13   4   6    5.83    1.82
  12  -4  -6   30.54    3.51
 -12   4   6   25.15    3.57
 -12   4   6   31.52    2.99
  11  -4  -6    9.20    2.28
 -11   4   6    7.50    1.87
  10  -4  -6    4.40    1.37
  10  -4  -6    2.98    1.78
 -10   4   6    4.72    1.50
   9  -4  -6   55.53    2.84
   9  -4  -6   55.00    3.20
  -9   4   6   52.87    2.85
   8  -4  -6   49.15    2.75
   8  -4  -6   51.28    2.47
  -8   4   6   47.89    2.51
   7  -4  -6    3.21    0.89
   7  -4  -6    5.83    1.05
  -7   4   6    3.46    1.00
   6  -4  -6   37.42    1.84
   6  -4  -6   38.02    1.89
   6  -4  -6   39.38    2.28
  -6   4   6   40.84    1.95
  -6   4   6   38.95    3.13
   5  -4  -6  137.27    4.54
   5  -4  -6  138.34    5.55
   5  -4  -6  139.08    4.51
  -5   4   6  147.32    4.57
  -5   4   6  127.34    5.76
   4  -4  -6    4.37    0.78
   4  -4  -6    4.08    0.38
   4  -4  -6    6.03    1.19
  -4   4   6    4.82    0.81
  -4   4   6    5.88    1.41
  -4   4   6    3.88    0.38
   3  -4  -6   52.53    2.64
   3  -4  -6   49.95    2.18
  -3   4   6   54.39    1.88
  -3   4   6   54.00    2.67
  -3   4   6   49.69    2.20
   2  -4  -6  126.05    4.30
   2  -4  -6  122.04    5.10
  -2   4   6  125.92    4.32
  -2   4   6  129.61    4.20
  -2   4   6  124.35    4.88
   1  -4  -6   48.72    2.76
   1  -4  -6   51.75    2.43
  -1   4   6   52.70    2.45
  -1   4   6   55.33    2.32
   0  -4  -6   20.61    1.97
   0  -4  -6   20.35    1.66
   0  -4  -6   15.38    1.78
   0   4   6   17.97    1.65
   0   4   6   15.61    1.45
  -1  -4  -6  100.86    5.15
  -1  -4  -6  110.58    4.71
  -1  -4  -6  116.39    4.30
   1   4   6  106.17    4.27
   1   4   6  108.70    4.14
   1   4   6  111.70    3.97
  -2  -4  -6   61.59    2.87
  -2  -4  -6   61.01    3.47
   2   4   6   56.24    2.86
   2   4   6   56.84    2.78
  -3  -4  -6   -1.01    1.02
  -3  -4  -6    3.56    1.44
   3   4   6    1.74    1.25
   3   4   6    1.92    1.51
  -4  -4  -6   63.25    3.99
  -4  -4  -6   65.65    3.71
   4   4   6   60.69    3.66
   4   4   6   58.57    3.64
  -5  -4  -6   33.65    2.88
  -5  -4  -6   43.68    3.71
   5   4   6   36.34    3.25
   5   4   6   37.24    2.90
  -6  -4  -6    4.67    2.21
  -6  -4  -6    8.06    2.52
   6   4   6    4.33    2.41
  -7  -4  -6    6.72    2.05
   7   4   6    8.23    2.27
   7   4   6    7.88    3.41
  13  -5  -6   -1.53    2.46
 -13   5   6    0.05    3.18
 -13   5   6    0.42    1.50
  12  -5  -6   26.51    3.23
 -12   5   6   23.85    4.01
 -12   5   6   25.92    2.42
  11  -5  -6   45.18    3.74
 -11   5   6   41.36    4.61
 -11   5   6   40.90    3.05
  10  -5  -6    4.56    1.76
 -10   5   6    5.70    1.19
 -10   5   6    4.13    2.81
   9  -5  -6   27.36    2.43
   9  -5  -6   25.99    2.04
  -9   5   6   25.52    3.59
  -9   5   6   24.47    2.10
   8  -5  -6   60.57    2.70
   8  -5  -6   62.28    3.03
  -8   5   6   60.77    2.80
  -8   5   6   57.31    4.54
   7  -5  -6   38.01    2.08
   7  -5  -6   34.29    2.37
   7  -5  -6   40.06    1.98
  -7   5   6   35.92    2.01
  -7   5   6   33.69    3.36
   6  -5  -6   40.70    1.92
   6  -5  -6   40.28    1.83
   6  -5  -6   40.12    2.61
  -6   5   6   30.82    3.07
  -6   5   6   39.12    1.95
   5  -5  -6   91.40    3.08
   5  -5  -6   91.48    3.21
   5  -5  -6   91.97    4.14
  -5   5   6   91.19    3.23
  -5   5   6   79.99    4.37
   4  -5  -6   95.92    4.33
   4  -5  -6   94.07    3.04
   4  -5  -6  102.32    3.44
  -4   5   6   94.46    4.47
  -4   5   6  100.55    3.22
  -4   5   6   97.11    3.42
   3  -5  -6   -0.86    0.69
   3  -5  -6   -0.63    0.64
  -3   5   6   -0.78    0.65
  -3   5   6   -1.11    1.07
  -3   5   6    1.06    0.50
   2  -5  -6   88.62    3.38
   2  -5  -6   92.27    4.23
  -2   5   6   88.61    3.40
  -2   5   6   89.01    3.95
  -2   5   6   90.97    3.29
   1  -5  -6   77.78    4.13
   1  -5  -6   90.30    3.41
  -1   5   6   83.65    3.75
  -1   5   6   94.07    3.47
  -1   5   6   82.20    3.40
   0  -5  -6   13.20    1.95
   0  -5  -6   16.25    1.51
   0  -5  -6   12.99    2.01
   0   5   6   13.33    1.59
   0   5   6   18.27    1.70
   0   5   6   15.08    1.69
  -1  -5  -6   27.31    2.68
  -1  -5  -6   30.79    3.10
  -1  -5  -6   30.62    1.99
   1   5   6   31.85    2.02
   1   5   6   33.38    2.10
   1   5   6   31.88    2.54
  -2  -5  -6  102.61    5.04
  -2  -5  -6  106.27    4.38
   2   5   6   99.01    4.94
   2   5   6  107.91    4.46
   2   5   6  105.99    4.29
  -3  -5  -6    9.24    1.78
  -3  -5  -6   13.38    2.40
   3   5   6   12.23    2.04
   3   5   6   17.06    1.89
   3   5   6   14.01    2.52
  -4  -5  -6   -0.15    1.56
  -4  -5  -6    0.08    1.44
   4   5   6   -0.06    1.72
   4   5   6    0.89    2.21
  -5  -5  -6   47.74    4.23
  -5  -5  -6   35.55    3.30
   5   5   6   44.97    4.42
   5   5   6   46.28    3.73
  -6  -5  -6    9.87    2.33
   6   5   6   17.94    2.48
   6   5   6   13.71    2.87
  13  -6  -6    4.15    2.62
 -13   6   6    6.31    3.25
 -13   6   6    4.29    2.16
  12  -6  -6   12.98    2.72
 -12   6   6   11.33    2.21
 -12   6   6   12.77    3.72
  11  -6  -6   54.06    3.89
 -11   6   6   51.99    5.22
 -11   6   6   47.32    3.20
  10  -6  -6   28.92    2.65
 -10   6   6   33.61    2.51
 -10   6   6   30.57    3.64
   9  -6  -6    2.21    1.35
  -9   6   6    2.18    2.44
  -9   6   6    0.84    0.83
   8  -6  -6  112.03    5.34
   8  -6  -6  117.44    4.51
  -8   6   6  100.61    6.06
  -8   6   6  118.28    4.18
   7  -6  -6   79.61    4.13
   7  -6  -6   84.90    3.27
  -7   6   6   75.35    4.79
  -7   6   6   76.40    3.08
   6  -6  -6    4.16    1.38
   6  -6  -6    2.55    0.79
   6  -6  -6    4.48    0.74
  -6   6   6    4.05    1.82
  -6   6   6    4.57    0.91
   5  -6  -6   64.65    3.48
   5  -6  -6   66.14    2.36
  -5   6   6   63.27    2.58
  -5   6   6   68.80    3.92
   4  -6  -6  149.81    5.04
   4  -6  -6  155.07    6.21
  -4   6   6  149.17    5.01
  -4   6   6  161.42    5.04
  -4   6   6  153.93    6.33
   3  -6  -6   26.69    2.38
   3  -6  -6   32.10    1.76
  -3   6   6   31.12    1.68
  -3   6   6   27.65    1.76
  -3   6   6   29.90    2.50
   2  -6  -6   21.13    2.21
   2  -6  -6   20.76    1.61
  -2   6   6   20.52    1.66
  -2   6   6   24.53    2.28
  -2   6   6   21.47    1.55
   1  -6  -6  133.92    4.68
   1  -6  -6  132.62    5.65
   1  -6  -6  125.87    5.78
  -1   6   6  132.31    5.37
  -1   6   6  131.51    4.62
  -1   6   6  130.14    4.87
   0  -6  -6   79.37    3.35
   0  -6  -6   72.05    3.98
   0  -6  -6   72.49    4.11
   0   6   6   83.25    3.80
   0   6   6   75.72    3.41
   0   6   6   74.11    3.36
  -1  -6  -6   -1.48    1.72
  -1  -6  -6    2.01    1.20
  -1  -6  -6    0.01    1.14
   1   6   6    1.62    1.47
   1   6   6   -2.80    1.07
  -2  -6  -6   41.09    3.54
  -2  -6  -6   36.15    2.35
   2   6   6   41.13    2.85
   2   6   6   37.64    3.42
  -3  -6  -6   68.74    4.62
   3   6   6   70.38    3.90
   3   6   6   66.31    4.73
  -4  -6  -6    1.18    2.21
   4   6   6    5.04    2.01
   4   6   6    0.47    2.63
  -5  -6  -6   10.79    2.99
   5   6   6   10.52    2.68
   5   6   6   13.17    2.73
  -6  -6  -6   21.30    3.58
   6   6   6   26.32    4.38
   6   6   6   23.29    3.33
 -13   7   6   15.01    4.02
 -13   7   6   21.54    2.64
  12  -7  -6   -1.40    2.16
 -12   7   6   -1.19    1.66
 -12   7   6   -1.07    3.01
  11  -7  -6   38.70    3.50
 -11   7   6   43.46    4.37
 -11   7   6   43.73    2.97
 -10   7   6   55.03    4.58
 -10   7   6   66.22    3.22
   9  -7  -6   10.47    1.64
   9  -7  -6    9.82    2.23
  -9   7   6   10.48    1.44
  -9   7   6    7.04    2.87
   8  -7  -6   45.08    2.63
   8  -7  -6   45.42    3.48
  -8   7   6   51.54    2.40
  -8   7   6   43.81    3.78
   7  -7  -6  125.89    5.77
  -7   7   6  120.82    6.31
  -7   7   6  130.90    4.37
   6  -7  -6   45.17    2.88
  -6   7   6   44.71    3.81
  -6   7   6   50.69    2.27
   5  -7  -6   11.00    1.62
  -5   7   6   10.18    1.78
  -5   7   6    9.01    0.86
  -5   7   6    8.35    1.06
   4  -7  -6  124.01    5.34
  -4   7   6  121.97    4.14
  -4   7   6  111.55    4.04
  -4   7   6  108.28    5.35
   3  -7  -6  130.05    5.68
  -3   7   6  117.37    5.35
  -3   7   6  130.18    4.55
   2  -7  -6   -1.49    0.95
  -2   7   6   -0.94    0.90
  -2   7   6   -0.95    1.40
  -2   7   6    1.06    0.95
   1  -7  -6   67.25    4.19
   1  -7  -6   72.20    4.28
  -1   7   6   75.46    4.02
  -1   7   6   77.51    3.47
  -1   7   6   75.08    3.24
   0  -7  -6  114.06    5.73
   0  -7  -6  112.83    5.54
   0   7   6  115.96    4.74
   0   7   6  112.87    5.11
   0   7   6  118.42    4.51
  -1  -7  -6   22.42    2.54
   1   7   6   27.36    2.30
   1   7   6   22.61    2.63
  -2  -7  -6   20.82    3.03
   2   7   6   20.60    2.29
   2   7   6   26.37    3.04
  -3  -7  -6   55.96    4.64
   3   7   6   53.17    4.60
   3   7   6   56.13    3.28
  -4  -7  -6   28.38    3.77
   4   7   6   23.09    2.86
   4   7   6   23.00    3.61
  -5  -7  -6    3.93    2.98
   5   7   6    0.67    2.37
   5   7   6    3.96    3.19
 -13   8   6   19.34    2.49
 -12   8   6    3.82    1.68
 -12   8   6    9.53    3.66
 -11   8   6   13.72    3.81
 -11   8   6   14.85    1.97
  10  -8  -6   69.76    4.31
 -10   8   6   66.40    5.88
 -10   8   6   66.87    3.28
   9  -8  -6   34.26    3.46
  -9   8   6   33.06    2.16
  -9   8   6   32.77    4.08
   8  -8  -6    4.24    1.48
  -8   8   6    3.85    1.00
  -8   8   6   -0.38    1.64
   7  -8  -6   78.22    4.25
  -7   8   6   88.41    3.19
  -7   8   6   84.08    5.42
   6  -8  -6   74.96    4.23
  -6   8   6   72.10    2.77
  -6   8   6   66.30    4.22
   5  -8  -6    3.30    1.26
  -5   8   6    4.17    0.98
  -5   8   6    1.53    1.93
  -5   8   6    2.03    0.94
   4  -8  -6   78.87    4.28
  -4   8   6   68.36    4.05
  -4   8   6   71.47    3.02
  -4   8   6   76.82    3.11
   3  -8  -6  138.04    6.42
  -3   8   6  147.79    4.91
  -3   8   6  144.87    6.19
  -3   8   6  143.69    5.24
   2  -8  -6   33.88    2.82
   2  -8  -6   34.70    3.21
  -2   8   6   36.32    2.07
  -2   8   6   32.56    3.16
  -2   8   6   29.14    2.29
   1  -8  -6   23.32    2.93
   1  -8  -6   19.31    2.66
  -1   8   6   18.07    1.73
  -1   8   6   17.49    2.01
  -1   8   6   18.65    2.47
   0  -8  -6   89.79    5.34
   0  -8  -6  100.83    5.46
   0   8   6  101.67    4.92
   0   8   6   92.90    4.65
   0   8   6   93.02    3.97
  -1  -8  -6   54.74    4.55
   1   8   6   49.20    3.92
   1   8   6   59.76    3.28
  -2  -8  -6    4.39    2.60
   2   8   6    0.42    1.60
   2   8   6    3.02    2.41
  -3  -8  -6   42.04    4.34
   3   8   6   41.32    3.87
   3   8   6   44.10    3.58
  -4  -8  -6   52.62    4.41
   4   8   6   29.69    4.38
   4   8   6   47.55    3.99
 -12   9   6   15.08    3.12
  11  -9  -6    1.02    2.59
 -11   9   6    0.52    2.13
 -11   9   6   -0.88    1.30
  10  -9  -6   40.08    4.00
 -10   9   6   34.20    2.33
 -10   9   6   37.00    4.69
   9  -9  -6   42.28    3.42
  -9   9   6   43.89    2.43
  -9   9   6   41.34    4.25
   8  -9  -6    5.51    1.72
  -8   9   6    4.06    0.90
  -8   9   6    4.67    2.17
   7  -9  -6   31.75    2.80
  -7   9   6   30.22    1.68
  -7   9   6   30.44    3.74
   6  -9  -6   83.24    4.73
  -6   9   6   81.75    4.90
  -6   9   6   79.91    3.08
   5  -9  -6   30.54    3.16
  -5   9   6   29.80    1.75
  -5   9   6   29.59    3.47
   4  -9  -6   11.25    2.23
  -4   9   6   10.82    1.17
  -4   9   6   10.49    2.52
  -4   9   6    9.97    1.44
   3  -9  -6   91.27    4.76
   3  -9  -6   88.29    5.31
  -3   9   6   96.19    3.45
  -3   9   6  100.99    5.37
   2  -9  -6   62.51    4.13
   2  -9  -6   56.66    4.39
  -2   9   6   71.64    3.59
  -2   9   6   78.09    4.58
  -2   9   6   69.02    3.02
   1  -9  -6    1.25    1.47
   1  -9  -6    1.70    1.61
  -1   9   6    0.07    1.99
  -1   9   6    0.37    1.52
  -1   9   6   -0.02    0.96
   0  -9  -6   46.60    4.51
   0  -9  -6   45.22    3.65
   0   9   6   51.24    2.86
   0   9   6   50.45    3.77
  -1  -9  -6   82.78    5.63
   1   9   6   77.15    4.97
   1   9   6   77.15    3.89
  -2  -9  -6    9.20    3.11
   2   9   6    9.41    2.29
   2   9   6    9.34    2.01
  -3  -9  -6   11.34    3.46
   3   9   6    8.54    3.18
   3   9   6   10.39    2.35
  11 -10  -6    7.82    3.16
 -11  10   6    3.07    3.61
  10 -10  -6    8.99    2.94
 -10  10   6    7.24    2.77
   9 -10  -6   41.66    3.58
  -9  10   6   40.38    4.77
   8 -10  -6   30.84    3.39
  -8  10   6   28.27    4.17
   7 -10  -6    0.84    1.46
   6 -10  -6   53.62    4.17
  -6  10   6   49.10    4.09
   5 -10  -6   54.13    4.05
  -5  10   6   45.20    3.90
   4 -10  -6    4.86    1.70
  -4  10   6    4.22    2.61
   3 -10  -6   20.39    2.92
   3 -10  -6   19.91    2.77
  -3  10   6   18.39    3.17
  -3  10   6   18.99    2.18
   2 -10  -6   58.81    4.21
   2 -10  -6   64.83    4.54
  -2  10   6   56.12    4.65
  -2  10   6   57.75    3.64
   1 -10  -6   22.19    2.98
   1 -10  -6   18.66    3.08
  -1  10   6   19.04    2.64
  -1  10   6   19.52    1.74
  -1  10   6   21.89    2.76
   0 -10  -6    6.88    3.12
   0 -10  -6    7.95    2.69
   0  10   6    9.14    2.49
   0  10   6    7.08    1.43
  -1 -10  -6   39.75    4.59
   1  10   6   44.59    4.18
   1  10   6   46.61    3.38
  -2 -10  -6   25.73    4.17
   2  10   6   22.45    2.50
   2  10   6   20.46    3.68
  10 -11  -6    0.40    2.77
 -10  11   6    0.28    3.32
   9 -11  -6    9.81    2.37
   8 -11  -6   34.17    3.77
  -8  11   6   30.46    4.53
   7 -11  -6   13.29    2.41
  -7  11   6   14.59    3.63
   6 -11  -6    8.71    2.47
  -6  11   6   13.45    3.32
   5 -11  -6   26.69    3.26
  -5  11   6   24.27    3.81
   4 -11  -6   29.46    3.92
   4 -11  -6   24.85    2.82
  -4  11   6   23.93    3.20
   3 -11  -6   -2.08    2.18
   3 -11  -6   -0.46    1.84
  -3  11   6    1.37    2.57
   2 -11  -6   36.50    3.87
   2 -11  -6   42.14    4.37
  -2  11   6   28.12    3.75
   1 -11  -6   24.54    3.51
   1 -11  -6   27.61    4.17
  -1  11   6   30.05    3.19
   0 -11  -6    2.06    3.15
   0  11   6   -1.76    2.33
   1  11   6    3.15    2.84
   9 -12  -6   -0.45    1.90
  -9  12   6   -0.16    3.65
   8 -12  -6   31.00    4.00
  -8  12   6   31.97    4.85
   7 -12  -6   14.02    3.09
  -7  12   6   19.18    4.12
   6 -12  -6    3.48    2.59
  -6  12   6   -0.38    2.19
   5 -12  -6   15.16    3.54
   5 -12  -6   11.44    2.83
  -5  12   6   11.24    2.89
   4 -12  -6   29.18    4.19
   4 -12  -6   26.27    3.53
  -4  12   6   34.19    4.28
   3 -12  -6    1.40    2.48
   3 -12  -6   12.09    2.78
  -3  12   6    7.31    2.40
   2 -12  -6    5.88    3.41
   8 -13  -6    5.76    2.23
   7 -13  -6   30.48    3.97
   6 -13  -6   12.66    3.82
   6 -13  -6    8.17    2.31
  -5  13   6   -1.26    3.34
  -4  13   6   13.67    3.74
  -1  13  -7   38.81    4.81
  -1  13  -7   31.17    3.26
  -2  13  -7   13.83    3.01
   2 -13   7   14.78    3.71
  -3  13  -7   -0.41    3.21
   3 -13   7   -0.11    1.65
   3 -13   7   -1.11    2.13
  -4  13  -7   32.31    4.55
   4 -13   7   27.22    4.24
   4 -13   7   33.47    4.44
   5 -13   7   16.86    4.00
   2  12  -7   57.30    4.55
   2  12  -7   48.53    5.12
   1  12  -7    9.70    2.70
   0  12  -7   -0.53    2.91
   0  12  -7    0.18    2.02
  -1  12  -7   42.65    3.82
  -1  12  -7   38.21    4.05
  -2  12  -7   42.17    4.74
   2 -12   7   50.70    5.01
   2 -12   7   50.78    4.77
  -3  12  -7   -4.65    2.67
   3 -12   7   -2.81    2.54
   3 -12   7    0.33    2.59
  -4  12  -7   27.41    3.44
   4 -12   7   27.17    3.96
   4 -12   7   24.67    4.01
  -5  12  -7   29.17    4.15
   5 -12   7   41.42    4.80
   5 -12   7   45.50    4.86
  -6  12  -7    9.48    3.38
   6 -12   7    8.09    3.58
   6 -12   7   11.89    2.74
   4  11  -7   19.62    3.96
   4  11  -7   25.62    3.23
   3  11  -7    0.05    2.85
   3  11  -7    1.20    2.17
   2  11  -7   22.99    2.95
   2  11  -7   16.68    3.62
   1  11  -7   45.46    3.27
   1  11  -7   47.44    4.71
   0  11  -7    8.57    2.32
  -1  11  -7   18.48    2.71
  -1  11  -7   29.86    3.81
   1 -11   7   15.42    2.56
  -2  11  -7   62.74    5.37
   2 -11   7   77.37    5.27
   2 -11   7   67.70    5.32
  -3  11  -7   22.07    3.62
   3 -11   7   25.37    3.52
   3 -11   7   26.17    3.23
  -4  11  -7    3.61    2.72
   4 -11   7    7.13    2.72
   4 -11   7    3.50    2.76
  -5  11  -7   40.89    4.17
   5 -11   7   32.80    4.27
   5 -11   7   42.38    4.39
  -6  11  -7   27.04    3.73
   6 -11   7   18.45    3.67
   6 -11   7   36.03    4.38
   7 -11   7    2.39    3.24
   7 -11   7   -0.42    2.00
   6  10  -7   -2.81    2.83
   6  10  -7    3.12    1.76
   6  10  -7    0.41    2.42
   5  10  -7   21.65    2.59
   5  10  -7   20.92    3.77
   5  10  -7   14.82    1.94
   4  10  -7   28.24    4.04
   4  10  -7   30.39    2.37
   4  10  -7   34.15    3.26
   3  10  -7   22.90    3.58
   3  10  -7   14.49    2.47
   3  10  -7   15.65    1.59
   2  10  -7    2.99    1.14
   2  10  -7    5.54    2.00
   2  10  -7    2.79    2.64
   1  10  -7   42.28    4.28
   1  10  -7   44.83    3.43
  -1 -10   7   39.08    3.02
   0  10  -7   35.81    3.20
   0  10  -7   39.08    3.44
   0 -10   7   35.05    3.21
  -1  10  -7   -0.56    1.15
   1 -10   7    0.69    1.46
  -2  10  -7   52.66    4.43
   2 -10   7   48.63    4.43
   2 -10   7   46.49    4.14
  -3  10  -7   42.32    3.56
   3 -10   7   42.20    3.70
   3 -10   7   51.99    4.32
  -4  10  -7    7.15    2.48
   4 -10   7    3.90    2.56
   4 -10   7    4.35    1.85
  -5  10  -7   11.04    2.73
   5 -10   7   14.33    2.51
   5 -10   7   12.38    3.03
  -6  10  -7   49.56    4.37
   6 -10   7   45.16    4.25
   6 -10   7   46.18    4.15
   7 -10   7    9.46    3.38
   7 -10   7    2.62    2.09
   8 -10   7    6.22    2.55
   8 -10   7    1.68    3.21
   7   9  -7   20.92    3.16
   7   9  -7   30.11    2.82
   7   9  -7   20.77    3.62
   6   9  -7   19.28    3.58
   6   9  -7   23.70    2.40
   6   9  -7   22.00    2.59
   5   9  -7    0.70    1.30
   5   9  -7   -1.82    2.67
   5   9  -7   -0.17    1.41
   4   9  -7   13.24    3.22
   4   9  -7   21.03    1.94
   4   9  -7   21.23    2.64
   3   9  -7   33.40    3.14
   3   9  -7   36.51    3.55
   3   9  -7   37.47    2.25
   2   9  -7   13.26    2.02
   2   9  -7    7.92    1.29
   2   9  -7    9.77    2.29
   1   9  -7   20.08    1.57
   1   9  -7   21.38    2.37
   1   9  -7   23.29    3.18
  -1  -9   7   23.72    2.88
  -1  -9   7   21.57    2.03
   0   9  -7   60.30    2.66
   0   9  -7   60.36    4.46
   0   9  -7   58.61    3.53
   0  -9   7   57.86    4.30
  -1   9  -7   15.23    1.38
  -1   9  -7   19.51    2.29
  -1   9  -7   16.48    2.67
   1  -9   7   21.66    2.91
  -2   9  -7    2.70    2.06
  -2   9  -7    4.89    0.89
   2  -9   7    5.57    2.13
   2  -9   7    4.04    2.19
  -3   9  -7   46.62    3.95
  -3   9  -7   46.35    2.29
   3  -9   7   47.41    3.95
   3  -9   7   48.86    4.26
  -4   9  -7   30.14    3.22
  -4   9  -7   27.68    1.94
   4  -9   7   31.90    3.33
   4  -9   7   32.40    3.64
  -5   9  -7    0.79    1.12
  -5   9  -7   -0.54    1.42
   5  -9   7   -0.35    2.20
   5  -9   7    2.40    1.75
  -6   9  -7   32.23    2.52
  -6   9  -7   31.99    3.29
   6  -9   7   32.96    3.98
   6  -9   7   31.00    3.37
   7  -9   7   24.49    3.89
   7  -9   7   21.24    3.67
  -8   9  -7    2.16    1.51
   8  -9   7    1.67    2.03
   8  -9   7   -4.20    2.90
  -9   9  -7    3.53    1.84
   9  -9   7    6.95    3.24
   8   8  -7    0.96    2.04
   8   8  -7    3.94    2.84
   7   8  -7   23.08    2.53
   7   8  -7   13.48    2.59
   6   8  -7   39.73    2.97
   6   8  -7   40.62    3.04
   6   8  -7   40.47    3.79
   5   8  -7   16.63    1.88
   5   8  -7   10.19    2.33
   5   8  -7   16.64    2.30
   4   8  -7    0.78    2.26
   4   8  -7    4.44    1.62
   4   8  -7    3.21    1.24
   3   8  -7   64.05    4.56
   3   8  -7   62.14    3.46
   3   8  -7   59.33    2.95
   2   8  -7   49.47    3.00
   2   8  -7   39.70    3.33
   2   8  -7   46.89    2.32
  -2  -8   7   44.64    3.40
   1   8  -7    1.73    0.85
   1   8  -7    0.17    0.95
   1   8  -7    2.18    1.94
  -1  -8   7    2.90    1.69
   0   8  -7   53.63    2.42
   0   8  -7   53.99    2.88
   0   8  -7   58.09    4.02
   0  -8   7   54.38    3.99
   0  -8   7   55.18    2.56
  -1   8  -7   67.11    2.85
  -1   8  -7   67.22    4.14
   1  -8   7   63.68    3.99
  -2   8  -7   14.43    1.40
   2  -8   7   10.20    1.89
   2  -8   7   10.30    2.13
  -3   8  -7   37.46    3.29
  -3   8  -7   39.20    2.12
   3  -8   7   36.09    3.45
   3  -8   7   40.14    3.72
  -4   8  -7   70.19    3.00
  -4   8  -7   70.09    4.09
   4  -8   7   62.08    3.94
   4  -8   7   68.55    4.78
  -5   8  -7    9.21    1.42
  -5   8  -7   12.02    2.22
   5  -8   7   12.29    2.71
   5  -8   7   14.32    2.31
  -6   8  -7    4.06    1.90
  -6   8  -7    5.58    1.41
   6  -8   7    2.50    1.90
   6  -8   7    5.46    2.51
  -7   8  -7   33.01    2.75
   7  -8   7   30.83    3.58
   7  -8   7   40.85    4.28
  -8   8  -7   22.49    2.45
   8  -8   7   21.97    3.83
   8  -8   7   21.65    3.75
  -9   8  -7    0.83    1.94
   9  -8   7    2.35    3.31
   9  -8   7   -0.41    2.01
   9   7  -7   37.81    4.18
   9   7  -7   28.10    3.37
   8   7  -7   14.86    2.55
   8   7  -7   20.25    2.61
   8   7  -7   19.87    3.36
   7   7  -7    3.96    1.83
   7   7  -7    2.52    2.77
   7   7  -7    2.10    1.85
   6   7  -7   46.99    3.00
   6   7  -7   45.38    4.42
   5   7  -7   72.53    3.73
   5   7  -7   63.37    3.23
   5   7  -7   66.49    4.92
   4   7  -7    1.58    1.09
   4   7  -7    0.65    1.44
   4   7  -7   -0.18    1.25
   3   7  -7   55.26    3.01
   3   7  -7   52.57    2.53
   3   7  -7   52.53    3.58
   2   7  -7  147.62    4.96
   2   7  -7  137.68    6.52
   2   7  -7  149.17    5.59
  -2  -7   7  154.77    6.71
   1   7  -7   35.06    1.88
   1   7  -7   37.27    3.22
   1   7  -7   38.95    2.47
  -1  -7   7   30.85    2.66
   0   7  -7   11.69    1.76
   0   7  -7   10.38    1.18
   0   7  -7   10.92    1.38
   0  -7   7   10.55    2.11
  -1   7  -7  133.74    5.51
  -1   7  -7  127.78    4.52
   1  -7   7  134.68    6.12
  -2   7  -7   85.92    4.36
  -2   7  -7   87.84    3.38
   2  -7   7   81.48    4.54
   2  -7   7   89.97    4.37
  -3   7  -7    1.19    0.98
  -3   7  -7    2.25    1.50
   3  -7   7    3.96    1.78
   3  -7   7    1.89    1.73
  -4   7  -7   86.20    4.28
  -4   7  -7   83.62    3.57
   4  -7   7   85.58    4.79
   4  -7   7   90.24    5.15
  -5   7  -7   51.30    3.38
  -5   7  -7   50.16    2.79
   5  -7   7   46.86    3.62
   5  -7   7   46.56    3.51
  -6   7  -7   13.43    1.62
   6  -7   7   16.09    2.93
   6  -7   7   12.56    2.33
  -7   7  -7   16.79    2.13
   7  -7   7   17.80    3.32
   7  -7   7   17.03    3.13
  -8   7  -7   31.91    2.92
   8  -7   7   34.54    3.66
   8  -7   7   35.16    3.69
  -9   7  -7   14.33    2.55
   9  -7   7   12.41    2.89
   9  -7   7    6.11    2.94
   9   6  -7   35.22    3.34
   9   6  -7   38.15    4.06
   9   6  -7   34.02    2.86
   8   6  -7   42.10    3.30
   8   6  -7   35.30    4.02
   8   6  -7   37.70    2.77
   7   6  -7   11.21    1.90
   7   6  -7   10.29    2.97
   7   6  -7    8.37    1.59
   6   6  -7   43.52    4.08
   6   6  -7   45.22    2.85
   6   6  -7   43.52    2.98
  -6  -6   7   44.45    2.74
   5   6  -7  120.03    4.50
   5   6  -7  114.94    6.10
  -5  -6   7  119.32    4.48
   4   6  -7   47.62    2.50
   4   6  -7   50.79    2.31
   4   6  -7   49.26    3.90
  -4  -6   7   50.46    2.30
   3   6  -7    6.10    1.05
   3   6  -7    5.01    1.25
   3   6  -7    5.95    1.97
  -3  -6   7    4.99    0.99
   2   6  -7  128.36    4.44
   2   6  -7  125.48    4.77
   2   6  -7  122.27    5.77
  -2  -6   7  143.52    6.06
  -2  -6   7  134.06    4.45
   1   6  -7  144.17    4.78
   1   6  -7  148.34    5.29
   1   6  -7  140.57    6.02
  -1  -6   7  147.40    4.78
  -1  -6   7  133.81    6.21
   0   6  -7   16.26    1.63
   0   6  -7   14.64    1.29
   0   6  -7   14.62    2.01
   0  -6   7   13.10    2.12
   0  -6   7   12.60    1.24
  -1   6  -7   88.60    3.33
  -1   6  -7   87.14    4.12
   1  -6   7   84.52    4.40
   1  -6   7   85.32    3.29
  -2   6  -7  196.96    7.32
  -2   6  -7  204.96    6.48
   2  -6   7  199.02    7.45
   2  -6   7  191.69    8.37
  -3   6  -7   13.96    1.85
  -3   6  -7   15.07    1.56
   3  -6   7   11.92    1.40
   3  -6   7   13.96    1.98
   3  -6   7   15.95    2.15
  -4   6  -7   22.69    1.92
  -4   6  -7   21.48    2.09
   4  -6   7   21.16    2.39
   4  -6   7   19.50    2.51
  -5   6  -7   84.28    3.81
  -5   6  -7   88.26    4.06
   5  -6   7   80.76    5.03
   5  -6   7   81.87    4.90
  -6   6  -7   37.59    2.47
   6  -6   7   38.65    3.83
   6  -6   7   45.25    4.14
  -7   6  -7    1.20    1.66
   7  -6   7    1.68    1.59
   7  -6   7    0.07    2.41
  -8   6  -7   46.25    3.64
   8  -6   7   36.49    4.11
   8  -6   7   35.93    4.13
  -9   6  -7   24.70    2.99
   9  -6   7   19.76    3.84
   9  -6   7   20.63    3.70
  10  -6   7   -0.26    2.90
  10   5  -7    3.47    1.74
   9   5  -7   15.23    2.08
   9   5  -7    8.71    2.04
  -9  -5   7   11.43    1.88
   8   5  -7   69.64    3.91
   8   5  -7   66.66    3.73
  -8  -5   7   70.17    3.88
   7   5  -7   32.32    2.57
   7   5  -7   30.50    2.26
  -7  -5   7   31.80    2.24
   6   5  -7    5.29    1.11
   6   5  -7    3.82    1.33
  -6  -5   7    4.99    1.07
   5   5  -7   98.06    3.67
  -5  -5   7   94.43    3.61
   4   5  -7  101.86    3.96
   4   5  -7  109.46    3.91
  -4  -5   7  106.64    3.87
   3   5  -7    1.79    0.92
   3   5  -7   -0.72    1.51
   3   5  -7    1.27    0.81
  -3  -5   7    0.53    0.77
   2   5  -7   23.16    1.58
   2   5  -7   24.90    2.43
   2   5  -7   24.63    1.54
  -2  -5   7   23.31    2.50
  -2  -5   7   25.37    1.56
   1   5  -7  219.10    6.76
   1   5  -7  204.50    7.77
   1   5  -7  214.01    7.16
  -1  -5   7  215.52    8.76
  -1  -5   7  223.41    6.75
   0   5  -7   51.80    2.35
   0   5  -7   55.16    3.02
   0  -5   7   55.66    3.46
   0  -5   7   50.30    2.32
  -1   5  -7   43.26    2.20
  -1   5  -7   39.86    2.59
   1  -5   7   46.00    2.22
   1  -5   7   47.16    3.21
  -2   5  -7  158.59    5.27
  -2   5  -7  154.91    5.76
   2  -5   7  152.82    5.84
   2  -5   7  150.20    5.26
   2  -5   7  149.04    6.61
  -3   5  -7  104.30    4.21
  -3   5  -7   93.73    3.88
   3  -5   7  107.20    3.98
   3  -5   7   97.12    4.60
   3  -5   7   97.70    5.09
  -4   5  -7   -0.36    1.10
  -4   5  -7    1.66    1.09
   4  -5   7    2.30    0.89
   4  -5   7    3.26    1.79
   4  -5   7    1.15    1.13
  -5   5  -7   76.01    3.41
  -5   5  -7   81.24    3.70
   5  -5   7   83.20    4.64
   5  -5   7   70.84    3.34
   5  -5   7   73.04    4.64
  -6   5  -7   74.08    3.82
   6  -5   7   78.56    4.89
   6  -5   7   71.22    4.79
  -7   5  -7    8.92    2.09
   7  -5   7   10.71    2.71
   7  -5   7    6.77    1.87
  -8   5  -7   30.48    3.01
   8  -5   7   27.35    3.57
   8  -5   7   27.44    3.76
  -9   5  -7   36.47    3.19
   9  -5   7   30.27    4.18
 -11  -4   7   17.11    2.85
  10   4  -7   18.93    2.83
  10   4  -7   19.97    3.55
 -10  -4   7   16.07    2.75
   9   4  -7   -1.03    1.48
   9   4  -7    2.53    1.94
   9   4  -7   -0.39    2.28
  -9  -4   7    0.17    1.78
   8   4  -7   51.99    3.33
   8   4  -7   44.34    2.92
   8   4  -7   43.54    3.85
  -8  -4   7   47.08    3.17
   7   4  -7   75.52    3.40
   7   4  -7   68.80    3.50
  -7  -4   7   69.32    3.50
   6   4  -7    2.56    1.04
   6   4  -7    4.13    1.26
  -6  -4   7    3.94    1.26
   5   4  -7   81.81    3.35
  -5  -4   7   83.80    3.33
   4   4  -7   57.43    2.50
   4   4  -7   54.81    2.49
  -4  -4   7   55.53    2.47
   3   4  -7   48.22    2.27
   3   4  -7   50.93    2.25
  -3  -4   7   49.51    2.23
   2   4  -7   27.29    1.64
   2   4  -7   26.21    1.65
  -2  -4   7   29.24    1.64
  -2  -4   7   29.65    2.52
   1   4  -7  191.96    6.46
   1   4  -7  192.81    6.12
   1   4  -7  196.06    7.11
  -1  -4   7  201.54    6.13
  -1  -4   7  192.86    8.00
   0   4  -7  147.14    4.68
   0   4  -7  141.87    4.73
   0   4  -7  135.78    5.31
   0  -4   7  138.28    4.70
   0  -4   7  135.39    6.16
  -1   4  -7   -0.71    0.77
  -1   4  -7    0.31    0.94
   1  -4   7   -0.89    0.76
   1  -4   7    1.31    1.28
   1  -4   7    0.85    0.99
  -2   4  -7  113.79    4.45
  -2   4  -7  124.94    4.36
   2  -4   7  117.37    4.67
   2  -4   7  115.36    5.35
  -3   4  -7  151.40    5.32
  -3   4  -7  142.11    5.21
   3  -4   7  143.39    6.53
   3  -4   7  154.59    5.29
   3  -4   7  141.66    5.68
  -4   4  -7   15.55    1.54
  -4   4  -7   15.09    1.59
   4  -4   7   14.81    1.98
   4  -4   7   17.74    1.69
   4  -4   7   14.90    2.17
  -5   4  -7   32.11    2.60
   5  -4   7   35.46    3.14
   5  -4   7   31.86    3.17
   5  -4   7   30.62    2.51
  -6   4  -7  119.87    5.07
   6  -4   7  118.16    5.90
   6  -4   7  126.87    5.11
   6  -4   7  106.99    5.69
  -7   4  -7   21.83    2.62
   7  -4   7   21.22    2.56
   7  -4   7   30.74    3.02
   7  -4   7   24.18    3.08
  -8   4  -7    0.45    1.44
   8  -4   7   -4.00    2.04
   8  -4   7    0.50    2.63
  -9   4  -7   26.33    3.30
   9  -4   7   30.27    4.05
   9  -4   7   29.27    3.67
  11   3  -7   12.28    2.81
  11   3  -7    6.48    3.23
 -11  -3   7    8.18    2.50
  10   3  -7   30.11    2.76
  10   3  -7   37.95    3.97
 -10  -3   7   29.51    2.65
   9   3  -7   12.60    1.82
   9   3  -7    8.94    2.64
  -9  -3   7   13.52    1.81
   8   3  -7   26.83    2.35
   8   3  -7   26.01    2.11
   8   3  -7   22.34    2.78
  -8  -3   7   27.85    2.45
   7   3  -7   96.83    3.83
   7   3  -7   98.77    4.65
   7   3  -7   94.22    4.03
  -7  -3   7   92.26    4.00
   6   3  -7   32.68    1.67
   6   3  -7   27.22    1.78
   6   3  -7   30.80    2.15
  -6  -3   7   31.74    2.17
   5   3  -7    5.98    0.91
   5   3  -7    9.33    0.88
  -5  -3   7   10.21    1.09
   4   3  -7  114.63    4.11
   4   3  -7  122.41    4.22
   4   3  -7  126.07    4.39
  -4  -3   7  124.34    4.15
   3   3  -7  103.90    3.92
   3   3  -7  107.62    3.74
   3   3  -7  101.59    3.64
  -3  -3   7  112.02    3.67
   2   3  -7   12.05    1.06
   2   3  -7   12.42    1.08
  -2  -3   7   15.79    1.78
  -2  -3   7   11.35    1.04
   1   3  -7  110.10    3.86
  -1  -3   7  114.39    3.87
  -1  -3   7  118.09    5.16
   0   3  -7  205.37    6.99
   0   3  -7  205.29    6.45
   0  -3   7  190.32    8.05
   0  -3   7  206.61    6.45
  -1   3  -7   40.37    2.07
  -1   3  -7   41.40    2.16
   1  -3   7   39.63    2.86
   1  -3   7   39.55    2.14
   1  -3   7   42.38    2.32
  -2   3  -7   13.16    1.18
  -2   3  -7   12.36    1.28
   2  -3   7   11.18    1.32
   2  -3   7   13.60    1.92
  -3   3  -7  124.78    4.79
  -3   3  -7  147.02    4.80
   3  -3   7  130.45    5.25
   3  -3   7  134.31    4.86
   3  -3   7  135.23    6.10
  -4   3  -7   70.71    3.50
   4  -3   7   75.80    4.24
   4  -3   7   75.55    4.01
   4  -3   7   81.48    3.64
  -5   3  -7    6.63    1.35
   5  -3   7    6.51    1.57
   5  -3   7    6.85    1.40
   5  -3   7    9.97    2.03
  -6   3  -7   34.89    2.89
   6  -3   7   32.21    3.20
   6  -3   7   31.30    2.80
   6  -3   7   36.15    3.34
  -7   3  -7   44.51    3.58
   7  -3   7   40.74    3.86
   7  -3   7   45.54    3.67
   7  -3   7   51.30    4.28
  -8   3  -7    4.78    1.71
   8  -3   7    5.50    1.81
   8  -3   7    4.22    1.77
   8  -3   7    5.78    2.77
  -9   3  -7   11.96    2.79
   9  -3   7    9.69    3.27
  11   2  -7    0.67    2.65
  11   2  -7    0.05    1.56
 -11  -2   7   -0.59    1.53
  10   2  -7   38.19    3.72
  10   2  -7   42.63    3.67
 -10  -2   7   39.25    3.23
   9   2  -7   57.48    4.09
   9   2  -7   53.79    3.15
  -9  -2   7   57.33    3.14
   8   2  -7    2.20    1.44
   8   2  -7    1.16    0.93
   8   2  -7   -0.46    1.64
  -8  -2   7    3.15    1.50
   7   2  -7   46.97    3.07
   7   2  -7   50.89    2.78
   7   2  -7   47.73    2.40
  -7  -2   7   49.47    2.76
   6   2  -7   99.45    3.49
   6   2  -7   98.69    4.16
   6   2  -7   94.27    3.61
   6   2  -7   92.72    3.76
  -6  -2   7   96.46    3.62
   5   2  -7   32.65    1.56
   5   2  -7   33.54    1.75
   5   2  -7   31.27    1.88
  -5  -2   7   31.61    1.89
   4   2  -7   30.55    1.77
   4   2  -7   34.91    1.64
   4   2  -7   33.37    1.50
  -4  -2   7   29.95    1.79
   3   2  -7  167.09    5.84
   3   2  -7  162.18    5.20
   3   2  -7  160.84    5.23
  -3  -2   7  158.83    5.17
   2   2  -7  109.74    4.35
   2   2  -7  114.40    3.92
  -2  -2   7  113.86    3.91
  -2  -2   7  119.09    5.11
   1   2  -7    0.74    0.84
   1   2  -7   -0.20    0.70
  -1  -2   7   -0.05    0.81
  -1  -2   7   -0.15    0.72
   0   2  -7   89.72    3.41
   0   2  -7   85.83    3.31
   0  -2   7   87.54    3.32
   0  -2   7   84.96    3.33
   0  -2   7   88.68    4.38
  -1   2  -7  119.07    4.20
  -1   2  -7  119.09    4.26
   1  -2   7  118.29    4.27
   1  -2   7  119.65    3.98
   1  -2   7  108.18    5.28
   1  -2   7  118.22    4.36
  -2   2  -7    3.77    0.89
   2  -2   7    5.27    1.20
   2  -2   7    3.45    1.45
   2  -2   7    3.60    0.94
  -3   2  -7   80.22    2.81
  -3   2  -7   74.49    3.44
   3  -2   7   76.79    3.50
   3  -2   7   79.54    3.71
   3  -2   7   71.66    4.09
  -4   2  -7   79.98    3.55
   4  -2   7   84.74    4.14
   4  -2   7   76.69    4.34
   4  -2   7   87.25    3.88
  -5   2  -7    1.21    1.48
   5  -2   7    4.42    1.71
   5  -2   7    4.44    1.66
   5  -2   7    4.37    1.75
  -6   2  -7    5.48    1.91
   6  -2   7    8.37    1.98
   6  -2   7    7.13    2.04
   6  -2   7    5.30    2.14
  -7   2  -7   38.10    3.32
   7  -2   7   31.94    3.34
   7  -2   7   32.92    3.16
   7  -2   7   36.82    3.58
  -8   2  -7   19.96    2.95
   8  -2   7   16.40    3.25
   8  -2   7   21.75    3.04
  -9   2  -7    0.77    1.84
   9  -2   7   -0.71    2.84
   9  -2   7    1.79    1.86
  12   1  -7   17.97    3.03
  12   1  -7   16.39    3.55
 -12  -1   7   19.97    2.53
  11   1  -7   16.99    2.63
  11   1  -7   15.10    2.64
 -11  -1   7   13.00    2.56
  10   1  -7   13.78    2.32
  10   1  -7    8.37    2.43
 -10  -1   7   14.14    2.33
   9   1  -7   73.98    3.56
   9   1  -7   75.24    4.34
  -9  -1   7   76.69    3.55
   8   1  -7   51.32    2.98
   8   1  -7   46.94    2.23
   8   1  -7   42.85    2.77
  -8  -1   7   53.43    2.97
   7   1  -7    1.27    0.77
   7   1  -7   -0.88    1.07
   7   1  -7    1.32    1.24
  -7  -1   7    1.43    0.83
   6   1  -7   99.76    3.73
   6   1  -7   92.10    3.97
   6   1  -7   98.56    3.91
   6   1  -7   94.57    3.34
  -6  -1   7  103.82    3.77
   5   1  -7  144.51    5.26
   5   1  -7  149.13    4.82
   5   1  -7  146.05    5.01
   5   1  -7  159.08    5.56
  -5  -1   7  153.78    5.06
   4   1  -7    5.50    0.81
   4   1  -7    7.15    0.64
   4   1  -7    7.88    0.94
  -4  -1   7    6.94    0.90
   3   1  -7   53.10    2.30
   3   1  -7   55.07    2.44
  -3  -1   7   54.36    2.31
   2   1  -7  144.76    5.57
   2   1  -7  150.21    4.88
  -2  -1   7  157.40    4.90
   1   1  -7   58.68    2.48
   1   1  -7   53.36    2.81
  -1  -1   7   65.87    3.52
  -1  -1   7   58.43    2.50
   0   1  -7   19.63    1.56
   0  -1   7   16.68    2.00
   0  -1   7   17.19    1.30
   0  -1   7   18.28    1.54
  -1   1  -7  206.44    6.50
  -1   1  -7  207.95    6.50
  -1   1  -7  185.61    6.45
   1  -1   7  205.56    6.37
   1  -1   7  203.49    6.82
   1  -1   7  194.20    8.08
   1  -1   7  196.15    6.57
  -2   1  -7   64.41    2.19
  -2   1  -7   63.42    2.34
  -2   1  -7   60.37    2.95
   2  -1   7   63.41    2.96
   2  -1   7   60.56    2.97
   2  -1   7   53.17    3.22
  -3   1  -7   11.25    1.06
  -3   1  -7   11.68    1.66
   3  -1   7   13.88    1.98
   3  -1   7   15.24    1.76
   3  -1   7   14.76    1.80
  -4   1  -7   69.87    3.56
   4  -1   7   65.51    3.90
   4  -1   7   73.76    3.68
   4  -1   7   74.12    3.78
  -5   1  -7   36.60    2.59
   5  -1   7   36.39    2.71
   5  -1   7   40.69    2.79
   5  -1   7   38.92    2.63
  -6   1  -7    1.45    1.79
   6  -1   7   -0.71    1.90
   6  -1   7    0.48    1.82
   6  -1   7    0.58    1.59
  -7   1  -7   19.05    2.40
   7  -1   7   27.61    3.27
   7  -1   7   18.62    2.35
  -8   1  -7   30.75    3.57
   8  -1   7   25.72    3.51
   8  -1   7   39.34    3.96
  -9   1  -7    3.38    2.89
   9  -1   7    1.83    2.77
   9  -1   7    6.13    2.35
  12   0  -7   34.95    4.08
  12   0  -7   35.90    3.53
 -12   0   7   35.06    3.60
  11   0  -7   35.72    2.98
  11   0  -7   33.17    3.28
 -11   0   7   42.38    3.04
  10   0  -7    0.79    1.22
  10   0  -7    1.28    2.11
 -10   0   7    1.74    1.23
   9   0  -7   65.08    3.85
   9   0  -7   62.10    3.43
  -9   0   7   62.14    3.44
   8   0  -7   95.79    4.24
   8   0  -7  103.60    4.16
  -8   0   7  101.71    4.17
   7   0  -7   24.66    1.24
   7   0  -7   26.77    2.14
   7   0  -7   23.84    1.94
  -7   0   7   27.26    2.04
   6   0  -7   53.90    2.58
   6   0  -7   51.97    2.48
   6   0  -7   52.37    1.91
   6   0  -7   55.03    2.59
  -6   0   7   51.93    2.50
   5   0  -7  212.69    7.63
   5   0  -7  208.09    7.03
   5   0  -7  209.46    6.46
   5   0  -7  215.19    6.70
  -5   0   7  216.47    6.72
   4   0  -7   92.26    3.40
   4   0  -7   96.14    3.81
  -4   0   7   95.43    3.43
   3   0  -7    9.71    1.05
   3   0  -7    9.57    1.14
  -3   0   7    9.77    1.07
   2   0  -7  112.45    4.62
   2   0  -7  119.80    4.05
  -2   0   7  119.23    4.05
   1   0  -7  280.60    8.59
   1   0  -7  267.40   10.05
  -1   0   7  279.13    8.60
  -1   0   7  294.35    8.87
   0   0  -7    7.38    1.41
   0   0  -7    3.96    1.03
   0   0   7    7.93    1.62
   0   0   7    6.16    1.11
   0   0   7    6.19    0.82
  -1   0  -7  141.38    4.95
  -1   0  -7  144.33    4.57
   1   0   7  137.97    6.03
   1   0   7  142.64    4.97
   1   0   7  143.94    4.50
   1   0   7  143.28    5.03
  -2   0  -7  203.88    6.90
  -2   0  -7  205.29    6.90
   2   0   7  199.78    8.14
   2   0   7  195.87    6.79
   2   0   7  218.64    7.13
  -3   0  -7   29.61    2.06
  -3   0  -7   27.84    1.83
   3   0   7   26.99    2.15
   3   0   7   27.28    2.25
   3   0   7   26.23    2.04
  -4   0  -7   15.67    2.04
  -4   0  -7   16.80    1.66
   4   0   7   19.46    2.18
   4   0   7   18.15    2.12
   4   0   7   18.08    2.14
  -5   0  -7   80.69    3.93
   5   0   7   82.22    4.34
   5   0   7   80.36    3.94
   5   0   7   82.97    4.38
  -6   0  -7   25.00    2.50
   6   0   7   26.29    2.62
   6   0   7   25.30    2.71
   6   0   7   32.67    3.07
  -7   0  -7   -1.42    1.46
   7   0   7   -1.07    2.31
   7   0   7   -4.71    2.00
  -8   0  -7   27.70    3.49
   8   0   7   25.94    3.53
   8   0   7   26.96    3.59
   9   0   7    7.17    2.35
   9   0   7   11.08    3.35
  13  -1  -7    0.11    1.71
  12  -1  -7   24.70    3.01
  12  -1  -7   21.93    2.99
 -12   1   7   29.10    3.18
  11  -1  -7   63.85    4.07
  11  -1  -7   64.33    4.57
 -11   1   7   66.91    4.11
  10  -1  -7   14.22    2.08
  10  -1  -7   18.30    2.24
 -10   1   7   20.85    2.32
   9  -1  -7   19.82    2.25
   9  -1  -7   19.05    1.78
  -9   1   7   17.01    1.76
   8  -1  -7  186.67    6.60
   8  -1  -7  176.65    6.10
  -8   1   7  181.21    6.14
   7  -1  -7   89.75    3.66
   7  -1  -7   96.65    3.91
  -7   1   7   95.13    3.72
   6  -1  -7    1.77    0.26
   6  -1  -7    1.31    0.89
   6  -1  -7    1.40    0.65
   6  -1  -7    2.36    0.89
  -6   1   7    0.41    0.61
   5  -1  -7  204.36    6.64
   5  -1  -7  199.20    6.39
   5  -1  -7  206.99    7.42
  -5   1   7  198.85    6.41
   4  -1  -7  218.79    8.04
   4  -1  -7  226.34    6.92
  -4   1   7  224.13    6.94
   3  -1  -7   39.91    2.07
   3  -1  -7   39.28    1.80
  -3   1   7   39.35    1.81
   2  -1  -7   66.15    2.65
   2  -1  -7   70.19    3.23
  -2   1   7   67.43    2.67
  -2   1   7   73.56    2.44
   1  -1  -7  361.02   10.87
   1  -1  -7  345.75   12.78
  -1   1   7  381.39   11.22
  -1   1   7  362.24   10.88
   0  -1  -7  180.13    6.07
   0  -1  -7  165.79    7.02
   0   1   7  193.61    6.04
   0   1   7  193.57    6.09
   0   1   7  179.41    6.08
  -1  -1  -7   20.50    0.74
  -1  -1  -7   21.14    1.50
  -1  -1  -7   18.09    1.74
  -1  -1  -7   19.60    0.73
   1   1   7   24.06    2.35
   1   1   7   20.16    1.61
   1   1   7   20.07    0.90
   1   1   7   19.75    1.47
  -2  -1  -7  126.72    4.86
  -2  -1  -7  127.37    4.75
   2   1   7  122.03    4.87
   2   1   7  130.97    5.58
   2   1   7  127.89    4.79
  -3  -1  -7  140.43    5.57
  -3  -1  -7  148.18    5.55
   3   1   7  150.96    6.41
   3   1   7  145.85    5.65
   3   1   7  153.99    5.71
  -4  -1  -7    1.15    1.12
  -4  -1  -7    0.37    1.07
   4   1   7    0.58    1.07
   4   1   7    0.27    1.46
   4   1   7    2.27    1.35
  -5  -1  -7   50.10    3.10
  -5  -1  -7   52.58    3.07
   5   1   7   55.19    3.66
   5   1   7   45.48    3.10
  -6  -1  -7   62.50    3.75
   6   1   7   60.77    3.77
   6   1   7   70.18    4.40
  -7  -1  -7    6.36    2.49
   7   1   7    8.56    2.70
   7   1   7    7.35    2.34
  -8  -1  -7    4.13    2.70
   8   1   7    5.16    2.81
   8   1   7   -0.88    2.60
  13  -2  -7    6.85    3.03
  13  -2  -7    8.31    2.44
  12  -2  -7    5.41    2.53
  12  -2  -7    1.34    1.46
 -12   2   7    5.00    1.67
  11  -2  -7   57.21    4.15
  11  -2  -7   51.88    3.20
 -11   2   7   58.93    3.31
  10  -2  -7   68.38    4.02
  10  -2  -7   69.43    3.70
 -10   2   7   70.30    3.71
   9  -2  -7   -0.77    1.33
   9  -2  -7   -1.54    0.80
  -9   2   7    0.19    0.88
   8  -2  -7  108.89    4.22
   8  -2  -7  112.28    4.38
  -8   2   7  109.91    4.28
   7  -2  -7  208.81    7.66
   7  -2  -7  198.09    6.49
   7  -2  -7  197.53    6.86
  -7   2   7  194.80    6.51
   6  -2  -7   29.80    1.65
   6  -2  -7   30.87    1.71
   6  -2  -7   34.64    2.16
  -6   2   7   28.48    1.64
   5  -2  -7   70.23    2.82
   5  -2  -7   72.49    3.31
   5  -2  -7   74.12    2.72
  -5   2   7   72.13    2.86
   4  -2  -7  239.78    7.30
   4  -2  -7  232.78    8.55
  -4   2   7  237.36    7.32
   3  -2  -7  192.29    6.93
   3  -2  -7  196.00    5.93
  -3   2   7  185.18    5.90
  -3   2   7  169.98    5.79
   2  -2  -7    7.97    1.10
   2  -2  -7    6.72    1.07
  -2   2   7    7.04    1.05
  -2   2   7    7.59    1.12
   1  -2  -7  223.01    6.76
   1  -2  -7  192.81    7.80
  -1   2   7  208.42    6.72
  -1   2   7  219.65    7.12
  -1   2   7  200.54    6.43
   0  -2  -7  205.23    6.67
   0  -2  -7  192.94    7.85
   0   2   7  203.60    6.58
   0   2   7  212.86    6.83
   0   2   7  208.02    6.70
  -1  -2  -7   24.19    1.75
  -1  -2  -7   26.45    1.90
   1   2   7   22.09    1.72
   1   2   7   25.52    1.22
   1   2   7   21.83    1.51
  -2  -2  -7   90.11    3.87
  -2  -2  -7   92.65    3.84
   2   2   7   83.50    3.59
   2   2   7   79.00    3.60
  -3  -2  -7  143.20    5.38
  -3  -2  -7  149.42    5.63
   3   2   7  136.93    5.34
   3   2   7  136.36    5.48
  -4  -2  -7   37.58    2.77
  -4  -2  -7   34.04    3.02
   4   2   7   38.61    3.05
   4   2   7   39.30    3.14
  -5  -2  -7   16.43    2.19
  -5  -2  -7   16.57    2.42
   5   2   7   21.57    2.71
   5   2   7   14.59    2.39
  -6  -2  -7   59.13    4.24
   6   2   7   61.96    3.82
  -7  -2  -7   27.26    3.46
   7   2   7   27.90    3.54
   7   2   7   23.98    3.31
  -8  -2  -7   -0.31    2.53
   8   2   7    4.21    3.02
  13  -3  -7   17.28    2.75
  12  -3  -7    1.31    1.79
  12  -3  -7    0.06    1.59
 -12   3   7    4.74    1.94
  11  -3  -7   26.79    2.39
  11  -3  -7   25.30    2.56
 -11   3   7   27.83    2.41
  10  -3  -7   64.66    3.90
  10  -3  -7   71.40    3.64
 -10   3   7   71.15    3.64
   9  -3  -7   32.04    2.36
   9  -3  -7   31.01    2.22
  -9   3   7   34.04    2.48
   8  -3  -7   27.05    2.12
   8  -3  -7   25.40    1.70
  -8   3   7   25.38    1.74
   7  -3  -7  154.70    5.40
   7  -3  -7  157.28    6.23
   7  -3  -7  148.62    5.16
  -7   3   7  151.75    5.22
   6  -3  -7   69.79    2.79
   6  -3  -7   68.37    2.68
   6  -3  -7   70.70    3.41
  -6   3   7   65.39    2.80
   5  -3  -7    0.97    0.75
   5  -3  -7    0.87    1.01
   5  -3  -7    1.37    0.44
  -5   3   7   -0.21    0.75
   4  -3  -7  226.30    8.37
   4  -3  -7  234.75    7.03
  -4   3   7  217.38    7.01
   3  -3  -7  184.75    7.16
   3  -3  -7  190.45    6.02
  -3   3   7  182.17    6.01
  -3   3   7  199.21    5.85
  -3   3   7  193.44    6.94
   2  -3  -7   27.51    1.53
   2  -3  -7   24.11    1.83
  -2   3   7   24.23    1.49
  -2   3   7   22.99    1.72
   1  -3  -7   50.92    3.17
   1  -3  -7   59.45    2.72
  -1   3   7   62.04    2.75
  -1   3   7   63.08    2.67
   0  -3  -7  218.50    7.72
   0  -3  -7  204.65    8.44
   0  -3  -7  223.85    7.16
   0   3   7  223.71    7.34
   0   3   7  212.68    6.81
  -1  -3  -7   53.47    2.88
  -1  -3  -7   58.86    2.99
   1   3   7   50.51    2.30
   1   3   7   55.01    2.33
   1   3   7   56.01    2.99
  -2  -3  -7   17.87    1.93
  -2  -3  -7   15.80    1.93
   2   3   7   14.34    1.68
   2   3   7   15.31    1.55
  -3  -3  -7  134.15    5.41
  -3  -3  -7  137.79    5.61
   3   3   7  131.53    5.41
   3   3   7  125.99    5.25
  -4  -3  -7   83.12    4.01
  -4  -3  -7   87.38    4.39
   4   3   7   76.58    3.96
  -5  -3  -7   -1.79    1.69
  -5  -3  -7   -1.56    1.69
   5   3   7   -0.65    1.80
   5   3   7   -0.33    1.91
  -6  -3  -7   18.48    2.97
   6   3   7   22.08    3.11
  -7  -3  -7   45.97    3.83
   7   3   7   44.11    3.89
  13  -4  -7   20.58    3.26
 -13   4   7   15.22    4.29
 -13   4   7   19.20    2.88
  12  -4  -7   12.96    2.66
 -12   4   7    6.69    3.62
 -12   4   7   14.60    2.40
  11  -4  -7    2.30    1.96
 -11   4   7    2.73    1.70
  10  -4  -7   41.14    2.51
  10  -4  -7   45.24    3.20
 -10   4   7   48.58    3.01
   9  -4  -7   57.93    2.95
   9  -4  -7   61.57    3.20
  -9   4   7   54.25    2.73
   8  -4  -7    0.67    0.74
   8  -4  -7    1.70    1.41
   8  -4  -7    1.89    1.02
  -8   4   7    0.69    0.75
   7  -4  -7   51.75    2.48
   7  -4  -7   58.73    2.50
   7  -4  -7   55.04    3.21
  -7   4   7   51.78    2.56
   6  -4  -7  141.66    5.79
   6  -4  -7  143.43    4.72
   6  -4  -7  141.49    4.73
  -6   4   7  140.66    4.77
  -6   4   7  131.62    6.14
   5  -4  -7   26.31    2.14
   5  -4  -7   29.43    1.68
   5  -4  -7   25.41    1.15
  -5   4   7   26.42    1.68
  -5   4   7   28.30    2.61
   4  -4  -7   29.17    2.21
   4  -4  -7   32.66    1.59
  -4   4   7   27.34    1.55
  -4   4   7   28.20    2.08
   3  -4  -7  182.18    5.86
   3  -4  -7  183.87    7.09
  -3   4   7  188.19    5.68
  -3   4   7  176.60    6.71
  -3   4   7  171.43    5.84
   2  -4  -7   79.02    3.18
   2  -4  -7   81.89    3.90
  -2   4   7   78.62    2.91
  -2   4   7   78.67    3.37
  -2   4   7   73.40    3.15
   1  -4  -7    2.37    1.04
   1  -4  -7    5.80    1.20
  -1   4   7    3.20    0.90
  -1   4   7    1.68    1.06
   0  -4  -7  119.37    4.41
   0  -4  -7  109.00    4.61
   0  -4  -7  101.81    5.22
   0   4   7  118.50    4.35
   0   4   7  112.10    4.41
  -1  -4  -7  144.21    5.79
  -1  -4  -7  145.34    6.53
  -1  -4  -7  145.06    5.35
   1   4   7  129.74    4.87
   1   4   7  143.47    5.12
   1   4   7  145.85    5.39
  -2  -4  -7    5.39    1.37
  -2  -4  -7    6.21    1.63
   2   4   7    4.34    1.11
   2   4   7    2.38    1.59
  -3  -4  -7   55.84    3.70
  -3  -4  -7   62.36    3.53
   3   4   7   51.65    3.01
   3   4   7   48.37    3.43
  -4  -4  -7   64.95    4.16
  -4  -4  -7   59.77    3.88
   4   4   7   59.70    3.96
  -5  -4  -7   20.75    2.92
  -5  -4  -7   22.37    2.93
   5   4   7   20.61    2.92
  -6  -4  -7    2.66    1.81
   6   4   7    6.40    2.09
  -7  -4  -7   21.44    3.33
  13  -5  -7   11.62    2.89
 -13   5   7    4.71    3.52
 -13   5   7    8.29    1.96
  12  -5  -7   31.42    3.15
 -12   5   7   22.42    4.38
 -12   5   7   31.93    2.98
  11  -5  -7    6.17    1.60
 -11   5   7    7.86    1.87
 -11   5   7    1.70    3.08
  10  -5  -7   12.91    1.97
 -10   5   7    7.49    2.49
 -10   5   7   10.56    1.78
   9  -5  -7   57.17    3.05
  -9   5   7   54.53    2.87
  -9   5   7   44.07    4.09
   8  -5  -7   33.29    2.13
   8  -5  -7   33.07    2.09
   8  -5  -7   30.27    2.45
  -8   5   7   32.46    2.17
  -8   5   7   29.98    3.54
   7  -5  -7    6.59    1.36
   7  -5  -7    4.26    1.02
   7  -5  -7    4.83    0.90
  -7   5   7    4.15    2.05
  -7   5   7    6.47    1.13
   6  -5  -7   85.14    3.11
   6  -5  -7   88.86    3.32
   6  -5  -7   91.41    4.29
  -6   5   7   81.45    4.60
  -6   5   7   89.60    3.36
   5  -5  -7   90.62    4.33
   5  -5  -7   96.32    3.44
  -5   5   7   90.55    4.57
  -5   5   7   93.53    3.45
   4  -5  -7    6.34    1.54
   4  -5  -7    7.19    0.91
  -4   5   7    6.20    1.57
  -4   5   7    7.31    0.62
  -4   5   7    4.93    0.82
   3  -5  -7   58.26    2.61
   3  -5  -7   59.97    3.38
  -3   5   7   62.14    2.28
  -3   5   7   54.25    2.60
  -3   5   7   60.56    3.25
   2  -5  -7   96.94    4.51
   2  -5  -7   97.08    3.68
  -2   5   7  104.99    4.34
  -2   5   7  101.16    3.66
  -2   5   7   94.74    3.78
   1  -5  -7   25.23    2.61
   1  -5  -7   29.14    1.85
  -1   5   7   26.38    1.83
  -1   5   7   31.18    2.18
  -1   5   7   29.88    1.97
   0  -5  -7   21.26    2.61
   0  -5  -7   23.61    2.38
   0  -5  -7   25.20    2.16
   0   5   7   22.63    2.05
   0   5   7   21.13    2.03
   0   5   7   21.67    2.12
  -1  -5  -7  107.95    4.59
  -1  -5  -7  114.84    5.21
  -1  -5  -7  112.71    5.77
   1   5   7  116.16    4.69
   1   5   7  110.87    5.01
  -2  -5  -7   38.79    3.27
  -2  -5  -7   33.44    2.82
   2   5   7   39.85    2.96
   2   5   7   34.80    3.22
  -3  -5  -7    1.22    1.59
  -3  -5  -7    1.85    1.87
   3   5   7   -0.60    1.69
   3   5   7   -1.90    2.01
  -4  -5  -7   24.77    2.79
  -4  -5  -7   34.55    3.45
   4   5   7   30.69    3.90
   4   5   7   29.03    3.05
  -5  -5  -7   29.23    3.01
   5   5   7   32.92    3.12
   5   5   7   26.75    3.36
   6   5   7    1.10    2.63
   6   5   7    3.49    2.38
 -13   6   7   -1.84    2.42
 -13   6   7    1.31    2.02
  12  -6  -7   24.61    3.06
 -12   6   7   24.64    2.33
 -12   6   7   30.33    4.60
  11  -6  -7   19.05    2.45
 -11   6   7   25.66    4.28
 -11   6   7   27.19    2.44
  10  -6  -7   -0.98    1.86
  10  -6  -7    0.63    1.48
 -10   6   7   -0.77    2.62
 -10   6   7   -2.21    1.28
   9  -6  -7   32.32    3.24
   9  -6  -7   28.21    2.34
  -9   6   7   28.18    3.46
  -9   6   7   30.47    1.97
   8  -6  -7   84.69    4.49
   8  -6  -7   80.34    3.44
  -8   6   7   87.95    3.46
  -8   6   7   67.71    5.19
   7  -6  -7   11.73    1.96
  -7   6   7   12.07    1.40
  -7   6   7   13.69    2.67
   6  -6  -7   16.91    1.89
  -6   6   7   17.35    1.46
  -6   6   7   13.54    2.44
   5  -6  -7   82.86    3.29
   5  -6  -7   91.81    4.21
  -5   6   7   90.68    3.38
  -5   6   7   87.24    4.60
   4  -6  -7   55.25    3.36
   4  -6  -7   53.05    2.44
  -4   6   7   53.05    3.43
  -4   6   7   55.01    2.11
  -4   6   7   52.09    2.48
   3  -6  -7    3.55    1.54
   3  -6  -7    1.85    0.94
  -3   6   7    2.86    1.07
  -3   6   7    5.11    1.55
  -3   6   7    2.39    0.86
   2  -6  -7   68.35    2.89
   2  -6  -7   67.53    3.94
  -2   6   7   68.00    2.96
  -2   6   7   64.39    2.89
  -2   6   7   78.29    3.77
   1  -6  -7   85.64    3.64
   1  -6  -7   76.34    4.28
   1  -6  -7   86.52    4.16
  -1   6   7   89.25    3.75
  -1   6   7   92.55    4.13
  -1   6   7   82.09    3.67
   0  -6  -7    4.09    1.54
   0  -6  -7    6.73    1.47
   0  -6  -7    2.59    1.81
   0   6   7    7.02    1.56
   0   6   7    4.16    1.47
   0   6   7    6.99    1.56
  -1  -6  -7   33.85    3.26
  -1  -6  -7   29.97    2.20
   1   6   7   30.46    2.51
   1   6   7   29.10    2.24
  -2  -6  -7   50.30    3.87
   2   6   7   42.95    2.82
   2   6   7   41.43    3.65
  -3  -6  -7    9.98    2.12
   3   6   7    8.65    2.58
   3   6   7   12.01    2.29
  -4  -6  -7    6.36    2.65
   4   6   7   11.90    2.57
   4   6   7    5.99    2.90
  -5  -6  -7   19.62    2.79
   5   6   7   26.18    2.91
   5   6   7   26.56    4.11
 -13   7   7    0.75    1.98
  12  -7  -7   14.42    3.19
 -12   7   7   11.15    3.93
 -12   7   7   12.56    2.17
  11  -7  -7   56.10    3.98
 -11   7   7   53.77    5.74
 -11   7   7   56.58    3.33
  10  -7  -7   15.81    2.80
 -10   7   7   18.19    3.71
 -10   7   7   22.41    2.12
   9  -7  -7   10.34    1.92
  -9   7   7    7.15    1.37
  -9   7   7    8.59    2.37
   8  -7  -7   82.53    4.67
  -8   7   7   86.80    3.47
  -8   7   7   78.05    5.54
   7  -7  -7   61.56    3.60
  -7   7   7   67.27    2.84
  -7   7   7   63.00    4.14
   6  -7  -7    1.25    1.49
  -6   7   7    1.45    0.89
  -6   7   7   -2.38    1.79
   5  -7  -7   61.86    3.70
  -5   7   7   51.15    3.38
  -5   7   7   54.54    2.50
   4  -7  -7   88.28    4.38
  -4   7   7   89.28    3.50
  -4   7   7   91.67    4.73
   3  -7  -7   27.60    2.72
  -3   7   7   24.93    1.89
  -3   7   7   25.31    2.64
   2  -7  -7   31.48    3.06
  -2   7   7   27.80    2.03
  -2   7   7   28.68    2.22
  -2   7   7   26.29    2.43
   1  -7  -7   73.45    4.06
   1  -7  -7   69.79    4.57
  -1   7   7   74.49    3.66
  -1   7   7   79.95    3.55
  -1   7   7   80.56    4.09
   0  -7  -7   40.14    3.88
   0  -7  -7   40.96    3.71
   0   7   7   41.52    3.16
   0   7   7   40.56    2.84
   0   7   7   45.19    3.09
  -1  -7  -7    2.57    2.11
   1   7   7   -0.10    1.50
   1   7   7    2.16    1.43
  -2  -7  -7   41.87    3.36
   2   7   7   36.01    3.72
   2   7   7   34.55    3.03
  -3  -7  -7   38.20    3.97
   3   7   7   35.10    3.37
   3   7   7   32.78    3.47
  -4  -7  -7   -3.29    1.76
   4   7   7    0.24    2.01
   4   7   7   -0.63    2.13
  -5  -7  -7   10.40    3.25
  12  -8  -7   -0.98    2.60
 -12   8   7    1.23    1.72
 -12   8   7    1.73    2.37
  11  -8  -7   42.35    4.30
 -11   8   7   55.96    3.22
 -11   8   7   45.32    4.75
  10  -8  -7   54.35    4.55
 -10   8   7   60.20    5.80
 -10   8   7   57.14    3.06
   9  -8  -7    1.55    2.00
  -9   8   7   -0.82    1.13
  -9   8   7    0.30    2.11
   8  -8  -7   39.84    3.53
  -8   8   7   32.07    4.01
  -8   8   7   34.51    2.33
   7  -8  -7  114.63    5.64
  -7   8   7  104.36    6.09
   6  -8  -7   23.89    2.46
  -6   8   7   20.73    1.69
  -6   8   7   20.10    2.62
   5  -8  -7   10.38    2.15
  -5   8   7   11.64    2.51
  -5   8   7   13.34    1.42
   4  -8  -7  126.91    5.94
  -4   8   7  116.58    5.57
   3  -8  -7   75.84    4.47
  -3   8   7   67.16    3.21
  -3   8   7   74.53    3.23
  -3   8   7   67.20    4.31
   2  -8  -7    1.57    1.41
   2  -8  -7   -2.29    1.81
  -2   8   7   -0.75    1.70
  -2   8   7   -0.22    1.10
  -2   8   7    1.29    1.20
   1  -8  -7   51.33    3.74
   1  -8  -7   52.52    4.23
  -1   8   7   58.14    3.42
  -1   8   7   59.43    3.35
  -1   8   7   58.25    3.08
   0  -8  -7   54.66    4.49
   0  -8  -7   57.76    4.49
   0   8   7   53.04    3.18
   0   8   7   55.46    3.40
  -1  -8  -7    8.61    2.67
   1   8   7   12.87    2.14
   1   8   7   12.01    2.57
  -2  -8  -7   21.25    2.88
   2   8   7   25.62    2.74
   2   8   7   18.11    2.71
  -3  -8  -7   36.32    4.17
   3   8   7   29.72    3.95
   3   8   7   32.87    3.29
  -4  -8  -7   17.17    3.63
   4   8   7   14.66    2.40
  11  -9  -7   19.48    3.44
 -11   9   7   12.93    3.96
 -11   9   7   22.64    2.13
  10  -9  -7   54.33    4.63
 -10   9   7   43.29    4.67
 -10   9   7   49.09    2.97
   9  -9  -7   26.24    3.30
  -9   9   7   23.97    4.16
  -9   9   7   24.14    1.93
   8  -9  -7    7.07    1.89
  -8   9   7   11.52    3.12
  -8   9   7    6.83    1.30
   7  -9  -7   90.58    5.16
  -7   9   7   87.68    5.76
   6  -9  -7   60.78    3.79
  -6   9   7   54.68    4.11
  -6   9   7   61.89    2.80
   5  -9  -7    1.38    2.01
  -5   9   7    1.85    2.18
  -5   9   7   -0.02    1.03
   4  -9  -7   59.03    3.85
  -4   9   7   59.59    2.75
  -4   9   7   66.64    4.56
   3  -9  -7  103.25    5.55
   3  -9  -7   94.15    5.51
  -3   9   7   96.33    3.77
  -3   9   7   91.66    4.93
   2  -9  -7   13.47    2.67
   2  -9  -7   12.97    2.75
  -2   9   7   10.80    1.79
  -2   9   7   18.10    2.67
  -2   9   7   15.71    2.01
   1  -9  -7   14.28    2.90
   1  -9  -7   17.74    3.07
  -1   9   7   17.34    2.08
  -1   9   7   17.03    2.73
  -1   9   7   18.34    2.47
   0  -9  -7   85.50    5.63
   0  -9  -7   75.53    4.88
   0   9   7   81.24    3.99
  -1  -9  -7   19.49    3.55
   1   9   7   31.74    3.57
   1   9   7   27.88    2.71
  -2  -9  -7    0.64    1.95
   2   9   7   -4.22    2.59
   2   9   7    1.25    1.93
   3   9   7   24.29    3.07
  11 -10  -7    3.68    2.84
 -11  10   7   -0.41    2.39
  10 -10  -7   39.32    4.27
 -10  10   7   38.43    5.12
   9 -10  -7   37.93    3.49
  -9  10   7   30.52    4.63
   8 -10  -7    2.40    2.30
  -8  10   7   -0.60    2.90
   7 -10  -7   33.80    3.17
   6 -10  -7   91.43    5.39
  -6  10   7   92.34    6.03
   5 -10  -7   16.79    2.81
  -5  10   7   18.84    2.68
   4 -10  -7    8.13    2.70
   4 -10  -7    7.39    2.40
  -4  10   7    9.50    2.77
   3 -10  -7   85.71    5.50
   3 -10  -7   71.97    5.12
  -3  10   7   76.43    5.22
   2 -10  -7   43.08    4.32
   2 -10  -7   48.36    4.45
  -2  10   7   42.76    3.36
  -2  10   7   39.30    3.79
   1 -10  -7   -0.20    2.40
   1 -10  -7   -0.02    2.61
  -1  10   7    1.82    1.94
  -1  10   7   -0.58    2.14
  -1  10   7    0.88    1.22
   0 -10  -7   40.88    4.01
   0  10   7   31.13    3.11
  -1 -10  -7   48.30    4.31
   1  10   7   29.36    3.90
   2  10   7    2.17    1.89
  10 -11  -7   12.50    3.29
 -10  11   7    7.47    3.10
   9 -11  -7   30.36    3.96
   8 -11  -7   20.84    3.39
  -8  11   7   23.36    4.26
   7 -11  -7    4.62    2.01
  -7  11   7   -2.30    2.85
   6 -11  -7   40.35    4.01
  -6  11   7   40.31    4.51
   5 -11  -7   44.03    4.28
  -5  11   7   32.26    4.21
   4 -11  -7    2.62    2.67
   4 -11  -7    1.72    2.49
  -4  11   7    0.79    1.92
   3 -11  -7   24.78    2.97
   3 -11  -7   35.48    4.19
  -3  11   7   28.78    3.83
   2 -11  -7   45.91    4.24
  -2  11   7   45.19    3.91
   1 -11  -7    6.07    3.25
   1 -11  -7    9.87    3.05
   0  11   7    4.93    2.54
   9 -12  -7   15.57    3.39
   8 -12  -7   19.42    3.42
  -8  12   7   20.12    4.42
   7 -12  -7    3.57    2.14
  -7  12   7    5.73    3.53
   6 -12  -7    6.65    3.25
   6 -12  -7    4.46    2.74
  -6  12   7    9.73    2.93
   5 -12  -7   43.24    4.79
   5 -12  -7   33.42    3.95
  -5  12   7   39.74    4.12
   4 -12  -7    3.93    2.80
   4 -12  -7    9.31    2.71
  -4  12   7   11.23    3.38
   3 -12  -7    1.21    2.77
   3 -12  -7    2.60    3.00
  -3  12   7    0.26    2.79
   7 -13  -7   14.06    2.64
   6 -13  -7    1.84    2.83
   3 -13   8    7.61    3.40
   4 -13   8   16.41    3.14
   2  12  -8   20.70    4.22
   2  12  -8   26.16    3.40
   1  12  -8    3.30    2.34
   0  12  -8   12.07    2.79
   0  12  -8   10.44    2.72
  -1  12  -8   40.13    4.71
  -2  12  -8    9.75    3.34
   2 -12   8   10.18    3.22
   2 -12   8    7.48    2.99
  -3  12  -8    7.35    3.26
   3 -12   8    6.34    3.06
   3 -12   8    8.97    3.32
  -4  12  -8   30.08    3.64
   4 -12   8   33.34    4.38
   4 -12   8   34.30    4.32
   5 -12   8   19.42    3.86
   5 -12   8   22.56    3.40
  -6  12  -8   -3.45    2.71
   6 -12   8   -0.56    2.82
   4  11  -8    4.30    3.42
   4  11  -8    6.81    1.95
   3  11  -8   22.28    3.00
   3  11  -8   14.38    3.04
   2  11  -8   34.70    3.16
   2  11  -8   44.81    4.68
   1  11  -8   30.14    2.91
   1  11  -8   24.31    3.34
   0  11  -8   10.81    2.50
   0  11  -8    4.89    3.06
  -1  11  -8   61.68    5.36
   1 -11   8   56.88    5.10
  -2  11  -8   45.58    4.50
   2 -11   8   39.02    4.17
   2 -11   8   39.77    4.48
  -3  11  -8    3.66    2.81
   3 -11   8    2.32    2.71
   3 -11   8   -0.83    2.49
  -4  11  -8   24.14    3.62
   4 -11   8   23.75    3.89
   4 -11   8   23.33    3.73
  -5  11  -8   46.03    4.42
   5 -11   8   49.50    4.73
   5 -11   8   40.29    4.78
  -6  11  -8    4.38    2.90
   6 -11   8    9.67    3.41
   6 -11   8    3.09    3.05
   7 -11   8    5.84    2.45
   6  10  -8    5.67    1.87
   5  10  -8   35.66    2.85
   5  10  -8   23.51    4.16
   5  10  -8   28.17    2.83
   4  10  -8   16.61    2.70
   4  10  -8   13.56    2.85
   4  10  -8   13.58    1.72
   3  10  -8   -1.15    1.06
   3  10  -8    2.72    3.03
   3  10  -8   -1.14    1.34
   2  10  -8   53.62    3.86
   2  10  -8   56.33    5.29
   1  10  -8   55.85    3.39
   1  10  -8   54.79    4.24
   0  10  -8    0.92    1.84
   0  10  -8    2.14    2.42
   0 -10   8    0.38    2.14
   1 -10   8   34.91    3.92
  -2  10  -8   83.06    5.33
   2 -10   8   81.18    5.26
   2 -10   8   80.55    5.70
  -3  10  -8   15.64    3.00
   3 -10   8   14.25    2.97
   3 -10   8   13.12    2.65
  -4  10  -8    6.03    2.34
   4 -10   8    5.26    2.75
   4 -10   8    9.15    2.29
  -5  10  -8   49.34    3.78
   5 -10   8   48.12    5.15
   5 -10   8   55.31    5.03
   6 -10   8   29.38    3.79
   6 -10   8   31.68    4.13
   7 -10   8    2.36    2.22
   7 -10   8   -2.41    2.98
   7   9  -8    7.66    2.64
   7   9  -8    8.33    2.15
   7   9  -8   14.05    2.70
   6   9  -8   -0.80    2.07
   6   9  -8   -0.66    2.05
   6   9  -8   -0.82    1.61
   5   9  -8   14.74    1.97
   5   9  -8   14.80    3.51
   5   9  -8   16.20    2.51
   4   9  -8   36.97    2.53
   4   9  -8   32.27    4.15
   4   9  -8   36.01    3.34
   3   9  -8   15.08    3.33
   3   9  -8   15.30    1.65
   3   9  -8   17.00    2.33
   2   9  -8   22.85    2.48
   2   9  -8   21.39    1.89
   2   9  -8   20.34    3.41
   1   9  -8   68.83    3.52
   1   9  -8   63.68    4.85
  -1  -9   8   65.10    4.21
   0   9  -8   40.45    3.09
   0   9  -8   32.20    2.01
   0   9  -8   30.89    3.54
   0  -9   8   33.44    3.58
  -1   9  -8    6.73    2.27
  -1   9  -8    1.47    0.92
   1  -9   8    2.59    1.59
  -2   9  -8   40.85    3.90
  -2   9  -8   45.16    2.31
   2  -9   8   44.67    3.92
   2  -9   8   39.66    3.64
  -3   9  -8   59.22    4.26
  -3   9  -8   56.09    2.88
   3  -9   8   58.19    4.88
   3  -9   8   62.43    4.54
  -4   9  -8   -3.34    1.83
  -4   9  -8   -0.01    0.98
   4  -9   8    0.34    2.37
   4  -9   8   -1.09    1.54
  -5   9  -8   32.82    2.71
  -5   9  -8   38.01    3.66
   5  -9   8   35.03    3.76
   5  -9   8   42.57    4.15
  -6   9  -8   52.71    4.12
  -6   9  -8   45.82    2.94
   6  -9   8   47.33    4.58
   6  -9   8   48.89    4.29
  -7   9  -8    7.80    1.73
   7  -9   8    2.06    3.09
   7  -9   8    8.28    2.52
  -8   9  -8    7.75    2.28
   8  -9   8    6.44    3.57
   8  -9   8    7.57    3.16
   8   8  -8    5.02    2.44
   8   8  -8    4.12    3.03
   7   8  -8   25.61    2.97
   7   8  -8   26.39    4.09
   7   8  -8   29.39    2.75
   6   8  -8   14.91    2.11
   6   8  -8   13.91    2.37
   6   8  -8   14.17    3.48
   5   8  -8   -0.10    1.34
   5   8  -8   -0.83    1.63
   5   8  -8   -1.17    2.60
   4   8  -8   31.52    3.93
   4   8  -8   41.32    3.08
   4   8  -8   38.92    2.53
   3   8  -8   38.93    4.02
   3   8  -8   45.13    3.07
   3   8  -8   40.92    2.42
   2   8  -8    2.96    2.20
   2   8  -8    2.28    1.47
   2   8  -8    1.39    0.99
  -2  -8   8    3.57    1.81
   1   8  -8   41.56    2.95
   1   8  -8   41.41    3.80
   1   8  -8   44.22    2.31
  -1  -8   8   37.73    3.74
   0   8  -8   43.29    2.51
   0   8  -8   45.03    3.74
   0   8  -8   41.98    2.92
   0  -8   8   33.56    3.69
  -1   8  -8   15.45    1.50
  -1   8  -8   10.93    2.29
   1  -8   8   12.31    2.52
  -2   8  -8   20.77    1.75
   2  -8   8   17.88    2.60
   2  -8   8   18.98    2.58
  -3   8  -8   61.92    4.07
  -3   8  -8   66.96    3.05
   3  -8   8   64.04    4.37
   3  -8   8   57.62    4.69
  -4   8  -8   24.87    2.76
  -4   8  -8   22.32    1.97
   4  -8   8   17.93    3.07
   4  -8   8   20.94    2.60
  -5   8  -8    5.70    1.71
  -5   8  -8    4.41    1.89
   5  -8   8    5.01    2.45
   5  -8   8    6.42    1.98
  -6   8  -8   32.74    2.81
   6  -8   8   33.52    3.61
   6  -8   8   31.17    3.86
  -7   8  -8   31.50    2.79
   7  -8   8   28.55    3.50
   7  -8   8   32.31    3.58
  -8   8  -8    0.23    1.82
   8  -8   8    0.38    2.70
   8  -8   8   -0.32    2.14
  -9   8  -8    9.93    2.35
   9   7  -8    8.60    3.59
   8   7  -8   -0.95    1.88
   8   7  -8    0.73    2.08
   7   7  -8   11.34    2.15
   7   7  -8   13.74    1.79
   7   7  -8   11.34    3.39
   6   7  -8   40.06    3.15
   6   7  -8   39.81    4.35
   6   7  -8   45.78    3.00
   5   7  -8    9.91    1.77
   5   7  -8    7.90    2.24
   5   7  -8   12.45    1.73
   4   7  -8   15.69    1.69
   4   7  -8    9.33    2.77
   4   7  -8   17.57    1.73
   3   7  -8   73.20    3.55
   3   7  -8   69.83    3.09
   3   7  -8   70.21    4.27
   2   7  -8   27.81    2.44
   2   7  -8   35.92    3.34
   2   7  -8   31.81    2.06
  -2  -7   8   33.14    3.22
   1   7  -8    3.99    1.05
   1   7  -8    4.00    1.94
   1   7  -8    6.21    1.44
  -1  -7   8    2.97    1.87
   0   7  -8   51.70    3.32
   0   7  -8   55.74    2.79
   0  -7   8   63.30    4.17
  -1   7  -8   63.48    3.74
  -1   7  -8   52.29    2.62
   1  -7   8   49.97    3.59
  -2   7  -8    1.72    1.50
  -2   7  -8   -0.12    1.00
   2  -7   8    0.05    1.56
   2  -7   8   -1.59    1.26
  -3   7  -8   54.39    3.52
  -3   7  -8   56.26    2.90
   3  -7   8   59.64    3.94
   3  -7   8   54.27    4.34
  -4   7  -8   53.13    2.97
  -4   7  -8   53.60    3.44
   4  -7   8   56.69    4.16
   4  -7   8   49.26    3.79
  -5   7  -8   18.64    2.22
  -5   7  -8   19.01    2.08
   5  -7   8   17.05    2.89
   5  -7   8   17.53    2.95
  -6   7  -8   13.27    1.97
   6  -7   8    9.56    2.76
   6  -7   8    8.69    2.77
  -7   7  -8   51.17    3.55
   7  -7   8   42.03    4.58
   7  -7   8   49.09    4.55
  -8   7  -8   13.44    2.49
   8  -7   8   11.58    2.72
   8  -7   8   13.25    3.51
  -9   7  -8    2.48    2.22
   9  -7   8    1.67    2.14
   9   6  -8   25.41    4.01
   9   6  -8   29.30    2.67
   8   6  -8   11.63    2.26
   8   6  -8   18.71    3.42
   7   6  -8    2.73    2.76
   7   6  -8    5.72    1.72
   6   6  -8   69.32    3.52
   6   6  -8   62.92    4.49
   6   6  -8   72.11    3.34
   5   6  -8   58.60    3.20
   5   6  -8   63.87    3.10
   5   6  -8   61.56    4.67
  -5  -6   8   64.08    3.09
   4   6  -8   -0.34    1.07
   4   6  -8    0.66    1.40
   4   6  -8   -0.68    0.68
  -4  -6   8    0.78    0.69
   3   6  -8   65.91    2.88
   3   6  -8   67.06    2.98
   3   6  -8   60.73    4.19
  -3  -6   8   65.44    2.87
   2   6  -8  115.80    4.60
   2   6  -8  124.50    4.39
   2   6  -8  115.97    5.39
  -2  -6   8  132.29    6.08
  -2  -6   8  129.48    4.41
   1   6  -8   27.34    2.63
   1   6  -8   20.16    1.45
   1   6  -8   22.29    1.97
  -1  -6   8   24.70    2.80
  -1  -6   8   22.66    1.48
   0   6  -8   53.82    3.40
   0   6  -8   54.88    2.57
   0  -6   8   53.65    2.53
   0  -6   8   50.68    3.77
  -1   6  -8  115.34    5.14
  -1   6  -8  120.59    4.39
   1  -6   8  122.99    5.20
   1  -6   8  114.93    5.70
   1  -6   8  123.04    4.41
  -2   6  -8   38.11    2.82
  -2   6  -8   39.55    2.38
   2  -6   8   40.24    3.52
   2  -6   8   43.21    3.11
  -3   6  -8    2.28    1.36
  -3   6  -8    1.08    1.10
   3  -6   8    6.86    1.89
   3  -6   8    2.28    1.38
  -4   6  -8   54.58    2.84
  -4   6  -8   63.00    3.31
   4  -6   8   53.67    4.32
   4  -6   8   60.67    4.07
  -5   6  -8   58.73    3.33
   5  -6   8   53.47    3.94
   5  -6   8   58.21    4.43
  -6   6  -8    2.67    1.67
   6  -6   8    2.44    1.75
   6  -6   8    3.15    1.81
  -7   6  -8   30.79    2.95
   7  -6   8   31.64    3.89
   7  -6   8   30.51    3.74
  -8   6  -8   33.06    3.29
   8  -6   8   39.72    4.30
   8  -6   8   36.16    3.86
  -9   6  -8    2.78    2.35
   9  -6   8    3.27    2.10
  10   5  -8   -0.10    1.61
   9   5  -8   47.70    3.72
  -9  -5   8   39.80    3.50
   8   5  -8   52.58    2.96
   8   5  -8   59.33    3.59
  -8  -5   8   54.24    3.58
   7   5  -8    0.31    1.49
  -7  -5   8    3.09    1.51
   6   5  -8   52.45    2.86
   6   5  -8   51.24    2.61
  -6  -5   8   49.67    2.60
   5   5  -8  121.16    4.55
   5   5  -8  133.59    4.87
  -5  -5   8  128.03    4.56
   4   5  -8   56.07    2.72
   4   5  -8   51.53    2.60
  -4  -5   8   52.67    2.57
   3   5  -8   13.04    1.36
   3   5  -8   10.98    2.09
   3   5  -8   12.78    1.41
  -3  -5   8   14.08    1.42
   2   5  -8  177.26    6.08
   2   5  -8  168.20    6.91
   2   5  -8  172.56    5.74
  -2  -5   8  181.68    7.62
  -2  -5   8  170.70    5.64
   1   5  -8  137.27    5.68
   1   5  -8  133.82    4.64
  -1  -5   8  137.75    4.64
  -1  -5   8  137.73    6.19
   0   5  -8    4.57    1.43
   0   5  -8    5.52    1.13
   0  -5   8    5.05    1.39
   0  -5   8    4.13    1.08
  -1   5  -8  110.16    4.45
  -1   5  -8  100.32    3.90
   1  -5   8  108.54    3.98
   1  -5   8   97.39    4.42
   1  -5   8   90.73    4.91
  -2   5  -8  115.85    4.57
  -2   5  -8  104.86    4.18
   2  -5   8  101.28    5.24
   2  -5   8  114.83    4.89
  -3   5  -8   21.10    1.91
  -3   5  -8   20.67    1.95
   3  -5   8   19.62    2.37
   3  -5   8   19.41    2.31
   3  -5   8   21.64    1.94
  -4   5  -8   32.76    2.48
  -4   5  -8   33.05    2.54
   4  -5   8   32.09    3.05
   4  -5   8   31.06    2.46
   4  -5   8   29.30    3.25
  -5   5  -8   86.20    4.09
   5  -5   8   77.65    4.00
   5  -5   8   85.99    4.92
   5  -5   8   81.14    4.75
  -6   5  -8   25.37    2.67
   6  -5   8   22.81    2.91
   6  -5   8   29.57    3.03
  -7   5  -8    5.48    2.04
   7  -5   8    8.52    2.68
   7  -5   8    3.41    2.62
  -8   5  -8   40.16    3.62
   8  -5   8   41.59    4.36
   8  -5   8   38.20    4.13
   9  -5   8   22.54    3.20
   9  -5   8   18.37    3.26
 -11  -4   8   19.22    2.96
  10   4  -8    4.27    2.19
 -10  -4   8    2.15    2.19
   9   4  -8   23.40    2.71
  -9  -4   8   26.60    2.74
   8   4  -8   69.67    3.83
   8   4  -8   68.77    3.44
  -8  -4   8   72.64    3.84
   7   4  -8   38.14    2.70
  -7  -4   8   34.86    2.66
   6   4  -8    4.35    1.15
   6   4  -8    5.40    1.34
  -6  -4   8    6.13    1.33
   5   4  -8   90.90    3.54
   5   4  -8   95.23    3.65
  -5  -4   8   91.10    3.52
   4   4  -8   86.74    3.35
   4   4  -8   82.25    3.33
  -4  -4   8   84.50    3.22
   3   4  -8   17.75    1.50
   3   4  -8   16.46    1.45
  -3  -4   8   15.47    1.42
   2   4  -8  169.60    5.79
   2   4  -8  164.82    5.59
  -2  -4   8  174.08    7.38
  -2  -4   8  171.97    5.60
   1   4  -8  186.22    6.15
   1   4  -8  189.30    7.00
  -1  -4   8  188.91    6.14
  -1  -4   8  191.21    7.90
   0   4  -8   18.40    1.62
   0   4  -8   20.75    1.90
   0  -4   8   18.53    1.57
   0  -4   8   19.07    2.12
  -1   4  -8   33.63    2.19
  -1   4  -8   38.68    2.38
   1  -4   8   40.93    2.55
   1  -4   8   42.12    2.31
   1  -4   8   37.86    2.78
  -2   4  -8  153.03    5.48
  -2   4  -8  159.45    5.65
   2  -4   8  162.16    6.08
   2  -4   8  143.72    6.89
  -3   4  -8   76.78    3.29
  -3   4  -8   70.93    3.37
   3  -4   8   70.05    3.56
   3  -4   8   69.89    3.40
   3  -4   8   64.33    3.92
  -4   4  -8    7.69    1.64
   4  -4   8   12.39    2.25
   4  -4   8    8.46    2.04
   4  -4   8   11.29    1.78
  -5   4  -8   93.66    4.33
   5  -4   8   82.63    5.20
   5  -4   8   82.65    4.22
   5  -4   8   93.89    4.55
  -6   4  -8   83.45    4.38
   6  -4   8   84.24    5.06
   6  -4   8   73.02    4.26
   6  -4   8   82.26    5.23
  -7   4  -8   -0.78    2.00
   7  -4   8    0.81    2.24
   7  -4   8    2.13    1.90
   7  -4   8   -1.71    2.35
  -8   4  -8   19.10    2.89
   8  -4   8   14.86    2.87
   8  -4   8   21.67    3.57
   9  -4   8   43.14    4.06
  11   3  -8   29.26    4.02
  11   3  -8   21.81    2.68
 -11  -3   8   23.40    2.63
  10   3  -8   17.12    2.25
  10   3  -8   13.93    3.12
 -10  -3   8   15.07    2.09
   9   3  -8    4.42    1.91
   9   3  -8    2.18    1.60
  -9  -3   8    4.16    1.86
   8   3  -8   59.70    3.96
   8   3  -8   53.09    3.00
   8   3  -8   59.70    2.91
  -8  -3   8   63.30    3.12
   7   3  -8   32.57    2.15
  -7  -3   8   30.80    2.11
   6   3  -8   -0.80    0.70
   6   3  -8    0.85    1.09
  -6  -3   8    0.20    1.09
   5   3  -8   32.34    1.57
   5   3  -8   30.83    1.72
   5   3  -8   31.63    1.81
  -5  -3   8   29.35    1.76
   4   3  -8  181.31    5.95
   4   3  -8  177.42    6.42
   4   3  -8  178.78    5.96
  -4  -3   8  188.36    5.96
   3   3  -8   20.33    1.34
   3   3  -8   19.14    1.30
   3   3  -8   21.04    1.58
  -3  -3   8   18.14    1.57
   2   3  -8   43.82    2.03
  -2  -3   8   47.13    3.26
  -2  -3   8   41.55    2.02
   1   3  -8  207.76    6.89
  -1  -3   8  226.48    8.94
  -1  -3   8  217.01    6.91
   0   3  -8  100.90    3.94
   0   3  -8   92.37    3.57
   0  -3   8   92.70    4.88
   0  -3   8   98.48    3.60
  -1   3  -8    5.98    1.20
  -1   3  -8    7.38    1.09
   1  -3   8    6.60    1.11
   1  -3   8    6.63    1.23
   1  -3   8    6.94    1.73
  -2   3  -8  119.96    4.52
  -2   3  -8  117.73    4.28
   2  -3   8  121.10    4.83
   2  -3   8  108.04    5.56
  -3   3  -8  158.60    5.35
  -3   3  -8  155.04    5.57
   3  -3   8  163.84    5.65
   3  -3   8  152.77    5.98
   3  -3   8  147.36    6.95
  -4   3  -8    9.77    1.48
   4  -3   8    6.68    1.39
   4  -3   8    9.60    1.96
   4  -3   8    6.68    1.61
  -5   3  -8   51.66    3.33
   5  -3   8   49.20    3.51
   5  -3   8   51.33    3.45
   5  -3   8   56.52    3.88
  -6   3  -8   64.99    4.08
   6  -3   8   71.34    4.19
   6  -3   8   76.82    4.13
   6  -3   8   64.88    4.19
  -7   3  -8   49.45    3.98
   7  -3   8   45.38    4.18
   7  -3   8   47.07    3.62
   7  -3   8   46.87    4.00
  -8   3  -8    6.87    2.60
   8  -3   8    3.52    2.35
   8  -3   8    2.29    2.32
   8  -3   8    7.34    2.91
   9  -3   8   34.20    4.27
 -12  -2   8    0.81    1.70
  11   2  -8   18.54    2.78
  11   2  -8   17.60    2.36
 -11  -2   8   20.14    2.44
  10   2  -8   43.51    3.50
  10   2  -8   42.91    3.09
 -10  -2   8   41.87    3.03
   9   2  -8    1.30    1.67
   9   2  -8   -0.05    1.89
  -9  -2   8    2.14    1.72
   8   2  -8   25.86    2.35
   8   2  -8   22.88    2.03
  -8  -2   8   26.52    2.08
   7   2  -8   51.76    2.88
   7   2  -8   55.84    2.94
   7   2  -8   48.77    2.46
  -7  -2   8   51.10    2.91
   6   2  -8   29.56    1.71
   6   2  -8   30.51    1.85
   6   2  -8   29.30    1.55
  -6  -2   8   30.28    2.16
   5   2  -8   18.94    1.19
   5   2  -8   20.29    1.36
   5   2  -8   20.08    1.71
  -5  -2   8   19.15    1.71
   4   2  -8  151.75    5.52
   4   2  -8  151.11    5.00
   4   2  -8  149.44    4.90
  -4  -2   8  145.62    4.95
   3   2  -8  115.57    3.94
   3   2  -8  104.10    4.20
  -3  -2   8  105.94    3.89
   2   2  -8    0.59    0.81
   2   2  -8    0.68    0.76
  -2  -2   8    1.64    1.36
  -2  -2   8    1.06    0.84
   1   2  -8  120.47    4.33
  -1  -2   8  119.64    4.33
  -1  -2   8  127.76    5.61
   0   2  -8  130.30    4.64
   0   2  -8  122.22    4.53
   0  -2   8  132.35    5.90
   0  -2   8  124.09    4.56
   0  -2   8  125.03    4.67
  -1   2  -8   27.47    2.09
  -1   2  -8   30.52    1.62
   1  -2   8   27.62    1.98
   1  -2   8   25.98    2.33
   1  -2   8   30.40    2.13
  -2   2  -8   60.65    3.03
   2  -2   8   63.48    3.15
   2  -2   8   60.28    2.89
   2  -2   8   58.96    3.75
  -3   2  -8  119.56    4.74
   3  -2   8  120.03    4.97
   3  -2   8  106.88    5.60
   3  -2   8  123.11    4.83
  -4   2  -8   42.33    2.96
   4  -2   8   48.81    3.15
   4  -2   8   35.85    2.86
   4  -2   8   40.11    3.01
  -5   2  -8   -0.83    1.09
   5  -2   8    1.58    1.28
   5  -2   8    0.61    1.26
   5  -2   8    0.60    1.25
  -6   2  -8   50.67    3.73
   6  -2   8   52.15    3.46
   6  -2   8   51.59    4.08
   6  -2   8   51.06    3.86
  -7   2  -8   52.47    4.12
   7  -2   8   47.52    3.48
   7  -2   8   46.20    3.62
   7  -2   8   57.63    4.44
  -8   2  -8    0.79    1.56
   8  -2   8   -2.74    2.62
   8  -2   8   -1.42    1.65
   9  -2   8   15.79    3.28
   9  -2   8   16.31    3.53
  12   1  -8    7.01    2.03
  12   1  -8   10.84    3.33
 -12  -1   8    8.31    2.06
  11   1  -8    3.85    1.67
  11   1  -8    3.33    2.66
 -11  -1   8    6.72    2.33
  10   1  -8   36.99    2.84
  10   1  -8   43.16    3.79
 -10  -1   8   41.59    2.90
   9   1  -8   32.63    2.89
   9   1  -8   36.17    3.27
  -9  -1   8   34.71    2.93
   8   1  -8    0.17    1.50
   8   1  -8   -0.52    1.32
   8   1  -8    1.86    1.00
  -8  -1   8    1.19    1.35
   7   1  -8   34.58    2.57
   7   1  -8   36.69    1.75
   7   1  -8   37.32    2.47
   7   1  -8   40.48    2.21
  -7  -1   8   37.96    2.19
   6   1  -8  112.89    4.39
   6   1  -8  108.13    4.03
   6   1  -8  112.06    4.39
  -6  -1   8  109.74    4.05
   5   1  -8   15.39    1.36
   5   1  -8   15.19    0.97
   5   1  -8   15.47    1.47
  -5  -1   8   17.22    1.52
   4   1  -8   43.85    2.22
   4   1  -8   43.39    2.19
  -4  -1   8   44.04    2.21
   3   1  -8  126.47    4.90
   3   1  -8  121.71    4.36
  -3  -1   8  128.82    4.39
   2   1  -8   33.72    2.14
   2   1  -8   39.02    1.89
  -2  -1   8   38.18    1.86
   1   1  -8    3.64    1.21
   1   1  -8    5.97    1.08
  -1  -1   8    4.53    1.61
  -1  -1   8    5.03    1.08
   0   1  -8  161.58    5.80
   0  -1   8  176.32    5.94
   0  -1   8  186.19    7.48
   0  -1   8  169.20    5.85
  -1   1  -8   41.65    2.48
  -1   1  -8   41.81    1.87
  -1   1  -8   44.33    1.82
   1  -1   8   41.22    2.27
   1  -1   8   46.29    3.21
   1  -1   8   44.47    1.55
   1  -1   8   42.10    2.28
  -2   1  -8    0.55    1.13
  -2   1  -8    2.13    0.49
  -2   1  -8    1.39    0.62
   2  -1   8    2.07    1.11
   2  -1   8    1.26    1.10
   2  -1   8    0.49    1.27
  -3   1  -8   40.25    2.80
   3  -1   8   44.97    2.79
   3  -1   8   41.81    2.89
   3  -1   8   43.62    2.95
  -4   1  -8   41.29    3.17
   4  -1   8   52.55    3.39
   4  -1   8   49.12    3.54
   4  -1   8   57.67    3.34
  -5   1  -8    8.25    2.02
   5  -1   8   11.24    2.23
   5  -1   8   10.04    2.08
   5  -1   8   10.38    2.14
  -6   1  -8   18.61    2.35
   6  -1   8   21.64    2.47
   6  -1   8   26.77    3.03
   6  -1   8   21.46    2.79
  -7   1  -8   49.52    4.35
   7  -1   8   54.64    4.34
   7  -1   8   56.23    4.51
  -8   1  -8   15.19    3.06
   8  -1   8   11.63    2.97
   8  -1   8   15.52    3.15
  12   0  -8   36.19    4.05
  12   0  -8   31.82    3.40
 -12   0   8   40.92    3.37
  11   0  -8    3.19    2.51
  11   0  -8    4.84    1.63
 -11   0   8    4.11    1.64
  10   0  -8   20.93    2.41
  10   0  -8   13.19    2.48
 -10   0   8   19.45    2.43
   9   0  -8   57.86    3.05
   9   0  -8   60.33    3.67
  -9   0   8   61.40    3.12
   8   0  -8   40.27    2.59
   8   0  -8   37.60    2.76
   8   0  -8   37.96    2.31
  -8   0   8   37.48    2.31
   7   0  -8    7.55    1.35
   7   0  -8    9.17    1.31
   7   0  -8    4.46    1.27
  -7   0   8    3.99    1.28
   6   0  -8   89.03    3.70
   6   0  -8   81.26    2.78
   6   0  -8   84.85    3.37
   6   0  -8   85.23    3.31
  -6   0   8   87.02    3.33
   5   0  -8   93.87    3.92
   5   0  -8   95.81    3.50
  -5   0   8   94.46    3.50
   4   0  -8    2.28    0.70
   4   0  -8    1.30    0.88
  -4   0   8    0.69    0.63
  -4   0   8    0.79    0.33
   3   0  -8   58.24    2.53
   3   0  -8   54.89    2.77
  -3   0   8   57.25    2.55
   2   0  -8  133.90    4.67
   2   0  -8  133.98    5.37
  -2   0   8  135.88    4.67
   1   0  -8    6.68    0.98
   1   0  -8    7.89    1.47
  -1   0   8    9.31    0.96
  -1   0   8    6.30    1.18
   0   0  -8   96.98    3.81
   0   0  -8   91.95    4.46
   0   0   8  102.92    4.92
   0   0   8   94.19    3.53
   0   0   8   92.64    3.81
   0   0   8   95.69    3.39
  -1   0  -8  105.52    3.85
  -1   0  -8  102.25    4.18
  -1   0  -8  106.86    3.51
   1   0   8  103.55    4.24
   1   0   8  109.69    5.19
   1   0   8  103.93    4.00
  -2   0  -8    8.62    1.58
  -2   0  -8   11.51    1.13
   2   0   8   10.52    1.46
   2   0   8    8.86    1.60
   2   0   8    9.12    1.36
  -3   0  -8    3.56    0.87
  -3   0  -8    1.98    1.52
   3   0   8    2.31    1.55
   3   0   8    2.97    1.18
   3   0   8    1.79    1.31
  -4   0  -8   58.97    3.75
   4   0   8   68.66    4.05
   4   0   8   71.01    3.72
   4   0   8   68.38    3.90
  -5   0  -8   40.77    3.34
   5   0   8   35.33    3.23
   5   0   8   29.24    3.07
   5   0   8   37.23    3.24
  -6   0  -8   -3.78    1.85
   6   0   8   -2.35    2.02
   6   0   8    1.18    2.17
  -7   0  -8   24.47    3.27
   7   0   8   25.21    2.81
   7   0   8   22.24    3.12
  -8   0  -8   21.41    2.94
   8   0   8   22.57    3.05
   8   0   8   24.46    3.31
  13  -1  -8    5.59    2.57
  12  -1  -8   23.18    3.44
  12  -1  -8   34.80    3.36
  11  -1  -8   29.92    2.94
  11  -1  -8   31.02    3.34
 -11   1   8   36.20    3.16
  10  -1  -8    1.49    1.36
  10  -1  -8    0.24    1.11
 -10   1   8    1.31    1.16
   9  -1  -8   63.64    3.48
   9  -1  -8   67.43    3.71
  -9   1   8   68.02    3.53
   8  -1  -8   96.09    4.15
   8  -1  -8   83.60    3.68
   8  -1  -8   99.71    4.41
  -8   1   8   95.67    3.82
   7  -1  -8    9.25    1.45
   7  -1  -8   11.18    1.45
   7  -1  -8    8.18    1.35
  -7   1   8    9.03    1.20
   6  -1  -8   33.09    1.88
   6  -1  -8   34.59    2.18
   6  -1  -8   34.11    2.07
  -6   1   8   32.49    2.07
   5  -1  -8  145.98    5.68
   5  -1  -8  143.94    4.95
  -5   1   8  148.32    5.00
   4  -1  -8   70.70    3.16
   4  -1  -8   67.21    2.65
  -4   1   8   59.77    2.61
   3  -1  -8   22.57    1.62
   3  -1  -8   17.72    1.74
  -3   1   8   19.48    1.62
   2  -1  -8  226.35    8.58
   2  -1  -8  228.19    7.31
  -2   1   8  220.89    7.30
  -2   1   8  240.75    7.31
  -2   1   8  243.21    7.34
   1  -1  -8  125.98    4.47
   1  -1  -8  112.96    5.16
  -1   1   8  122.65    4.46
  -1   1   8  123.16    4.45
  -1   1   8  125.05    4.11
   0  -1  -8    5.83    1.27
   0  -1  -8    4.29    1.24
   0   1   8    5.48    0.89
   0   1   8    6.43    1.31
   0   1   8    5.19    0.73
  -1  -1  -8   92.62    3.70
  -1  -1  -8   95.32    3.79
   1   1   8   98.69    3.74
   1   1   8   87.08    3.73
  -2  -1  -8   91.84    3.70
  -2  -1  -8   83.41    3.98
   2   1   8   96.86    4.71
   2   1   8   81.62    4.02
   2   1   8   91.83    3.77
  -3  -1  -8   11.37    1.50
  -3  -1  -8   14.30    1.75
   3   1   8   11.76    1.98
   3   1   8   12.91    1.90
   3   1   8   11.91    1.68
  -4  -1  -8   36.46    2.99
   4   1   8   35.56    3.04
   4   1   8   31.12    2.89
   4   1   8   30.94    2.78
  -5  -1  -8   62.33    4.19
   5   1   8   69.58    4.05
   5   1   8   73.17    4.33
  -6  -1  -8   15.39    2.78
   6   1   8   13.28    2.86
   6   1   8   19.16    2.66
  -7  -1  -8    0.65    2.38
   7   1   8    3.34    2.66
  -8  -1  -8   12.73    2.70
  13  -2  -8   -2.00    1.88
  13  -2  -8   -1.05    2.00
  12  -2  -8   25.03    2.52
  12  -2  -8   30.55    3.50
 -12   2   8   28.70    2.69
  11  -2  -8   59.19    3.88
 -11   2   8   62.47    3.93
  10  -2  -8   18.08    2.15
  10  -2  -8   17.88    2.33
 -10   2   8   18.72    2.25
   9  -2  -8   37.13    2.98
   9  -2  -8   35.64    2.75
   9  -2  -8   34.35    2.62
  -9   2   8   33.70    2.67
   8  -2  -8  133.69    5.18
   8  -2  -8  141.64    5.06
   8  -2  -8  131.01    5.59
  -8   2   8  136.69    5.05
   7  -2  -8   61.45    2.86
   7  -2  -8   62.59    2.90
   7  -2  -8   69.06    3.41
  -7   2   8   62.99    2.97
   6  -2  -8    1.12    0.91
   6  -2  -8    1.41    0.82
  -6   2   8    2.00    0.98
   5  -2  -8  144.07    5.67
   5  -2  -8  139.63    4.75
  -5   2   8  141.78    4.79
   4  -2  -8  233.94    7.40
   4  -2  -8  235.07    8.71
  -4   2   8  238.71    7.44
   3  -2  -8   14.93    1.47
   3  -2  -8   16.02    1.46
  -3   2   8   12.91    0.78
  -3   2   8   15.37    1.43
   2  -2  -8  133.41    4.72
   2  -2  -8  125.15    5.51
  -2   2   8  132.07    4.71
  -2   2   8  142.19    5.03
   1  -2  -8  200.83    8.39
   1  -2  -8  229.42    7.27
  -1   2   8  217.86    6.90
  -1   2   8  232.77    7.55
  -1   2   8  230.59    7.29
   0  -2  -8   58.29    3.57
   0  -2  -8   58.85    2.88
   0  -2  -8   60.51    3.01
   0   2   8   64.35    2.43
   0   2   8   63.20    3.07
  -1  -2  -8   24.42    1.86
  -1  -2  -8   21.19    1.82
   1   2   8   19.65    1.81
   1   2   8   20.96    1.50
  -2  -2  -8  128.79    5.05
  -2  -2  -8  125.64    4.92
   2   2   8  120.89    4.93
   2   2   8  128.37    4.91
  -3  -2  -8   60.71    3.68
  -3  -2  -8   67.40    3.65
   3   2   8   63.26    3.76
  -4  -2  -8   -2.64    1.21
  -4  -2  -8   -1.39    1.13
   4   2   8    1.55    1.41
   4   2   8   -1.31    1.37
  -5  -2  -8   39.13    3.05
   5   2   8   39.28    3.17
  -6  -2  -8   34.54    3.64
   6   2   8   47.82    4.05
  -7  -2  -8    3.58    2.62
   7   2   8    4.88    2.97
  13  -3  -8    8.86    2.91
  12  -3  -8   13.10    2.69
  12  -3  -8    9.27    1.85
 -12   3   8   14.89    2.05
  11  -3  -8   70.01    4.34
  11  -3  -8   74.89    4.09
 -11   3   8   74.40    4.13
  10  -3  -8   52.65    3.43
  10  -3  -8   52.78    2.87
 -10   3   8   51.96    2.88
   9  -3  -8   -1.03    1.01
   9  -3  -8    0.39    1.26
   9  -3  -8    1.32    1.20
  -9   3   8    0.68    1.29
   8  -3  -8  100.44    4.10
   8  -3  -8   99.70    3.87
   8  -3  -8  109.61    4.90
  -8   3   8  100.35    3.92
   7  -3  -8  120.84    4.39
   7  -3  -8  116.77    4.33
   7  -3  -8  117.96    5.02
  -7   3   8  115.44    4.36
   6  -3  -8   20.93    1.70
   6  -3  -8   20.52    1.24
   6  -3  -8   22.36    2.07
  -6   3   8   18.39    1.63
   5  -3  -8   39.75    2.37
   5  -3  -8   42.34    2.18
  -5   3   8   40.55    2.18
   4  -3  -8  319.80   11.12
   4  -3  -8  296.92    9.26
  -4   3   8  302.74    9.30
  -4   3   8  292.20    9.21
  -4   3   8  316.26   10.72
   3  -3  -8   71.45    2.97
   3  -3  -8   66.35    3.36
  -3   3   8   73.68    2.46
  -3   3   8   66.95    2.97
  -3   3   8   71.15    3.19
   2  -3  -8    5.41    1.14
   2  -3  -8    6.14    1.53
  -2   3   8    7.19    1.20
  -2   3   8    5.39    1.15
   1  -3  -8  149.59    6.65
   1  -3  -8  161.82    5.62
  -1   3   8  166.04    5.81
  -1   3   8  163.69    5.65
   0  -3  -8  141.74    5.46
   0  -3  -8  131.56    6.16
   0  -3  -8  136.81    5.03
   0   3   8  145.20    4.98
   0   3   8  137.60    5.07
  -1  -3  -8   -0.57    1.22
  -1  -3  -8    0.14    1.16
   1   3   8   -0.65    0.73
   1   3   8    0.02    0.96
  -2  -3  -8   88.70    4.02
  -2  -3  -8   77.83    3.67
   2   3   8   71.95    3.63
   2   3   8   79.37    3.59
  -3  -3  -8  100.91    4.78
  -3  -3  -8  101.58    4.71
   3   3   8   96.50    4.72
  -4  -3  -8   17.76    2.55
  -4  -3  -8   18.05    2.33
   4   3   8   19.72    2.75
  -5  -3  -8   11.36    2.55
   5   3   8   14.25    2.73
  -6  -3  -8   46.95    3.73
   6   3   8   44.70    3.70
  -7  -3  -8   17.90    3.22
  13  -4  -8   14.48    3.01
 -13   4   8   23.25    4.66
  12  -4  -8    1.16    2.02
 -12   4   8   -0.32    1.34
  11  -4  -8   31.26    2.92
 -11   4   8   38.00    3.17
  10  -4  -8   71.81    3.88
  10  -4  -8   78.07    4.62
  10  -4  -8   73.48    3.77
 -10   4   8   87.96    3.89
   9  -4  -8   10.50    1.76
   9  -4  -8   12.54    1.44
   9  -4  -8   11.54    1.61
  -9   4   8   11.95    1.51
   8  -4  -8   27.72    1.84
   8  -4  -8   29.47    2.72
   8  -4  -8   28.39    2.15
  -8   4   8   27.94    1.89
   7  -4  -8  108.16    4.06
   7  -4  -8  114.64    5.07
  -7   4   8  103.22    4.09
   6  -4  -8   98.45    3.37
   6  -4  -8  101.32    4.63
   6  -4  -8   97.83    3.72
  -6   4   8   91.18    4.69
  -6   4   8  101.42    3.78
   5  -4  -8   15.12    1.46
   5  -4  -8   14.23    1.85
  -5   4   8   14.54    1.44
  -5   4   8   14.63    2.12
   4  -4  -8  106.38    3.95
   4  -4  -8  105.66    4.81
  -4   4   8  106.65    3.96
  -4   4   8  108.78    4.73
   3  -4  -8  158.85    5.39
   3  -4  -8  160.92    6.52
  -3   4   8  154.14    6.02
  -3   4   8  151.32    5.37
  -3   4   8  160.78    5.09
   2  -4  -8    2.72    1.06
   2  -4  -8    1.70    1.43
  -2   4   8    1.16    1.06
  -2   4   8    3.84    0.80
  -2   4   8    1.36    1.05
   1  -4  -8   79.65    4.33
   1  -4  -8   80.46    3.35
  -1   4   8   81.06    3.59
   0  -4  -8  162.73    7.30
   0  -4  -8  169.67    6.04
   0  -4  -8  174.37    6.46
   0   4   8  171.15    6.06
   0   4   8  159.82    6.04
  -1  -4  -8   30.61    2.68
  -1  -4  -8   32.58    2.67
   1   4   8   32.93    2.70
  -2  -4  -8   27.31    2.65
  -2  -4  -8   27.17    2.37
   2   4   8   26.95    2.29
  -3  -4  -8   83.74    4.20
  -3  -4  -8   84.14    4.42
   3   4   8   81.90    4.47
  -4  -4  -8   35.56    3.25
  -4  -4  -8   39.88    3.53
   4   4   8   36.37    3.13
  -5  -4  -8    3.23    1.68
   5   4   8    1.63    1.72
   6   4   8   47.07    4.74
   6   4   8   44.60    4.24
  12  -5  -8   16.18    3.10
 -12   5   8   15.29    2.46
 -12   5   8   10.53    4.11
  11  -5  -8    9.83    2.01
  11  -5  -8    7.71    1.91
 -11   5   8    6.27    1.87
 -11   5   8    5.77    2.65
  10  -5  -8   32.79    3.06
  10  -5  -8   38.35    3.61
 -10   5   8   35.27    2.76
 -10   5   8   37.19    4.01
   9  -5  -8   45.97    3.13
   9  -5  -8   44.67    2.83
  -9   5   8   45.02    4.07
  -9   5   8   44.99    2.75
   8  -5  -8    0.14    1.07
   8  -5  -8   -0.41    1.51
  -8   5   8   -0.39    1.05
  -8   5   8   -0.44    2.14
   7  -5  -8   85.51    3.47
   7  -5  -8   84.48    4.18
  -7   5   8   89.02    5.18
  -7   5   8   85.37    3.51
   6  -5  -8   82.14    4.22
   6  -5  -8   82.32    3.32
  -6   5   8   80.35    4.65
  -6   5   8   83.30    3.37
   5  -5  -8   21.43    1.49
   5  -5  -8   21.74    2.27
  -5   5   8   20.07    1.49
  -5   5   8   22.80    2.27
   4  -5  -8   50.41    2.45
   4  -5  -8   45.92    2.88
  -4   5   8   44.49    2.44
  -4   5   8   50.74    1.83
  -4   5   8   49.81    3.12
   3  -5  -8  130.94    4.59
   3  -5  -8  124.34    5.45
  -3   5   8  118.97    4.53
  -3   5   8  121.22    5.18
  -3   5   8  126.12    4.24
   2  -5  -8   34.92    2.69
   2  -5  -8   38.79    2.43
  -2   5   8   41.39    2.21
  -2   5   8   43.16    2.64
  -2   5   8   38.26    2.44
   1  -5  -8   12.13    1.86
   1  -5  -8   11.78    1.64
   1  -5  -8   13.70    2.04
  -1   5   8   13.46    1.61
  -1   5   8    9.93    1.62
  -1   5   8   11.94    1.54
   0  -5  -8  148.01    5.47
   0  -5  -8  146.45    6.07
   0  -5  -8  125.87    6.29
   0   5   8  145.49    5.72
   0   5   8  143.43    5.50
  -1  -5  -8   71.60    3.99
  -1  -5  -8   58.07    3.14
   1   5   8   56.81    3.83
   1   5   8   58.56    3.52
  -2  -5  -8   -1.06    1.27
  -2  -5  -8   -0.39    1.52
   2   5   8    1.92    1.77
   2   5   8   -0.94    1.20
  -3  -5  -8   21.31    2.60
  -3  -5  -8   29.15    3.04
   3   5   8   19.22    3.16
   3   5   8   23.92    2.88
  -4  -5  -8   59.70    4.00
  -4  -5  -8   65.49    4.00
   4   5   8   68.44    5.29
   4   5   8   73.70    4.09
   5   5   8    5.00    3.13
   5   5   8    6.80    2.67
  12  -6  -8   24.21    3.62
 -12   6   8   17.36    3.58
 -12   6   8   29.14    2.81
  11  -6  -8    2.36    1.68
 -11   6   8    3.02    3.35
 -11   6   8    4.29    1.71
  10  -6  -8   17.70    2.33
 -10   6   8    8.48    3.28
 -10   6   8   13.84    1.97
   9  -6  -8   49.95    3.41
  -9   6   8   54.14    4.38
  -9   6   8   53.57    2.95
   8  -6  -8   24.54    2.45
  -8   6   8   25.19    3.52
  -8   6   8   23.89    2.12
   7  -6  -8    8.61    1.64
  -7   6   8   10.62    1.42
  -7   6   8    6.92    2.48
   6  -6  -8   66.32    3.96
  -6   6   8   69.29    3.00
  -6   6   8   64.89    4.30
   5  -6  -8   50.69    3.43
  -5   6   8   47.76    3.56
  -5   6   8   51.69    2.55
   4  -6  -8   -0.05    1.08
   4  -6  -8   -0.82    0.88
  -4   6   8    0.51    0.99
  -4   6   8   -1.67    1.50
   3  -6  -8   68.18    3.06
   3  -6  -8   63.12    3.96
  -3   6   8   67.31    2.69
  -3   6   8   60.28    2.96
  -3   6   8   59.36    3.31
   2  -6  -8  101.82    5.52
   2  -6  -8  108.79    4.35
  -2   6   8  120.98    5.05
  -2   6   8  113.42    4.45
  -2   6   8  115.48    4.33
   1  -6  -8    5.38    1.87
   1  -6  -8    2.22    1.27
   1  -6  -8    0.77    1.91
  -1   6   8    3.90    1.37
  -1   6   8    4.33    1.37
  -1   6   8    5.34    1.56
   0  -6  -8   26.18    3.18
   0  -6  -8   24.78    2.77
   0   6   8   21.37    2.36
   0   6   8   25.33    2.20
   0   6   8   23.85    2.10
  -1  -6  -8   58.53    4.16
   1   6   8   60.27    4.08
   1   6   8   62.77    3.68
  -2  -6  -8   11.16    2.63
   2   6   8   12.57    2.27
   2   6   8   11.83    2.56
  -3  -6  -8    4.23    2.40
   3   6   8    4.05    2.26
   3   6   8    2.53    1.77
  -4  -6  -8   29.99    3.61
   4   6   8   28.08    4.04
   4   6   8   31.27    3.00
  12  -7  -8   31.82    3.82
 -12   7   8   23.39    2.58
 -12   7   8   23.51    4.52
  11  -7  -8   20.38    2.74
 -11   7   8   17.95    4.20
 -11   7   8   21.10    2.28
  10  -7  -8   -2.00    1.40
 -10   7   8   -0.81    3.10
 -10   7   8   -2.15    1.34
   9  -7  -8   35.29    3.40
  -9   7   8   33.52    2.45
  -9   7   8   32.72    3.76
   8  -7  -8   50.92    3.89
  -8   7   8   50.71    4.76
  -8   7   8   53.53    2.78
   7  -7  -8   10.81    2.20
  -7   7   8   11.58    1.46
  -7   7   8    8.30    2.04
   6  -7  -8   19.82    2.26
  -6   7   8   16.76    2.40
  -6   7   8   21.27    1.75
   5  -7  -8   60.57    3.57
  -5   7   8   54.23    4.00
  -5   7   8   62.24    2.84
   4  -7  -8   35.85    3.36
  -4   7   8   36.59    2.30
  -4   7   8   32.63    2.72
   3  -7  -8    9.67    2.34
  -3   7   8   11.03    2.14
  -3   7   8    9.15    1.20
   2  -7  -8   56.20    4.22
   2  -7  -8   63.23    4.11
  -2   7   8   59.63    3.19
  -2   7   8   58.53    3.04
  -2   7   8   65.58    3.78
   1  -7  -8   39.10    3.65
   1  -7  -8   38.82    3.75
  -1   7   8   40.22    2.83
  -1   7   8   37.10    2.97
  -1   7   8   34.61    2.75
   0  -7  -8   -0.30    1.60
   0  -7  -8    1.44    2.03
   0   7   8    2.36    1.68
   0   7   8    2.58    1.58
  -1  -7  -8   30.39    3.01
   1   7   8   22.54    3.03
   1   7   8   27.71    2.77
  -2  -7  -8   38.68    3.82
   2   7   8   33.46    2.88
   2   7   8   32.87    3.29
  -3  -7  -8   -0.59    1.77
   3   7   8   -4.44    2.46
   3   7   8   -3.40    2.16
  -4  -7  -8    6.51    2.99
   4   7   8   12.66    2.83
   4   7   8    8.55    2.16
  12  -8  -8   13.16    3.26
 -12   8   8   15.47    4.39
 -12   8   8   17.85    2.22
  11  -8  -8   40.29    4.16
 -11   8   8   41.16    3.03
 -11   8   8   33.30    4.85
  10  -8  -8   13.52    2.78
 -10   8   8   14.52    1.88
 -10   8   8    8.45    3.57
   9  -8  -8    6.89    1.87
  -9   8   8   10.40    3.37
  -9   8   8    6.63    1.71
   8  -8  -8   53.22    4.09
  -8   8   8   50.11    2.70
  -8   8   8   53.18    4.98
   7  -8  -8   36.94    3.06
  -7   8   8   38.14    4.01
   6  -8  -8    1.00    1.81
  -6   8   8   -1.43    0.93
  -6   8   8   -1.06    1.42
   5  -8  -8   44.43    3.75
  -5   8   8   44.17    3.87
  -5   8   8   43.49    2.69
   4  -8  -8   70.35    4.61
  -4   8   8   74.33    4.56
   3  -8  -8    9.74    2.00
  -3   8   8    9.60    1.63
  -3   8   8    8.73    2.14
   2  -8  -8   24.19    3.10
   2  -8  -8   19.87    3.01
  -2   8   8   22.41    2.70
  -2   8   8   22.19    2.16
  -2   8   8   22.88    2.36
   1  -8  -8   43.89    4.06
   1  -8  -8   44.58    4.22
  -1   8   8   41.02    3.42
  -1   8   8   43.58    3.24
  -1   8   8   43.14    3.00
   0  -8  -8   16.98    3.12
   0  -8  -8   14.67    2.85
   0   8   8   15.19    2.29
   0   8   8   13.23    2.29
  -1  -8  -8    3.21    1.93
   1   8   8    7.80    2.49
   1   8   8    5.55    2.06
  -2  -8  -8   32.81    3.85
   2   8   8   28.69    3.09
   2   8   8   29.73    3.86
  -3  -8  -8   11.97    3.37
   3   8   8   13.47    2.81
   3   8   8   15.37    3.64
  11  -9  -8   36.54    4.04
 -11   9   8   33.47    5.19
  10  -9  -8   35.12    3.43
 -10   9   8   27.94    2.36
 -10   9   8   31.26    4.66
   9  -9  -8    2.93    2.41
  -9   9   8    1.33    1.17
  -9   9   8    1.49    2.97
   8  -9  -8   34.22    3.66
  -8   9   8   37.77    4.44
   7  -9  -8   66.62    4.64
  -7   9   8   62.88    5.23
  -7   9   8   65.22    3.15
   6  -9  -8   18.65    2.45
  -6   9   8   11.82    1.57
  -6   9   8   17.90    2.74
   5  -9  -8   13.47    2.25
  -5   9   8    9.63    2.78
  -5   9   8    9.65    1.38
   4  -9  -8   69.53    4.33
  -4   9   8   69.31    3.43
  -4   9   8   71.09    4.25
   3  -9  -8   31.54    3.55
   3  -9  -8   35.81    3.73
  -3   9   8   33.93    2.43
  -3   9   8   32.44    3.43
   2  -9  -8   -1.13    2.21
   2  -9  -8    1.64    2.38
  -2   9   8    0.58    1.59
  -2   9   8    2.66    2.09
   1  -9  -8   38.91    3.65
   1  -9  -8   41.10    4.21
  -1   9   8   41.53    3.34
  -1   9   8   41.10    3.61
   0  -9  -8   40.77    3.88
   0   9   8   40.07    3.22
   0   9   8   37.71    3.58
  -1  -9  -8   -1.66    2.73
   1   9   8    1.16    1.96
   1   9   8    0.16    2.32
  -2  -9  -8   12.90    3.59
   2   9   8    8.62    3.11
   2   9   8    7.36    2.42
  10 -10  -8   45.74    4.77
 -10  10   8   42.74    5.55
   9 -10  -8   11.65    2.45
  -9  10   8   12.39    3.53
   8 -10  -8    6.78    2.12
  -8  10   8    8.10    3.48
   7 -10  -8   58.83    4.14
   6 -10  -8   51.42    4.41
  -6  10   8   38.60    3.88
   5 -10  -8    2.41    2.27
  -5  10   8    3.64    2.59
   4 -10  -8   38.92    3.92
   4 -10  -8   35.71    3.60
  -4  10   8   35.48    3.81
   3 -10  -8   72.85    5.29
   3 -10  -8   52.32    4.90
  -3  10   8   67.16    4.87
   2 -10  -8    5.54    2.81
   2 -10  -8    4.06    2.98
  -2  10   8    2.61    1.39
  -2  10   8    3.03    2.46
   1 -10  -8   15.38    3.36
   1 -10  -8   22.94    3.57
  -1  10   8   14.44    2.25
   0 -10  -8   42.15    4.53
   0  10   8   37.24    3.21
   1  10   8   11.01    2.30
   1  10   8    9.43    3.06
   9 -11  -8   25.85    3.67
   8 -11  -8    0.19    2.56
  -8  11   8    1.06    2.28
   7 -11  -8   34.70    3.93
  -7  11   8   29.06    4.29
   6 -11  -8   44.01    4.42
  -6  11   8   42.76    4.64
   5 -11  -8   11.33    3.11
   5 -11  -8   14.96    3.40
  -5  11   8   20.50    3.62
   4 -11  -8   20.70    3.74
   4 -11  -8   20.42    3.34
  -4  11   8   15.15    3.32
   3 -11  -8   44.51    4.64
   3 -11  -8   40.64    4.36
  -3  11   8   46.16    4.34
   2 -11  -8   18.17    3.63
   2 -11  -8   26.05    3.98
  -2  11   8   22.27    3.45
   1 -11  -8    1.24    2.99
   8 -12  -8   13.11    3.38
   7 -12  -8    1.23    2.77
  -7  12   8    2.47    3.57
   6 -12  -8   31.39    4.30
   6 -12  -8   47.55    4.90
  -6  12   8   37.83    4.10
   5 -12  -8   12.67    2.72
   5 -12  -8   15.70    2.96
  -5  12   8   19.60    3.80
   4 -12  -8    3.60    2.12
  -4  12   8    3.77    2.94
   3 -12  -8   19.59    3.60
   1  12  -9    3.49    2.50
   0  12  -9   26.79    4.46
  -1  12  -9    4.91    3.18
   1 -12   9   20.42    3.08
  -2  12  -9   -2.22    2.98
   2 -12   9   -1.60    2.75
   2 -12   9   -1.50    2.83
   3 -12   9   15.18    2.97
   3 -12   9   24.84    3.85
  -4  12  -9   25.79    3.41
   4 -12   9   19.81    3.35
  -5  12  -9    1.96    2.88
   5 -12   9   -1.40    2.25
   4  11  -9    0.23    1.63
   3  11  -9   24.14    3.19
   3  11  -9   20.43    4.13
   2  11  -9   35.09    3.12
   2  11  -9   40.17    4.97
   1  11  -9    0.31    1.46
   1  11  -9    0.33    2.98
   0  11  -9   27.31    4.05
  -1  11  -9   42.47    4.10
   1 -11   9   48.01    4.20
   1 -11   9   52.02    4.72
  -2  11  -9   15.48    3.46
   2 -11   9   12.10    2.70
   2 -11   9   11.55    3.07
  -3  11  -9    3.86    2.90
   3 -11   9    7.08    3.06
   3 -11   9    7.74    3.27
  -4  11  -9   40.19    4.14
   4 -11   9   34.99    3.75
   4 -11   9   33.94    4.53
  -5  11  -9   15.64    3.25
   5 -11   9   29.45    4.29
   5 -11   9   16.86    3.13
   6 -11   9    2.23    2.41
   6  10  -9   21.84    2.71
   5  10  -9   22.62    3.00
   5  10  -9   17.73    4.09
   4  10  -9    2.28    2.07
   4  10  -9   -3.44    3.18
   4  10  -9    0.85    1.40
   3  10  -9   18.74    3.94
   3  10  -9   22.37    2.46
   2  10  -9   62.21    5.62
   2  10  -9   61.17    3.67
   1  10  -9   10.40    1.89
   1  10  -9   14.38    2.74
  -1 -10   9   10.55    2.78
   0  10  -9    8.54    3.08
   0 -10   9   10.92    2.87
   1 -10   9   58.27    5.20
  -2  10  -9   39.25    4.04
   2 -10   9   44.21    4.56
   2 -10   9   49.57    4.29
  -3  10  -9    1.87    2.45
   3 -10   9   -1.12    1.85
   3 -10   9   -0.52    2.44
  -4  10  -9   27.54    2.97
   4 -10   9   28.17    3.85
   4 -10   9   31.63    3.83
  -5  10  -9   43.14    3.91
   5 -10   9   34.21    4.69
   5 -10   9   39.42    4.40
   6 -10   9    6.39    3.27
   6 -10   9    1.11    2.14
   7   9  -9    2.03    1.92
   7   9  -9   -2.00    1.98
   6   9  -9   12.36    2.47
   6   9  -9    7.98    3.62
   6   9  -9   13.04    2.16
   5   9  -9   34.21    4.57
   5   9  -9   47.27    3.07
   4   9  -9   19.08    2.21
   4   9  -9   16.88    1.91
   4   9  -9   17.09    3.71
   3   9  -9   12.36    2.11
   3   9  -9   10.84    1.62
   3   9  -9    9.58    3.18
   2   9  -9   77.01    3.65
   2   9  -9   67.87    5.50
   2   9  -9   82.80    4.00
  -2  -9   9   81.58    5.22
   1   9  -9   51.19    3.55
   1   9  -9   48.90    4.56
  -1  -9   9   41.84    3.76
   0   9  -9    1.25    1.05
   0   9  -9   -0.75    2.23
   0  -9   9    0.66    1.54
  -1   9  -9   39.77    3.85
  -1   9  -9   42.49    2.46
   1  -9   9   41.34    4.40
  -2   9  -9   79.04    3.38
  -2   9  -9   75.68    4.86
   2  -9   9   65.15    4.79
   2  -9   9   75.85    4.89
  -3   9  -9   12.89    2.59
  -3   9  -9   13.35    1.79
   3  -9   9    6.60    2.64
   3  -9   9   11.80    2.98
  -4   9  -9   17.87    1.88
  -4   9  -9   18.84    2.74
   4  -9   9   17.57    2.66
   4  -9   9   17.47    3.38
  -5   9  -9   54.93    3.42
   5  -9   9   51.38    4.66
   5  -9   9   49.03    4.50
  -6   9  -9   24.22    2.42
   6  -9   9   24.73    3.80
   6  -9   9   22.44    3.45
  -7   9  -9   -0.30    1.64
   7  -9   9   -1.76    1.99
   7  -9   9   -0.09    3.01
   7   8  -9   15.25    2.48
   7   8  -9   11.11    2.81
   7   8  -9   16.82    2.31
   6   8  -9   -0.89    1.94
   6   8  -9    2.13    1.64
   6   8  -9    0.44    1.83
   5   8  -9   42.22    3.27
   5   8  -9   35.34    2.80
   5   8  -9   36.21    4.44
   4   8  -9   55.93    4.45
   4   8  -9   60.87    3.70
   4   8  -9   62.42    3.20
   3   8  -9    1.78    1.16
   3   8  -9    2.68    1.99
   3   8  -9    1.53    1.20
   2   8  -9   23.65    3.42
   2   8  -9   35.12    2.30
   2   8  -9   32.77    2.84
  -2  -8   9   35.81    3.80
   1   8  -9   75.49    5.08
   1   8  -9   84.21    3.52
   1   8  -9   84.62    3.89
  -1  -8   9   79.37    5.27
   0   8  -9   27.30    3.09
   0   8  -9   23.91    2.02
   0  -8   9   24.74    3.26
  -1   8  -9    8.87    1.42
  -1   8  -9    5.82    2.23
   1  -8   9    5.77    2.48
   1  -8   9    9.81    2.36
  -2   8  -9   93.14    3.76
   2  -8   9   77.67    5.00
   2  -8   9   82.15    4.44
  -3   8  -9   41.71    3.57
  -3   8  -9   38.98    2.68
   3  -8   9   40.23    4.39
   3  -8   9   51.95    4.08
  -4   8  -9    2.68    1.86
  -4   8  -9    0.89    1.34
   4  -8   9    1.85    1.66
   4  -8   9    3.46    2.57
  -5   8  -9   34.43    2.91
   5  -8   9   35.45    4.18
   5  -8   9   40.05    4.02
  -6   8  -9   43.26    3.34
   6  -8   9   44.34    4.44
   6  -8   9   38.17    4.13
  -7   8  -9    6.36    2.12
   7  -8   9    6.24    3.16
   7  -8   9   -0.48    3.06
  -8   8  -9    9.73    2.39
   8  -8   9    5.32    3.44
   8   7  -9    2.98    3.36
   8   7  -9    7.16    2.19
   7   7  -9   26.12    4.23
   7   7  -9   30.63    2.84
   7   7  -9   28.20    2.71
   6   7  -9   22.86    3.87
   6   7  -9   25.46    2.44
   6   7  -9   20.10    2.23
   5   7  -9   14.54    1.71
   5   7  -9    9.64    2.44
   5   7  -9   13.94    1.89
   4   7  -9   46.65    4.51
   4   7  -9   47.45    2.77
   4   7  -9   51.47    2.78
   3   7  -9   40.86    2.84
   3   7  -9   39.04    2.44
   3   7  -9   35.43    3.66
   2   7  -9    0.44    1.04
   2   7  -9   -0.53    1.89
   2   7  -9    0.46    0.94
  -2  -7   9   -3.16    1.12
   1   7  -9   55.86    4.12
   1   7  -9   60.41    2.87
  -1  -7   9   58.59    4.43
   0   7  -9   55.68    2.82
   0   7  -9   53.79    3.45
   0  -7   9   59.38    4.44
  -1   7  -9    3.39    1.37
  -1   7  -9    4.88    1.28
   1  -7   9    2.79    2.09
   1  -7   9    3.15    1.34
  -2   7  -9   36.60    2.56
   2  -7   9   33.94    3.32
   2  -7   9   43.98    3.52
  -3   7  -9   76.02    3.67
  -3   7  -9   83.09    4.28
   3  -7   9   80.70    4.75
   3  -7   9   70.89    4.72
  -4   7  -9   15.67    2.20
  -4   7  -9   17.78    2.11
   4  -7   9   14.15    2.43
   4  -7   9   14.71    2.73
  -5   7  -9    6.28    1.78
   5  -7   9    7.42    2.69
   5  -7   9    4.25    2.54
  -6   7  -9   58.48    3.70
   6  -7   9   49.65    5.04
   6  -7   9   52.26    4.16
  -7   7  -9   19.38    2.61
   7  -7   9   17.72    3.11
   7  -7   9   15.67    3.48
  -8   7  -9   -1.01    1.97
   8  -7   9    1.55    3.16
   8  -7   9    5.20    3.19
   9   6  -9   15.92    2.12
   9   6  -9    9.96    3.72
   8   6  -9    0.83    1.82
   8   6  -9   -0.34    2.97
   7   6  -9   24.75    3.91
   7   6  -9   33.98    2.91
   7   6  -9   30.78    2.69
   6   6  -9   38.92    4.34
   6   6  -9   39.29    2.77
   6   6  -9   45.22    2.94
   5   6  -9    3.07    1.04
   5   6  -9    2.74    2.50
   5   6  -9    4.98    1.46
  -5  -6   9    3.35    1.31
   4   6  -9   24.18    2.21
   4   6  -9   23.64    1.77
   4   6  -9   29.50    3.29
  -4  -6   9   24.57    1.76
   3   6  -9   71.86    3.18
   3   6  -9   69.23    3.38
   3   6  -9   64.55    4.43
  -3  -6   9   73.93    3.17
   2   6  -9   17.94    1.83
   2   6  -9   17.81    1.70
   2   6  -9   19.77    2.59
  -2  -6   9   14.18    1.58
  -2  -6   9   18.43    2.39
   1   6  -9   10.31    2.13
   1   6  -9    8.59    1.37
  -1  -6   9    8.88    2.30
  -1  -6   9    9.87    1.40
   0   6  -9  113.89    5.00
   0   6  -9  100.59    4.05
   0  -6   9  102.46    4.05
   0  -6   9   98.02    5.29
  -1   6  -9   35.38    2.97
  -1   6  -9   34.99    2.36
   1  -6   9   37.58    2.63
   1  -6   9   36.99    3.13
   1  -6   9   39.47    2.40
  -2   6  -9    0.53    1.02
  -2   6  -9    0.17    1.15
   2  -6   9    2.44    1.94
   2  -6   9    1.33    1.21
  -3   6  -9   48.61    3.06
  -3   6  -9   50.79    2.97
   3  -6   9   43.00    3.18
   3  -6   9   45.29    4.15
  -4   6  -9   67.18    3.85
  -4   6  -9   74.63    3.78
   4  -6   9   69.88    5.08
   4  -6   9   76.31    4.68
  -5   6  -9    3.39    1.72
   5  -6   9    2.11    2.34
   5  -6   9    0.23    2.34
  -6   6  -9   22.05    2.58
   6  -6   9   21.28    3.40
   6  -6   9   17.69    3.46
  -7   6  -9   37.26    3.47
   7  -6   9   41.24    3.89
   7  -6   9   37.67    4.28
  -8   6  -9    6.78    2.42
   8  -6   9    8.38    3.11
   8  -6   9    7.34    2.61
   9   5  -9   41.82    3.61
   8   5  -9   10.62    1.76
  -8  -5   9    9.49    1.74
   7   5  -9   13.51    1.73
   7   5  -9   10.83    1.70
  -7  -5   9   11.91    1.56
   6   5  -9   90.86    4.02
   6   5  -9   93.52    3.93
  -6  -5   9   88.62    3.98
   5   5  -9   42.49    2.55
   5   5  -9   46.08    2.39
  -5  -5   9   42.61    2.34
   4   5  -9    2.84    1.18
   4   5  -9    2.84    1.12
  -4  -5   9    2.72    1.13
   3   5  -9   69.32    3.07
   3   5  -9   64.51    2.96
   3   5  -9   61.13    3.66
  -3  -5   9   64.34    2.95
   2   5  -9  143.32    5.17
   2   5  -9  139.07    5.98
  -2  -5   9  162.90    7.12
  -2  -5   9  149.30    5.18
   1   5  -9    0.00    0.97
   1   5  -9    0.43    1.37
  -1  -5   9    0.08    0.97
  -1  -5   9    1.67    1.69
   0   5  -9   35.30    2.72
   0   5  -9   30.52    2.18
   0  -5   9   32.94    2.21
   0  -5   9   36.61    3.33
  -1   5  -9  104.84    4.26
  -1   5  -9  115.57    4.74
   1  -5   9  109.59    4.84
   1  -5   9  104.36    5.68
   1  -5   9  110.72    4.32
  -2   5  -9   53.32    2.66
  -2   5  -9   55.23    2.99
   2  -5   9   43.30    3.84
   2  -5   9   52.82    3.51
  -3   5  -9    9.83    1.48
  -3   5  -9    8.13    1.62
   3  -5   9    7.77    1.83
   3  -5   9    8.53    1.63
   3  -5   9    9.64    1.74
  -4   5  -9   79.13    3.89
   4  -5   9   74.86    3.82
   4  -5   9   66.75    4.46
   4  -5   9   71.74    4.94
  -5   5  -9   37.40    2.70
   5  -5   9   39.82    4.15
   5  -5   9   44.10    4.09
  -6   5  -9   -0.15    1.90
   6  -5   9   -1.38    2.22
   6  -5   9   -2.86    2.37
  -7   5  -9   37.50    3.41
   7  -5   9   28.90    3.80
   7  -5   9   31.92    3.36
  -8   5  -9   19.14    3.09
   8  -5   9   14.77    3.26
   8  -5   9   17.35    2.90
 -11  -4   9    8.77    2.88
  10   4  -9    4.91    2.31
 -10  -4   9    1.97    2.31
   9   4  -9   65.12    3.54
  -9  -4   9   55.28    3.42
   8   4  -9   62.78    3.67
  -8  -4   9   57.41    3.66
   7   4  -9   -1.24    1.01
   7   4  -9    0.63    0.97
  -7  -4   9    2.31    1.52
   6   4  -9   65.70    2.96
   6   4  -9   63.45    3.24
  -6  -4   9   61.36    3.22
   5   4  -9  147.22    5.04
   5   4  -9  136.37    4.93
  -5  -4   9  134.53    4.89
   4   4  -9   29.36    1.90
   4   4  -9   32.20    1.87
  -4  -4   9   33.67    1.88
   3   4  -9   69.59    3.04
   3   4  -9   68.20    2.91
  -3  -4   9   68.82    3.01
   2   4  -9  149.28    6.01
   2   4  -9  140.49    5.02
  -2  -4   9  152.16    5.05
  -2  -4   9  147.00    6.85
   1   4  -9   81.11    4.00
   1   4  -9   84.13    3.54
  -1  -4   9   88.90    3.55
  -1  -4   9   91.94    4.94
   0   4  -9    1.30    1.16
   0   4  -9    1.33    1.09
   0  -4   9    1.02    1.08
   0  -4   9    2.07    1.65
  -1   4  -9   95.02    3.91
  -1   4  -9   86.70    3.74
   1  -4   9   88.33    3.79
   1  -4   9   78.97    4.84
   1  -4   9   94.83    4.18
  -2   4  -9  112.67    4.30
  -2   4  -9  105.47    4.31
   2  -4   9  109.16    4.61
   2  -4   9   98.11    5.52
  -3   4  -9    8.94    1.68
  -3   4  -9    8.68    1.18
   3  -4   9    7.54    1.69
   3  -4   9    9.35    1.94
   3  -4   9    8.09    2.12
  -4   4  -9   49.88    3.33
   4  -4   9   50.38    4.19
   4  -4   9   56.19    3.81
   4  -4   9   49.67    3.34
  -5   4  -9   68.77    3.64
   5  -4   9   78.46    4.68
   5  -4   9   77.85    5.06
   5  -4   9   62.25    3.58
  -6   4  -9   20.33    2.76
   6  -4   9   16.75    3.00
   6  -4   9   18.57    2.99
   6  -4   9   21.35    2.69
  -7   4  -9    4.22    2.27
   7  -4   9    1.63    2.47
   7  -4   9    5.02    2.72
  -8   4  -9   37.24    3.78
   8  -4   9   34.75    3.57
  11   3  -9   26.16    2.86
 -11  -3   9   23.74    2.68
  10   3  -9    0.96    2.11
 -10  -3   9   -0.76    2.01
   9   3  -9   37.49    3.04
  -9  -3   9   35.61    3.01
   8   3  -9   75.61    3.93
  -8  -3   9   79.43    3.99
   7   3  -9   40.27    2.40
   7   3  -9   34.95    2.20
  -7  -3   9   39.58    2.39
   6   3  -9   12.07    1.22
   6   3  -9   12.48    1.66
  -6  -3   9   12.79    1.65
   5   3  -9  167.29    6.29
   5   3  -9  182.08    6.01
   5   3  -9  172.63    5.84
  -5  -3   9  179.40    5.99
   4   3  -9  100.43    3.77
   4   3  -9   91.05    3.49
   4   3  -9   89.14    3.79
  -4  -3   9  103.54    3.78
   3   3  -9    6.14    1.05
   3   3  -9    6.61    1.15
  -3  -3   9    6.92    1.14
   2   3  -9  136.78    4.85
  -2  -3   9  131.64    4.80
  -2  -3   9  141.26    6.48
   1   3  -9  161.65    5.95
   1   3  -9  156.24    5.58
  -1  -3   9  160.04    5.58
  -1  -3   9  172.36    7.37
   0   3  -9   15.17    1.60
   0   3  -9   15.05    1.53
   0  -3   9   16.48    1.71
   0  -3   9   14.71    1.64
   0  -3   9   16.18    2.11
  -1   3  -9   52.06    2.83
  -1   3  -9   56.63    2.65
   1  -3   9   53.07    2.97
   1  -3   9   53.83    3.43
   1  -3   9   54.77    2.94
  -2   3  -9  176.15    6.01
  -2   3  -9  180.63    6.23
   2  -3   9  155.06    7.61
   2  -3   9  172.99    6.10
   2  -3   9  181.62    6.65
  -3   3  -9   44.57    2.63
   3  -3   9   45.74    2.69
   3  -3   9   46.81    3.20
   3  -3   9   40.88    3.23
  -4   3  -9   12.17    1.73
   4  -3   9    7.31    1.91
   4  -3   9    6.64    2.22
   4  -3   9   11.23    2.11
  -5   3  -9   81.03    4.27
   5  -3   9   71.11    4.96
   5  -3   9   73.56    4.27
   5  -3   9   76.25    4.57
  -6   3  -9   67.01    4.16
   6  -3   9   63.10    4.76
   6  -3   9   57.77    4.40
   6  -3   9   53.65    4.09
  -7   3  -9   -1.42    2.15
   7  -3   9    1.61    1.62
   7  -3   9   -3.22    2.48
   7  -3   9    1.80    2.20
  -8   3  -9   29.23    3.60
   8  -3   9   20.82    3.42
  11   2  -9   28.73    2.87
  11   2  -9   31.52    3.82
 -11  -2   9   28.39    2.79
  10   2  -9    9.66    2.73
  10   2  -9   13.42    2.03
 -10  -2   9   10.10    1.89
   9   2  -9    8.47    2.21
   9   2  -9    7.33    1.95
  -9  -2   9    9.60    2.04
   8   2  -9   43.09    3.03
  -8  -2   9   44.06    3.03
   7   2  -9   57.67    2.88
  -7  -2   9   56.85    2.84
   6   2  -9   -0.41    0.73
   6   2  -9    0.50    0.73
   6   2  -9    0.19    0.77
  -6  -2   9    0.08    0.78
   5   2  -9  148.07    5.50
   5   2  -9  142.38    5.12
   5   2  -9  144.32    4.81
  -5  -2   9  143.81    5.01
   4   2  -9  149.72    5.69
   4   2  -9  147.18    5.21
  -4  -2   9  155.76    5.25
   3   2  -9   13.12    1.47
   3   2  -9   11.37    1.33
  -3  -2   9   12.44    1.38
   2   2  -9   53.25    2.60
   2   2  -9   50.59    2.76
  -2  -2   9   51.71    2.57
   1   2  -9  198.97    6.83
  -1  -2   9  207.51    6.86
  -1  -2   9  218.51    8.72
   0   2  -9   89.80    3.67
   0   2  -9   89.76    3.51
   0  -2   9   78.80    4.43
   0  -2   9   89.13    3.64
   0  -2   9   84.31    3.65
  -1   2  -9   17.03    1.78
  -1   2  -9   13.46    1.30
   1  -2   9   16.99    2.14
   1  -2   9   17.74    1.87
   1  -2   9   16.15    1.64
  -2   2  -9  147.43    5.70
   2  -2   9  160.61    7.13
   2  -2   9  156.71    5.81
   2  -2   9  156.34    5.95
  -3   2  -9  133.98    5.34
   3  -2   9  130.48    5.39
   3  -2   9  130.35    6.40
   3  -2   9  132.22    5.48
  -4   2  -9    8.43    1.86
   4  -2   9   10.04    2.22
   4  -2   9   10.49    2.10
   4  -2   9    9.93    1.98
  -5   2  -9   40.03    2.94
   5  -2   9   45.64    3.58
   5  -2   9   45.04    3.91
   5  -2   9   41.27    3.62
  -6   2  -9   82.09    4.34
   6  -2   9   73.86    4.26
   6  -2   9   79.79    5.24
   6  -2   9   89.72    4.99
  -7   2  -9    8.97    2.16
   7  -2   9   12.81    2.25
   7  -2   9   10.35    2.75
  -8   2  -9    6.54    2.85
   8  -2   9    5.92    2.84
   8  -2   9    9.02    2.79
  12   1  -9    6.15    1.99
  12   1  -9   -0.29    2.81
 -12  -1   9    4.10    1.89
  11   1  -9   24.69    3.31
  11   1  -9   25.59    2.62
 -11  -1   9   21.32    2.47
  10   1  -9   15.93    2.50
  10   1  -9   21.39    2.94
 -10  -1   9   15.85    2.37
   9   1  -9   -0.48    1.70
   9   1  -9    0.10    1.03
  -9  -1   9    0.18    1.16
   8   1  -9   34.17    2.33
   8   1  -9   40.25    2.94
   8   1  -9   33.39    2.58
  -8  -1   9   39.58    2.44
   7   1  -9   86.80    3.84
   7   1  -9   88.71    3.87
  -7  -1   9   91.99    3.94
   6   1  -9   26.57    1.90
   6   1  -9   27.43    1.83
  -6  -1   9   24.80    1.80
   5   1  -9   47.12    2.52
   5   1  -9   48.46    2.50
  -5  -1   9   48.06    2.32
   4   1  -9  145.91    5.07
   4   1  -9  144.67    5.64
  -4  -1   9  145.67    5.07
   3   1  -9   77.68    3.32
   3   1  -9   83.31    3.58
  -3  -1   9   85.52    3.39
   2   1  -9    2.37    1.13
   2   1  -9    2.86    0.82
  -2  -1   9    2.38    1.04
   1   1  -9  134.39    5.64
   1   1  -9  128.83    4.75
  -1  -1   9  126.88    4.73
  -1  -1   9  138.56    4.82
  -1  -1   9  145.67    6.27
   0   1  -9  183.74    6.08
   0   1  -9  168.21    6.03
   0  -1   9  187.35    7.71
   0  -1   9  173.46    6.07
   0  -1   9  181.06    6.20
  -1   1  -9    6.52    0.84
  -1   1  -9    7.93    0.77
  -1   1  -9    9.25    1.51
   1  -1   9    8.84    1.30
   1  -1   9    6.75    1.59
   1  -1   9    8.90    1.59
  -2   1  -9   29.59    2.49
   2  -1   9   27.77    2.50
   2  -1   9   34.45    2.67
   2  -1   9   27.23    2.29
  -3   1  -9  119.71    5.26
   3  -1   9  133.37    5.43
   3  -1   9  123.54    5.93
   3  -1   9  134.02    5.30
  -4   1  -9   46.54    3.43
   4  -1   9   51.20    3.39
   4  -1   9   44.19    3.53
   4  -1   9   55.74    3.93
  -5   1  -9    7.82    2.28
   5  -1   9    9.94    2.15
   5  -1   9    6.15    2.18
   5  -1   9    7.41    2.22
  -6   1  -9   77.38    4.64
   6  -1   9   58.46    4.44
   6  -1   9   62.53    4.57
   6  -1   9   68.30    3.99
  -7   1  -9   25.84    3.43
   7  -1   9   31.29    3.66
   7  -1   9   21.44    3.07
   8  -1   9    0.78    1.96
  12   0  -9    0.28    1.59
  12   0  -9    2.66    2.62
 -12   0   9    0.50    1.69
  11   0  -9    7.33    2.21
  11   0  -9    9.64    2.59
 -11   0   9    5.80    2.24
  10   0  -9   34.51    3.15
  10   0  -9   34.14    2.94
 -10   0   9   36.49    3.16
   9   0  -9   27.11    2.45
   9   0  -9   28.38    2.64
   9   0  -9   22.57    2.40
  -9   0   9   26.09    2.53
   8   0  -9    2.37    1.42
   8   0  -9    3.11    1.46
   8   0  -9    0.53    1.10
  -8   0   9    0.79    1.40
   7   0  -9   79.50    3.48
   7   0  -9   88.22    3.85
   7   0  -9   84.81    3.70
  -7   0   9   81.17    3.70
   6   0  -9   63.87    2.82
   6   0  -9   68.41    3.22
  -6   0   9   64.04    2.87
   5   0  -9    6.83    1.23
   5   0  -9    6.52    1.01
  -5   0   9    6.52    1.07
   4   0  -9   71.96    3.28
   4   0  -9   65.01    2.78
  -4   0   9   63.34    2.78
   3   0  -9  103.12    4.53
   3   0  -9  108.10    3.93
  -3   0   9  109.12    4.06
   2   0  -9   22.44    2.08
   2   0  -9   25.14    1.65
  -2   0   9   20.00    1.57
   1   0  -9   35.50    2.62
   1   0  -9   37.09    2.33
  -1   0   9   36.69    2.33
  -1   0   9   36.78    1.86
   0   0  -9   96.51    4.08
   0   0   9   97.97    3.59
   0   0   9  118.38    5.46
   0   0   9  100.87    3.81
   0   0   9  100.54    4.16
  -1   0  -9   46.00    2.54
  -1   0  -9   47.99    2.26
   1   0   9   50.00    2.47
   1   0   9   49.24    3.57
  -2   0  -9   -0.45    0.65
  -2   0  -9   -0.35    0.96
   2   0   9    0.13    1.02
   2   0   9   -0.78    0.96
   2   0   9    0.91    1.54
  -3   0  -9   44.01    3.29
   3   0   9   51.43    3.34
   3   0   9   55.67    3.51
   3   0   9   51.56    3.08
  -4   0  -9   85.07    4.49
   4   0   9   82.36    4.55
   4   0   9   84.80    4.24
   4   0   9   83.95    4.87
  -5   0  -9   -2.87    1.85
   5   0   9    1.47    1.75
   5   0   9   -0.34    1.67
   5   0   9   -1.45    2.02
  -6   0  -9   23.70    3.18
   6   0   9   29.21    3.48
   6   0   9   17.30    2.64
  -7   0  -9   41.63    4.05
   7   0   9   25.97    3.66
  12  -1  -9   12.57    2.56
  12  -1  -9    5.23    2.63
 -12   1   9   15.67    2.78
  11  -1  -9    3.78    1.84
  11  -1  -9    3.44    2.28
  11  -1  -9    5.38    2.09
 -11   1   9    1.35    2.03
  10  -1  -9   21.40    2.46
  10  -1  -9   21.06    2.41
  10  -1  -9   25.38    2.74
 -10   1   9   22.48    2.43
   9  -1  -9   71.46    3.85
   9  -1  -9   67.02    3.70
   9  -1  -9   64.77    3.60
  -9   1   9   67.21    3.62
   8  -1  -9   10.81    1.71
   8  -1  -9   14.88    1.74
   8  -1  -9    9.28    1.63
  -8   1   9   13.07    1.77
   7  -1  -9    9.14    1.30
   7  -1  -9   10.86    1.57
   7  -1  -9   10.04    1.51
  -7   1   9   12.34    1.41
   6  -1  -9   77.16    3.39
   6  -1  -9   78.33    3.75
  -6   1   9   85.17    3.47
   5  -1  -9   52.45    2.59
   5  -1  -9   53.02    2.68
  -5   1   9   50.40    2.61
   4  -1  -9   11.12    1.34
   4  -1  -9    9.75    1.33
  -4   1   9    9.31    1.32
   3  -1  -9  104.04    4.53
   3  -1  -9  106.14    3.93
  -3   1   9  111.19    4.10
   2  -1  -9   72.61    3.06
   2  -1  -9   72.11    3.70
  -2   1   9   72.69    3.07
  -2   1   9   74.71    2.64
   1  -1  -9    0.94    1.07
   1  -1  -9    1.68    1.37
  -1   1   9    1.24    0.81
  -1   1   9    1.80    1.12
  -1   1   9    1.85    0.66
   0  -1  -9   30.78    2.82
   0  -1  -9   28.37    2.30
   0  -1  -9   32.26    1.92
   0   1   9   32.93    1.55
   0   1   9   31.53    2.35
   0   1   9   32.35    1.68
  -1  -1  -9   67.24    3.45
  -1  -1  -9   68.67    3.01
   1   1   9   69.17    3.07
   1   1   9   68.26    3.51
  -2  -1  -9   28.02    2.46
  -2  -1  -9   23.39    1.89
   2   1   9   25.96    2.28
   2   1   9   27.41    2.55
  -3  -1  -9   30.97    2.64
   3   1   9   27.04    2.48
   3   1   9   30.67    3.00
   3   1   9   31.45    2.52
  -4  -1  -9   67.74    4.16
   4   1   9   64.94    4.14
   4   1   9   65.13    4.16
   4   1   9   64.73    3.70
  -5  -1  -9   23.91    2.88
   5   1   9   17.59    2.95
  -6  -1  -9   -0.34    2.26
   6   1   9    2.22    2.55
  -7  -1  -9   16.19    2.66
   7   1   9   18.01    2.79
  13  -2  -9    6.39    2.82
  12  -2  -9   41.13    4.06
  12  -2  -9   42.97    3.78
  12  -2  -9   37.32    3.34
 -12   2   9   36.41    3.07
  11  -2  -9   14.50    2.49
  11  -2  -9   13.56    2.33
  11  -2  -9   21.59    2.79
 -11   2   9   20.92    2.60
  10  -2  -9    3.45    1.73
  10  -2  -9   -1.14    1.65
  10  -2  -9    4.48    1.65
 -10   2   9    0.80    1.56
   9  -2  -9   61.95    3.68
   9  -2  -9   51.74    3.17
   9  -2  -9   51.50    3.21
  -9   2   9   53.73    3.22
   8  -2  -9   63.66    3.15
   8  -2  -9   69.22    3.72
   8  -2  -9   65.79    3.01
  -8   2   9   63.62    3.02
   7  -2  -9    0.89    1.28
   7  -2  -9    1.21    1.06
   7  -2  -9    1.61    0.88
  -7   2   9    1.64    1.15
   6  -2  -9   55.28    2.74
   6  -2  -9   59.99    3.22
  -6   2   9   56.93    2.81
   5  -2  -9  144.07    5.89
   5  -2  -9  151.50    5.09
  -5   2   9  136.55    4.94
   4  -2  -9   25.53    2.23
   4  -2  -9   25.37    1.68
  -4   2   9   25.92    1.69
   3  -2  -9  108.01    4.78
   3  -2  -9  108.05    4.07
  -3   2   9  104.96    3.33
  -3   2   9  101.53    4.05
   2  -2  -9   81.11    4.18
   2  -2  -9   83.27    3.55
  -2   2   9   88.88    3.56
  -2   2   9   84.35    3.58
   1  -2  -9   65.21    3.16
   1  -2  -9   61.84    3.76
  -1   2   9   67.42    2.32
  -1   2   9   66.95    2.78
  -1   2   9   62.82    2.95
   0  -2  -9    3.33    1.37
   0  -2  -9    1.74    1.65
   0  -2  -9    2.58    1.05
   0   2   9    2.57    0.75
   0   2   9    3.20    1.34
   0   2   9    1.76    0.69
  -1  -2  -9   99.64    4.14
  -1  -2  -9   94.47    4.31
   1   2   9   96.74    4.38
   1   2   9   97.81    3.83
  -2  -2  -9   73.28    3.44
  -2  -2  -9   61.61    3.36
   2   2   9   66.48    3.49
  -3  -2  -9    2.60    1.36
  -3  -2  -9    3.49    1.82
   3   2   9    4.92    2.01
  -4  -2  -9   29.67    3.04
   4   2   9   32.75    3.33
  -5  -2  -9   40.93    3.76
   5   2   9   49.10    4.09
  -6  -2  -9    3.23    2.64
   6   2   9    5.24    2.70
  -7  -2  -9   -0.21    2.68
  13  -3  -9    0.39    2.41
  13  -3  -9    4.45    2.92
  12  -3  -9   23.90    3.29
  12  -3  -9   32.12    3.29
 -12   3   9   30.41    2.72
  11  -3  -9   51.05    3.58
  11  -3  -9   50.20    3.55
 -11   3   9   49.27    3.61
  10  -3  -9    3.65    1.58
  10  -3  -9    5.02    1.98
  10  -3  -9    5.47    1.70
 -10   3   9    3.72    1.68
   9  -3  -9   30.25    2.38
   9  -3  -9   29.13    2.55
   9  -3  -9   32.26    2.18
  -9   3   9   32.76    2.25
   8  -3  -9  104.33    5.05
   8  -3  -9  104.24    4.26
  -8   3   9  107.73    4.34
   7  -3  -9   51.41    2.43
   7  -3  -9   49.76    2.68
   7  -3  -9   51.26    2.96
  -7   3   9   51.01    2.75
   6  -3  -9   14.73    1.57
   6  -3  -9   14.19    1.89
  -6   3   9   10.88    1.44
   5  -3  -9  238.11    9.24
   5  -3  -9  257.38    7.93
  -5   3   9  248.15    7.94
   4  -3  -9  108.50    4.19
   4  -3  -9  115.18    5.06
  -4   3   9  109.47    4.22
  -4   3   9  114.49    4.88
   3  -3  -9   -0.19    0.68
   3  -3  -9    0.02    1.24
  -3   3   9    0.89    0.54
  -3   3   9    0.41    0.76
  -3   3   9    0.69    0.80
   2  -3  -9  100.36    4.02
   2  -3  -9   90.72    4.73
  -2   3   9  103.69    4.08
  -2   3   9   98.20    4.01
   1  -3  -9  125.11    4.89
   1  -3  -9  131.70    6.12
  -1   3   9  146.57    5.09
  -1   3   9  135.69    5.11
   0  -3  -9   26.07    2.29
   0  -3  -9   25.12    2.48
   0  -3  -9   29.41    2.37
   0   3   9   24.67    2.27
  -1  -3  -9   34.31    2.78
  -1  -3  -9   29.16    2.16
   1   3   9   37.37    2.85
  -2  -3  -9   98.15    4.34
  -2  -3  -9  101.05    4.55
   2   3   9   89.48    4.31
  -3  -3  -9   35.86    3.24
  -3  -3  -9   38.75    3.04
   3   3   9   39.67    3.48
  -4  -3  -9   -1.04    1.98
   4   3   9    1.33    2.41
  -5  -3  -9   29.81    3.03
   5   3   9   35.54    3.30
  -6  -3  -9   25.08    2.98
   6   3   9   28.78    3.75
  13  -4  -9    3.75    1.99
  12  -4  -9    9.26    2.16
 -12   4   9   17.13    2.60
  11  -4  -9   63.52    4.59
 -11   4   9   61.07    3.38
  10  -4  -9   34.38    3.44
  10  -4  -9   28.79    2.27
 -10   4   9   26.38    2.25
   9  -4  -9    2.29    1.71
   9  -4  -9    0.42    1.29
  -9   4   9    2.06    1.40
   8  -4  -9  103.53    5.08
   8  -4  -9   96.74    4.09
  -8   4   9  101.71    4.18
   7  -4  -9  143.22    5.14
   7  -4  -9  144.25    6.23
  -7   4   9  140.99    5.18
   6  -4  -9    4.94    0.94
   6  -4  -9    8.30    1.70
  -6   4   9    5.96    1.98
  -6   4   9    5.25    1.07
   5  -4  -9   80.71    3.27
   5  -4  -9   85.11    4.25
  -5   4   9   84.91    4.37
  -5   4   9   78.30    3.28
   4  -4  -9  184.46    6.18
   4  -4  -9  181.51    7.30
  -4   4   9  188.64    7.10
  -4   4   9  175.48    6.17
   3  -4  -9   45.51    3.13
   3  -4  -9   37.86    2.14
  -3   4   9   37.59    2.60
  -3   4   9   38.20    2.18
   2  -4  -9   24.16    2.13
   2  -4  -9   21.91    2.51
  -2   4   9   22.67    1.99
  -2   4   9   22.76    2.00
  -2   4   9   24.61    1.67
   1  -4  -9  153.20    5.54
   1  -4  -9  134.72    6.61
  -1   4   9  152.20    5.54
   0  -4  -9   88.81    4.89
   0  -4  -9   99.31    4.31
   0  -4  -9   98.04    4.53
   0   4   9   97.40    4.36
  -1  -4  -9    1.78    1.51
  -1  -4  -9   -0.99    1.49
   1   4   9    1.97    1.63
  -2  -4  -9   50.48    3.55
  -2  -4  -9   53.01    3.17
   2   4   9   53.78    3.70
  -3  -4  -9   67.81    3.84
  -3  -4  -9   67.15    4.27
   3   4   9   76.95    4.04
  -4  -4  -9    7.17    1.86
   4   4   9   10.51    2.04
  -5  -4  -9   21.17    3.19
   5   4   9   20.75    3.22
  12  -5  -9    1.52    2.43
 -12   5   9   -0.69    1.89
 -12   5   9   -2.80    3.38
  11  -5  -9   42.49    3.92
 -11   5   9   38.06    3.18
 -11   5   9   33.26    4.28
  10  -5  -9   42.80    3.86
 -10   5   9   46.77    4.66
 -10   5   9   44.99    2.67
   9  -5  -9   12.98    2.41
  -9   5   9   13.91    1.88
  -9   5   9   12.46    3.21
   8  -5  -9   46.85    2.68
   8  -5  -9   47.91    3.61
  -8   5   9   45.04    2.76
  -8   5   9   45.75    4.48
   7  -5  -9  129.37    4.83
   7  -5  -9  128.94    5.98
  -7   5   9  131.60    4.86
  -7   5   9  131.83    6.50
   6  -5  -9   35.58    2.04
   6  -5  -9   35.23    3.06
  -6   5   9   34.61    3.42
  -6   5   9   35.96    2.07
   5  -5  -9   11.58    1.45
   5  -5  -9   10.20    2.00
  -5   5   9   12.21    1.49
  -5   5   9   10.21    2.12
   4  -5  -9  134.67    4.88
   4  -5  -9  131.23    6.01
  -4   5   9  130.98    4.89
  -4   5   9  132.42    5.67
   3  -5  -9   99.62    4.77
   3  -5  -9   90.80    3.76
  -3   5   9   94.78    3.81
  -3   5   9  101.85    4.49
   2  -5  -9   -0.55    1.67
   2  -5  -9    1.90    1.23
  -2   5   9   -0.72    1.24
  -2   5   9   -0.23    0.82
   1  -5  -9   98.02    4.71
   1  -5  -9   96.07    4.17
   1  -5  -9   85.74    5.16
  -1   5   9  102.05    4.30
  -1   5   9   89.73    4.12
  -1   5   9   91.80    4.07
   0  -5  -9  120.43    5.41
   0  -5  -9  111.35    5.75
   0  -5  -9  122.48    4.99
   0   5   9  101.74    4.81
   0   5   9  123.57    5.07
  -1  -5  -9   20.95    2.58
  -1  -5  -9   16.76    2.31
   1   5   9   15.49    2.37
   1   5   9   12.48    2.28
  -2  -5  -9   17.17    2.50
  -2  -5  -9   15.07    1.98
   2   5   9   13.49    2.07
   2   5   9   14.99    2.37
  -3  -5  -9   74.79    4.21
  -3  -5  -9   76.07    4.89
   3   5   9   80.41    5.40
   3   5   9   82.38    4.36
   4   5   9   34.17    4.01
   4   5   9   35.27    3.63
  12  -6  -9    6.25    2.83
 -12   6   9    1.63    1.88
 -12   6   9   -4.55    3.53
  11  -6  -9    9.63    2.76
 -11   6   9    5.29    1.83
 -11   6   9    5.44    3.27
  10  -6  -9   48.95    4.17
 -10   6   9   44.79    3.12
 -10   6   9   48.22    5.22
   9  -6  -9   34.17    3.49
  -9   6   9   29.54    3.66
  -9   6   9   28.13    2.52
   8  -6  -9    2.78    1.95
  -8   6   9    3.92    1.93
  -8   6   9    3.51    1.39
   7  -6  -9   77.68    4.49
  -7   6   9   72.07    3.39
  -7   6   9   75.82    4.49
   6  -6  -9   63.20    4.01
  -6   6   9   61.08    3.01
  -6   6   9   58.61    4.20
   5  -6  -9    4.04    1.44
  -5   6   9    3.05    1.24
  -5   6   9    3.31    1.42
   4  -6  -9   71.58    4.36
  -4   6   9   71.04    3.69
  -4   6   9   67.04    3.04
   3  -6  -9  133.34    6.44
  -3   6   9  131.64    5.07
  -3   6   9  138.30    5.76
   2  -6  -9   19.10    2.73
  -2   6   9   25.90    2.24
  -2   6   9   24.47    2.31
  -2   6   9   20.63    1.95
   1  -6  -9   20.41    2.60
   1  -6  -9   24.19    2.81
  -1   6   9   24.89    2.31
  -1   6   9   19.39    2.06
  -1   6   9   30.31    2.51
   0  -6  -9   65.28    4.88
   0  -6  -9   69.02    4.35
   0   6   9   65.23    3.44
   0   6   9   67.93    4.01
  -1  -6  -9   64.94    4.31
   1   6   9   53.72    4.20
   1   6   9   61.43    3.88
  -2  -6  -9    2.43    2.12
   2   6   9   -1.42    2.14
   2   6   9   -0.53    2.04
  -3  -6  -9   46.08    4.36
   3   6   9   39.75    3.30
   3   6   9   35.11    4.06
   4   6   9   44.54    4.10
   4   6   9   52.19    4.88
  12  -7  -9   22.22    3.61
 -12   7   9   17.67    4.39
 -12   7   9   18.28    2.51
  11  -7  -9   -1.06    2.34
 -11   7   9   -0.99    1.61
 -11   7   9    2.08    3.37
  10  -7  -9   22.48    3.15
 -10   7   9   21.08    2.28
 -10   7   9   10.84    3.64
   9  -7  -9   51.77    4.17
  -9   7   9   50.56    2.99
  -9   7   9   42.15    4.26
   8  -7  -9    6.01    2.31
  -8   7   9    6.58    1.46
  -8   7   9    6.49    2.19
   7  -7  -9   13.85    2.52
  -7   7   9   13.99    1.72
  -7   7   9    9.42    2.71
   6  -7  -9   75.67    4.73
  -6   7   9   75.32    3.44
  -6   7   9   84.29    4.92
   5  -7  -9   36.36    3.52
  -5   7   9   34.38    3.29
  -5   7   9   32.22    2.32
   4  -7  -9    5.30    2.14
  -4   7   9    4.79    1.39
  -4   7   9    2.87    1.90
   3  -7  -9   83.97    5.15
  -3   7   9   88.66    4.28
  -3   7   9   85.40    3.87
   2  -7  -9   50.58    3.86
   2  -7  -9   37.01    3.34
  -2   7   9   39.13    3.15
  -2   7   9   43.47    2.99
   1  -7  -9    4.72    2.22
   1  -7  -9   -0.05    2.24
  -1   7   9    5.25    1.72
  -1   7   9   -0.52    1.60
   0  -7  -9   24.19    2.75
   0  -7  -9   23.26    3.10
   0   7   9   32.15    2.85
   0   7   9   28.11    3.06
  -1  -7  -9   51.81    4.45
   1   7   9   47.08    4.29
   1   7   9   50.49    3.89
  -2  -7  -9   15.62    3.00
   2   7   9   10.53    2.31
   2   7   9   10.24    2.48
  -3  -7  -9    9.05    3.04
   3   7   9    9.79    2.47
   3   7   9   12.46    2.80
  11  -8  -9    8.53    2.84
 -11   8   9    4.98    3.82
 -11   8   9   15.36    2.21
  10  -8  -9    0.63    2.45
 -10   8   9   -1.20    1.48
 -10   8   9    1.28    2.41
   9  -8  -9   21.42    2.73
  -9   8   9   27.62    2.26
  -9   8   9   27.55    4.19
   8  -8  -9   37.52    3.33
  -8   8   9   43.96    3.98
   7  -8  -9   -1.62    1.23
  -7   8   9   -0.22    2.48
  -7   8   9   -1.32    1.07
   6  -8  -9   32.25    3.41
  -6   8   9   25.84    2.19
  -6   8   9   26.63    3.32
   5  -8  -9   64.61    4.50
  -5   8   9   57.55    3.01
  -5   8   9   60.06    4.34
   4  -8  -9   12.99    2.76
  -4   8   9    9.25    2.37
  -4   8   9    9.72    1.83
   3  -8  -9   14.70    2.82
  -3   8   9   14.74    1.91
  -3   8   9   13.50    1.97
   2  -8  -9   30.68    3.35
   2  -8  -9   38.00    3.72
  -2   8   9   34.76    2.85
  -2   8   9   39.46    3.32
   1  -8  -9   15.85    3.14
   1  -8  -9   14.90    2.40
  -1   8   9   11.98    2.11
  -1   8   9   11.02    2.11
   0  -8  -9    2.93    2.51
   0   8   9    0.75    1.99
   0   8   9    3.02    1.96
  -1  -8  -9   34.34    3.87
   1   8   9   39.13    3.34
   1   8   9   50.59    4.49
  -2  -8  -9   15.60    2.67
   2   8   9   18.93    2.97
   2   8   9   11.53    3.29
  11  -9  -9   18.64    3.44
 -11   9   9   20.04    4.82
 -11   9   9   20.66    2.51
  10  -9  -9    5.85    2.09
 -10   9   9    6.74    3.62
 -10   9   9    2.57    1.38
   9  -9  -9   10.83    2.93
  -9   9   9    5.13    1.39
  -9   9   9    9.42    3.52
   8  -9  -9   38.84    4.00
  -8   9   9   38.08    4.58
  -8   9   9   38.86    2.55
   7  -9  -9   29.85    3.48
  -7   9   9   22.92    3.62
  -7   9   9   24.34    2.03
   6  -9  -9    0.83    1.73
  -6   9   9    2.02    1.20
  -6   9   9   -0.89    2.44
   5  -9  -9   47.01    4.37
  -5   9   9   45.25    4.25
   4  -9  -9   26.59    3.46
  -4   9   9   23.44    2.15
  -4   9   9   26.92    3.28
   3  -9  -9    3.98    2.56
   3  -9  -9   -0.46    1.78
  -3   9   9   -0.28    2.01
  -3   9   9    0.34    1.39
   2  -9  -9   33.72    3.88
   2  -9  -9   29.62    3.76
  -2   9   9   23.26    2.95
  -2   9   9   25.56    2.44
   1  -9  -9   28.85    4.02
   1  -9  -9   41.26    4.26
  -1   9   9   41.16    3.31
   0  -9  -9    1.86    2.75
   0   9   9    3.95    1.98
  -1  -9  -9    4.80    2.24
   1   9   9    3.06    2.21
   1   9   9    3.82    1.89
  10 -10  -9   21.07    3.58
 -10  10   9   14.71    4.27
   9 -10  -9   -0.90    1.90
  -9  10   9   -1.48    3.30
   8 -10  -9   33.48    3.43
  -8  10   9   27.52    4.22
   7 -10  -9   50.18    3.99
   6 -10  -9    2.57    2.70
  -6  10   9   -3.61    2.54
   5 -10  -9    8.87    3.01
  -5  10   9   10.66    2.98
   4 -10  -9   46.50    4.62
   4 -10  -9   53.25    4.89
  -4  10   9   59.96    4.62
   3 -10  -9   15.98    3.26
   3 -10  -9    8.38    3.08
  -3  10   9   15.43    2.98
   2 -10  -9    0.92    2.75
   2 -10  -9    1.12    2.74
  -2  10   9    2.01    1.60
   1 -10  -9   31.61    4.21
   1 -10  -9   20.74    3.65
  -1  10   9   35.71    3.06
   0  10   9   13.65    2.34
   8 -11  -9    6.65    3.07
  -8  11   9    6.69    3.60
   7 -11  -9   32.13    3.99
  -7  11   9   29.52    4.32
   6 -11  -9   17.21    3.35
  -6  11   9   22.90    3.85
   5 -11  -9    1.23    2.79
   5 -11  -9   -3.79    2.46
  -5  11   9    3.22    2.84
   4 -11  -9   24.45    3.88
   4 -11  -9   29.62    4.13
  -4  11   9   24.35    3.49
   3 -11  -9   37.05    4.40
   3 -11  -9   29.13    4.14
   2 -11  -9    3.55    2.10
  -1  12 -10    1.60    3.23
  -2  12 -10    0.42    3.02
   2 -12  10   11.61    3.50
  -3  12 -10   12.24    3.72
   3 -12  10   14.69    3.76
   2  11 -10   13.91    3.82
   2  11 -10    7.56    2.41
   1  11 -10    4.45    3.33
   0  11 -10   26.73    3.96
   0 -11  10   21.33    3.67
  -1  11 -10   14.34    3.58
   1 -11  10   22.18    3.65
   1 -11  10   15.83    3.56
  -2  11 -10   -3.46    2.64
   2 -11  10    1.77    2.85
   2 -11  10    1.61    2.73
  -3  11 -10   18.04    3.31
   3 -11  10   24.04    3.83
   3 -11  10   20.29    3.31
  -4  11 -10   14.18    3.20
   4 -11  10   14.82    2.95
   4 -11  10   14.94    3.16
   5 -11  10   -5.24    2.92
   5  10 -10   12.55    1.98
   5  10 -10   11.84    2.58
   4  10 -10    1.35    1.47
   4  10 -10    3.31    3.53
   4  10 -10    3.50    2.06
   3  10 -10   33.66    4.76
   3  10 -10   44.80    3.80
   2  10 -10   32.18    3.18
   2  10 -10   30.89    4.36
   1  10 -10   -0.27    1.11
   1  10 -10   -0.62    1.93
  -1 -10  10   -1.58    2.20
   0  10 -10   21.94    3.69
   0 -10  10   20.72    3.10
   1 -10  10   61.37    5.52
   1 -10  10   60.39    5.03
  -2  10 -10    5.89    2.77
   2 -10  10    7.72    2.47
   2 -10  10    8.44    2.89
  -3  10 -10    7.37    2.66
   3 -10  10    8.09    3.06
   3 -10  10    3.52    2.97
  -4  10 -10   41.24    3.96
   4 -10  10   42.52    4.89
   4 -10  10   44.54    4.60
   5 -10  10   18.13    3.67
   5 -10  10   14.06    2.99
   6 -10  10    0.59    2.21
   6   9 -10   30.19    4.75
   5   9 -10   24.84    2.43
   5   9 -10   26.43    2.57
   5   9 -10   28.78    4.45
   4   9 -10   -0.85    1.82
   4   9 -10    1.16    1.46
   4   9 -10   -0.36    3.08
   3   9 -10   43.57    4.62
   3   9 -10   43.30    3.48
   3   9 -10   33.85    2.68
   2   9 -10   47.95    4.69
   2   9 -10   56.13    3.80
   2   9 -10   57.64    3.11
  -2  -9  10   65.62    4.95
   1   9 -10   16.14    3.15
   1   9 -10   20.31    1.95
  -1  -9  10   19.15    3.26
   0   9 -10    9.80    2.72
   0   9 -10   10.73    1.77
   0  -9  10   11.58    2.99
  -1   9 -10   54.23    4.51
  -1   9 -10   57.02    3.03
   1  -9  10   51.74    5.05
   1  -9  10   47.81    4.36
  -2   9 -10   41.60    2.78
  -2   9 -10   42.14    3.86
   2  -9  10   43.45    4.63
   2  -9  10   41.14    3.97
  -3   9 -10   -0.54    2.04
  -3   9 -10   -1.11    1.33
   3  -9  10   -1.19    2.58
   3  -9  10   -0.38    1.74
  -4   9 -10   33.59    2.78
  -4   9 -10   26.70    3.15
   4  -9  10   33.42    4.29
   4  -9  10   29.20    3.36
  -5   9 -10   39.06    3.14
   5  -9  10   37.74    4.27
   5  -9  10   37.89    4.43
  -6   9 -10   -1.95    1.82
   6  -9  10    4.28    3.16
   6  -9  10    0.35    2.08
  -7   9 -10    8.50    2.10
   7   8 -10    2.20    3.45
   7   8 -10    4.17    1.96
   6   8 -10   24.23    3.60
   6   8 -10   21.63    2.62
   6   8 -10   26.13    2.62
   5   8 -10   53.00    3.66
   5   8 -10   52.70    5.32
   5   8 -10   62.27    3.46
   4   8 -10    7.33    1.93
   4   8 -10    8.59    1.70
   4   8 -10    4.20    2.31
   3   8 -10    9.47    3.06
   3   8 -10    7.31    1.59
   3   8 -10   10.86    2.05
   2   8 -10   66.48    3.54
   2   8 -10   66.36    3.39
   2   8 -10   75.28    5.21
  -2  -8  10   80.72    4.80
   1   8 -10   47.48    2.80
   1   8 -10   47.09    4.16
  -1  -8  10   49.90    4.65
   0   8 -10    0.01    1.14
   0   8 -10   -0.14    2.14
   0  -8  10   -0.16    2.37
  -1   8 -10   47.35    3.93
  -1   8 -10   43.24    2.74
   1  -8  10   43.55    3.35
   1  -8  10   42.83    4.55
  -2   8 -10   69.85    4.49
  -2   8 -10   75.13    3.55
   2  -8  10   58.91    5.28
   2  -8  10   65.33    4.69
  -3   8 -10    6.77    2.17
  -3   8 -10    6.15    1.66
   3  -8  10    6.43    2.73
   3  -8  10    5.73    2.41
  -4   8 -10   14.17    2.05
  -4   8 -10   18.76    2.55
   4  -8  10   17.04    2.61
   4  -8  10   15.77    3.38
  -5   8 -10   43.85    3.41
   5  -8  10   43.72    4.76
   5  -8  10   47.61    4.50
  -6   8 -10   20.35    2.63
   6  -8  10   25.73    4.00
   6  -8  10   19.12    3.63
  -7   8 -10    4.39    2.09
   7  -8  10    2.67    3.22
   7  -8  10    1.18    2.95
   8   7 -10   38.51    5.10
   8   7 -10   30.05    3.07
   7   7 -10   13.89    3.93
   7   7 -10   17.86    2.44
   7   7 -10   14.64    2.22
   6   7 -10    7.89    1.88
   6   7 -10    6.91    1.79
   6   7 -10    3.05    3.20
   5   7 -10   50.50    4.39
   5   7 -10   55.52    3.43
   5   7 -10   57.35    3.26
   4   7 -10   44.56    3.14
   4   7 -10   48.69    2.90
   4   7 -10   47.81    4.50
   3   7 -10    2.75    1.31
   3   7 -10    2.11    1.45
   3   7 -10    1.64    1.71
   2   7 -10   48.99    4.24
   2   7 -10   48.08    2.81
  -2  -7  10   47.95    4.38
   1   7 -10   74.23    4.76
   1   7 -10   73.52    3.55
  -1  -7  10   86.27    5.45
   0   7 -10   16.10    1.81
   0   7 -10   16.26    2.53
   0  -7  10   13.97    2.90
  -1   7 -10   28.74    2.35
  -1   7 -10   30.64    2.89
   1  -7  10   28.36    3.04
   1  -7  10   25.33    3.57
  -2   7 -10   69.48    3.61
   2  -7  10   77.57    4.59
   2  -7  10   67.71    4.71
  -3   7 -10   42.34    3.22
  -3   7 -10   38.83    2.94
   3  -7  10   43.64    3.89
   3  -7  10   34.48    3.64
  -4   7 -10    1.30    1.64
   4  -7  10    0.42    1.68
   4  -7  10    0.95    2.24
  -5   7 -10   40.58    3.35
   5  -7  10   36.12    4.28
   5  -7  10   35.02    3.97
  -6   7 -10   34.38    3.13
   6  -7  10   34.87    4.42
   6  -7  10   33.51    3.57
  -7   7 -10   -0.78    2.10
   7  -7  10    2.51    2.09
   7  -7  10   -0.98    2.21
   9   6 -10   -0.28    2.16
   9   6 -10   -1.13    3.54
   8   6 -10   21.00    2.30
   8   6 -10    8.58    3.52
   7   6 -10   42.80    3.28
   7   6 -10   34.04    4.45
   6   6 -10    2.96    2.16
   6   6 -10    5.91    1.68
   6   6 -10    8.30    1.67
   5   6 -10   15.88    1.68
   5   6 -10   17.32    1.89
   5   6 -10   16.80    3.38
   4   6 -10   52.71    2.98
   4   6 -10   55.34    4.54
   4   6 -10   57.57    3.14
  -4  -6  10   57.78    3.05
   3   6 -10   30.38    2.41
   3   6 -10   35.31    3.38
   3   6 -10   31.46    2.04
  -3  -6  10   32.09    2.04
   2   6 -10    5.66    2.06
   2   6 -10    4.99    1.33
  -2  -6  10    5.92    1.34
  -2  -6  10    8.17    2.00
   1   6 -10   82.05    3.73
   1   6 -10   90.01    4.73
  -1  -6  10   84.47    3.74
  -1  -6  10   86.60    4.97
   0   6 -10   56.29    3.66
   0   6 -10   50.27    2.92
   0  -6  10   53.64    4.42
  -1   6 -10    2.88    1.33
  -1   6 -10    0.70    1.52
   1  -6  10   -0.73    1.44
   1  -6  10    0.31    1.70
  -2   6 -10   42.73    2.89
   2  -6  10   43.53    3.57
   2  -6  10   40.03    4.01
  -3   6 -10   68.13    3.63
  -3   6 -10   69.18    3.68
   3  -6  10   72.12    4.50
   3  -6  10   60.34    4.99
  -4   6 -10    8.44    1.99
   4  -6  10    5.25    2.52
   4  -6  10    6.01    1.96
  -5   6 -10   19.33    2.41
   5  -6  10   16.75    3.18
   5  -6  10   15.47    3.33
  -6   6 -10   38.80    3.35
   6  -6  10   37.53    4.06
   6  -6  10   36.26    4.34
  -7   6 -10    6.30    2.59
   7  -6  10   13.88    3.34
   7  -6  10    8.00    2.52
   8  -6  10    0.06    2.89
   9   5 -10   12.57    2.48
   8   5 -10    1.80    1.81
  -8  -5  10    0.49    1.76
   7   5 -10   37.31    3.05
  -7  -5  10   34.61    2.94
   6   5 -10   40.62    2.59
   6   5 -10   40.89    2.90
  -6  -5  10   49.37    3.00
   5   5 -10   -0.03    1.05
   5   5 -10   -0.16    1.25
  -5  -5  10    0.96    1.22
   4   5 -10   35.12    2.36
   4   5 -10   36.21    2.45
  -4  -5  10   37.43    2.46
   3   5 -10   61.44    2.84
   3   5 -10   59.05    4.10
  -3  -5  10   63.37    2.84
   2   5 -10   18.80    1.65
   2   5 -10   20.91    2.53
  -2  -5  10   32.15    3.33
  -2  -5  10   16.62    1.58
   1   5 -10   34.74    2.56
   1   5 -10   32.34    2.37
  -1  -5  10   34.75    2.39
  -1  -5  10   42.13    3.81
   0   5 -10   67.26    3.35
   0   5 -10   73.27    3.86
   0  -5  10   74.20    3.88
   0  -5  10   74.25    4.76
   0  -5  10   69.25    3.42
  -1   5 -10   41.42    2.74
  -1   5 -10   44.23    2.94
   1  -5  10   44.84    4.05
   1  -5  10   43.97    2.82
   1  -5  10   41.13    2.80
  -2   5 -10    4.21    1.53
  -2   5 -10    4.10    1.38
   2  -5  10    3.25    2.23
   2  -5  10    4.04    1.83
  -3   5 -10   69.01    3.65
   3  -5  10   65.81    4.25
   3  -5  10   55.38    4.74
   3  -5  10   64.79    3.65
  -4   5 -10   32.51    2.92
   4  -5  10   32.10    2.98
   4  -5  10   35.56    3.91
  -5   5 -10   -1.41    1.24
   5  -5  10   -0.52    2.28
   5  -5  10   -0.08    2.40
  -6   5 -10   23.05    2.97
   6  -5  10   23.60    3.55
   6  -5  10   21.27    3.29
  -7   5 -10   29.10    3.37
   7  -5  10   30.68    3.88
   7  -5  10   26.96    3.40
   8  -5  10    1.47    2.85
  10   4 -10   24.08    3.08
 -10  -4  10   15.82    2.75
   9   4 -10   44.21    3.64
  -9  -4  10   38.37    2.95
   8   4 -10    7.81    1.64
  -8  -4  10    6.35    1.49
   7   4 -10   19.09    2.23
  -7  -4  10   22.98    2.27
   6   4 -10   71.28    3.54
   6   4 -10   70.08    3.14
  -6  -4  10   72.74    3.55
   5   4 -10   35.99    2.54
   5   4 -10   38.61    2.20
  -5  -4  10   38.99    2.57
   4   4 -10    5.97    1.39
   4   4 -10    6.30    1.14
  -4  -4  10    6.56    1.33
   3   4 -10  109.32    4.33
  -3  -4  10  114.24    4.35
   2   4 -10   68.87    3.53
   2   4 -10   68.11    3.25
  -2  -4  10   72.10    4.66
  -2  -4  10   70.53    3.23
   1   4 -10   13.36    1.71
   1   4 -10   13.25    1.68
  -1  -4  10   15.78    2.60
  -1  -4  10   15.18    1.70
   0   4 -10   57.47    3.13
   0   4 -10   50.31    2.93
   0  -4  10   58.71    3.26
   0  -4  10   50.93    2.96
   0  -4  10   60.24    4.16
  -1   4 -10   97.77    4.21
  -1   4 -10   99.85    4.23
   1  -4  10   93.35    5.48
   1  -4  10   99.67    4.34
   1  -4  10  102.80    4.31
  -2   4 -10   14.55    1.71
   2  -4  10   11.90    2.53
   2  -4  10   15.57    1.74
   2  -4  10   16.58    2.18
  -3   4 -10   20.87    2.04
   3  -4  10   21.34    2.54
   3  -4  10   20.49    3.08
   3  -4  10   19.25    2.26
  -4   4 -10   59.31    3.85
   4  -4  10   57.57    4.23
   4  -4  10   64.19    4.31
   4  -4  10   68.95    3.97
  -5   4 -10   22.23    2.41
   5  -4  10   19.77    2.27
   5  -4  10   23.86    3.02
   5  -4  10   24.49    3.49
  -6   4 -10   -1.05    2.06
   6  -4  10   -1.42    1.60
   6  -4  10    0.96    1.77
  -7   4 -10   24.62    3.18
   7  -4  10   12.69    3.22
   7  -4  10   23.39    3.50
 -11  -3  10    8.09    2.09
  10   3 -10    8.03    2.43
 -10  -3  10   12.01    2.58
   9   3 -10   76.50    3.92
  -9  -3  10   76.41    3.86
   8   3 -10   40.68    2.72
  -8  -3  10   44.96    2.75
   7   3 -10   -0.37    1.41
  -7  -3  10   -1.86    1.38
   6   3 -10   98.74    4.25
  -6  -3  10  101.90    4.27
   5   3 -10  121.12    4.38
   5   3 -10  117.30    4.48
  -5  -3  10  125.73    4.54
   4   3 -10    6.07    1.05
   4   3 -10    6.51    1.32
  -4  -3  10    8.89    1.44
   3   3 -10   26.42    1.78
  -3  -3  10   21.60    1.70
   2   3 -10  143.15    5.20
  -2  -3  10  140.14    5.16
  -2  -3  10  164.79    7.21
   1   3 -10   88.86    3.68
   1   3 -10   77.74    3.61
  -1  -3  10   83.58    4.92
  -1  -3  10   82.47    3.63
   0   3 -10    9.44    1.40
   0   3 -10    8.05    1.28
   0  -3  10   10.89    1.63
   0  -3  10   11.00    2.25
   0  -3  10   10.36    1.41
  -1   3 -10   89.44    4.03
  -1   3 -10   91.33    3.77
   1  -3  10   95.51    4.25
   1  -3  10   92.92    4.12
   1  -3  10   89.60    4.91
  -2   3 -10   91.16    4.24
   2  -3  10   83.58    5.36
   2  -3  10  104.85    4.42
   2  -3  10   99.05    4.51
  -3   3 -10   -0.23    1.47
   3  -3  10   -0.35    1.55
   3  -3  10   -1.33    1.58
   3  -3  10   -0.90    1.31
  -4   3 -10   29.34    2.61
   4  -3  10   35.84    3.68
   4  -3  10   32.73    2.69
   4  -3  10   36.97    3.21
  -5   3 -10   58.71    3.96
   5  -3  10   51.39    4.68
   5  -3  10   53.81    4.13
   5  -3  10   55.36    4.01
  -6   3 -10    5.46    2.32
   6  -3  10    8.75    2.53
   6  -3  10    6.44    2.39
   6  -3  10    5.73    2.60
  -7   3 -10    7.50    2.57
   7  -3  10   11.73    3.02
   7  -3  10    8.07    2.64
  11   2 -10   30.79    2.87
 -11  -2  10   29.08    2.93
  10   2 -10    1.54    2.16
 -10  -2  10    0.31    2.01
   9   2 -10   40.49    2.82
  -9  -2  10   37.08    2.77
   8   2 -10  116.93    4.90
  -8  -2  10  108.93    4.87
   7   2 -10   16.98    1.79
  -7  -2  10   16.79    1.74
   6   2 -10   39.47    2.30
   6   2 -10   41.97    2.49
  -6  -2  10   37.26    2.34
   5   2 -10  165.90    6.39
   5   2 -10  166.78    5.86
  -5  -2  10  167.08    5.86
   4   2 -10   59.13    2.90
   4   2 -10   59.53    2.72
  -4  -2  10   55.65    2.68
   3   2 -10   -1.77    0.97
   3   2 -10   -0.79    0.84
  -3  -2  10    0.43    1.11
   2   2 -10  124.96    5.24
   2   2 -10  121.02    4.50
  -2  -2  10  119.60    4.50
   1   2 -10  137.78    5.27
  -1  -2  10  131.33    5.24
  -1  -2  10  156.99    7.01
  -1  -2  10  152.91    5.39
   0   2 -10   10.34    1.39
   0   2 -10    7.34    1.50
   0  -2  10   10.13    2.23
   0  -2  10    6.59    1.23
   0  -2  10    9.10    1.43
  -1   2 -10   82.52    3.66
  -1   2 -10   86.01    3.44
   1  -2  10   85.37    3.99
   1  -2  10   89.69    5.04
   1  -2  10   84.91    3.86
  -2   2 -10  109.06    4.67
   2  -2  10  103.19    4.70
   2  -2  10  109.76    5.84
   2  -2  10  110.33    4.75
  -3   2 -10   46.44    2.89
   3  -2  10   44.83    3.99
   3  -2  10   45.42    3.19
   3  -2  10   51.80    3.04
  -4   2 -10   10.38    2.16
   4  -2  10   10.15    2.23
   4  -2  10   11.01    2.13
   4  -2  10    8.15    2.41
  -5   2 -10   62.83    4.24
   5  -2  10   57.88    4.26
   5  -2  10   63.24    4.21
   5  -2  10   57.33    4.65
  -6   2 -10   32.92    3.12
   6  -2  10   29.56    3.21
   6  -2  10   29.89    2.92
   6  -2  10   21.08    3.28
  -7   2 -10   -1.28    2.42
   7  -2  10   -1.53    2.47
   7  -2  10    1.39    2.45
  12   1 -10   11.21    2.53
  11   1 -10   35.42    3.00
  11   1 -10   28.46    3.07
 -11  -1  10   37.92    3.23
  10   1 -10   15.13    2.47
  10   1 -10   14.46    2.65
 -10  -1  10   20.96    2.63
   9   1 -10   14.55    2.21
  -9  -1  10   14.40    2.28
   8   1 -10  105.31    4.64
  -8  -1  10  108.08    4.66
   7   1 -10   61.52    3.15
   7   1 -10   63.30    3.34
  -7  -1  10   61.46    3.35
   6   1 -10    7.33    1.48
   6   1 -10    8.33    1.33
  -6  -1  10    8.01    1.53
   5   1 -10  113.82    4.58
   5   1 -10  105.19    4.22
  -5  -1  10   99.20    4.18
   4   1 -10  141.65    5.69
   4   1 -10  143.36    5.02
  -4  -1  10  137.83    4.98
   3   1 -10   11.33    1.33
   3   1 -10   12.68    1.63
  -3  -1  10   13.43    1.44
   2   1 -10   65.29    3.13
   2   1 -10   64.39    3.47
  -2  -1  10   62.82    3.12
   1   1 -10  219.28    7.60
  -1  -1  10  239.87    7.76
  -1  -1  10  226.37    7.63
   0   1 -10   57.84    2.34
   0   1 -10   53.45    2.79
   0   1 -10   58.21    2.54
   0  -1  10   58.61    2.76
   0  -1  10   60.37    4.09
   0  -1  10   52.91    2.81
  -1   1 -10   14.19    1.87
   1  -1  10   12.51    1.54
   1  -1  10   12.56    1.91
   1  -1  10   12.77    2.34
  -2   1 -10  111.87    4.92
   2  -1  10  112.04    4.70
   2  -1  10  114.57    5.03
   2  -1  10  119.38    6.01
  -3   1 -10   84.81    4.04
   3  -1  10   85.71    4.08
   3  -1  10   85.68    4.79
   3  -1  10   83.47    4.14
  -4   1 -10   -1.16    1.77
   4  -1  10    0.41    1.92
   4  -1  10    0.33    1.98
   4  -1  10   -1.61    1.56
  -5   1 -10   45.95    3.92
   5  -1  10   47.29    3.65
   5  -1  10   51.96    4.10
   5  -1  10   39.98    3.53
  -6   1 -10   39.41    3.75
   6  -1  10   35.64    3.75
   6  -1  10   44.60    3.95
  -7   1 -10   10.31    2.94
   7  -1  10    9.22    2.98
  12   0 -10   -1.70    2.63
  12   0 -10    3.76    2.32
 -12   0  10   -0.37    1.63
  11   0 -10   21.66    2.77
  11   0 -10   14.28    2.81
 -11   0  10   24.46    3.02
  10   0 -10   40.60    2.82
  10   0 -10   36.62    2.89
 -10   0  10   34.56    2.76
   9   0 -10   -0.10    1.13
   9   0 -10    0.45    1.33
   9   0 -10   -1.06    1.60
  -9   0  10    1.41    1.23
   8   0 -10   78.36    3.85
   8   0 -10   79.56    3.85
  -8   0  10   73.78    3.83
   7   0 -10   90.63    4.10
   7   0 -10   80.08    3.85
  -7   0  10   90.46    3.97
   6   0 -10   14.91    1.53
   6   0 -10   18.82    1.86
  -6   0  10   17.19    1.61
   5   0 -10   37.80    2.12
   5   0 -10   36.06    2.23
  -5   0  10   35.91    2.13
   4   0 -10  160.72    5.81
   4   0 -10  169.52    6.66
  -4   0  10  173.08    5.90
   3   0 -10   72.76    3.76
   3   0 -10   74.52    3.38
  -3   0  10   81.08    3.44
   2   0 -10    5.07    1.52
   2   0 -10    2.76    1.25
  -2   0  10    5.17    1.07
  -2   0  10    4.54    0.91
   1   0 -10  128.89    5.02
   1   0 -10  140.51    6.17
  -1   0  10  140.18    5.27
  -1   0  10  148.15    4.96
   0   0 -10  127.90    4.63
   0   0 -10  135.43    5.19
   0   0 -10  140.18    4.82
   0   0  10  125.95    5.14
   0   0  10  134.98    4.82
  -1   0 -10   12.70    1.81
   1   0  10   12.71    1.45
   1   0  10   14.57    2.16
  -2   0 -10   49.94    3.42
   2   0  10   60.92    3.64
   2   0  10   57.39    3.04
   2   0  10   59.53    4.18
  -3   0 -10   98.57    4.67
   3   0  10  113.78    4.86
   3   0  10  113.52    5.89
  -4   0 -10    7.98    2.20
   4   0  10    9.10    2.39
   4   0  10   11.27    1.97
   4   0  10    9.50    2.34
  -5   0 -10   12.15    2.63
   5   0  10   13.45    2.78
  -6   0 -10   36.75    3.77
   6   0  10   35.86    3.90
   7   0  10   21.93    3.03
  12  -1 -10   -0.88    2.13
  12  -1 -10    2.70    2.35
 -12   1  10   -0.70    2.28
  11  -1 -10   11.97    1.95
  11  -1 -10    9.94    2.45
 -11   1  10   16.77    2.20
  10  -1 -10   56.78    3.62
  10  -1 -10   52.31    3.72
  10  -1 -10   50.06    3.58
 -10   1  10   56.46    3.69
   9  -1 -10   21.58    2.07
   9  -1 -10   17.08    2.19
   9  -1 -10   17.08    2.09
  -9   1  10   26.88    2.31
   8  -1 -10   13.74    1.89
   8  -1 -10   11.69    1.83
   8  -1 -10   15.29    1.70
  -8   1  10   14.86    1.99
   7  -1 -10   63.29    3.24
   7  -1 -10   62.60    3.24
  -7   1  10   66.24    3.32
   6  -1 -10   63.44    3.12
   6  -1 -10   63.92    3.41
  -6   1  10   63.92    3.18
   5  -1 -10    0.78    1.16
   5  -1 -10   -0.90    1.05
  -5   1  10   -0.69    1.12
   4  -1 -10   85.00    4.07
   4  -1 -10   77.27    3.50
  -4   1  10   82.15    3.57
   3  -1 -10  100.90    4.74
   3  -1 -10  104.63    4.12
  -3   1  10   99.73    4.12
  -3   1  10  101.82    3.53
   2  -1 -10   16.91    1.78
   2  -1 -10   17.74    2.20
  -2   1  10   15.88    1.09
  -2   1  10   17.97    1.89
   1  -1 -10   14.62    1.59
   1  -1 -10   14.07    1.91
  -1   1  10   15.20    1.46
  -1   1  10   13.64    1.59
  -1   1  10   14.08    1.20
   0  -1 -10  103.88    4.29
   0  -1 -10  111.75    4.25
   0   1  10  108.87    3.91
   0   1  10   99.47    4.28
  -1  -1 -10   44.69    2.71
  -1  -1 -10   45.47    2.60
   1   1  10   48.62    2.83
  -2  -1 -10   12.25    2.11
   2   1  10   11.53    2.23
  -3  -1 -10   73.47    4.27
   3   1  10   75.41    4.40
  -4  -1 -10   38.22    3.50
   4   1  10   39.39    3.53
  -5  -1 -10   -1.20    2.29
   5   1  10   -0.42    2.39
  -6  -1 -10   11.09    2.88
   6   1  10   16.56    3.36
  12  -2 -10   22.88    3.01
  12  -2 -10   21.14    2.88
 -12   2  10   25.73    3.10
  11  -2 -10    2.57    1.95
  11  -2 -10    2.39    1.90
  11  -2 -10   -0.45    1.74
 -11   2  10    0.39    1.87
  10  -2 -10   22.00    2.34
  10  -2 -10   28.03    2.91
  10  -2 -10   23.32    2.47
 -10   2  10   28.23    2.70
   9  -2 -10   43.64    2.73
   9  -2 -10   53.80    3.59
  -9   2  10   48.06    2.81
   8  -2 -10    6.91    1.58
   8  -2 -10    8.53    1.76
   8  -2 -10    4.14    1.17
  -8   2  10    7.05    1.61
   7  -2 -10   26.25    2.28
   7  -2 -10   25.99    2.55
  -7   2  10   25.93    2.31
   6  -2 -10   79.62    3.96
   6  -2 -10   74.86    3.22
  -6   2  10   72.92    3.25
   5  -2 -10   23.04    2.07
   5  -2 -10   27.15    2.44
  -5   2  10   28.16    2.20
   4  -2 -10   13.61    1.63
   4  -2 -10   13.39    1.90
  -4   2  10   11.14    1.59
   3  -2 -10   62.60    3.46
   3  -2 -10   63.85    3.13
  -3   2  10   67.35    3.26
  -3   2  10   63.77    3.15
   2  -2 -10   40.29    2.56
   2  -2 -10   35.05    3.02
  -2   2  10   32.19    2.45
  -2   2  10   37.98    2.20
   1  -2 -10    5.89    1.24
   1  -2 -10    7.91    2.00
  -1   2  10    8.50    1.34
  -1   2  10    7.62    1.04
   0  -2 -10   72.43    3.46
   0  -2 -10   77.97    3.54
  -1  -2 -10   77.77    3.62
  -1  -2 -10   77.63    4.01
   1   2  10   75.10    4.05
  -2  -2 -10    2.88    1.81
   2   2  10    0.96    1.83
  -3  -2 -10   19.87    2.68
   3   2  10   20.85    2.87
  -4  -2 -10   40.61    3.60
   4   2  10   45.31    3.89
  -5  -2 -10   11.29    2.79
   5   2  10   11.41    3.00
  -6  -2 -10    2.08    2.74
   6   2  10    6.21    3.07
  12  -3 -10   26.42    3.35
 -12   3  10   32.64    3.26
  11  -3 -10   11.44    1.81
  11  -3 -10   13.88    2.54
 -11   3  10   13.19    1.96
  10  -3 -10    5.04    1.34
  10  -3 -10    2.94    1.98
 -10   3  10    5.75    1.48
   9  -3 -10   60.99    3.43
   9  -3 -10   59.06    3.58
  -9   3  10   63.06    3.51
   8  -3 -10   44.58    3.33
   8  -3 -10   41.10    2.77
  -8   3  10   39.26    2.80
   7  -3 -10    0.48    0.87
   7  -3 -10    2.07    1.18
  -7   3  10    1.03    0.96
   6  -3 -10   79.96    3.36
   6  -3 -10   85.74    4.30
  -6   3  10   76.54    3.37
   5  -3 -10   91.69    3.82
   5  -3 -10   90.48    4.30
  -5   3  10   88.78    3.83
   4  -3 -10    3.57    1.57
   4  -3 -10    1.46    1.20
  -4   3  10    0.48    1.36
  -4   3  10    2.51    1.26
   3  -3 -10   10.24    1.95
   3  -3 -10   14.49    1.69
  -3   3  10   11.22    1.64
  -3   3  10   13.84    1.70
   2  -3 -10  113.39    4.37
   2  -3 -10  106.23    5.42
  -2   3  10  109.04    4.36
  -2   3  10  117.52    4.60
   1  -3 -10   34.79    2.29
   1  -3 -10   30.17    2.76
  -1   3  10   32.87    2.26
   0  -3 -10    9.78    2.44
   0  -3 -10   12.25    1.77
   0  -3 -10   11.39    1.56
   0   3  10    7.21    1.48
  -1  -3 -10   79.45    4.14
  -1  -3 -10   76.16    3.89
   1   3  10   77.74    4.17
  -2  -3 -10   44.40    3.09
  -2  -3 -10   37.90    2.93
   2   3  10   41.09    2.99
  -3  -3 -10   -0.95    1.92
   3   3  10   -0.74    2.02
  -4  -3 -10   17.60    2.95
   4   3  10   21.17    3.15
  -5  -3 -10   13.49    2.36
   5   3  10   21.78    2.87
  -6  -3 -10   -2.33    2.65
  12  -4 -10   39.17    3.99
 -12   4  10   41.79    3.73
  11  -4 -10   37.55    3.94
 -11   4  10   36.86    3.13
  10  -4 -10    1.19    1.57
  10  -4 -10    1.86    1.92
 -10   4  10    0.09    1.68
   9  -4 -10   49.57    3.73
   9  -4 -10   41.69    2.96
  -9   4  10   40.51    2.95
   8  -4 -10  150.24    6.72
   8  -4 -10  154.54    5.61
  -8   4  10  144.77    5.61
   7  -4 -10   20.93    2.48
   7  -4 -10   20.70    1.98
  -7   4  10   21.77    2.04
  -7   4  10   16.27    2.47
   6  -4 -10   34.47    3.07
   6  -4 -10   34.56    2.42
  -6   4  10   35.56    3.41
  -6   4  10   35.73    2.48
   5  -4 -10   98.19    4.68
   5  -4 -10   96.26    4.03
  -5   4  10   95.51    4.83
  -5   4  10   99.11    4.08
   4  -4 -10   90.87    3.96
   4  -4 -10   99.07    4.93
  -4   4  10   97.45    4.05
  -4   4  10   91.66    4.24
   3  -4 -10    1.54    1.69
   3  -4 -10    1.75    1.23
  -3   4  10    0.79    1.22
  -3   4  10   -1.62    1.19
   2  -4 -10   77.94    3.65
   2  -4 -10   65.82    4.38
  -2   4  10   72.70    3.43
  -2   4  10   76.36    3.28
  -2   4  10   71.82    3.60
   1  -4 -10   94.20    5.45
   1  -4 -10  108.83    4.52
   1  -4 -10  101.96    4.72
   0  -4 -10   13.22    2.83
   0  -4 -10   12.20    2.05
   0  -4 -10   16.68    1.91
   0   4  10   13.99    2.21
  -1  -4 -10   30.69    2.80
  -1  -4 -10   25.92    2.58
   1   4  10   27.27    2.80
  -2  -4 -10   55.30    3.69
  -2  -4 -10   45.88    3.20
   2   4  10   50.97    3.34
  -3  -4 -10   14.03    2.21
   3   4  10   19.05    2.47
  -4  -4 -10    1.88    1.72
   4   4  10    1.45    2.49
  12  -5 -10   16.99    2.65
 -12   5  10   23.74    4.95
 -12   5  10   16.29    2.13
  11  -5 -10   54.89    4.46
 -11   5  10   50.94    3.14
 -11   5  10   47.08    5.53
  10  -5 -10   37.73    3.61
 -10   5  10   39.29    3.12
 -10   5  10   36.05    4.78
   9  -5 -10   12.49    2.48
  -9   5  10   12.90    1.91
  -9   5  10   13.76    3.39
   8  -5 -10  126.47    5.85
  -8   5  10  126.95    6.84
  -8   5  10  124.08    4.99
   7  -5 -10   89.17    3.71
   7  -5 -10   92.51    5.00
  -7   5  10   90.60    3.98
  -7   5  10   88.15    5.33
   6  -5 -10    1.98    1.33
   6  -5 -10   -1.42    1.15
  -6   5  10    1.30    1.28
  -6   5  10    0.84    1.89
   5  -5 -10   58.86    3.11
   5  -5 -10   64.70    4.03
  -5   5  10   64.83    3.56
  -5   5  10   56.22    2.86
   4  -5 -10  135.79    5.16
   4  -5 -10  138.48    6.17
  -4   5  10  137.48    5.64
  -4   5  10  132.44    5.15
   3  -5 -10   18.76    2.41
   3  -5 -10   25.78    2.25
  -3   5  10   27.67    2.34
  -3   5  10   26.52    2.47
   2  -5 -10   25.20    2.28
   2  -5 -10   24.19    3.03
  -2   5  10   24.56    1.96
  -2   5  10   27.12    2.40
   1  -5 -10  106.55    4.45
   1  -5 -10  100.99    5.53
   1  -5 -10  113.12    5.25
  -1   5  10  106.40    4.72
  -1   5  10  108.79    4.51
   0  -5 -10   42.39    3.33
   0  -5 -10   44.13    4.39
   0  -5 -10   48.79    3.55
   0   5  10   41.58    3.38
   0   5  10   48.78    3.48
  -1  -5 -10    0.59    1.82
  -1  -5 -10    0.87    1.73
   1   5  10    0.02    1.87
   1   5  10    0.60    1.89
   2   5  10   54.97    4.55
   2   5  10   55.17    3.58
   3   5  10   39.21    4.07
   3   5  10   39.83    3.81
   4   5  10    3.58    2.26
   4   5  10   -2.03    2.58
  12  -6 -10    1.86    2.66
 -12   6  10   -0.19    1.88
 -12   6  10    1.95    2.76
  11  -6 -10   48.42    4.52
 -11   6  10   49.38    3.56
 -11   6  10   40.74    5.38
  10  -6 -10   61.77    4.67
 -10   6  10   61.46    5.17
 -10   6  10   61.49    3.64
   9  -6 -10    4.28    1.75
  -9   6  10    5.66    2.99
  -9   6  10    2.36    1.20
   8  -6 -10   52.46    3.62
  -8   6  10   55.63    4.88
  -8   6  10   51.29    3.12
   7  -6 -10   92.86    4.74
  -7   6  10   87.46    5.45
  -7   6  10   82.56    3.88
   6  -6 -10   35.24    3.36
  -6   6  10   29.81    2.42
  -6   6  10   34.19    3.43
   5  -6 -10   27.08    3.06
  -5   6  10   23.49    2.70
  -5   6  10   19.66    1.99
   4  -6 -10  121.35    6.14
  -4   6  10  122.18    4.78
  -4   6  10  112.81    5.40
   3  -6 -10   75.02    4.85
  -3   6  10   70.96    3.62
  -3   6  10   73.53    4.03
   2  -6 -10    0.52    1.81
   2  -6 -10    1.04    1.48
  -2   6  10    0.43    1.53
  -2   6  10    0.98    1.69
   1  -6 -10   49.45    4.51
   1  -6 -10   44.99    3.77
  -1   6  10   44.33    3.31
   0  -6 -10   97.93    5.20
   0   6  10   96.36    4.37
   0   6  10   84.73    4.79
  -1  -6 -10    8.49    2.47
   1   6  10    8.67    2.47
   1   6  10    8.79    2.48
  -2  -6 -10   30.12    3.35
   2   6  10   26.82    3.59
   2   6  10   30.44    2.89
   3   6  10   60.04    4.74
   3   6  10   58.68    5.28
 -12   7  10    3.31    2.08
  11  -7 -10   20.50    3.42
 -11   7  10   18.38    4.46
 -11   7  10   16.87    2.31
  10  -7 -10   43.04    4.47
 -10   7  10   49.23    3.33
 -10   7  10   54.48    5.62
   9  -7 -10   19.49    2.62
  -9   7  10   20.31    3.78
  -9   7  10   21.74    2.26
   8  -7 -10    6.06    1.81
  -8   7  10    5.01    1.54
  -8   7  10    5.30    2.93
   7  -7 -10   78.44    4.50
  -7   7  10   76.70    5.26
  -7   7  10   74.76    3.64
   6  -7 -10   56.43    4.39
  -6   7  10   60.01    4.48
  -6   7  10   64.52    3.26
   5  -7 -10   -3.69    1.87
  -5   7  10    0.45    1.37
  -5   7  10    1.00    1.31
   4  -7 -10   65.26    4.73
  -4   7  10   60.30    4.07
  -4   7  10   65.95    3.40
   3  -7 -10   86.80    5.49
  -3   7  10   89.66    4.15
   2  -7 -10   14.80    2.96
   2  -7 -10   19.25    2.88
  -2   7  10   16.99    2.21
   1  -7 -10   10.30    2.11
   1  -7 -10    8.45    2.38
  -1   7  10   10.68    2.21
   0   7  10   77.23    4.45
   0   7  10   70.81    4.65
  -1  -7 -10   43.88    4.11
   1   7  10   34.78    3.67
   1   7  10   37.98    3.52
  -2  -7 -10    3.12    2.01
   2   7  10    1.48    2.64
   2   7  10    0.30    2.35
 -12   8  10   11.20    2.34
  11  -8 -10   -1.62    2.46
 -11   8  10    1.30    3.68
 -11   8  10    0.19    1.75
  10  -8 -10   21.01    3.45
 -10   8  10   21.86    2.32
 -10   8  10   19.90    4.27
   9  -8 -10   33.87    3.88
  -9   8  10   33.11    2.71
  -9   8  10   38.01    4.08
   8  -8 -10    0.81    1.65
  -8   8  10    2.36    1.46
  -8   8  10    3.56    2.88
   7  -8 -10   43.69    4.05
  -7   8  10   32.57    3.93
  -7   8  10   30.32    2.55
   6  -8 -10   72.42    4.97
  -6   8  10   61.83    4.75
  -6   8  10   64.07    3.37
   5  -8 -10   22.05    3.35
  -5   8  10   20.11    2.07
  -5   8  10   20.79    2.94
   4  -8 -10    5.20    2.66
  -4   8  10    4.62    1.58
  -4   8  10    7.15    2.24
   3  -8 -10   39.65    3.46
   3  -8 -10   41.96    4.42
  -3   8  10   40.74    3.02
   2  -8 -10   38.71    4.28
   2  -8 -10   44.57    4.29
  -2   8  10   41.63    3.20
   1  -8 -10   -1.19    2.71
   1  -8 -10    2.49    2.41
  -1   8  10    0.50    1.79
   0  -8 -10   35.27    3.46
   0   8  10   29.44    3.06
  -1  -8 -10   39.95    4.14
   1   8  10   38.03    3.60
 -11   9  10    5.58    1.66
  10  -9 -10    3.00    2.11
 -10   9  10    2.90    2.69
 -10   9  10    5.34    1.60
   9  -9 -10   29.27    3.80
  -9   9  10   32.87    4.56
   8  -9 -10   30.15    3.76
  -8   9  10   29.73    3.61
  -8   9  10   23.32    2.31
   7  -9 -10    0.71    2.48
  -7   9  10   -1.08    2.71
  -7   9  10    0.38    1.25
   6  -9 -10   34.16    3.43
  -6   9  10   31.45    2.51
   5  -9 -10   31.80    3.87
  -5   9  10   28.96    2.64
  -5   9  10   34.56    3.68
   4  -9 -10    3.98    2.78
  -4   9  10    1.69    1.49
  -4   9  10    4.79    2.13
   3  -9 -10    8.39    3.07
   3  -9 -10    9.73    2.32
  -3   9  10    6.19    2.41
  -3   9  10   11.40    2.24
   2  -9 -10   41.49    4.17
   2  -9 -10   41.59    4.57
  -2   9  10   45.96    3.39
   1  -9 -10   12.89    3.21
   1  -9 -10    8.10    3.34
  -1   9  10    9.32    2.27
   0  -9 -10    0.32    2.73
   0   9  10   -1.43    2.10
   9 -10 -10    8.18    2.43
  -9  10  10    7.47    3.76
   8 -10 -10   42.86    4.33
  -8  10  10   33.03    4.43
   7 -10 -10    6.58    2.28
   6 -10 -10    8.78    3.07
  -6  10  10    5.21    2.85
   5 -10 -10   13.45    2.74
  -5  10  10   16.77    2.58
   4 -10 -10   22.47    3.76
   4 -10 -10   32.78    3.99
  -4  10  10   24.81    3.32
   3 -10 -10    2.47    3.05
   3 -10 -10    0.68    1.91
   2 -10 -10   18.87    3.01
   2 -10 -10   16.12    2.87
  -1  10  10   16.25    2.49
   7 -11 -10   24.82    3.98
  -7  11  10   18.95    3.66
   6 -11 -10    3.85    2.23
  -6  11  10    0.13    2.90
   5 -11 -10   16.36    3.65
  -5  11  10   16.89    3.32
   4 -11 -10   21.01    4.00
   2 -12  11   21.27    4.06
   1  11 -11   12.34    3.67
   0  11 -11   15.35    3.76
   0 -11  11    9.71    2.62
  -1  11 -11    0.24    2.82
   1 -11  11   -0.34    2.01
   1 -11  11    1.77    3.04
  -2  11 -11    9.77    3.15
   2 -11  11   19.11    3.55
   2 -11  11   15.88    3.23
  -3  11 -11   15.46    3.39
   3 -11  11   12.37    3.74
   5  10 -11    1.76    2.10
   5  10 -11    1.83    1.69
   4  10 -11   12.34    2.08
   4  10 -11   16.41    2.34
   3  10 -11   19.82    2.33
   3  10 -11   21.73    4.23
   3  10 -11   21.45    2.83
   2  10 -11    3.79    1.54
   2  10 -11   -0.02    3.07
   1  10 -11    7.31    2.42
   1  10 -11    6.57    1.54
  -1 -10  11   13.50    3.37
   0  10 -11   22.80    2.37
   0  10 -11   34.77    3.56
   0 -10  11   33.90    4.23
   1 -10  11   10.00    3.06
   1 -10  11   11.81    3.68
  -2  10 -11    7.61    2.97
   2 -10  11    4.76    2.87
   2 -10  11    2.44    3.15
   3 -10  11   21.82    3.70
   3 -10  11   27.74    4.45
   4 -10  11   14.21    3.43
   4 -10  11   13.29    3.82
   6   9 -11   27.44    2.79
   5   9 -11    5.47    2.07
   5   9 -11    6.80    3.67
   5   9 -11    4.21    1.89
   4   9 -11   12.29    3.76
   4   9 -11    6.18    1.73
   4   9 -11    6.44    1.69
   3   9 -11   45.17    3.07
   3   9 -11   43.93    3.67
   3   9 -11   44.35    4.88
   2   9 -11   35.37    2.74
   2   9 -11   30.34    4.14
  -2  -9  11   27.15    3.85
   1   9 -11    0.59    1.30
   1   9 -11   -1.92    2.43
  -1  -9  11    1.22    2.55
   0   9 -11   37.49    3.90
   0   9 -11   35.47    2.71
   0  -9  11   36.49    3.96
  -1   9 -11   39.03    2.90
  -1   9 -11   46.20    3.64
   1  -9  11   42.99    4.27
   1  -9  11   46.06    3.73
  -2   9 -11    2.30    1.55
  -2   9 -11    6.53    2.43
   2  -9  11    4.88    2.01
   2  -9  11    2.01    2.84
  -3   9 -11   23.39    3.09
  -3   9 -11   23.46    2.41
   3  -9  11   24.92    3.66
   3  -9  11   24.46    4.12
   4  -9  11   46.60    4.56
   4  -9  11   33.45    4.65
  -5   9 -11    4.80    2.32
   5  -9  11   12.11    3.52
   5  -9  11   11.95    2.97
  -6   9 -11    4.03    2.03
   7   8 -11    4.95    2.08
   6   8 -11   39.46    4.52
   6   8 -11   43.67    3.57
   6   8 -11   39.21    3.30
   5   8 -11   33.85    4.61
   5   8 -11   30.55    2.91
   5   8 -11   36.03    3.01
   4   8 -11    0.37    1.46
   4   8 -11    0.22    2.84
   4   8 -11   -2.94    1.51
   3   8 -11   31.99    3.94
   3   8 -11   29.65    2.50
   3   8 -11   33.07    2.95
   2   8 -11   66.91    5.25
   2   8 -11   69.35    3.32
  -2  -8  11   81.17    5.67
   1   8 -11    7.94    2.61
   1   8 -11   10.52    1.90
  -1  -8  11   10.90    2.38
   0   8 -11   15.33    2.80
   0   8 -11   14.92    1.89
   0  -8  11   15.16    3.27
  -1   8 -11   69.63    3.62
  -1   8 -11   63.25    4.50
   1  -8  11   64.00    4.85
   1  -8  11   68.02    4.69
  -2   8 -11   36.48    3.41
  -2   8 -11   43.03    3.07
   2  -8  11   44.64    4.24
   2  -8  11   34.83    4.49
  -3   8 -11    5.52    1.76
  -3   8 -11    3.81    1.97
   3  -8  11    3.62    2.94
   3  -8  11    2.96    1.90
  -4   8 -11   42.30    3.42
   4  -8  11   38.19    4.72
   4  -8  11   46.19    4.45
  -5   8 -11   27.02    2.84
   5  -8  11   32.39    4.06
   5  -8  11   29.36    4.34
  -6   8 -11   -3.01    1.97
   6  -8  11   -0.77    3.03
   6  -8  11    4.30    3.30
   8   7 -11   20.66    2.37
   7   7 -11   -2.05    3.33
   7   7 -11    0.60    1.77
   6   7 -11   37.97    4.78
   6   7 -11   31.63    2.77
   6   7 -11   28.69    2.40
   5   7 -11   44.41    4.22
   5   7 -11   45.30    2.73
   5   7 -11   48.54    3.30
   4   7 -11   17.15    2.76
   4   7 -11   19.01    2.11
   4   7 -11   14.12    2.02
   3   7 -11   18.42    3.15
   3   7 -11   13.43    1.90
   2   7 -11   72.95    4.41
   2   7 -11   76.20    3.69
  -2  -7  11   71.24    5.49
   1   7 -11   31.84    2.67
   1   7 -11   31.75    3.39
  -1  -7  11   33.53    3.56
   0   7 -11    1.37    1.36
   0   7 -11    1.64    1.90
   0  -7  11   -0.66    1.68
   0  -7  11   -0.13    2.00
  -1   7 -11   73.70    4.39
  -1   7 -11   71.35    3.74
   1  -7  11   74.60    4.12
   1  -7  11   61.85    4.70
  -2   7 -11   67.35    3.68
   2  -7  11   59.85    4.57
   2  -7  11   56.71    5.21
  -3   7 -11    3.66    1.66
   3  -7  11    6.01    3.01
   3  -7  11    3.90    2.51
  -4   7 -11   32.20    2.93
   4  -7  11   29.31    3.69
   4  -7  11   27.97    3.60
  -5   7 -11   51.25    3.89
   5  -7  11   52.32    4.70
   5  -7  11   50.37    4.67
  -6   7 -11    9.02    1.92
   6  -7  11    9.53    2.69
   6  -7  11   10.88    2.63
   8   6 -11   32.40    3.12
   8   6 -11   33.42    4.81
   7   6 -11   16.17    2.34
   7   6 -11    8.56    3.57
   6   6 -11    8.25    1.74
   6   6 -11    8.78    2.55
   6   6 -11    7.62    1.86
   5   6 -11   65.30    3.49
   5   6 -11   65.63    3.44
   5   6 -11   54.92    5.07
   4   6 -11   31.97    3.67
   4   6 -11   32.95    2.65
   4   6 -11   31.38    2.51
   3   6 -11    1.11    1.35
   3   6 -11   -0.37    2.01
   2   6 -11   48.00    2.71
   2   6 -11   52.05    3.50
  -2  -6  11   56.71    4.13
   1   6 -11   83.31    3.81
   1   6 -11   97.59    4.97
  -1  -6  11   99.08    5.99
   0   6 -11    3.40    1.42
   0   6 -11    1.37    1.65
   0  -6  11    2.77    1.89
   0  -6  11    0.48    2.11
  -1   6 -11   15.67    2.06
  -1   6 -11   17.50    1.99
   1  -6  11   15.78    3.01
   1  -6  11   19.33    2.72
  -2   6 -11   93.52    4.45
   2  -6  11   92.06    6.04
   2  -6  11   96.50    4.78
  -3   6 -11   30.26    2.81
   3  -6  11   27.60    3.83
   3  -6  11   24.68    3.22
  -4   6 -11    7.21    2.12
   4  -6  11    6.13    2.90
   4  -6  11    5.34    2.50
  -5   6 -11   48.23    3.85
   5  -6  11   52.35    4.76
   5  -6  11   44.78    4.84
  -6   6 -11   35.40    3.38
   6  -6  11   26.14    4.09
   6  -6  11   31.50    3.98
   7  -6  11   -3.95    3.07
   7  -6  11    3.43    2.30
   9   5 -11    3.31    2.17
   8   5 -11   27.67    2.87
  -8  -5  11   17.94    2.42
   7   5 -11   35.52    2.58
  -7  -5  11   32.66    2.52
   6   5 -11    1.89    1.15
  -6  -5  11    1.76    1.13
   5   5 -11   25.67    2.13
   5   5 -11   25.49    2.33
  -5  -5  11   29.78    2.42
   4   5 -11   58.08    2.95
   4   5 -11   61.04    4.49
  -4  -5  11   58.08    2.92
   3   5 -11   15.00    2.14
   3   5 -11   17.34    1.94
  -3  -5  11   16.44    1.94
   2   5 -11   28.62    2.08
   2   5 -11   27.71    2.54
  -2  -5  11   24.03    2.00
  -2  -5  11   29.16    3.45
   1   5 -11   63.97    3.87
   1   5 -11   60.86    3.08
  -1  -5  11   66.04    3.35
  -1  -5  11   60.14    4.27
   0   5 -11   51.36    3.26
   0   5 -11   47.97    3.04
   0  -5  11   51.97    3.46
   0  -5  11   45.49    3.81
   0  -5  11   48.70    3.06
  -1   5 -11    1.80    1.46
  -1   5 -11    4.71    1.47
   1  -5  11    2.58    1.48
   1  -5  11    3.15    1.77
   1  -5  11    4.98    2.38
  -2   5 -11   59.80    3.48
   2  -5  11   57.81    3.90
   2  -5  11   43.63    3.93
   2  -5  11   51.99    3.36
  -3   5 -11   49.97    3.49
   3  -5  11   50.95    4.08
   3  -5  11   52.92    4.85
  -4   5 -11    0.94    1.86
   4  -5  11    1.20    2.29
   4  -5  11    2.72    2.58
  -5   5 -11   23.73    2.59
   5  -5  11   22.01    3.25
   5  -5  11   25.57    3.72
  -6   5 -11   42.76    3.73
   6  -5  11   35.18    3.99
   6  -5  11   35.07    4.31
   7  -5  11    3.51    3.05
   7  -5  11    5.63    3.09
  10   4 -11   25.58    3.22
 -10  -4  11   22.59    2.93
   9   4 -11    8.03    2.33
  -9  -4  11    9.33    2.27
   8   4 -11    2.44    1.84
  -8  -4  11    5.06    1.90
   7   4 -11   32.43    2.42
  -7  -4  11   32.72    2.45
   6   4 -11   36.38    2.47
  -6  -4  11   41.67    2.51
   5   4 -11    2.30    1.41
  -5  -4  11    2.61    1.36
   4   4 -11   59.77    3.18
  -4  -4  11   60.63    3.21
   3   4 -11   53.62    3.07
  -3  -4  11   58.32    3.09
   2   4 -11    4.31    1.44
   2   4 -11    5.29    1.32
  -2  -4  11    5.66    1.85
  -2  -4  11    5.10    1.47
   1   4 -11   42.86    2.81
   1   4 -11   39.24    2.58
  -1  -4  11   42.03    2.75
  -1  -4  11   41.25    3.99
   0   4 -11   72.10    3.67
   0   4 -11   73.57    3.71
   0  -4  11   73.37    4.60
   0  -4  11   78.28    3.92
   0  -4  11   71.31    3.70
  -1   4 -11    7.96    1.45
  -1   4 -11    8.31    1.73
   1  -4  11    9.68    2.50
   1  -4  11   12.09    1.89
   1  -4  11   11.90    2.06
  -2   4 -11   17.12    2.18
   2  -4  11   15.68    2.04
   2  -4  11   14.37    2.55
   2  -4  11   21.44    2.33
  -3   4 -11   73.91    4.05
   3  -4  11   61.94    3.93
   3  -4  11   67.39    5.07
   3  -4  11   65.10    3.77
  -4   4 -11   18.92    2.62
   4  -4  11   17.11    2.53
   4  -4  11   18.34    2.85
   4  -4  11   21.52    2.94
  -5   4 -11    0.46    2.00
   5  -4  11   -0.82    1.62
   5  -4  11    1.56    1.89
  -6   4 -11   24.30    3.22
   6  -4  11   18.84    3.55
   6  -4  11   20.50    3.29
   7  -4  11   12.95    3.26
   7  -4  11   23.99    3.58
 -11  -3  11    1.75    1.64
  10   3 -11   26.41    3.02
 -10  -3  11   18.61    2.79
   9   3 -11   40.02    3.53
  -9  -3  11   39.60    3.26
   8   3 -11    4.71    1.87
  -8  -3  11    1.03    1.76
   7   3 -11   20.60    2.02
  -7  -3  11   21.73    2.08
   6   3 -11   70.61    3.34
  -6  -3  11   71.33    3.33
   5   3 -11   25.86    2.24
  -5  -3  11   27.43    2.33
   4   3 -11   12.38    1.75
  -4  -3  11   11.10    1.72
   3   3 -11   75.62    3.59
  -3  -3  11   77.55    3.61
   2   3 -11   65.51    3.14
  -2  -3  11   72.33    3.22
   1   3 -11    1.12    1.15
   1   3 -11    0.41    0.90
  -1  -3  11    1.39    1.36
  -1  -3  11    2.23    1.33
  -1  -3  11    1.09    0.98
   0   3 -11   67.42    3.57
   0   3 -11   76.27    3.48
   0  -3  11   71.92    3.71
   0  -3  11   72.38    4.47
   0  -3  11   71.74    3.66
  -1   3 -11   61.44    3.47
   1  -3  11   66.60    4.69
   1  -3  11   60.74    3.53
   1  -3  11   61.08    3.58
  -2   3 -11    2.56    1.18
   2  -3  11    1.70    1.65
   2  -3  11    2.21    2.21
   2  -3  11    2.48    1.64
  -3   3 -11   31.72    2.89
   3  -3  11   26.66    2.82
   3  -3  11   30.48    3.30
   3  -3  11   31.20    2.94
  -4   3 -11   49.86    3.82
   4  -3  11   50.66    4.74
   4  -3  11   53.26    3.95
   4  -3  11   55.61    3.99
  -5   3 -11    6.30    2.29
   5  -3  11    8.24    2.36
   5  -3  11    7.43    2.38
   5  -3  11    6.55    2.70
  -6   3 -11    2.92    2.47
   6  -3  11    5.18    2.01
   6  -3  11    2.58    2.42
   6  -3  11    3.57    2.58
  11   2 -11    5.24    1.95
 -11  -2  11    6.94    1.97
  10   2 -11   12.74    2.61
 -10  -2  11   11.23    2.48
   9   2 -11   65.63    4.06
  -9  -2  11   56.64    3.92
   8   2 -11   42.85    3.24
  -8  -2  11   37.74    3.14
   7   2 -11    3.59    1.62
  -7  -2  11    3.15    1.60
   6   2 -11   67.71    3.53
  -6  -2  11   68.63    3.54
   5   2 -11   95.63    4.29
   5   2 -11  100.11    4.22
  -5  -2  11   99.07    4.23
   4   2 -11   11.51    1.56
   4   2 -11   10.72    1.66
  -4  -2  11   14.60    1.83
   3   2 -11   38.95    2.64
   3   2 -11   36.09    2.27
  -3  -2  11   34.85    2.22
   2   2 -11  133.70    4.88
  -2  -2  11  121.33    4.78
   1   2 -11   25.65    2.16
   1   2 -11   26.09    2.03
  -1  -2  11   30.63    3.43
  -1  -2  11   30.18    2.15
  -1  -2  11   24.46    2.03
   0   2 -11   22.39    1.82
   0   2 -11   22.16    1.98
   0  -2  11   22.62    2.11
   0  -2  11   22.83    2.13
   0  -2  11   21.11    2.95
  -1   2 -11   92.57    4.06
   1  -2  11   88.58    4.21
   1  -2  11   97.73    5.58
   1  -2  11   96.84    4.16
  -2   2 -11   47.81    3.36
   2  -2  11   44.13    4.21
   2  -2  11   54.81    3.30
   2  -2  11   54.87    3.14
  -3   2 -11   -3.28    1.71
   3  -2  11   -0.31    1.51
   3  -2  11   -1.77    2.06
   3  -2  11   -3.15    1.70
  -4   2 -11   52.85    3.89
   4  -2  11   61.13    4.09
   4  -2  11   43.65    4.33
   4  -2  11   47.88    3.72
  -5   2 -11   37.63    3.26
   5  -2  11   35.42    3.16
   5  -2  11   29.31    3.17
   5  -2  11   24.85    3.54
  -6   2 -11    0.19    1.67
   6  -2  11   -1.39    1.63
   7  -2  11   10.77    3.12
  11   1 -11   34.83    3.37
 -11  -1  11   35.11    3.41
  10   1 -11   -2.09    1.33
 -10  -1  11   -0.23    1.93
   9   1 -11   65.45    3.51
  -9  -1  11   66.56    4.00
   8   1 -11   77.71    3.95
  -8  -1  11   71.16    3.93
   7   1 -11   12.52    1.64
   7   1 -11   10.41    1.53
  -7  -1  11    9.99    1.54
   6   1 -11   29.81    2.43
   6   1 -11   29.90    2.34
  -6  -1  11   30.37    2.48
   5   1 -11  113.38    4.63
   5   1 -11  116.08    5.02
  -5  -1  11  115.83    4.67
   4   1 -11   73.40    3.45
   4   1 -11   67.75    3.57
  -4  -1  11   66.77    3.38
   3   1 -11   10.65    1.69
   3   1 -11   12.80    1.82
  -3  -1  11   15.58    1.85
   2   1 -11  117.01    5.37
   2   1 -11  111.82    4.51
  -2  -1  11  112.53    4.52
  -2  -1  11  124.53    4.46
   1   1 -11  102.12    4.23
  -1  -1  11  112.66    4.13
  -1  -1  11   93.58    4.38
   0   1 -11    0.55    1.00
   0  -1  11   -0.21    1.82
   0  -1  11   -0.01    1.47
   0  -1  11    1.45    1.05
  -1   1 -11   55.34    3.03
   1  -1  11   59.25    4.38
   1  -1  11   55.01    3.00
  -2   1 -11   96.84    4.71
   2  -1  11  107.80    5.86
   2  -1  11   99.22    4.42
   2  -1  11   95.45    4.44
  -3   1 -11   17.72    2.57
   3  -1  11   18.42    3.00
   3  -1  11   15.15    2.09
   3  -1  11   18.25    2.64
  -4   1 -11   17.15    2.69
   4  -1  11   15.82    2.70
   4  -1  11   18.83    3.05
  -5   1 -11   53.53    4.43
   5  -1  11   61.20    4.76
  -6   1 -11   17.16    3.11
   6  -1  11   15.02    3.16
  12   0 -11   16.88    2.95
  11   0 -11   32.07    3.28
 -11   0  11   45.59    3.94
  10   0 -11   15.23    2.48
 -10   0  11   12.17    2.44
   9   0 -11   38.50    3.20
  -9   0  11   38.95    3.27
   8   0 -11   74.05    3.56
   8   0 -11   73.13    3.90
  -8   0  11   75.70    3.60
   7   0 -11   34.63    2.34
   7   0 -11   33.23    2.28
  -7   0  11   29.49    2.29
   6   0 -11    0.14    1.23
   6   0 -11    2.04    1.35
  -6   0  11    0.57    1.35
   5   0 -11  125.04    5.32
   5   0 -11  119.86    4.90
  -5   0  11  136.25    5.06
   4   0 -11  105.81    4.17
   4   0 -11  100.85    4.83
  -4   0  11  107.40    4.18
   3   0 -11    2.82    1.29
   3   0 -11    1.27    1.01
  -3   0  11   -0.32    1.23
   2   0 -11   70.79    4.07
   2   0 -11   69.22    3.50
  -2   0  11   69.19    2.94
  -2   0  11   73.58    3.60
   1   0 -11  157.38    5.94
  -1   0  11  157.99    5.97
   0   0 -11   31.87    2.69
   0   0  11   31.94    2.87
   0   0  11   33.35    2.05
  -1   0 -11   12.99    2.07
   1   0  11   17.82    2.28
  -2   0 -11  100.27    4.51
   2   0  11   97.60    4.52
  -3   0 -11   48.89    3.86
   3   0  11   50.63    3.97
   3   0  11   61.32    4.46
  -4   0 -11   -0.26    2.03
   4   0  11   -0.97    1.92
   4   0  11    0.65    2.31
  -5   0 -11   30.22    3.47
   5   0  11   26.23    3.36
  -6   0 -11   40.07    4.09
   6   0  11   35.40    3.97
  12  -1 -11    3.00    2.25
 -12   1  11    1.41    2.33
  11  -1 -11   61.78    4.15
  11  -1 -11   49.66    3.90
 -11   1  11   47.42    4.02
  10  -1 -11   15.61    2.30
  10  -1 -11   16.66    2.26
  10  -1 -11   20.27    2.15
 -10   1  11   20.91    2.33
   9  -1 -11    1.22    1.06
   9  -1 -11   -1.22    1.51
  -9   1  11    1.19    1.70
   8  -1 -11   55.34    3.00
   8  -1 -11   55.62    3.51
  -8   1  11   53.17    3.00
   7  -1 -11   82.47    3.81
   7  -1 -11   74.99    4.04
  -7   1  11   75.05    3.80
   6  -1 -11    7.26    1.31
   6  -1 -11   10.13    1.53
  -6   1  11    7.77    1.36
   5  -1 -11   54.77    3.06
   5  -1 -11   54.92    2.74
  -5   1  11   48.34    2.70
   4  -1 -11  157.03    6.62
   4  -1 -11  156.57    5.76
  -4   1  11  154.98    5.77
   3  -1 -11   53.97    3.08
   3  -1 -11   54.93    3.52
  -3   1  11   55.90    3.10
   2  -1 -11   16.18    2.34
   2  -1 -11   16.12    2.01
  -2   1  11   15.82    1.68
  -2   1  11   16.43    2.00
   1  -1 -11   88.15    3.81
   1  -1 -11   82.92    4.77
  -1   1  11   81.34    4.01
   0  -1 -11  103.21    4.46
   0  -1 -11  111.98    4.35
   0   1  11  107.73    4.56
  -1  -1 -11    3.43    1.70
   1   1  11    4.61    1.89
  -2  -1 -11   53.31    3.76
   2   1  11   55.95    3.92
  -3  -1 -11   62.46    4.18
   3   1  11   60.73    4.26
  -4  -1 -11   16.14    2.90
   4   1  11   16.59    2.96
  -5  -1 -11   10.15    2.81
   5   1  11   10.40    2.89
  12  -2 -11   -0.69    2.10
 -12   2  11   -0.46    2.24
  11  -2 -11   15.83    2.09
  11  -2 -11   18.34    2.73
 -11   2  11   16.64    2.20
  10  -2 -11   43.47    2.89
  10  -2 -11   45.14    3.68
 -10   2  11   39.09    2.91
   9  -2 -11   14.13    2.09
   9  -2 -11   14.68    2.30
  -9   2  11   15.23    2.18
   8  -2 -11   13.87    1.95
   8  -2 -11   12.77    2.10
  -8   2  11   13.35    1.99
   7  -2 -11   63.16    3.41
   7  -2 -11   62.76    3.50
  -7   2  11   68.87    3.50
   6  -2 -11   56.34    3.48
   6  -2 -11   47.97    2.97
  -6   2  11   52.76    3.11
   5  -2 -11   -0.68    1.23
   5  -2 -11    1.19    1.53
  -5   2  11    0.10    1.27
   4  -2 -11   76.32    3.60
   4  -2 -11   73.54    4.19
  -4   2  11   75.18    3.66
   3  -2 -11   60.52    3.20
   3  -2 -11   49.41    3.32
  -3   2  11   58.24    3.21
  -3   2  11   60.45    3.14
   2  -2 -11   19.39    1.89
   2  -2 -11   15.75    2.48
  -2   2  11   17.21    1.81
  -2   2  11   15.12    1.58
   1  -2 -11   63.42    4.40
   1  -2 -11   69.29    3.35
  -1   2  11   68.82    3.37
   0  -2 -11   79.41    3.79
   0  -2 -11   83.22    4.17
   0   2  11   87.31    4.29
  -1  -2 -11   11.16    2.20
   1   2  11   10.73    2.25
  -2  -2 -11   12.17    2.40
   2   2  11   14.98    2.57
  -3  -2 -11   41.96    3.26
   3   2  11   43.58    3.38
  -4  -2 -11   21.07    2.62
   4   2  11   27.55    3.00
  -5  -2 -11   -1.11    2.38
   5   2  11   -2.74    2.60
  12  -3 -11    6.77    2.68
 -12   3  11   13.72    2.66
  11  -3 -11   -0.08    2.11
  11  -3 -11    1.90    1.81
 -11   3  11    0.45    1.88
  10  -3 -11   28.02    3.04
  10  -3 -11   25.07    2.55
 -10   3  11   21.62    2.54
   9  -3 -11   33.69    2.81
   9  -3 -11   34.69    2.46
  -9   3  11   35.22    2.53
   8  -3 -11    2.01    1.07
   8  -3 -11   -0.36    1.72
  -8   3  11    2.70    1.24
   7  -3 -11   26.45    2.49
   7  -3 -11   35.80    2.64
  -7   3  11   34.52    2.67
   6  -3 -11   46.24    3.46
   6  -3 -11   48.99    2.94
  -6   3  11   49.13    3.01
   5  -3 -11   18.30    2.37
   5  -3 -11   17.88    1.78
  -5   3  11   21.36    1.95
  -5   3  11   18.74    2.38
   4  -3 -11    6.59    1.50
   4  -3 -11    5.09    1.83
  -4   3  11    3.75    1.52
  -4   3  11    6.07    1.60
   3  -3 -11   77.85    3.74
   3  -3 -11   75.66    4.54
  -3   3  11   77.71    3.78
  -3   3  11   77.03    3.72
   2  -3 -11   26.40    2.71
   2  -3 -11   29.75    2.62
  -2   3  11   25.69    2.40
  -2   3  11   29.75    2.13
   1  -3 -11    6.53    2.28
   1  -3 -11    6.63    1.66
   1  -3 -11    8.32    1.52
  -1   3  11   10.09    1.60
   0  -3 -11   59.70    3.70
   0  -3 -11   62.21    3.49
   0   3  11   68.12    3.88
  -1  -3 -11   40.23    2.91
   1   3  11   38.00    2.96
  -2  -3 -11   -2.68    1.81
   2   3  11    1.53    2.16
  -3  -3 -11   13.60    2.73
   3   3  11   12.60    2.77
  -4  -3 -11   30.11    3.57
   4   3  11   37.24    3.86
  -5  -3 -11    1.49    2.36
  12  -4 -11   22.28    2.83
 -12   4  11   21.33    2.85
 -12   4  11   18.42    5.02
  11  -4 -11    5.58    2.42
 -11   4  11    4.57    2.04
  10  -4 -11    6.45    2.31
 -10   4  11    8.55    1.73
   9  -4 -11   53.75    4.16
   9  -4 -11   52.50    3.37
  -9   4  11   55.94    3.49
   8  -4 -11   20.92    1.95
   8  -4 -11   23.24    2.51
  -8   4  11   27.59    3.66
  -8   4  11   21.23    2.03
   7  -4 -11    3.09    1.41
   7  -4 -11    0.92    1.89
  -7   4  11    3.04    1.49
  -7   4  11    3.78    2.27
   6  -4 -11   33.54    2.62
   6  -4 -11   31.68    3.24
  -6   4  11   35.73    3.29
  -6   4  11   30.54    2.65
   5  -4 -11   56.11    3.15
   5  -4 -11   59.29    4.00
  -5   4  11   56.86    3.27
  -5   4  11   55.68    3.76
   4  -4 -11    7.04    1.30
   4  -4 -11    8.41    2.11
  -4   4  11    6.64    1.72
  -4   4  11    6.36    1.34
   3  -4 -11   47.24    3.87
   3  -4 -11   50.77    3.06
  -3   4  11   49.52    3.10
  -3   4  11   49.15    3.00
   2  -4 -11   61.52    4.05
   2  -4 -11   66.64    3.60
  -2   4  11   69.09    3.63
   1  -4 -11   12.39    2.05
   1  -4 -11   11.87    2.83
   1  -4 -11    9.49    1.92
  -1   4  11   11.94    2.07
   0  -4 -11   14.73    2.20
   0  -4 -11   11.19    2.14
   0   4  11   14.62    2.40
  -1  -4 -11   43.14    3.32
  -1  -4 -11   41.11    3.04
   1   4  11   40.34    3.08
  -2  -4 -11   17.71    2.77
   2   4  11   19.34    2.47
  -3  -4 -11    0.13    1.58
   3   4  11    0.30    1.69
  -4  -4 -11   20.00    2.76
   4   4  11   18.78    2.91
  12  -5 -11   43.45    4.51
 -12   5  11   32.56    3.26
  11  -5 -11   32.26    3.69
 -11   5  11   38.85    5.52
 -11   5  11   35.87    3.13
  10  -5 -11    0.05    2.21
 -10   5  11    1.54    3.20
 -10   5  11   -2.76    1.69
   9  -5 -11   55.12    4.22
  -9   5  11   49.54    3.38
  -9   5  11   49.40    4.43
   8  -5 -11   65.11    4.48
  -8   5  11   60.59    3.55
  -8   5  11   66.58    5.14
   7  -5 -11   13.86    2.54
  -7   5  11   11.38    1.90
  -7   5  11   14.10    2.41
   6  -5 -11   13.24    2.38
   6  -5 -11   12.77    1.80
  -6   5  11   12.34    1.92
  -6   5  11   12.28    2.50
   5  -5 -11   76.83    3.56
   5  -5 -11   86.31    4.60
  -5   5  11   81.61    4.17
  -5   5  11   82.46    3.65
   4  -5 -11   51.54    3.13
   4  -5 -11   51.52    3.58
  -4   5  11   46.23    2.98
  -4   5  11   55.52    3.23
   3  -5 -11    4.38    1.71
   3  -5 -11    3.95    1.59
  -3   5  11    3.69    1.46
  -3   5  11    8.55    1.79
   2  -5 -11   46.49    4.35
   2  -5 -11   57.32    3.02
   1  -5 -11   50.63    3.29
   1  -5 -11   52.41    3.51
   1  -5 -11   54.40    4.66
  -1   5  11   54.95    3.60
   0  -5 -11    3.02    1.93
   0  -5 -11    1.85    1.31
   0   5  11   -0.25    1.88
   0   5  11    2.87    1.80
  -1  -5 -11   17.31    2.63
   1   5  11   21.82    2.87
   1   5  11   20.09    2.46
   2   5  11   31.11    2.95
   2   5  11   33.40    3.60
   3   5  11    6.02    2.16
   3   5  11    2.61    1.97
  12  -6 -11   16.31    2.75
 -12   6  11   18.87    2.31
  11  -6 -11   70.09    5.26
 -11   6  11   69.14    4.17
 -11   6  11   56.55    5.52
  10  -6 -11   17.73    2.65
 -10   6  11   14.92    2.24
 -10   6  11   22.37    4.20
   9  -6 -11   13.19    2.80
  -9   6  11    8.83    2.03
  -9   6  11    7.75    3.22
   8  -6 -11   72.99    4.93
  -8   6  11   69.47    3.43
  -8   6  11   70.96    5.46
   7  -6 -11   51.79    4.17
  -7   6  11   48.51    2.81
  -7   6  11   49.97    4.49
   6  -6 -11   -0.03    1.46
  -6   6  11   -1.40    1.40
  -6   6  11   -1.77    1.33
   5  -6 -11   68.87    4.72
  -5   6  11   63.04    3.49
  -5   6  11   69.72    4.32
   4  -6 -11   81.17    5.18
  -4   6  11   79.29    4.36
  -4   6  11   78.00    3.91
   3  -6 -11   13.33    2.93
  -3   6  11   11.74    2.04
   2  -6 -11   21.15    2.83
   2  -6 -11   18.70    3.28
  -2   6  11   25.20    2.55
   1  -6 -11   58.03    5.10
   1  -6 -11   62.92    4.32
  -1   6  11   57.09    3.37
   0  -6 -11   20.99    2.89
   0   6  11   26.58    2.97
  -1  -6 -11   10.75    2.60
   1   6  11    4.94    2.39
   1   6  11   12.43    2.67
   2   6  11   32.38    3.52
   2   6  11   21.33    3.33
  11  -7 -11   52.88    4.88
 -11   7  11   46.65    3.71
 -11   7  11   45.06    5.62
  10  -7 -11   33.79    3.51
 -10   7  11   34.54    4.20
 -10   7  11   36.98    3.21
   9  -7 -11   -2.87    2.27
  -9   7  11   -2.95    2.72
  -9   7  11    0.34    1.61
   8  -7 -11   38.90    4.02
  -8   7  11   31.82    2.73
  -8   7  11   44.38    4.45
   7  -7 -11  100.50    5.69
  -7   7  11   79.85    5.42
  -7   7  11   81.06    4.04
   6  -7 -11   10.61    2.81
  -6   7  11    7.58    2.50
  -6   7  11   11.40    1.88
   5  -7 -11   18.46    3.07
  -5   7  11   17.58    2.13
  -5   7  11   16.30    2.57
   4  -7 -11   83.01    5.64
  -4   7  11   87.66    4.18
   3  -7 -11   44.69    4.43
  -3   7  11   43.84    3.12
   2  -7 -11   -0.78    2.16
   2  -7 -11    3.90    2.92
  -2   7  11    2.71    1.85
   1  -7 -11   51.35    5.29
   1  -7 -11   56.08    4.47
  -1   7  11   50.68    3.79
   0  -7 -11   37.20    3.83
   0   7  11   47.73    3.93
  -1  -7 -11   -1.02    2.44
   1   7  11   -3.91    2.22
 -11   8  11   12.85    2.34
  10  -8 -11   35.96    3.73
 -10   8  11   38.32    3.20
 -10   8  11   36.11    5.09
   9  -8 -11   12.82    3.08
  -9   8  11   17.16    3.97
  -9   8  11   10.88    1.94
   8  -8 -11   12.54    2.95
  -8   8  11    7.97    3.34
  -8   8  11   13.21    1.99
   7  -8 -11   66.87    5.10
  -7   8  11   59.93    5.06
  -7   8  11   60.92    3.46
   6  -8 -11   38.70    4.09
  -6   8  11   42.58    3.99
  -6   8  11   39.77    2.87
   5  -8 -11   -0.83    2.55
  -5   8  11    0.05    1.40
   4  -8 -11   45.20    4.49
  -4   8  11   43.89    3.10
  -4   8  11   42.31    3.77
   3  -8 -11   50.87    4.43
   3  -8 -11   59.59    4.16
  -3   8  11   64.08    3.75
   2  -8 -11    9.39    2.86
   2  -8 -11    9.07    2.47
  -2   8  11    6.91    2.16
   1  -8 -11   28.53    3.63
   1  -8 -11   38.41    4.68
  -1   8  11   28.95    3.06
   0  -8 -11   46.26    3.84
   0   8  11   33.96    3.35
   9  -9 -11   20.93    3.52
  -9   9  11   23.14    2.34
  -9   9  11   24.63    4.16
   8  -9 -11    2.02    2.55
  -8   9  11    1.82    2.96
  -8   9  11   -1.15    1.44
   7  -9 -11   27.41    3.74
  -7   9  11   18.16    2.16
  -7   9  11   24.46    3.68
   6  -9 -11   37.26    3.76
  -6   9  11   39.54    2.94
   5  -9 -11   10.77    3.25
  -5   9  11    7.10    1.77
  -5   9  11    8.31    2.62
   4  -9 -11    1.22    1.98
   4  -9 -11   -2.42    2.81
  -4   9  11    0.38    2.05
  -4   9  11    2.85    2.19
   3  -9 -11   59.34    4.88
   3  -9 -11   66.42    4.55
  -3   9  11   64.06    3.89
   2  -9 -11   19.83    2.91
   2  -9 -11   12.49    2.81
  -2   9  11   19.09    2.52
   1  -9 -11    3.29    2.76
  -1   9  11   -1.81    2.07
   8 -10 -11   11.98    3.35
  -8  10  11    7.38    3.36
   7 -10 -11    1.57    1.95
  -7  10  11    0.99    2.16
   6 -10 -11   16.04    3.56
  -6  10  11   13.10    3.10
   5 -10 -11   23.70    3.91
   5 -10 -11   30.55    4.09
  -5  10  11   15.88    3.13
   4 -10 -11   -0.08    1.97
   4 -10 -11    3.98    3.18
   0 -11  12    0.31    2.97
  -1  11 -12    6.74    3.14
   1 -11  12    8.40    3.54
  -2  11 -12   20.29    3.76
   2 -11  12   18.27    4.24
   4  10 -12   15.59    2.16
   4  10 -12   14.82    2.68
   3  10 -12    6.04    2.06
   2  10 -12    6.91    1.82
   2  10 -12    6.16    3.23
   1  10 -12   14.75    1.98
   1  10 -12   19.87    3.63
  -1 -10  12   17.74    3.77
   0  10 -12   12.16    3.21
   0  10 -12   12.06    1.94
   0 -10  12   19.40    3.45
   0 -10  12    9.30    3.35
   1 -10  12   -2.03    2.86
   1 -10  12   -0.80    2.59
  -2  10 -12   19.04    3.30
   2 -10  12   18.57    3.99
   2 -10  12   19.86    3.05
   3 -10  12   16.37    3.69
   3 -10  12   14.33    3.40
   5   9 -12    3.81    1.89
   5   9 -12    0.00    1.95
   4   9 -12   14.52    2.54
   4   9 -12   18.01    4.05
   3   9 -12   14.84    2.12
   3   9 -12   16.96    3.83
   2   9 -12    1.18    1.64
   2   9 -12    3.03    2.24
  -2  -9  12    1.59    2.09
   1   9 -12   17.70    3.42
   1   9 -12   16.65    2.09
  -1  -9  12   24.63    4.01
   0   9 -12   25.75    2.43
   0   9 -12   30.42    3.20
   0  -9  12   30.85    3.72
   0  -9  12   26.40    4.17
  -1   9 -12    5.01    1.72
   1  -9  12    6.76    2.80
   1  -9  12    7.01    3.26
  -2   9 -12    8.89    2.67
  -2   9 -12    9.62    2.06
   2  -9  12   11.17    2.95
   2  -9  12   11.56    3.19
  -3   9 -12   32.78    2.88
   3  -9  12   38.31    4.26
   3  -9  12   27.49    3.89
  -4   9 -12    7.18    1.98
   4  -9  12    7.27    3.23
   4  -9  12   10.12    3.74
  -5   9 -12   -3.22    2.19
   6   8 -12   26.10    3.82
   6   8 -12   35.74    2.77
   5   8 -12    2.42    1.75
   5   8 -12    0.55    3.32
   5   8 -12    2.88    1.93
   4   8 -12   11.46    2.08
   4   8 -12   21.91    3.80
   3   8 -12   42.45    4.44
   2   8 -12   28.55    3.58
   2   8 -12   28.82    2.61
  -2  -8  12   29.68    4.06
   1   8 -12    3.94    1.67
   1   8 -12    2.44    2.51
  -1  -8  12    1.97    2.75
   0   8 -12   50.96    4.26
   0   8 -12   53.06    3.29
   0  -8  12   50.01    4.52
   0  -8  12   49.89    4.57
  -1   8 -12   48.63    3.29
  -1   8 -12   45.19    3.97
   1  -8  12   44.21    3.68
   1  -8  12   45.89    4.94
  -2   8 -12    0.11    1.97
  -2   8 -12    3.39    1.76
   2  -8  12   -2.78    2.00
   2  -8  12   -2.45    2.44
  -3   8 -12   15.05    2.38
   3  -8  12   15.75    3.63
   3  -8  12   15.89    3.36
  -4   8 -12   30.91    3.01
   4  -8  12   18.16    3.65
   4  -8  12   24.07    4.15
  -5   8 -12    7.88    2.25
   5  -8  12   11.23    3.91
   5  -8  12    5.17    3.21
   7   7 -12   10.14    2.28
   7   7 -12    5.01    3.76
   6   7 -12   51.47    3.64
   6   7 -12   50.57    5.22
   5   7 -12   34.41    2.93
   5   7 -12   31.13    4.38
   5   7 -12   32.40    2.91
   4   7 -12   -1.56    1.44
   4   7 -12   -2.73    2.55
   3   7 -12   43.30    3.21
   3   7 -12   53.03    4.69
   2   7 -12   82.25    5.19
   2   7 -12   71.38    3.92
  -2  -7  12   82.87    5.99
   1   7 -12    8.54    2.40
   1   7 -12    6.74    1.44
  -1  -7  12   10.63    3.01
   0   7 -12   35.45    3.37
   0   7 -12   36.22    2.89
   0  -7  12   35.52    4.25
   0  -7  12   36.01    3.51
  -1   7 -12   67.64    3.81
  -1   7 -12   66.32    4.27
   1  -7  12   65.36    4.67
   1  -7  12   66.95    5.69
  -2   7 -12   26.03    2.67
   2  -7  12   24.27    3.28
   2  -7  12   27.14    4.10
  -3   7 -12    8.78    2.12
   3  -7  12    2.71    2.58
   3  -7  12   -2.25    2.67
  -4   7 -12   26.15    2.91
   4  -7  12   31.94    3.92
   4  -7  12   28.53    3.31
  -5   7 -12   21.67    2.49
   5  -7  12   18.30    3.24
   5  -7  12   19.11    3.01
   8   6 -12   23.25    2.83
   8   6 -12   16.31    3.43
   7   6 -12   -1.68    1.74
   7   6 -12    3.56    2.49
   6   6 -12   33.29    2.94
   6   6 -12   36.47    4.44
   5   6 -12   57.19    5.17
   5   6 -12   53.28    3.46
   4   6 -12    9.60    2.81
   4   6 -12    8.05    1.73
   3   6 -12   22.72    3.21
   3   6 -12   21.28    2.32
   2   6 -12   85.37    3.98
   2   6 -12   96.54    5.27
  -2  -6  12   95.68    5.75
   1   6 -12   45.05    3.72
   1   6 -12   43.34    3.13
  -1  -6  12   52.87    5.00
   0   6 -12    5.92    1.77
   0   6 -12    9.09    2.14
   0  -6  12    7.95    2.25
   0  -6  12    7.89    2.90
  -1   6 -12   64.38    3.71
  -1   6 -12   59.18    3.85
   1  -6  12   61.52    4.68
   1  -6  12   61.84    3.81
  -2   6 -12   65.89    3.88
   2  -6  12   60.94    4.78
   2  -6  12   60.21    4.53
  -3   6 -12   -0.77    1.81
   3  -6  12    1.85    2.65
   3  -6  12    0.46    2.39
  -4   6 -12   35.25    3.24
   4  -6  12   26.08    3.62
   4  -6  12   33.15    4.37
  -5   6 -12   45.33    3.95
   5  -6  12   37.37    4.20
   5  -6  12   37.28    4.63
   6  -6  12    8.92    2.62
   6  -6  12    5.47    3.24
   9   5 -12   15.23    2.19
   8   5 -12   31.30    2.75
   7   5 -12    8.60    2.00
  -7  -5  12    9.07    2.04
   6   5 -12   17.95    2.29
  -6  -5  12   14.89    2.17
   5   5 -12   53.19    3.39
  -5  -5  12   55.72    3.39
   4   5 -12   35.10    3.20
   4   5 -12   29.37    2.55
  -4  -5  12   29.33    2.56
   3   5 -12    4.41    2.18
   3   5 -12    3.24    1.66
  -3  -5  12    4.54    1.61
   2   5 -12   83.26    4.66
   2   5 -12   79.64    3.70
  -2  -5  12   72.62    3.62
  -2  -5  12   90.28    5.83
   1   5 -12   83.26    4.00
   1   5 -12   68.26    4.18
  -1  -5  12   74.65    4.93
  -1  -5  12   70.93    3.86
  -1  -5  12   78.35    4.31
   0   5 -12    7.61    1.85
   0   5 -12    7.24    1.80
   0  -5  12    5.70    1.72
   0  -5  12    4.26    1.98
   0  -5  12    7.01    2.74
  -1   5 -12   45.53    3.31
  -1   5 -12   49.52    3.20
   1  -5  12   45.87    4.00
   1  -5  12   51.30    3.74
   1  -5  12   44.71    3.38
  -2   5 -12   81.61    4.30
   2  -5  12   82.87    4.85
   2  -5  12   79.24    5.25
  -3   5 -12   24.98    2.74
   3  -5  12   21.90    3.05
   3  -5  12   25.41    3.40
  -4   5 -12    8.97    2.37
   4  -5  12    8.43    2.62
   4  -5  12    7.62    3.11
  -5   5 -12   48.34    4.07
   5  -5  12   37.12    4.06
   5  -5  12   40.40    4.71
   6  -5  12   27.04    3.06
   6  -5  12   15.71    3.07
 -10  -4  12    7.24    2.47
   9   4 -12    3.21    2.18
  -9  -4  12    3.64    2.06
   8   4 -12   39.22    3.19
  -8  -4  12   30.52    2.92
   7   4 -12   24.75    2.59
  -7  -4  12   23.02    2.50
   6   4 -12   -0.86    1.50
  -6  -4  12   -0.19    1.55
   5   4 -12   59.62    3.49
  -5  -4  12   61.46    3.48
   4   4 -12   55.07    3.33
  -4  -4  12   56.00    3.33
   3   4 -12   10.36    2.15
   3   4 -12    8.29    1.71
  -3  -4  12    7.60    1.39
   2   4 -12   19.65    2.19
   2   4 -12   22.09    2.48
  -2  -4  12   23.41    2.34
   1   4 -12   91.16    4.12
   1   4 -12   91.69    4.54
  -1  -4  12   99.08    4.44
  -1  -4  12   95.61    4.58
  -1  -4  12  102.51    5.64
   0   4 -12   29.79    2.86
   0   4 -12   26.05    2.24
   0  -4  12   29.13    2.67
   0  -4  12   26.32    2.31
   0  -4  12   31.03    3.73
  -1   4 -12    3.06    1.68
   1  -4  12    6.55    2.06
   1  -4  12    8.05    1.99
   1  -4  12    5.77    1.85
  -2   4 -12   65.60    3.90
   2  -4  12   58.80    3.91
   2  -4  12   65.26    4.20
   2  -4  12   60.39    4.50
  -3   4 -12   53.84    3.37
   3  -4  12   59.07    4.22
   3  -4  12   52.73    3.92
   3  -4  12   52.63    5.11
  -4   4 -12   -1.26    1.90
   4  -4  12    1.07    1.60
   4  -4  12    0.24    1.84
  -5   4 -12   12.28    2.75
   5  -4  12   11.25    2.79
   5  -4  12   13.26    2.73
  10   3 -12   24.97    3.15
 -10  -3  12   19.38    2.90
   9   3 -12    2.71    2.07
  -9  -3  12    3.56    2.09
   8   3 -12   11.49    1.88
  -8  -3  12   12.93    1.87
   7   3 -12   54.93    3.50
  -7  -3  12   56.56    3.54
   6   3 -12   18.71    2.26
  -6  -3  12   15.64    2.10
   5   3 -12    8.29    1.75
  -5  -3  12    4.97    1.68
   4   3 -12   59.90    3.12
  -4  -3  12   66.98    3.22
   3   3 -12   35.58    2.82
  -3  -3  12   42.36    2.97
   2   3 -12    0.45    0.99
   2   3 -12    1.47    1.05
  -2  -3  12    1.88    1.11
   1   3 -12   59.79    3.32
   1   3 -12   61.76    3.52
  -1  -3  12   60.56    3.39
  -1  -3  12   59.49    3.53
  -1  -3  12   62.31    4.37
   0   3 -12   54.41    3.48
   0   3 -12   58.73    3.32
   0  -3  12   61.93    3.49
   0  -3  12   63.97    4.86
   0  -3  12   55.93    3.56
  -1   3 -12    7.53    1.92
   1  -3  12    5.03    2.49
   1  -3  12    5.75    1.93
   1  -3  12    9.34    1.87
  -2   3 -12   26.56    2.45
   2  -3  12   25.07    2.43
   2  -3  12   27.49    3.63
   2  -3  12   27.78    2.61
  -3   3 -12   40.35    3.40
   3  -3  12   41.37    3.70
   3  -3  12   37.96    3.52
   3  -3  12   44.08    4.43
  -4   3 -12   15.02    2.58
   4  -3  12   13.78    2.56
   4  -3  12   20.48    3.43
   4  -3  12   13.50    2.59
  -5   3 -12   -0.04    2.38
   5  -3  12    2.65    2.41
   5  -3  12    1.03    2.82
 -11  -2  12   -0.22    1.53
  10   2 -12   28.41    3.18
 -10  -2  12   27.54    3.09
   9   2 -12   31.33    3.00
  -9  -2  12   26.34    3.01
   8   2 -12    1.27    1.75
  -8  -2  12    0.29    1.22
   7   2 -12   31.37    2.45
  -7  -2  12   32.29    2.47
   6   2 -12   72.94    3.47
  -6  -2  12   67.96    3.74
   5   2 -12    8.59    1.83
   5   2 -12   11.99    1.82
  -5  -2  12    8.99    1.87
   4   2 -12   21.71    2.19
   4   2 -12   23.30    2.29
  -4  -2  12   24.84    2.10
   3   2 -12   90.15    4.49
   3   2 -12   85.71    4.12
  -3  -2  12   90.68    4.19
   2   2 -12   22.14    2.29
  -2  -2  12   23.97    2.12
  -2  -2  12   21.45    2.07
   1   2 -12    7.48    1.82
   1   2 -12    7.68    1.45
  -1  -2  12   12.78    2.02
  -1  -2  12   13.15    1.68
   0   2 -12   79.57    4.15
   0  -2  12   84.79    3.94
   0  -2  12   84.64    4.26
   0  -2  12   84.18    5.06
  -1   2 -12   35.03    2.68
   1  -2  12   40.51    2.91
   1  -2  12   43.50    4.29
  -2   2 -12   -0.50    1.76
   2  -2  12    2.29    1.94
   2  -2  12    1.08    1.57
   2  -2  12   -1.43    1.59
  -3   2 -12   32.64    2.87
   3  -2  12   28.52    2.74
   3  -2  12   34.96    3.97
  -4   2 -12   30.33    3.31
   4  -2  12   31.20    3.93
   4  -2  12   28.77    2.89
  -5   2 -12    2.43    2.40
   5  -2  12   -2.71    2.36
   5  -2  12    1.77    2.51
   6  -2  12   12.01    3.07
  11   1 -12    0.77    2.26
 -11  -1  12    4.03    2.42
  10   1 -12   15.43    2.21
 -10  -1  12   14.63    2.16
   9   1 -12   67.50    4.16
  -9  -1  12   63.46    4.08
   8   1 -12   19.45    2.47
  -8  -1  12   24.02    2.62
   7   1 -12    4.89    1.66
  -7  -1  12    0.61    1.64
   6   1 -12   76.38    3.95
   6   1 -12   75.16    3.57
  -6  -1  12   75.65    3.57
   5   1 -12   84.85    4.05
   5   1 -12   77.29    4.16
  -5  -1  12   87.63    4.10
   4   1 -12   -0.07    1.50
   4   1 -12    0.17    1.33
  -4  -1  12   -2.39    0.87
   3   1 -12   65.94    3.59
   3   1 -12   70.44    3.90
  -3  -1  12   67.09    3.63
   2   1 -12   98.85    4.14
  -2  -1  12   89.45    4.07
   1   1 -12   18.99    2.23
   1   1 -12   17.60    1.66
  -1  -1  12   13.30    1.49
  -1  -1  12   18.66    2.26
   0   1 -12   31.97    2.84
   0  -1  12   35.51    3.09
  -1   1 -12   77.47    3.80
   1  -1  12   78.43    5.34
   1  -1  12   71.21    3.82
  -2   1 -12   32.32    3.03
   2  -1  12   31.04    3.14
   2  -1  12   27.57    3.19
  -3   1 -12    2.68    2.20
   3  -1  12    7.54    2.63
   3  -1  12    2.84    2.09
  -4   1 -12   46.67    3.44
   4  -1  12   38.92    3.47
  -5   1 -12   19.41    2.66
   5  -1  12   18.91    2.67
  11   0 -12   17.83    2.81
 -11   0  12   18.82    2.97
  10   0 -12   -0.37    1.94
 -10   0  12    1.60    2.03
   9   0 -12   43.97    2.99
  -9   0  12   47.09    3.14
   8   0 -12   59.13    3.75
   8   0 -12   57.62    3.70
  -8   0  12   72.28    3.92
   7   0 -12    7.68    1.87
   7   0 -12    6.64    1.71
  -7   0  12   10.99    2.04
   6   0 -12   36.31    2.58
   6   0 -12   44.04    3.14
  -6   0  12   44.16    2.68
   5   0 -12  121.13    4.83
   5   0 -12  127.60    5.65
  -5   0  12  119.74    4.83
   4   0 -12   23.08    2.08
   4   0 -12   27.11    2.66
  -4   0  12   26.19    2.17
   3   0 -12   21.22    2.22
   3   0 -12   18.23    2.15
  -3   0  12   18.63    2.26
   2   0 -12  111.81    5.37
   2   0 -12  118.20    4.95
  -2   0  12  115.69    4.99
   1   0 -12   77.64    3.73
  -1   0  12   78.25    3.75
   0   0 -12    2.69    1.72
   0   0  12    0.96    1.73
  -1   0 -12   67.60    3.69
   1   0  12   76.65    3.87
  -2   0 -12   64.36    4.24
   2   0  12   66.30    4.31
  -3   0 -12    5.53    2.41
   3   0  12    6.13    2.50
  -4   0 -12   19.33    2.55
   4   0  12   16.80    2.50
  -5   0 -12   40.48    4.04
   5   0  12   42.21    4.19
  12  -1 -12   18.20    2.85
  11  -1 -12   28.59    3.16
 -11   1  12   45.19    3.77
  10  -1 -12    2.60    1.93
 -10   1  12   -0.73    1.99
   9  -1 -12   18.64    2.47
   9  -1 -12   19.04    2.45
  -9   1  12   25.23    2.72
   8  -1 -12   82.16    4.17
   8  -1 -12   86.84    4.27
  -8   1  12   83.56    4.34
   7  -1 -12   32.24    2.83
   7  -1 -12   30.88    2.90
  -7   1  12   32.65    2.77
   6  -1 -12   17.73    2.15
   6  -1 -12   17.70    2.31
  -6   1  12   12.41    1.99
   5  -1 -12  122.39    5.04
   5  -1 -12  118.79    5.71
  -5   1  12  126.76    5.12
   4  -1 -12   82.76    4.57
   4  -1 -12   82.11    3.97
  -4   1  12   79.79    4.03
   3  -1 -12    1.12    0.98
   3  -1 -12   -1.89    1.57
  -3   1  12    0.64    1.08
   2  -1 -12   70.42    3.74
   2  -1 -12   60.56    3.86
  -2   1  12   72.20    3.81
   1  -1 -12  116.51    5.11
  -1   1  12  121.41    5.20
   0  -1 -12   25.00    2.37
  -1  -1 -12   39.35    3.36
   1   1  12   36.07    3.25
  -2  -1 -12   77.41    4.63
   2   1  12   81.95    4.77
  -3  -1 -12   51.55    3.53
   3   1  12   44.21    3.52
  -4  -1 -12   -0.06    1.72
   4   1  12   -0.28    1.74
  -5  -1 -12   28.15    3.06
  12  -2 -12   13.94    2.59
  11  -2 -12   21.43    2.78
 -11   2  12   24.04    2.90
  10  -2 -12   25.16    2.87
  10  -2 -12   25.14    2.76
 -10   2  12   29.70    2.96
   9  -2 -12    3.08    2.01
   9  -2 -12    4.79    1.38
  -9   2  12    3.88    1.44
   8  -2 -12   69.73    4.20
   8  -2 -12   67.66    3.47
  -8   2  12   70.81    3.57
   7  -2 -12   67.31    4.12
   7  -2 -12   63.61    3.66
  -7   2  12   69.17    3.76
   6  -2 -12    2.58    1.78
   6  -2 -12    0.08    0.98
  -6   2  12   -0.22    1.07
   5  -2 -12   61.76    3.68
   5  -2 -12   64.38    3.21
  -5   2  12   67.41    3.31
   4  -2 -12  108.76    5.43
   4  -2 -12  126.76    5.01
  -4   2  12  119.42    5.01
  -4   2  12  116.36    5.22
   3  -2 -12   21.21    2.08
   3  -2 -12   21.18    2.43
  -3   2  12   24.12    2.18
  -3   2  12   20.80    2.09
   2  -2 -12   17.46    2.81
   2  -2 -12   17.01    2.26
  -2   2  12   16.55    2.29
   1  -2 -12  128.42    5.18
   1  -2 -12  116.62    6.41
   1  -2 -12  123.27    5.08
  -1   2  12  129.06    5.16
   0  -2 -12   39.77    3.35
   0   2  12   48.39    3.54
  -1  -2 -12    1.08    1.35
   1   2  12   -1.54    1.31
  -2  -2 -12   44.84    3.93
   2   2  12   41.14    3.29
  -3  -2 -12   58.02    4.49
   3   2  12   57.33    4.59
  -4  -2 -12    3.13    2.59
   4   2  12    6.11    2.85
  11  -3 -12   15.46    2.37
 -11   3  12   21.68    2.81
  10  -3 -12   36.19    3.53
  10  -3 -12   29.70    2.84
 -10   3  12   37.60    3.15
   9  -3 -12    6.22    2.18
   9  -3 -12    3.96    1.80
  -9   3  12    4.85    1.96
   8  -3 -12   23.54    2.46
   8  -3 -12   20.87    2.83
  -8   3  12   29.58    2.71
   7  -3 -12   67.30    3.44
   7  -3 -12   78.41    4.54
  -7   3  12   72.95    3.54
   6  -3 -12   30.88    2.99
   6  -3 -12   22.59    2.37
  -6   3  12   26.50    2.50
  -6   3  12   23.56    2.93
   5  -3 -12    3.57    1.19
   5  -3 -12    3.94    1.49
  -5   3  12    3.51    1.83
  -5   3  12    2.86    1.25
   4  -3 -12   81.74    3.99
   4  -3 -12   74.68    4.79
  -4   3  12   83.81    4.21
  -4   3  12   84.39    4.08
   3  -3 -12   54.27    3.09
   3  -3 -12   65.16    4.39
  -3   3  12   61.98    3.24
  -3   3  12   58.57    3.28
   2  -3 -12    4.04    1.70
   2  -3 -12    2.85    1.76
  -2   3  12    3.57    1.76
   1  -3 -12   39.08    2.76
   1  -3 -12   40.47    3.52
   1  -3 -12   43.97    3.08
   0  -3 -12   73.82    4.28
   0   3  12   80.19    4.42
  -1  -3 -12    9.68    2.29
   1   3  12   11.14    2.55
  -2  -3 -12   12.94    2.61
   2   3  12   11.19    2.77
  -3  -3 -12   34.98    3.51
   3   3  12   39.89    3.90
  -4  -3 -12   16.06    3.05
  12  -4 -12    5.14    2.60
  11  -4 -12    1.59    2.40
 -11   4  12    4.62    2.14
 -11   4  12    0.85    3.68
  10  -4 -12   23.83    3.22
 -10   4  12   25.54    2.81
 -10   4  12   29.34    4.62
   9  -4 -12   33.31    3.48
  -9   4  12   26.72    2.48
  -9   4  12   30.39    4.07
   8  -4 -12    1.50    2.02
   8  -4 -12   -1.68    1.46
  -8   4  12    0.85    1.74
  -8   4  12   -1.86    2.31
   7  -4 -12   19.64    2.84
   7  -4 -12   16.52    1.89
  -7   4  12   26.39    2.27
  -7   4  12   24.10    3.35
   6  -4 -12   48.81    2.86
   6  -4 -12   54.12    4.03
  -6   4  12   51.08    3.99
  -6   4  12   46.41    2.88
   5  -4 -12    3.34    1.61
   5  -4 -12    5.09    1.69
  -5   4  12    5.23    1.76
  -5   4  12    5.13    2.01
   4  -4 -12   36.88    2.94
   4  -4 -12   38.88    3.83
  -4   4  12   42.08    3.05
  -4   4  12   35.81    3.05
   3  -4 -12   62.02    4.60
   3  -4 -12   62.73    3.29
  -3   4  12   63.12    3.32
   2  -4 -12    6.08    2.54
   2  -4 -12    9.04    1.96
  -2   4  12   10.39    2.12
   1  -4 -12    4.55    1.46
   1  -4 -12    8.37    1.97
   1  -4 -12    7.41    2.95
  -1   4  12    6.23    1.58
   0  -4 -12   54.43    3.82
   0   4  12   51.03    3.91
  -1  -4 -12   21.47    2.80
   1   4  12   23.90    3.08
  -2  -4 -12   -3.79    2.06
   2   4  12    2.21    2.52
   3   4  12   29.15    3.74
  12  -5 -12   13.06    3.12
  11  -5 -12    0.91    2.52
 -11   5  12   -1.73    2.46
 -11   5  12    2.44    2.05
  10  -5 -12   12.39    2.80
 -10   5  12   11.91    2.94
 -10   5  12   12.91    2.34
   9  -5 -12   29.60    3.49
  -9   5  12   32.26    2.95
  -9   5  12   28.85    4.09
   8  -5 -12   17.57    2.51
  -8   5  12   19.48    2.39
  -8   5  12   18.09    3.44
   7  -5 -12    6.82    2.37
  -7   5  12    3.74    1.78
  -7   5  12    0.16    2.33
   6  -5 -12   49.03    4.24
  -6   5  12   43.19    3.89
  -6   5  12   44.14    3.20
   5  -5 -12   44.82    4.04
  -5   5  12   34.93    2.85
  -5   5  12   37.50    3.06
   4  -5 -12    3.16    1.80
  -4   5  12    2.25    1.18
  -4   5  12    4.92    1.78
   3  -5 -12   32.69    3.36
  -3   5  12   37.54    3.04
   2  -5 -12   44.67    3.60
   2  -5 -12   36.93    3.66
  -2   5  12   44.61    2.92
   1  -5 -12    5.66    2.16
   1  -5 -12    1.82    2.03
  -1   5  12    5.26    2.05
   0  -5 -12    7.44    2.21
   0   5  12   17.48    2.73
   1   5  12   43.67    3.71
   2   5  12    2.60    2.38
   2   5  12    3.93    2.66
  11  -6 -12   15.82    2.71
 -11   6  12   14.09    2.49
 -11   6  12   18.36    4.28
  10  -6 -12   -1.73    2.39
 -10   6  12   -1.77    1.84
 -10   6  12   -3.81    3.17
   9  -6 -12   22.96    2.95
  -9   6  12   22.72    3.97
  -9   6  12   25.42    2.66
   8  -6 -12   46.38    4.41
  -8   6  12   52.02    4.83
  -8   6  12   42.93    2.89
   7  -6 -12    5.50    2.57
  -7   6  12    3.33    1.84
  -7   6  12    3.13    1.69
   6  -6 -12   36.67    3.83
  -6   6  12   37.04    3.55
  -6   6  12   29.60    2.42
   5  -6 -12   67.87    4.91
  -5   6  12   56.79    4.07
  -5   6  12   59.49    3.64
   4  -6 -12   20.31    3.35
  -4   6  12   17.25    2.40
  -4   6  12   20.65    2.37
   3  -6 -12    9.35    2.92
   2  -6 -12   45.01    4.60
   2  -6 -12   34.16    3.13
  -2   6  12   42.96    3.40
   1  -6 -12   25.43    3.08
   1  -6 -12   30.80    4.16
  -1   6  12   27.75    3.00
   0  -6 -12   -1.50    2.14
   0   6  12    0.98    2.18
   1   6  12   21.11    3.04
 -11   7  12   26.54    2.55
  10  -7 -12   11.18    2.46
 -10   7  12   10.86    4.02
 -10   7  12    9.21    2.23
   9  -7 -12   10.63    3.00
  -9   7  12   11.73    3.46
  -9   7  12   10.02    2.14
   8  -7 -12   59.78    5.09
  -8   7  12   72.45    5.57
  -8   7  12   73.23    3.97
   7  -7 -12   30.57    3.86
  -7   7  12   29.25    2.76
  -7   7  12   28.96    3.23
   6  -7 -12    1.14    1.75
  -6   7  12    2.05    1.68
  -6   7  12    2.02    2.16
   5  -7 -12   45.05    4.51
  -5   7  12   39.28    3.23
  -5   7  12   40.31    3.80
   4  -7 -12   45.17    3.97
   3  -7 -12    5.09    2.41
   3  -7 -12    0.90    2.05
  -3   7  12    2.41    1.36
   2  -7 -12   25.76    4.04
   2  -7 -12   24.64    3.31
  -2   7  12   24.20    2.80
   1  -7 -12   45.89    4.35
  -1   7  12   38.48    3.45
   0  -7 -12    5.74    2.55
   0   7  12    5.51    2.47
 -11   8  12   27.04    2.81
  10  -8 -12   21.15    2.99
 -10   8  12   27.40    2.75
 -10   8  12   23.53    3.66
   9  -8 -12   -0.46    2.64
  -9   8  12    0.27    1.66
  -9   8  12   -0.74    2.34
   8  -8 -12   44.99    4.59
  -8   8  12   45.18    4.60
  -8   8  12   40.27    3.31
   7  -8 -12   47.84    4.81
  -7   8  12   43.27    3.90
  -7   8  12   44.95    3.27
   6  -8 -12    5.72    3.02
  -6   8  12    5.55    2.53
  -6   8  12    5.48    1.86
   5  -8 -12   18.55    3.55
   4  -8 -12   57.24    4.60
  -4   8  12   56.57    3.69
   3  -8 -12   14.43    3.11
   3  -8 -12   13.55    3.70
  -3   8  12   14.83    2.35
   2  -8 -12    8.70    3.68
   2  -8 -12    8.49    2.81
  -2   8  12    6.48    2.13
  -1   8  12   35.31    3.08
 -10   9  12   23.35    2.57
  -9   9  12    4.67    2.21
   8  -9 -12   12.23    3.29
  -8   9  12    9.01    2.27
  -8   9  12    5.08    2.24
   7  -9 -12   39.53    4.58
  -7   9  12   37.81    4.31
  -7   9  12   48.84    3.68
   6  -9 -12   15.99    3.62
  -6   9  12   16.43    3.09
   5  -9 -12    0.14    3.01
  -5   9  12   -0.40    1.69
   4  -9 -12   44.32    4.02
   4  -9 -12   41.45    4.36
  -4   9  12   44.30    3.46
  -3   9  12   49.41    3.64
  -2   9  12    1.34    2.11
  -6  10  12   36.27    4.14
   3  10 -13    0.28    2.03
   2  10 -13   28.00    2.67
   1  10 -13    9.89    3.42
  -1 -10  13   17.68    3.41
   0  10 -13    0.02    2.66
   0 -10  13    0.87    2.10
   0 -10  13    0.91    2.17
  -1  10 -13    8.99    3.02
   1 -10  13   13.52    3.83
   4   9 -13   12.47    2.33
   3   9 -13    2.82    1.85
   3   9 -13   -0.22    2.11
   2   9 -13    5.81    2.98
   2   9 -13    8.96    2.05
   1   9 -13   25.43    2.50
   1   9 -13   27.62    3.72
  -1  -9  13   19.63    3.98
   0   9 -13    4.59    2.59
   0   9 -13    8.19    1.94
   0  -9  13    3.51    2.04
   0  -9  13    1.26    3.18
  -1   9 -13    3.69    1.85
   1  -9  13    2.20    2.01
   1  -9  13    1.96    2.27
  -2   9 -13   22.69    2.58
   2  -9  13   26.55    4.50
   2  -9  13   22.43    3.11
  -3   9 -13    8.41    2.22
   3  -9  13   15.08    4.17
   3  -9  13   16.73    3.70
   5   8 -13    2.61    1.98
   5   8 -13    1.50    2.24
   4   8 -13   20.98    3.30
   4   8 -13   19.47    2.40
   3   8 -13   23.83    3.81
   3   8 -13   20.45    2.48
   2   8 -13   -0.92    1.72
   2   8 -13    3.54    2.56
   1   8 -13   19.17    3.15
   1   8 -13   21.20    2.59
  -1  -8  13   28.63    3.59
  -1  -8  13   31.75    4.38
   0   8 -13   25.48    3.24
   0   8 -13   22.56    2.61
   0  -8  13   30.01    4.38
   0  -8  13   30.73    3.64
  -1   8 -13    4.78    1.94
  -1   8 -13    1.33    2.01
   1  -8  13    7.86    2.93
   1  -8  13    2.12    2.20
  -2   8 -13    9.93    1.76
   2  -8  13   11.92    3.09
   2  -8  13    7.77    2.73
  -3   8 -13   23.87    2.76
   3  -8  13   20.07    3.52
   3  -8  13   22.54    3.68
  -4   8 -13   13.90    2.51
   4  -8  13    8.81    2.67
   6   7 -13   43.40    5.00
   6   7 -13   40.53    3.54
   5   7 -13    1.02    1.83
   5   7 -13    1.06    2.97
   4   7 -13   12.52    2.31
   4   7 -13   21.50    2.99
   3   7 -13   47.41    4.31
   3   7 -13   42.21    2.91
   2   7 -13   16.86    2.33
   2   7 -13   21.52    3.11
  -2  -7  13   16.38    3.59
   1   7 -13    9.41    2.49
   1   7 -13    8.04    2.04
  -1  -7  13   12.82    2.23
  -1  -7  13    7.43    3.30
   0   7 -13   43.36    3.86
   0   7 -13   41.29    3.43
   0  -7  13   44.61    4.16
   0  -7  13   51.97    5.44
  -1   7 -13   22.36    2.64
   1  -7  13   21.55    3.97
   1  -7  13   21.64    3.30
  -2   7 -13    8.80    2.25
   2  -7  13    4.90    2.60
   2  -7  13    4.12    2.39
  -3   7 -13   19.20    2.72
   3  -7  13   20.15    4.27
   3  -7  13   22.20    2.98
  -4   7 -13   27.71    3.09
   4  -7  13   20.24    3.55
   4  -7  13   24.57    3.78
   7   6 -13   15.32    3.98
   7   6 -13    9.61    1.85
   6   6 -13   47.30    4.39
   6   6 -13   53.78    3.23
   5   6 -13   32.92    2.89
   5   6 -13   23.72    3.80
   4   6 -13    1.41    2.60
   4   6 -13   -0.05    1.67
   3   6 -13   63.20    3.91
   3   6 -13   74.26    4.89
   2   6 -13   58.96    4.32
   2   6 -13   55.67    3.26
   1   6 -13    1.29    1.39
   1   6 -13    1.88    1.73
  -1  -6  13    0.78    2.05
  -1  -6  13    5.66    2.97
   0   6 -13   12.66    1.89
   0   6 -13   11.30    2.17
   0  -6  13   14.43    2.82
   0  -6  13   13.00    2.66
  -1   6 -13   60.45    3.86
   1  -6  13   56.50    4.39
   1  -6  13   57.53    5.67
  -2   6 -13   12.80    2.03
   2  -6  13   15.84    3.70
   2  -6  13   15.62    2.86
  -3   6 -13    2.08    2.09
   3  -6  13    5.69    2.66
   3  -6  13    2.51    2.19
  -4   6 -13   31.92    3.31
   4  -6  13   25.98    3.13
   4  -6  13   28.48    4.23
   5  -6  13    6.50    3.62
   5  -6  13   11.61    3.23
   8   5 -13   27.69    3.01
   7   5 -13   -0.31    1.91
   6   5 -13   38.24    3.33
  -6  -5  13   41.26    3.29
   5   5 -13   69.81    3.60
   5   5 -13   68.78    5.22
  -5  -5  13   67.78    3.56
   4   5 -13    5.34    2.52
   4   5 -13    3.37    1.83
  -4  -5  13    5.66    1.77
   3   5 -13   30.83    2.82
   3   5 -13   34.30    3.44
  -3  -5  13   38.35    3.10
   2   5 -13   82.49    3.90
   2   5 -13   80.12    4.68
  -2  -5  13   74.98    3.79
   1   5 -13   21.42    2.49
   1   5 -13   21.07    2.58
  -1  -5  13   21.50    2.47
  -1  -5  13   32.30    3.05
  -1  -5  13   26.99    4.03
   0   5 -13    7.72    1.84
   0   5 -13    7.96    1.71
   0  -5  13   10.64    2.39
   0  -5  13   12.19    3.25
  -1   5 -13   46.64    3.58
   1  -5  13   53.23    4.10
   1  -5  13   52.29    5.32
  -2   5 -13   35.01    2.95
   2  -5  13   45.87    4.78
   2  -5  13   46.17    3.99
  -3   5 -13   -0.82    2.05
   3  -5  13    1.53    2.11
   3  -5  13    2.62    2.46
  -4   5 -13   24.25    3.00
   4  -5  13   21.62    3.96
   4  -5  13   19.04    3.20
   9   4 -13   20.56    2.39
  -9  -4  13   19.13    2.87
   8   4 -13   30.89    2.73
  -8  -4  13   25.39    2.52
   7   4 -13    8.07    2.07
  -7  -4  13    4.52    1.92
   6   4 -13   20.04    2.45
  -6  -4  13   17.11    2.35
   5   4 -13   77.41    3.78
  -5  -4  13   77.44    3.77
   4   4 -13   33.30    2.83
  -4  -4  13   27.04    2.66
   3   4 -13    4.22    2.01
   3   4 -13    3.42    1.31
  -3  -4  13    6.72    1.49
   2   4 -13   79.62    4.40
   2   4 -13   78.77    4.20
  -2  -4  13   78.92    4.21
   1   4 -13   73.42    3.98
   1   4 -13   74.74    4.07
  -1  -4  13   67.48    4.02
  -1  -4  13   66.22    4.01
  -1  -4  13   73.23    5.65
   0   4 -13   -1.58    1.56
   0  -4  13   -3.32    1.58
   0  -4  13   -1.03    1.68
   0  -4  13   -0.16    2.42
  -1   4 -13   40.72    3.44
   1  -4  13   44.21    3.69
   1  -4  13   48.45    4.74
  -2   4 -13   81.95    4.52
   2  -4  13   68.48    5.98
   2  -4  13   75.66    4.61
  -3   4 -13   13.44    2.61
   3  -4  13   13.79    2.86
   3  -4  13   14.05    2.64
  -4   4 -13    6.51    2.38
   4  -4  13    6.56    2.54
   5  -4  13   29.19    3.69
 -10  -3  13    0.04    2.29
   9   3 -13   10.00    1.97
  -9  -3  13   11.28    2.51
   8   3 -13   40.73    3.53
  -8  -3  13   34.55    3.22
   7   3 -13   29.26    2.61
  -7  -3  13   28.02    2.52
   6   3 -13    0.86    1.27
  -6  -3  13    0.57    1.20
   5   3 -13   49.91    3.41
  -5  -3  13   46.27    3.39
   4   3 -13   71.68    3.92
  -4  -3  13   67.13    3.88
   3   3 -13    7.72    1.86
  -3  -3  13    5.03    1.85
   2   3 -13   32.85    2.88
   2   3 -13   36.37    3.01
  -2  -3  13   32.75    2.82
  -2  -3  13   40.31    3.13
   1   3 -13  100.76    4.66
   1   3 -13   92.13    4.63
  -1  -3  13   90.67    4.49
  -1  -3  13   96.38    4.67
   0   3 -13   23.16    2.67
   0  -3  13   26.43    3.30
   0  -3  13   19.76    2.55
   0  -3  13   24.25    2.40
  -1   3 -13    6.35    2.06
   1  -3  13    7.48    1.89
   1  -3  13    7.23    2.91
  -2   3 -13   48.55    3.85
   2  -3  13   55.28    4.56
   2  -3  13   50.28    4.04
  -3   3 -13   39.19    3.14
   3  -3  13   37.11    3.15
   3  -3  13   33.55    4.28
  -4   3 -13    1.71    1.68
   4  -3  13   -0.89    2.78
   4  -3  13   -0.28    1.65
  10   2 -13   18.96    2.46
 -10  -2  13   18.65    2.39
   9   2 -13    0.85    1.45
  -9  -2  13   -1.74    1.39
   8   2 -13   21.75    2.71
  -8  -2  13   24.67    2.80
   7   2 -13   44.45    3.42
  -7  -2  13   40.94    3.35
   6   2 -13   15.62    2.33
  -6  -2  13   14.79    2.26
   5   2 -13   14.87    1.89
  -5  -2  13   14.29    1.91
   4   2 -13   50.77    3.11
   4   2 -13   63.94    3.65
  -4  -2  13   56.61    3.18
   3   2 -13   37.54    3.02
  -3  -2  13   35.59    2.94
   2   2 -13    1.76    1.64
   2   2 -13    0.43    1.36
  -2  -2  13    2.65    1.33
  -2  -2  13    0.27    1.68
   1   2 -13   46.38    2.97
  -1  -2  13   45.13    3.00
   0   2 -13   43.94    3.49
   0  -2  13   49.86    3.61
  -1   2 -13    2.51    1.38
   1  -2  13   -0.88    1.25
   1  -2  13    5.24    2.51
  -2   2 -13   16.00    2.62
   2  -2  13   18.66    2.71
   2  -2  13   14.15    3.28
  -3   2 -13   34.05    3.45
   3  -2  13   34.03    3.40
   3  -2  13   46.55    4.62
  -4   2 -13   10.64    2.68
   4  -2  13    8.97    3.08
   4  -2  13    4.92    2.54
   5  -2  13    3.80    2.78
   5  -2  13    3.55    2.71
  10   1 -13   36.97    3.52
 -10  -1  13   39.51    3.56
   9   1 -13   25.25    2.95
  -9  -1  13   23.80    2.94
   8   1 -13    2.53    1.51
  -8  -1  13    2.20    1.48
   7   1 -13   32.45    2.65
  -7  -1  13   36.83    2.73
   6   1 -13   54.63    3.63
   6   1 -13   64.32    3.73
  -6  -1  13   57.60    3.72
   5   1 -13    2.43    1.55
   5   1 -13    1.09    1.24
  -5  -1  13    2.34    1.31
   4   1 -13   40.16    2.70
   4   1 -13   39.72    3.25
  -4  -1  13   40.02    2.75
   3   1 -13   56.37    3.81
   3   1 -13   51.73    3.07
  -3  -1  13   51.80    3.55
   2   1 -13   22.61    2.54
  -2  -1  13   20.36    2.53
   1   1 -13   11.97    1.86
  -1  -1  13   13.66    1.89
   0   1 -13   54.74    3.72
   0  -1  13   47.44    3.69
  -1   1 -13   18.09    2.25
   1  -1  13   17.63    2.29
  -2   1 -13    1.83    2.07
   2  -1  13   -2.00    1.32
  -3   1 -13   32.19    3.51
   3  -1  13   29.19    3.41
  -4   1 -13   25.74    3.30
   4  -1  13   21.22    3.22
  11   0 -13    0.18    1.57
 -11   0  13    3.69    1.76
  10   0 -13   28.41    2.74
 -10   0  13   31.69    3.32
   9   0 -13   55.37    3.83
  -9   0  13   38.13    3.14
   8   0 -13   23.21    2.37
  -8   0  13   21.45    2.35
   7   0 -13   15.24    1.99
   7   0 -13   19.99    2.39
  -7   0  13   17.42    2.07
   6   0 -13   79.34    4.52
   6   0 -13   85.72    4.35
  -6   0  13   86.78    4.34
   5   0 -13   38.65    2.68
   5   0 -13   38.27    3.24
  -5   0  13   37.70    2.69
   4   0 -13    1.14    1.69
   4   0 -13    2.73    1.22
  -4   0  13    0.84    1.21
   3   0 -13   63.89    3.77
   3   0 -13   62.80    3.84
  -3   0  13   70.34    3.92
   2   0 -13   66.29    3.90
  -2   0  13   68.68    4.02
   1   0 -13    2.23    1.79
  -1   0  13    3.18    1.90
   0   0 -13   26.29    2.86
  -1   0 -13   67.91    3.71
   1   0  13   58.48    3.66
  -2   0 -13    6.85    2.37
   2   0  13    7.04    2.39
  -3   0 -13    3.18    2.40
   3   0  13    3.33    2.49
  -4   0 -13   32.26    3.61
   4   0  13   26.61    3.58
  11  -1 -13    9.24    2.43
 -11   1  13   13.62    2.73
  10  -1 -13    1.96    2.08
 -10   1  13    0.84    2.24
   9  -1 -13   61.06    3.64
  -9   1  13   70.80    3.83
   8  -1 -13   49.07    3.77
   8  -1 -13   54.61    3.23
  -8   1  13   52.55    3.28
   7  -1 -13   -0.70    1.67
   7  -1 -13    0.15    1.22
  -7   1  13   -0.27    1.24
   6  -1 -13   54.24    3.53
   6  -1 -13   58.11    3.90
  -6   1  13   51.67    3.57
   5  -1 -13  115.50    5.78
   5  -1 -13  111.04    5.10
  -5   1  13  125.49    5.27
   4  -1 -13   17.65    2.30
   4  -1 -13   20.67    2.44
  -4   1  13   20.76    2.44
   3  -1 -13   31.18    3.27
   3  -1 -13   24.67    2.67
  -3   1  13   23.69    2.67
   2  -1 -13   82.66    5.10
   2  -1 -13   79.31    4.31
  -2   1  13   82.65    4.41
   1  -1 -13   57.69    3.81
  -1   1  13   55.80    3.88
   0  -1 -13    8.17    1.74
   0   1  13   10.60    1.93
  -1  -1 -13   47.34    3.83
   1   1  13   42.48    3.74
  -2  -1 -13   49.08    4.09
   2   1  13   54.79    4.37
  -3  -1 -13    0.39    2.31
   3   1  13    2.40    2.51
  -4  -1 -13    7.35    2.82
  11  -2 -13   16.81    2.67
  10  -2 -13    2.40    1.52
  10  -2 -13    2.46    1.99
 -10   2  13    1.13    2.12
   9  -2 -13   43.20    3.50
   9  -2 -13   41.05    3.72
  -9   2  13   42.80    3.60
   8  -2 -13   90.36    4.97
   8  -2 -13   77.23    4.35
  -8   2  13   80.30    4.51
   7  -2 -13   22.23    2.77
   7  -2 -13   24.36    2.52
  -7   2  13   19.64    2.54
   6  -2 -13   17.59    2.27
   6  -2 -13   16.35    1.93
  -6   2  13   12.75    1.90
   5  -2 -13   95.38    4.31
   5  -2 -13  106.94    5.50
  -5   2  13   96.41    4.41
   4  -2 -13   79.61    4.87
   4  -2 -13   76.29    4.09
  -4   2  13   70.31    4.16
  -4   2  13   83.03    4.19
   3  -2 -13    0.53    1.69
   3  -2 -13    1.20    1.52
  -3   2  13    1.05    1.76
   2  -2 -13   74.29    4.61
   2  -2 -13   82.23    4.30
  -2   2  13   73.19    3.87
   1  -2 -13   82.93    4.43
  -1   2  13   79.98    4.48
   0  -2 -13   17.53    2.49
   0   2  13   15.09    2.52
  -1  -2 -13   22.65    2.93
   1   2  13   23.81    3.05
  -2  -2 -13   60.72    4.58
   2   2  13   55.17    4.56
  -3  -2 -13    6.53    2.61
   3   2  13   10.50    2.98
 -11   3  13   34.52    3.32
  10  -3 -13   11.04    1.90
  10  -3 -13   12.61    2.71
 -10   3  13   16.89    2.25
   9  -3 -13    9.20    2.18
   9  -3 -13    9.39    2.50
  -9   3  13   10.30    2.36
   8  -3 -13   82.53    4.97
   8  -3 -13   82.52    4.32
  -8   3  13   75.77    4.37
   7  -3 -13   53.94    4.17
   7  -3 -13   53.47    3.55
  -7   3  13   57.54    4.57
  -7   3  13   51.92    3.16
   6  -3 -13    0.58    1.19
   6  -3 -13    0.82    2.14
  -6   3  13    2.95    2.16
  -6   3  13   -0.59    1.72
   5  -3 -13   56.54    3.13
   5  -3 -13   50.51    4.21
  -5   3  13   57.06    3.84
  -5   3  13   50.04    3.58
   4  -3 -13   94.39    5.22
   4  -3 -13   99.84    4.41
  -4   3  13  107.59    5.05
  -4   3  13   97.37    4.47
   3  -3 -13   16.86    2.90
   3  -3 -13   11.44    2.13
  -3   3  13   14.02    2.27
   2  -3 -13   19.37    2.49
   2  -3 -13   21.50    3.28
  -2   3  13   21.91    2.58
   1  -3 -13   77.08    4.01
  -1   3  13   80.03    4.13
   0  -3 -13   53.97    3.98
   0   3  13   51.99    4.03
  -1  -3 -13    1.06    2.06
   1   3  13   -1.13    2.15
  -2  -3 -13   32.22    3.42
   2   3  13   35.63    3.68
  -3  -3 -13   30.37    3.54
  11  -4 -13   16.33    3.04
 -11   4  13   24.91    2.67
 -11   4  13   24.68    4.88
  10  -4 -13   27.21    3.41
 -10   4  13   32.15    4.63
 -10   4  13   31.64    3.04
   9  -4 -13    2.87    2.39
  -9   4  13    4.53    3.10
  -9   4  13    2.93    2.00
   8  -4 -13   22.99    2.57
   8  -4 -13   37.40    3.70
  -8   4  13   33.25    3.01
  -8   4  13   32.28    3.94
   7  -4 -13   48.50    4.26
   7  -4 -13   47.18    3.06
  -7   4  13   57.43    3.27
  -7   4  13   61.00    4.71
   6  -4 -13   16.59    1.94
   6  -4 -13   19.07    2.98
  -6   4  13   19.59    2.86
  -6   4  13   21.41    2.56
   5  -4 -13   14.74    1.87
   5  -4 -13   16.29    2.49
  -5   4  13   16.09    2.00
  -5   4  13   14.61    2.37
   4  -4 -13   70.28    4.92
   4  -4 -13   74.13    4.01
  -4   4  13   63.97    3.60
   3  -4 -13   39.37    3.24
   3  -4 -13   43.96    4.36
  -3   4  13   37.18    3.29
   2  -4 -13    0.24    1.73
   2  -4 -13    1.54    1.80
   2  -4 -13   -1.73    2.39
   1  -4 -13   38.52    2.95
  -1   4  13   34.23    2.99
   0  -4 -13   53.06    3.53
   0   4  13   56.87    3.65
  -1  -4 -13    1.32    1.56
   1   4  13    4.27    1.79
  11  -5 -13    7.22    2.27
 -11   5  13    1.76    2.30
  10  -5 -13   26.67    3.58
 -10   5  13   33.40    3.18
 -10   5  13   29.88    4.46
   9  -5 -13   19.80    3.24
  -9   5  13   20.70    2.66
  -9   5  13   17.80    3.78
   8  -5 -13   -0.12    2.46
  -8   5  13    2.35    2.77
  -8   5  13   -2.19    1.74
   7  -5 -13   42.41    4.35
  -7   5  13   44.07    4.36
  -7   5  13   45.14    3.52
   6  -5 -13   33.44    3.37
  -6   5  13   38.77    3.18
  -6   5  13   33.52    3.40
   5  -5 -13   -0.79    2.31
  -5   5  13    0.61    1.87
  -5   5  13   -1.31    1.69
   4  -5 -13   32.55    3.42
  -4   5  13   31.79    2.95
   3  -5 -13   48.37    4.73
  -3   5  13   38.85    3.45
   2  -5 -13   16.67    3.48
   2  -5 -13   15.73    2.56
  -2   5  13   18.95    2.56
  -1   5  13    6.59    1.88
   0   5  13   38.39    3.28
   1   5  13   17.10    2.42
  10  -6 -13    6.15    2.92
 -10   6  13   14.04    3.92
 -10   6  13    5.26    2.22
   9  -6 -13   26.13    3.75
  -9   6  13   38.56    4.40
  -9   6  13   25.10    2.84
   8  -6 -13    6.83    2.30
  -8   6  13    4.75    1.62
  -8   6  13    7.08    3.00
   7  -6 -13   21.94    2.96
  -7   6  13   16.18    3.19
  -7   6  13   14.89    2.43
   6  -6 -13   51.34    4.69
  -6   6  13   52.93    3.65
  -6   6  13   46.12    3.48
   5  -6 -13   15.81    3.23
  -5   6  13    8.51    2.27
  -5   6  13   15.19    2.37
   4  -6 -13    0.61    2.72
  -4   6  13    0.88    1.28
   3  -6 -13   38.64    3.66
   3  -6 -13   38.12    3.95
  -3   6  13   36.93    3.24
   2  -6 -13   25.71    4.19
   2  -6 -13   25.45    3.25
  -2   6  13   29.54    3.08
  -1   6  13    1.91    2.09
   0   6  13   20.31    3.12
 -10   7  13    0.49    2.45
 -10   7  13    1.62    1.50
   9  -7 -13   39.13    3.89
  -9   7  13   40.97    3.58
  -9   7  13   32.29    4.52
   8  -7 -13   26.24    3.91
  -8   7  13   29.59    3.95
  -8   7  13   33.05    2.99
   7  -7 -13   -0.22    2.63
  -7   7  13    0.34    1.75
  -7   7  13   -0.56    2.53
   6  -7 -13   18.32    2.90
  -6   7  13   18.37    2.41
  -6   7  13   15.20    2.93
   5  -7 -13   46.66    4.79
  -5   7  13   40.27    3.40
   4  -7 -13    7.19    2.52
   3  -7 -13    7.07    3.33
   3  -7 -13    8.13    2.75
  -3   7  13    6.70    2.23
   2  -7 -13   23.94    2.89
   2  -7 -13   27.69    4.39
  -2   7  13   20.98    2.84
  -1   7  13   17.98    2.81
 -10   8  13    3.32    2.08
  -9   8  13   10.53    2.30
  -9   8  13   15.53    3.82
   8  -8 -13   41.06    4.68
  -8   8  13   40.75    3.50
  -8   8  13   49.15    4.26
   7  -8 -13   19.01    3.68
  -7   8  13   10.75    2.90
  -7   8  13   14.70    2.35
   6  -8 -13    2.27    3.07
  -6   8  13    1.52    1.85
  -6   8  13    2.28    2.49
   5  -8 -13   27.15    3.49
   4  -8 -13   17.95    3.83
   4  -8 -13   33.56    3.89
  -4   8  13   23.24    2.69
   3  -8 -13   -0.57    2.63
  -3   8  13    0.55    2.03
   2  -8 -13   21.30    3.49
  -8   9  13   24.89    2.62
  -7   9  13   29.47    2.76
  -6   9  13    0.21    1.78
  -5   9  13   19.28    2.47
  -4   9  13   40.36    3.54
   3   9 -14    4.38    2.13
   2   9 -14   22.43    3.69
   2   9 -14   24.02    2.71
   1   9 -14   12.84    2.34
   1   9 -14   10.10    2.37
  -1  -9  14   20.23    2.86
  -1  -9  14   11.21    3.76
   0   9 -14   -1.48    1.63
   0   9 -14    3.79    2.57
   0  -9  14   -3.63    1.95
   0  -9  14    0.25    2.74
  -1   9 -14   18.20    2.59
   1  -9  14   30.07    4.80
  -2   9 -14   22.27    2.83
   4   8 -14   16.45    3.65
   4   8 -14   17.79    2.65
   3   8 -14   -3.32    1.87
   3   8 -14    2.47    2.83
   2   8 -14   13.42    2.37
   2   8 -14   14.28    3.13
   1   8 -14   19.02    2.64
  -1  -8  14   34.74    4.57
  -1  -8  14   29.09    3.66
   0   8 -14    2.12    1.90
   0   8 -14    2.69    2.35
   0  -8  14    4.99    2.75
   0  -8  14    6.66    2.80
  -1   8 -14    8.23    2.18
   1  -8  14    4.95    2.88
   1  -8  14   10.44    3.76
  -2   8 -14   22.43    2.79
   2  -8  14   28.68    3.89
   2  -8  14   28.02    4.71
   6   7 -14    4.78    2.21
   5   7 -14    6.69    3.23
   5   7 -14    3.15    2.05
   4   7 -14   18.83    3.53
   4   7 -14   21.98    2.67
   3   7 -14   13.97    2.04
   3   7 -14    9.76    2.42
   2   7 -14    3.01    1.79
   2   7 -14    6.06    1.56
   1   7 -14   26.15    3.23
   1   7 -14   26.79    2.89
  -1  -7  14   21.83    3.22
  -1  -7  14   25.77    4.32
   0   7 -14   22.30    2.77
   0  -7  14   28.91    3.79
   0  -7  14   21.88    2.71
  -1   7 -14    2.50    2.13
   1  -7  14    1.67    3.34
   1  -7  14    5.41    2.64
  -2   7 -14   22.56    2.91
   2  -7  14   17.84    3.35
   2  -7  14   22.01    3.51
  -3   7 -14   31.25    3.28
   3  -7  14   29.73    4.01
   7   6 -14   23.56    3.05
   6   6 -14   25.14    2.88
   6   6 -14   25.65    4.14
   5   6 -14    2.79    1.99
   5   6 -14    2.60    2.88
   4   6 -14   29.90    3.00
   4   6 -14   24.75    3.58
   3   6 -14   41.18    3.59
   3   6 -14   43.53    4.03
   2   6 -14   11.46    2.54
   2   6 -14    9.07    2.19
  -2  -6  14    7.23    2.50
   1   6 -14    7.45    1.67
   1   6 -14    3.79    2.12
  -1  -6  14    5.42    2.48
  -1  -6  14    3.83    2.33
   0   6 -14   32.52    3.16
   0  -6  14   31.12    3.40
   0  -6  14   38.25    4.71
  -1   6 -14   36.15    3.24
   1  -6  14   26.84    3.46
   1  -6  14   42.65    5.01
  -2   6 -14    1.83    1.49
   2  -6  14   -1.27    3.11
   2  -6  14   -0.22    1.81
  -3   6 -14   25.59    3.06
   3  -6  14   25.19    4.39
   3  -6  14   24.86    3.51
   7   5 -14   17.26    2.21
   6   5 -14   56.83    5.27
   6   5 -14   56.25    3.43
   5   5 -14   23.70    2.78
   5   5 -14   23.76    3.53
   4   5 -14    8.78    2.18
   4   5 -14   11.94    2.68
   3   5 -14   30.34    3.28
   3   5 -14   31.00    3.00
   2   5 -14   41.15    3.52
   2   5 -14   40.95    3.73
  -2  -5  14   41.51    3.71
   1   5 -14    2.11    1.45
   1   5 -14    2.30    1.87
  -1  -5  14    5.73    2.18
  -1  -5  14    4.66    3.13
   0   5 -14   28.35    3.02
   0  -5  14   27.40    4.15
   0  -5  14   22.81    2.88
  -1   5 -14   42.77    3.78
   1  -5  14   41.37    3.96
   1  -5  14   38.74    4.35
  -2   5 -14    4.47    1.76
   2  -5  14   11.40    3.42
   2  -5  14    7.89    2.02
  -3   5 -14    8.04    2.57
   3  -5  14   12.38    3.66
  -9  -4  14   40.29    3.20
   8   4 -14   20.51    2.93
  -8  -4  14   19.76    2.77
   7   4 -14   -0.07    1.36
  -7  -4  14    0.41    1.43
   6   4 -14   63.68    3.55
  -6  -4  14   54.23    3.40
   5   4 -14   39.27    3.41
  -5  -4  14   40.38    3.44
   4   4 -14    2.80    1.37
   4   4 -14    1.43    2.14
  -4  -4  14   -1.08    1.13
   3   4 -14   25.41    2.90
   3   4 -14   24.40    2.76
  -3  -4  14   28.71    2.57
   2   4 -14   47.40    3.16
   2   4 -14   49.68    3.67
  -2  -4  14   45.68    3.15
  -2  -4  14   51.26    3.70
   1   4 -14   19.58    2.65
  -1  -4  14   17.14    2.43
  -1  -4  14   16.03    2.54
   0   4 -14    9.33    2.28
   0  -4  14    7.95    2.24
   0  -4  14   15.21    3.00
   0  -4  14   14.91    2.48
  -1   4 -14   47.16    3.92
   1  -4  14   48.22    4.63
   1  -4  14   52.34    3.45
  -2   4 -14   29.45    2.89
   2  -4  14   39.71    4.68
  -3   4 -14    0.42    2.23
   3  -4  14   -0.23    2.10
   4  -4  14   20.14    3.97
 -10  -3  14    1.69    1.76
   9   3 -14   24.00    2.63
  -9  -3  14   21.16    2.50
   8   3 -14   45.22    3.97
  -8  -3  14   48.13    3.86
   7   3 -14    3.33    2.00
  -7  -3  14    3.93    1.55
   6   3 -14   30.39    3.00
  -6  -3  14   27.53    2.95
   5   3 -14   74.52    4.22
  -5  -3  14   59.93    4.03
   4   3 -14   19.19    2.54
  -4  -3  14   13.12    2.36
   3   3 -14    9.54    1.72
   3   3 -14   11.99    2.21
  -3  -3  14    9.11    2.18
   2   3 -14   85.39    4.52
  -2  -3  14   78.36    4.51
   1   3 -14   43.08    3.61
  -1  -3  14   42.42    3.62
   0   3 -14   -0.75    1.33
   0  -3  14   -0.72    1.34
  -1   3 -14   42.10    3.79
   1  -3  14   50.80    4.99
   1  -3  14   45.81    3.91
  -2   3 -14   58.99    4.37
   2  -3  14   70.03    5.97
  -3   3 -14    6.82    2.54
   3  -3  14    4.12    2.59
   3  -3  14   11.87    3.43
   4  -3  14   14.77    3.65
 -10  -2  14    5.35    1.91
   9   2 -14   13.04    2.71
  -9  -2  14   10.50    2.49
   8   2 -14   51.04    4.08
  -8  -2  14   61.21    4.16
   7   2 -14   21.54    2.79
  -7  -2  14   19.81    2.72
   6   2 -14    3.41    2.03
  -6  -2  14    0.75    1.94
   5   2 -14   56.39    3.83
  -5  -2  14   57.55    3.85
   4   2 -14   47.56    3.08
  -4  -2  14   44.09    3.05
   3   2 -14    1.68    1.29
  -3  -2  14    2.30    1.46
   2   2 -14   37.86    3.27
  -2  -2  14   40.55    3.34
   1   2 -14   69.17    4.30
  -1  -2  14   81.05    4.53
   0   2 -14   15.92    2.59
   0  -2  14   19.26    2.75
  -1   2 -14    8.98    1.96
   1  -2  14    9.57    2.00
  -2   2 -14   53.11    4.21
   2  -2  14   46.45    3.50
  -3   2 -14   28.85    3.49
   3  -2  14   29.74    3.44
   4  -2  14    3.87    2.63
  10   1 -14   16.99    2.83
 -10  -1  14   13.68    2.82
   9   1 -14    1.35    2.12
  -9  -1  14    1.73    2.22
   8   1 -14   23.92    2.94
  -8  -1  14   22.51    2.92
   7   1 -14   45.30    3.59
  -7  -1  14   42.33    3.54
   6   1 -14   11.42    2.25
  -6  -1  14    7.47    2.14
   5   1 -14   19.84    2.26
   5   1 -14   15.45    2.41
  -5  -1  14   22.16    2.30
   4   1 -14   48.47    3.15
   4   1 -14   53.11    3.88
  -4  -1  14   50.97    3.25
   3   1 -14   16.48    2.12
  -3  -1  14   21.84    2.36
   2   1 -14    1.64    1.45
  -2  -1  14    0.48    1.35
   1   1 -14   43.94    3.60
  -1  -1  14   42.06    3.65
   0   1 -14   34.88    3.26
  -1   1 -14    0.95    1.46
   1  -1  14    4.47    1.86
  -2   1 -14   34.36    3.20
   2  -1  14   38.08    3.36
  -3   1 -14   30.07    3.05
   3  -1  14   24.58    2.84
  10   0 -14   23.77    2.73
 -10   0  14   32.98    3.01
   9   0 -14    9.42    2.43
  -9   0  14   13.35    2.69
   8   0 -14    1.90    1.44
  -8   0  14    1.29    1.58
   7   0 -14   38.09    3.28
  -7   0  14   33.62    2.86
   6   0 -14   32.41    3.13
   6   0 -14   29.57    3.02
  -6   0  14   26.21    2.88
   5   0 -14    1.39    1.27
   5   0 -14   -2.17    1.70
  -5   0  14   -0.99    1.25
   4   0 -14   34.50    2.72
   4   0 -14   32.43    3.30
  -4   0  14   31.64    2.72
   3   0 -14   30.11    2.70
   3   0 -14   33.66    3.47
  -3   0  14   32.03    2.78
   2   0 -14   -0.73    1.81
  -2   0  14    2.56    1.95
   1   0 -14    5.53    2.14
  -1   0  14   12.24    2.41
   0   0 -14   46.52    3.88
  -1   0 -14   13.33    2.21
   1   0  14   17.61    2.43
  -2   0 -14    6.05    1.89
   2   0  14    7.25    1.97
  -3   0 -14   21.74    2.78
   3   0  14   24.62    2.91
  11  -1 -14   -0.62    2.14
  10  -1 -14   14.39    2.23
 -10   1  14   19.47    2.96
   9  -1 -14   49.04    4.06
  -9   1  14   52.04    4.14
   8  -1 -14    4.19    2.05
   8  -1 -14    5.50    2.09
  -8   1  14    0.82    1.52
   7  -1 -14   18.40    2.58
   7  -1 -14   15.99    2.56
  -7   1  14   14.16    2.44
   6  -1 -14   62.13    3.97
   6  -1 -14   55.25    3.76
  -6   1  14   66.41    4.06
   5  -1 -14   21.97    2.64
   5  -1 -14   24.91    3.09
  -5   1  14   28.23    2.92
   4  -1 -14    6.44    1.96
   4  -1 -14   10.59    2.22
  -4   1  14    7.54    2.20
   3  -1 -14   37.15    3.80
   3  -1 -14   42.29    3.41
  -3   1  14   41.02    3.57
   2  -1 -14   29.23    3.01
  -2   1  14   33.62    3.20
   1  -1 -14    0.55    1.75
  -1   1  14    1.67    2.14
   0  -1 -14   36.84    3.14
   0   1  14   35.08    3.08
  -1  -1 -14   30.45    2.94
   1   1  14   24.47    2.78
  -2  -1 -14    7.09    2.69
   2   1  14    7.87    2.21
  11  -2 -14   11.33    2.54
  10  -2 -14    4.20    1.67
 -10   2  14   11.49    2.64
   9  -2 -14   49.62    3.96
   9  -2 -14   55.35    4.39
  -9   2  14   56.61    4.20
   8  -2 -14   40.32    3.35
   8  -2 -14   37.14    3.20
  -8   2  14   45.19    3.59
   7  -2 -14   -1.34    1.82
   7  -2 -14    0.59    1.54
  -7   2  14    0.20    1.99
   6  -2 -14   58.72    4.32
   6  -2 -14   53.49    3.73
  -6   2  14   50.38    3.38
   5  -2 -14   59.22    4.46
   5  -2 -14   58.18    3.44
  -5   2  14   60.26    3.54
  -5   2  14   57.22    3.57
   4  -2 -14    7.29    1.65
   4  -2 -14    5.37    2.57
  -4   2  14    7.07    1.84
   3  -2 -14   26.16    2.57
   3  -2 -14   22.68    2.90
  -3   2  14   28.86    2.69
   2  -2 -14   64.24    4.15
   2  -2 -14   67.03    5.19
  -2   2  14   59.07    4.13
   1  -2 -14   19.24    2.72
   0  -2 -14    3.02    2.30
   0   2  14    4.48    2.50
  -1  -2 -14   31.91    3.42
   1   2  14   35.39    3.55
  -2  -2 -14   12.75    2.93
   2   2  14   17.01    3.20
  10  -3 -14   -1.72    2.31
 -10   3  14    2.00    1.57
   9  -3 -14   39.66    4.09
   9  -3 -14   31.96    2.83
  -9   3  14   32.79    3.35
   8  -3 -14   68.07    3.79
  -8   3  14   73.54    5.64
  -8   3  14   69.56    3.91
   7  -3 -14   12.90    2.33
   7  -3 -14   12.30    2.74
  -7   3  14   12.13    2.36
  -7   3  14    8.64    2.74
   6  -3 -14    9.09    1.77
   6  -3 -14   10.36    2.24
  -6   3  14   12.92    2.46
  -6   3  14    8.82    2.51
   5  -3 -14   92.63    4.72
   5  -3 -14   87.56    5.53
  -5   3  14   88.28    4.74
   4  -3 -14   36.23    3.41
   4  -3 -14   31.94    3.04
  -4   3  14   36.29    3.30
   3  -3 -14    1.53    2.57
   3  -3 -14    4.40    1.97
  -3   3  14   -0.43    2.05
   2  -3 -14   45.54    4.15
   2  -3 -14   50.81    3.37
  -2   3  14   56.10    3.50
   1  -3 -14   51.89    3.46
  -1   3  14   52.88    3.57
   0  -3 -14    4.94    1.85
   0   3  14    1.47    1.73
  -1  -3 -14   16.24    2.43
   1   3  14   16.73    2.52
  -2  -3 -14   28.04    2.99
  11  -4 -14   27.43    3.58
  10  -4 -14   11.84    2.99
 -10   4  14   10.19    2.97
 -10   4  14   14.29    2.67
   9  -4 -14   11.10    2.96
  -9   4  14   10.39    3.51
  -9   4  14   10.42    2.42
   8  -4 -14   63.34    4.95
  -8   4  14   64.47    4.31
  -8   4  14   66.10    5.42
   7  -4 -14   49.39    4.47
  -7   4  14   37.39    3.96
  -7   4  14   41.27    3.10
   6  -4 -14    0.98    1.76
   6  -4 -14    0.18    2.38
  -6   4  14   -0.34    2.16
  -6   4  14   -1.53    1.96
   5  -4 -14   44.58    3.62
   5  -4 -14   43.37    4.31
  -5   4  14   46.68    3.73
   4  -4 -14   76.52    5.49
  -4   4  14   69.30    4.36
   3  -4 -14    2.41    2.00
   3  -4 -14    9.89    3.03
  -3   4  14    8.13    2.35
   2  -4 -14   17.24    3.02
   2  -4 -14   11.14    2.38
  -2   4  14   17.01    2.72
   1  -4 -14   65.82    4.53
  -1   4  14   68.89    4.66
   0   4  14   15.37    2.83
  10  -5 -14   25.79    3.58
 -10   5  14   19.37    2.83
 -10   5  14   24.01    4.19
   9  -5 -14   -0.97    1.84
  -9   5  14    0.02    2.08
  -9   5  14    0.93    3.24
   8  -5 -14   28.70    3.83
  -8   5  14   26.69    3.07
  -8   5  14   26.63    3.73
   7  -5 -14   48.48    4.60
  -7   5  14   55.68    4.67
  -7   5  14   50.61    3.85
   6  -5 -14    8.48    2.34
  -6   5  14   10.72    1.95
  -6   5  14   10.03    2.47
   5  -5 -14    8.27    3.05
  -5   5  14   11.86    2.51
   4  -5 -14   48.27    4.85
  -4   5  14   46.17    3.82
   3  -5 -14   34.78    4.50
   3  -5 -14   37.07    3.52
   2  -5 -14    1.96    2.23
  -2   5  14    3.17    2.20
  -1   5  14   31.44    3.35
   9  -6 -14    8.48    3.06
  -9   6  14   11.96    2.86
  -9   6  14   10.20    2.45
   8  -6 -14    4.87    2.97
  -8   6  14    4.60    1.67
  -8   6  14    5.21    2.91
   7  -6 -14   36.70    4.27
  -7   6  14   30.95    3.11
  -7   6  14   33.87    3.81
   6  -6 -14   20.48    3.66
  -6   6  14   20.31    3.04
  -6   6  14   17.13    2.62
   5  -6 -14    1.45    2.89
  -5   6  14    3.20    2.02
   4  -6 -14   24.09    3.96
  -4   6  14   18.34    2.75
   3  -6 -14   32.87    3.54
   3  -6 -14   34.24    4.56
  -3   6  14   36.79    3.30
   2  -6 -14   -0.90    3.35
  -2   6  14    0.84    1.67
  -9   7  14   14.84    3.79
  -9   7  14   22.91    2.99
   8  -7 -14    4.30    3.10
  -8   7  14   -0.40    2.10
  -8   7  14    2.81    2.79
   7  -7 -14   14.28    3.46
  -7   7  14   11.68    3.07
  -7   7  14    7.49    2.31
   6  -7 -14   24.21    3.38
  -6   7  14   22.35    2.44
   5  -7 -14    8.41    3.31
  -5   7  14   14.90    2.49
   4  -7 -14    4.13    3.44
   4  -7 -14    3.53    2.67
  -4   7  14    3.06    2.14
   3  -7 -14   21.37    2.74
  -8   8  14   15.89    3.62
  -7   8  14    5.13    2.94
  -7   8  14   -4.97    1.75
  -6   8  14   14.47    2.44
  -5   8  14   17.53    2.51
   2   8 -15   42.95    3.67
   2   8 -15   26.40    3.67
  -2  -8  15   39.25    4.19
   1   8 -15   14.28    2.56
   1   8 -15    6.57    2.57
  -1  -8  15   13.63    3.16
   0   8 -15   -0.99    2.06
   0  -8  15    3.24    2.20
   4   7 -15   13.82    3.35
   4   7 -15   10.09    2.51
   3   7 -15    2.47    1.90
   3   7 -15    0.25    2.10
   2   7 -15   23.98    2.77
   2   7 -15   19.73    2.61
  -2  -7  15   23.37    3.33
   1   7 -15   21.84    2.80
  -1  -7  15   21.51    3.29
   0   7 -15    4.19    2.18
   0  -7  15    0.04    3.50
   0  -7  15    0.25    1.73
  -1   7 -15   14.97    2.17
   1  -7  15   12.20    3.09
   1  -7  15   14.22    4.05
   5   6 -15   10.92    3.26
   5   6 -15    9.65    2.55
   4   6 -15   30.02    3.17
   4   6 -15   26.50    3.58
   3   6 -15    6.16    2.19
   3   6 -15    7.61    2.73
   2   6 -15    3.39    2.14
   2   6 -15   -0.37    2.15
  -2  -6  15    1.60    2.28
   1   6 -15   30.86    3.26
  -1  -6  15   37.72    3.62
   0   6 -15   19.50    2.83
   0  -6  15   22.94    3.72
   0  -6  15   24.91    3.23
  -1   6 -15    0.96    2.23
   1  -6  15    2.33    2.41
   2  -6  15   29.32    4.15
   6   5 -15   19.90    2.37
   6   5 -15   19.95    3.55
   5   5 -15    0.19    2.60
   5   5 -15    0.10    1.91
   4   5 -15   20.94    3.28
   4   5 -15   20.12    2.75
   3   5 -15   44.52    3.63
   3   5 -15   35.48    3.48
   2   5 -15    8.83    2.30
   2   5 -15    8.57    2.35
   1   5 -15   19.21    2.80
   0   5 -15   48.81    4.09
   0  -5  15   57.85    6.06
  -1   5 -15    6.60    2.39
   1  -5  15    8.91    3.49
  -2   5 -15    0.53    2.34
   2  -5  15    5.13    2.66
  -8  -4  15   -0.79    2.17
   7   4 -15   16.42    2.76
  -7  -4  15   17.47    2.28
   6   4 -15   34.61    3.04
  -6  -4  15   44.21    3.20
   5   4 -15   13.16    2.52
   5   4 -15   11.33    2.88
  -5  -4  15    9.98    2.43
   4   4 -15    0.67    1.57
   4   4 -15    2.21    1.50
  -4  -4  15    1.52    1.45
   3   4 -15   38.91    3.47
   3   4 -15   45.38    3.79
  -3  -4  15   45.24    3.81
   2   4 -15   43.80    3.69
  -2  -4  15   49.76    3.95
   1   4 -15   -0.61    2.07
  -1  -4  15    1.41    2.09
   0   4 -15   35.14    3.33
   0  -4  15   32.09    3.25
  -1   4 -15   27.59    2.79
   1  -4  15   27.64    4.28
  -2   4 -15    1.24    1.67
   2  -4  15    5.03    2.60
  -9  -3  15   35.49    3.12
   8   3 -15   10.63    2.53
  -8  -3  15    8.18    2.44
   7   3 -15    7.99    2.38
  -7  -3  15    5.11    2.34
   6   3 -15   35.02    3.34
  -6  -3  15   33.60    3.27
   5   3 -15   32.54    3.25
  -5  -3  15   34.51    3.27
   4   3 -15    1.33    1.95
  -4  -3  15    0.82    1.94
   3   3 -15   27.59    2.89
   3   3 -15   24.15    2.60
  -3  -3  15   29.17    2.99
   2   3 -15   58.63    3.68
  -2  -3  15   59.48    3.67
   1   3 -15    9.50    2.46
  -1  -3  15    6.90    2.35
   0   3 -15   17.19    2.77
   0  -3  15   12.72    2.74
  -1   3 -15   49.10    4.19
   1  -3  15   40.96    3.76
  -2   3 -15   20.12    3.05
   2  -3  15   12.97    2.86
   9   2 -15   38.33    3.79
  -9  -2  15   33.01    3.49
   8   2 -15   29.48    2.86
  -8  -2  15   25.19    2.70
   7   2 -15   -1.74    2.13
  -7  -2  15   -0.56    2.08
   6   2 -15   32.65    2.88
  -6  -2  15   27.66    2.73
   5   2 -15   55.70    4.13
  -5  -2  15   57.87    4.21
   4   2 -15    9.56    1.97
  -4  -2  15   10.16    1.96
   3   2 -15   23.34    3.03
  -3  -2  15   17.18    2.69
   2   2 -15   68.95    4.48
  -2  -2  15   61.58    4.35
   1   2 -15   43.77    3.30
  -1  -2  15   40.02    3.23
   0   2 -15    1.13    1.63
  -1   2 -15   42.48    3.44
   1  -2  15   45.27    3.55
  -2   2 -15   36.10    3.31
   3  -2  15    2.33    1.86
   9   1 -15   19.47    2.48
  -9  -1  15   21.26    2.65
   8   1 -15   30.05    3.25
  -8  -1  15   28.87    3.20
   7   1 -15   17.43    2.78
  -7  -1  15   16.57    2.84
   6   1 -15   18.38    2.68
  -6  -1  15   14.67    2.70
   5   1 -15   59.12    3.63
  -5  -1  15   57.94    3.64
   4   1 -15   44.78    3.69
  -4  -1  15   42.51    3.66
   3   1 -15   -1.97    1.95
  -3  -1  15   -0.76    2.04
   2   1 -15   38.47    3.49
  -2  -1  15   42.77    3.70
   1   1 -15   63.95    4.42
  -1  -1  15   64.42    4.56
   0   1 -15    7.58    2.48
   0  -1  15    5.15    2.50
  -1   1 -15   19.67    2.56
   1  -1  15   17.35    2.53
  -2   1 -15   49.85    3.83
   2  -1  15   53.95    4.79
  10   0 -15   13.33    2.81
   9   0 -15    1.13    2.31
  -9   0  15   -0.65    2.28
   8   0 -15   39.76    3.55
  -8   0  15   41.04    3.64
   7   0 -15   25.72    3.10
  -7   0  15   26.31    3.16
   6   0 -15   -0.49    1.98
  -6   0  15    0.60    2.11
   5   0 -15   27.39    3.20
   5   0 -15   27.89    2.74
  -5   0  15   27.82    2.80
   4   0 -15   42.49    3.23
   4   0 -15   50.37    4.22
  -4   0  15   46.01    3.36
   3   0 -15   15.69    2.59
  -3   0  15    5.46    2.46
   2   0 -15    7.27    2.30
  -2   0  15    6.38    2.40
   1   0 -15   55.37    4.25
  -1   0  15   54.44    4.29
   0   0 -15   32.27    3.09
   0   0  15   32.21    3.10
  -1   0 -15    6.54    2.00
   1   0  15    2.64    2.48
  -2   0 -15   16.27    2.53
   2   0  15   14.07    3.13
  10  -1 -15   17.92    2.46
 -10   1  15   18.76    2.68
   9  -1 -15    5.76    2.36
  -9   1  15    5.06    2.52
   8  -1 -15   10.53    2.53
  -8   1  15    5.99    2.45
   7  -1 -15   37.44    3.46
   7  -1 -15   29.70    3.21
  -7   1  15   31.24    3.32
   6  -1 -15   18.43    2.80
   6  -1 -15   17.08    2.70
  -6   1  15   16.90    2.84
   5  -1 -15   -0.73    2.09
   5  -1 -15   -0.18    1.93
  -5   1  15    0.40    2.06
   4  -1 -15   21.07    2.83
   4  -1 -15   25.06    2.61
  -4   1  15   23.60    2.64
   3  -1 -15   35.33    3.99
   3  -1 -15   31.24    2.89
  -3   1  15   35.10    3.09
   2  -1 -15    0.23    1.51
  -2   1  15   -0.88    1.55
   1  -1 -15   29.41    2.88
   0  -1 -15   31.89    3.01
   0   1  15   35.44    3.23
  -1  -1 -15    5.17    1.92
   1   1  15    5.58    2.03
  10  -2 -15   20.00    2.46
   9  -2 -15   19.19    2.75
  -9   2  15   24.22    3.08
   8  -2 -15    1.95    2.18
   8  -2 -15   -1.86    2.20
  -8   2  15    3.26    2.39
   7  -2 -15   20.04    3.11
   7  -2 -15   16.26    2.58
  -7   2  15   24.21    3.04
   6  -2 -15   28.15    2.70
   6  -2 -15   24.23    3.25
  -6   2  15   32.18    2.95
  -6   2  15   24.02    3.12
   5  -2 -15    5.13    2.56
   5  -2 -15   11.17    2.35
  -5   2  15    5.82    2.31
   4  -2 -15    8.97    2.86
   4  -2 -15    7.58    2.34
  -4   2  15   12.48    2.65
   3  -2 -15   32.22    3.25
   3  -2 -15   41.44    4.28
  -3   2  15   43.51    3.69
   2  -2 -15   16.50    2.64
  -2   2  15   21.09    3.00
   1  -2 -15    3.25    2.35
  -1   2  15   -0.91    2.36
   0  -2 -15   24.61    3.16
   0   2  15   30.30    3.56
  -1  -2 -15   18.76    3.15
   9  -3 -15   35.27    3.94
   9  -3 -15   43.87    3.58
  -9   3  15   43.60    3.40
  -9   3  15   45.97    4.40
   8  -3 -15   18.21    3.16
   8  -3 -15   16.31    2.28
  -8   3  15   20.55    2.54
  -8   3  15   13.70    3.30
   7  -3 -15    0.09    1.91
   7  -3 -15    2.29    1.95
  -7   3  15   -0.16    2.30
  -7   3  15    1.48    2.21
   6  -3 -15   34.45    3.81
   6  -3 -15   27.58    2.94
  -6   3  15   27.58    3.20
  -6   3  15   29.30    3.38
   5  -3 -15   45.05    4.42
   5  -3 -15   30.75    3.20
  -5   3  15   43.89    3.88
   4  -3 -15    3.53    2.77
   4  -3 -15   -0.36    1.95
  -4   3  15    0.05    2.09
   3  -3 -15   30.38    3.18
   3  -3 -15   26.59    3.96
  -3   3  15   26.59    3.18
   2  -3 -15   43.58    3.36
   1  -3 -15    6.77    1.88
  -1   3  15    8.29    2.16
   0  -3 -15    7.42    1.97
   0   3  15    4.70    2.06
  10  -4 -15    5.03    2.75
   9  -4 -15   32.84    3.92
  -9   4  15   30.81    3.35
  -9   4  15   29.82    4.22
   8  -4 -15   35.02    3.59
  -8   4  15   42.56    3.69
   7  -4 -15    4.59    2.06
  -7   4  15    5.12    1.77
  -7   4  15    3.09    2.52
   6  -4 -15   18.12    2.85
  -6   4  15   17.74    2.76
   5  -4 -15   53.26    5.08
  -5   4  15   60.52    4.34
   4  -4 -15   18.59    3.62
  -4   4  15   26.59    2.76
   3  -4 -15    4.24    2.39
  -3   4  15    2.67    1.76
  -2   4  15   34.30    3.14
  -1   4  15   27.69    3.46
   9  -5 -15    7.38    3.21
  -9   5  15   11.97    3.49
   8  -5 -15   40.44    4.06
  -8   5  15   49.93    4.19
  -8   5  15   49.16    4.66
   7  -5 -15   21.18    3.12
  -7   5  15   28.01    2.77
  -7   5  15   22.92    3.46
   6  -5 -15    3.37    2.18
  -6   5  15    1.45    2.11
   5  -5 -15   37.96    4.60
  -5   5  15   45.58    3.94
   4  -5 -15   32.71    4.42
  -4   5  15   44.56    3.75
   3  -5 -15    2.30    2.35
  -3   5  15    0.19    1.59
  -8   6  15   35.25    4.20
  -8   6  15   31.13    3.41
   7  -6 -15   35.15    4.55
  -7   6  15   36.37    3.47
   6  -6 -15    5.83    3.30
  -6   6  15    6.53    2.31
   5  -6 -15    9.50    3.54
  -5   6  15   12.42    2.49
   3   7 -16   10.27    2.25
   4   6 -16    2.27    2.68
   3   6 -16    2.66    2.30
   3   6 -16    2.87    2.40
   2   6 -16   19.76    2.53
   5   5 -16   17.53    2.89
   5   5 -16   17.57    3.43
   4   5 -16   20.97    2.77
   4   5 -16   22.30    3.03
   3   5 -16    6.64    2.43
   2   5 -16   20.18    2.45
   1   5 -16   26.93    2.84
   0   5 -16    5.92    1.97
   6   4 -16   16.80    2.97
   6   4 -16   22.91    3.66
  -6  -4  16   13.38    2.31
   5   4 -16    0.03    2.48
   5   4 -16   -2.55    2.10
  -5  -4  16    0.61    2.11
   4   4 -16   39.67    3.65
   4   4 -16   37.12    3.78
  -4  -4  16   33.26    3.35
   3   4 -16   35.47    3.51
  -3  -4  16   29.15    3.24
   2   4 -16   -0.25    2.12
   1   4 -16   26.73    3.25
   0   4 -16   13.09    2.80
  -8  -3  16    0.89    2.23
   7   3 -16   14.35    2.91
  -7  -3  16   15.94    2.85
   6   3 -16   43.68    3.85
  -6  -3  16   36.84    3.58
   5   3 -16   18.65    2.85
  -5  -3  16   14.53    2.84
   4   3 -16    9.13    2.44
   4   3 -16   19.61    2.88
  -4  -3  16   17.70    2.89
   3   3 -16   45.98    3.46
  -3  -3  16   44.93    3.44
   2   3 -16   14.81    2.66
  -2  -3  16   14.79    2.84
   1   3 -16    1.03    2.31
  -1  -3  16   -0.79    2.38
   0   3 -16   27.91    3.36
   1  -3  16   20.08    3.06
   8   2 -16    7.71    2.04
  -8  -2  16    5.02    2.02
   7   2 -16    0.56    1.64
  -7  -2  16    2.08    2.41
   6   2 -16   43.66    3.45
  -6  -2  16   45.62    3.56
   5   2 -16   43.77    3.80
  -5  -2  16   40.30    3.72
   4   2 -16    1.17    2.23
  -4  -2  16    1.16    2.36
   3   2 -16   31.31    3.41
  -3  -2  16   34.24    3.53
   2   2 -16   56.00    4.46
  -2  -2  16   55.77    4.52
   1   2 -16    5.51    2.60
  -1  -2  16    6.01    2.51
   0   2 -16   13.64    2.92
   0  -2  16   12.52    2.86
   1  -2  16   25.95    3.30
   8   1 -16   17.19    2.95
  -8  -1  16   18.58    3.02
   7   1 -16    0.79    2.22
  -7  -1  16   -1.90    2.16
   6   1 -16   33.74    3.45
  -6  -1  16   33.36    3.51
   5   1 -16   56.27    3.77
  -5  -1  16   56.10    3.85
   4   1 -16    6.65    2.49
  -4  -1  16    6.16    2.51
   3   1 -16   20.15    2.97
  -3  -1  16   13.01    2.89
   2   1 -16   65.17    4.61
  -2  -1  16   50.96    4.52
   1   1 -16   25.96    2.81
  -1  -1  16   26.37    2.93
   0   1 -16    1.73    1.83
   0  -1  16    1.92    1.75
   1  -1  16   22.24    2.81
   9   0 -16   11.69    2.86
   8   0 -16   45.34    3.96
  -8   0  16   50.08    4.45
   7   0 -16    7.80    2.47
  -7   0  16    5.84    2.57
   6   0 -16   10.53    2.57
  -6   0  16    7.33    2.53
   5   0 -16   55.94    3.80
  -5   0  16   67.52    4.14
   4   0 -16   36.98    3.57
  -4   0  16   33.65    3.54
   3   0 -16    2.33    2.29
  -3   0  16   -2.32    2.43
   2   0 -16   43.43    3.84
  -2   0  16   43.04    3.92
   1   0 -16   46.62    3.61
   0   0 -16    0.60    1.70
   0   0  16   -0.05    1.81
   9  -1 -16    2.74    2.39
   8  -1 -16   30.15    3.43
  -8   1  16   30.63    3.64
   7  -1 -16   27.83    3.18
  -7   1  16   33.03    3.67
   6  -1 -16    0.19    2.55
   6  -1 -16   -2.44    1.93
  -6   1  16    1.05    2.30
   5  -1 -16   20.30    3.28
   5  -1 -16   24.67    3.15
  -5   1  16   27.12    2.90
   4  -1 -16   48.11    4.20
   4  -1 -16   45.66    3.97
  -4   1  16   48.30    4.04
   3  -1 -16    8.02    2.52
  -3   1  16    7.16    2.65
   2  -1 -16   18.65    2.95
  -2   1  16   17.36    3.20
   1  -1 -16   31.65    3.60
  -1   1  16   34.83    3.83
   0  -1 -16    7.44    2.71
   9  -2 -16    3.55    2.40
   8  -2 -16    7.86    2.39
  -8   2  16    7.21    2.74
  -8   2  16    9.58    3.15
   7  -2 -16   24.58    2.96
   7  -2 -16   19.55    3.22
  -7   2  16   16.38    3.27
  -7   2  16   23.67    3.25
   6  -2 -16    9.90    2.02
   6  -2 -16    7.39    2.77
  -6   2  16    9.91    2.19
   5  -2 -16    0.51    2.24
   5  -2 -16    3.90    2.03
  -5   2  16    6.78    2.37
   4  -2 -16   50.60    4.29
   4  -2 -16   53.95    5.00
  -4   2  16   53.38    4.38
   3  -2 -16   14.06    2.33
  -3   2  16   21.21    2.70
   2  -2 -16    2.07    2.40
   1  -2 -16   17.39    2.99
  -1   2  16   18.61    3.29
   9  -3 -16   12.72    3.18
  -9   3  16   15.24    3.83
   8  -3 -16    3.29    2.63
  -8   3  16    2.05    2.80
  -8   3  16    1.31    1.80
   7  -3 -16   14.57    2.62
   7  -3 -16   12.28    3.07
  -7   3  16   12.19    2.31
   6  -3 -16   31.66    3.90
  -6   3  16   32.25    3.49
   5  -3 -16    3.65    1.79
   5  -3 -16    1.62    2.79
  -5   3  16    3.66    1.83
   4  -3 -16   10.19    3.27
   4  -3 -16   10.40    2.64
  -4   3  16   14.51    2.95
  -3   3  16   50.43    4.38
   2  -3 -16   10.19    2.68
   8  -4 -16   10.29    3.06
  -8   4  16    6.34    2.36
   7  -4 -16    7.70    2.18
  -7   4  16    4.78    2.53
   6  -4 -16   32.23    3.62
  -6   4  16   40.34    3.79
   5  -4 -16   26.64    4.05
  -5   4  16   29.25    3.42
   4  -4 -16    6.14    3.30
  -4   4  16    0.09    2.38
   5   4 -17   14.90    2.59
  -7  -3  17   29.03    3.58
  -6  -3  17   12.13    2.83
  -5  -3  17    6.95    2.67
   4   3 -17   30.08    3.07
  -4  -3  17   24.84    2.90
   3   3 -17    9.17    2.68
  -3  -3  17    8.34    2.71
  -2  -3  17   -2.92    2.29
  -1  -3  17   11.44    2.32
  -7  -2  17   18.38    3.21
   6   2 -17   36.11    3.49
  -6  -2  17   42.31    3.62
   5   2 -17    0.30    1.65
  -5  -2  17    1.86    1.76
   4   2 -17   10.87    2.77
  -4  -2  17    6.06    2.70
   3   2 -17   25.64    3.36
  -3  -2  17   26.59    3.46
   2   2 -17   12.40    2.43
  -2  -2  17   11.55    2.39
  -7  -1  17    8.31    2.86
   6   1 -17   28.45    3.46
  -6  -1  17   26.35    3.51
   5   1 -17   19.30    2.69
  -5  -1  17   18.87    2.61
   4   1 -17    1.94    2.44
  -4  -1  17    0.54    2.44
   3   1 -17   17.92    2.64
  -3  -1  17   19.02    2.81
   2   1 -17   23.40    3.30
  -2  -1  17   26.37    3.38
   7   0 -17    1.14    2.35
  -7   0  17   -2.45    2.58
   6   0 -17   25.11    3.29
  -6   0  17   28.41    3.58
   5   0 -17   37.47    3.71
  -5   0  17   36.73    3.90
   4   0 -17    3.16    2.56
  -4   0  17    2.53    2.60
   3   0 -17   12.29    2.25
  -3   0  17   14.44    2.48
  -2   0  17   36.61    3.86
   8  -1 -17   26.83    3.51
   7  -1 -17    6.03    2.46
   6  -1 -17    7.74    2.54
  -6   1  17    5.99    2.80
   5  -1 -17   32.27    4.08
   5  -1 -17   44.74    3.56
  -5   1  17   49.37    3.81
   4  -1 -17   14.74    2.91
  -4   1  17   15.87    3.22
   3  -1 -17    2.35    1.75
  -3   1  17    2.54    1.98
   7  -2 -17   14.64    2.79
   6  -2 -17   -0.64    2.37
   6  -2 -17    1.98    2.02
   5  -2 -17   27.09    3.36
   5  -2 -17   19.35    3.60
   4  -2 -17   16.84    2.94
   3  -2 -17   -1.47    2.36
   6  -3 -17    3.43    3.22
   0   0   0    0.00    0.00
;
_shelx_hkl_checksum              74485
#END Tags that were not found in dictionaries
loop_
_space_group_symop_operation_xyz
'x, y, z'
'-x, -y, -z'
loop_
_atom_site_label
_atom_site_type_symbol
_atom_site_fract_x
_atom_site_fract_y
_atom_site_fract_z
_atom_site_U_iso_or_equiv
_atom_site_adp_type
_atom_site_occupancy
_atom_site_site_symmetry_order
_atom_site_calc_flag
_atom_site_refinement_flags_posn
_atom_site_refinement_flags_adp
Pt1 Pt 0.35141(2) 0.08496(2) 0.39376(2) 0.01362(3) Uani 1 1 d . .
S1 S 0.63638(9) 0.05061(8) 0.42342(7) 0.01664(13) Uani 1 1 d . .
C1 C 0.1232(4) 0.1294(4) 0.3854(3) 0.0237(6) Uani 1 1 d . .
H1A H 0.1477 0.2416 0.3925 0.036 Uiso 1 1 calc R U
H1B H 0.0878 0.0927 0.4567 0.036 Uiso 1 1 calc R U
H1C H 0.0261 0.0749 0.3030 0.036 Uiso 1 1 calc R U
C2 C 0.5015(4) 0.2972(3) 0.5128(3) 0.0251(6) Uani 1 1 d . .
H2A H 0.6020 0.3499 0.4869 0.038 Uiso 1 1 calc R U
H2B H 0.5475 0.2818 0.6022 0.038 Uiso 1 1 calc R U
H2C H 0.4266 0.3611 0.5062 0.038 Uiso 1 1 calc R U
C3 C 0.3408(4) 0.1770(3) 0.2325(3) 0.0191(5) Uani 1 1 d . .
C4 C 0.4050(4) 0.3329(4) 0.2188(3) 0.0263(6) Uani 1 1 d . .
H4 H 0.4614 0.4127 0.2931 0.032 Uiso 1 1 calc R U
C5 C 0.3870(5) 0.3725(4) 0.0974(3) 0.0319(7) Uani 1 1 d . .
H5 H 0.4302 0.4791 0.0904 0.038 Uiso 1 1 calc R U
C6 C 0.3070(5) 0.2588(4) -0.0136(3) 0.0335(8) Uani 1 1 d . .
H6 H 0.2983 0.2875 -0.0954 0.040 Uiso 1 1 calc R U
C7 C 0.2406(5) 0.1047(4) -0.0040(3) 0.0310(7) Uani 1 1 d . .
H7 H 0.1850 0.0262 -0.0792 0.037 Uiso 1 1 calc R U
C8 C 0.2555(4) 0.0639(4) 0.1175(3) 0.0224(6) Uani 1 1 d . .
C9 C 0.1732(4) -0.0943(4) 0.1315(3) 0.0230(6) Uani 1 1 d . .
H9 H 0.1104 -0.1751 0.0578 0.028 Uiso 1 1 calc R U
N1 N 0.1861(3) -0.1246(3) 0.2450(2) 0.0172(4) Uani 1 1 d . .
C10 C 0.0935(4) -0.2791(3) 0.2569(3) 0.0194(5) Uani 1 1 d . .
C11 C -0.0028(4) -0.2988(3) 0.3383(3) 0.0214(6) Uani 1 1 d . .
H11 H -0.0024 -0.2103 0.3869 0.026 Uiso 1 1 calc R U
C12 C -0.0996(4) -0.4478(4) 0.3489(3) 0.0285(7) Uani 1 1 d . .
H12 H -0.1668 -0.4607 0.4035 0.034 Uiso 1 1 calc R U
C13 C -0.0981(5) -0.5778(4) 0.2799(4) 0.0360(8) Uani 1 1 d . .
H13 H -0.1652 -0.6795 0.2863 0.043 Uiso 1 1 calc R U
C14 C 0.0022(5) -0.5577(4) 0.2015(4) 0.0364(8) Uani 1 1 d . .
H14 H 0.0061 -0.6464 0.1562 0.044 Uiso 1 1 calc R U
C15 C 0.0970(5) -0.4098(4) 0.1881(3) 0.0278(7) Uani 1 1 d . .
H15 H 0.1635 -0.3973 0.1330 0.033 Uiso 1 1 calc R U
C16 C 0.6121(4) -0.0757(4) 0.2820(3) 0.0274(7) Uani 1 1 d . .
H16A H 0.5020 -0.1668 0.2582 0.041 Uiso 1 1 calc R U
H16B H 0.7152 -0.1096 0.3016 0.041 Uiso 1 1 calc R U
H16C H 0.6059 -0.0186 0.2101 0.041 Uiso 1 1 calc R U
loop_
_atom_site_aniso_label
_atom_site_aniso_U_11
_atom_site_aniso_U_22
_atom_site_aniso_U_33
_atom_site_aniso_U_23
_atom_site_aniso_U_13
_atom_site_aniso_U_12
Pt1 0.01459(5) 0.01415(5) 0.01171(5) 0.00145(3) 0.00458(3) 0.00495(3)
S1 0.0154(3) 0.0203(3) 0.0142(3) 0.0034(2) 0.0061(2) 0.0056(2)
C1 0.0250(15) 0.0278(15) 0.0234(15) 0.0060(12) 0.0107(12) 0.0141(12)
C2 0.0324(17) 0.0173(13) 0.0207(15) -0.0002(11) 0.0060(13) 0.0069(12)
C3 0.0164(12) 0.0233(13) 0.0185(13) 0.0062(11) 0.0073(10) 0.0069(10)
C4 0.0310(17) 0.0257(15) 0.0245(16) 0.0095(12) 0.0132(13) 0.0090(13)
C5 0.0332(18) 0.0350(18) 0.0321(18) 0.0197(15) 0.0174(15) 0.0099(14)
C6 0.0289(17) 0.050(2) 0.0237(16) 0.0190(15) 0.0118(14) 0.0115(15)
C7 0.0275(16) 0.045(2) 0.0144(14) 0.0076(13) 0.0059(12) 0.0069(15)
C8 0.0204(14) 0.0293(15) 0.0152(13) 0.0051(11) 0.0054(11) 0.0068(12)
C9 0.0221(14) 0.0274(15) 0.0147(13) -0.0014(11) 0.0044(11) 0.0057(12)
N1 0.0159(11) 0.0210(11) 0.0132(10) 0.0021(9) 0.0045(9) 0.0058(9)
C10 0.0173(13) 0.0201(13) 0.0168(13) 0.0011(10) 0.0035(10) 0.0048(10)
C11 0.0192(13) 0.0240(14) 0.0173(13) 0.0023(11) 0.0041(11) 0.0060(11)
C12 0.0219(15) 0.0291(16) 0.0302(17) 0.0082(13) 0.0087(13) 0.0036(12)
C13 0.0346(19) 0.0207(15) 0.039(2) 0.0086(14) 0.0048(16) 0.0007(14)
C14 0.046(2) 0.0210(15) 0.0322(19) -0.0026(13) 0.0061(16) 0.0091(15)
C15 0.0304(17) 0.0262(15) 0.0232(15) -0.0020(12) 0.0079(13) 0.0085(13)
C16 0.0264(15) 0.0399(18) 0.0198(15) 0.0015(13) 0.0113(12) 0.0147(14)
loop_
_atom_type_symbol
_atom_type_description
_atom_type_scat_dispersion_real
_atom_type_scat_dispersion_imag
_atom_type_scat_source
C C 0.0033 0.0016 'International Tables Vol C Tables 4.2.6.8 and 6.1.1.4'
H H 0.0000 0.0000 'International Tables Vol C Tables 4.2.6.8 and 6.1.1.4'
N N 0.0061 0.0033 'International Tables Vol C Tables 4.2.6.8 and 6.1.1.4'
Pt Pt -1.7033 8.3905 'International Tables Vol C Tables 4.2.6.8 and 6.1.1.4'
S S 0.1246 0.1234 'International Tables Vol C Tables 4.2.6.8 and 6.1.1.4'
loop_
_geom_angle_atom_site_label_1
_geom_angle_atom_site_label_2
_geom_angle_atom_site_label_3
_geom_angle
_geom_angle_site_symmetry_1
_geom_angle_site_symmetry_3
C3 Pt1 C2 92.81(13) . .
C3 Pt1 C1 88.49(12) . .
C2 Pt1 C1 88.53(14) . .
C3 Pt1 N1 79.64(11) . .
C2 Pt1 N1 172.33(11) . .
C1 Pt1 N1 89.94(12) . .
C3 Pt1 S1 174.08(8) . 2_656
C2 Pt1 S1 92.20(10) . 2_656
C1 Pt1 S1 94.79(9) . 2_656
N1 Pt1 S1 95.41(8) . 2_656
C3 Pt1 S1 93.91(9) . .
C2 Pt1 S1 86.33(10) . .
C1 Pt1 S1 174.43(9) . .
N1 Pt1 S1 95.44(7) . .
S1 Pt1 S1 83.27(3) 2_656 .
C16 S1 Pt1 111.38(12) . 2_656
C16 S1 Pt1 109.45(11) . .
Pt1 S1 Pt1 96.73(3) 2_656 .
Pt1 C1 H1A 109.5 . .
Pt1 C1 H1B 109.5 . .
H1A C1 H1B 109.5 . .
Pt1 C1 H1C 109.5 . .
H1A C1 H1C 109.5 . .
H1B C1 H1C 109.5 . .
Pt1 C2 H2A 109.5 . .
Pt1 C2 H2B 109.5 . .
H2A C2 H2B 109.5 . .
Pt1 C2 H2C 109.5 . .
H2A C2 H2C 109.5 . .
H2B C2 H2C 109.5 . .
C4 C3 C8 116.7(3) . .
C4 C3 Pt1 129.8(2) . .
C8 C3 Pt1 113.5(2) . .
C5 C4 C3 120.9(3) . .
C5 C4 H4 119.6 . .
C3 C4 H4 119.6 . .
C6 C5 C4 121.2(3) . .
C6 C5 H5 119.4 . .
C4 C5 H5 119.4 . .
C7 C6 C5 119.4(3) . .
C7 C6 H6 120.3 . .
C5 C6 H6 120.3 . .
C6 C7 C8 119.7(3) . .
C6 C7 H7 120.2 . .
C8 C7 H7 120.2 . .
C7 C8 C3 122.0(3) . .
C7 C8 C9 121.7(3) . .
C3 C8 C9 116.1(3) . .
N1 C9 C8 119.2(3) . .
N1 C9 H9 120.4 . .
C8 C9 H9 120.4 . .
C9 N1 C10 118.8(2) . .
C9 N1 Pt1 111.0(2) . .
C10 N1 Pt1 130.18(19) . .
C11 C10 C15 119.8(3) . .
C11 C10 N1 118.7(3) . .
C15 C10 N1 121.5(3) . .
C10 C11 C12 120.2(3) . .
C10 C11 H11 119.9 . .
C12 C11 H11 119.9 . .
C13 C12 C11 120.2(3) . .
C13 C12 H12 119.9 . .
C11 C12 H12 119.9 . .
C12 C13 C14 119.4(3) . .
C12 C13 H13 120.3 . .
C14 C13 H13 120.3 . .
C15 C14 C13 121.0(3) . .
C15 C14 H14 119.5 . .
C13 C14 H14 119.5 . .
C14 C15 C10 119.2(3) . .
C14 C15 H15 120.4 . .
C10 C15 H15 120.4 . .
S1 C16 H16A 109.5 . .
S1 C16 H16B 109.5 . .
H16A C16 H16B 109.5 . .
S1 C16 H16C 109.5 . .
H16A C16 H16C 109.5 . .
H16B C16 H16C 109.5 . .
loop_
_geom_bond_atom_site_label_1
_geom_bond_atom_site_label_2
_geom_bond_distance
_geom_bond_site_symmetry_2
Pt1 C3 2.020(3) .
Pt1 C2 2.053(3) .
Pt1 C1 2.070(3) .
Pt1 N1 2.197(3) .
Pt1 S1 2.4414(12) 2_656
Pt1 S1 2.4470(15) .
S1 C16 1.818(3) .
S1 Pt1 2.4414(12) 2_656
C1 H1A 0.9800 .
C1 H1B 0.9800 .
C1 H1C 0.9800 .
C2 H2A 0.9800 .
C2 H2B 0.9800 .
C2 H2C 0.9800 .
C3 C4 1.401(4) .
C3 C8 1.418(4) .
C4 C5 1.394(5) .
C4 H4 0.9500 .
C5 C6 1.392(5) .
C5 H5 0.9500 .
C6 C7 1.376(5) .
C6 H6 0.9500 .
C7 C8 1.403(4) .
C7 H7 0.9500 .
C8 C9 1.445(4) .
C9 N1 1.290(4) .
C9 H9 0.9500 .
N1 C10 1.429(4) .
C10 C11 1.391(4) .
C10 C15 1.402(4) .
C11 C12 1.393(4) .
C11 H11 0.9500 .
C12 C13 1.390(5) .
C12 H12 0.9500 .
C13 C14 1.390(6) .
C13 H13 0.9500 .
C14 C15 1.390(5) .
C14 H14 0.9500 .
C15 H15 0.9500 .
C16 H16A 0.9800 .
C16 H16B 0.9800 .
C16 H16C 0.9800 .
loop_
_geom_torsion_atom_site_label_1
_geom_torsion_atom_site_label_2
_geom_torsion_atom_site_label_3
_geom_torsion_atom_site_label_4
_geom_torsion
C8 C3 C4 C5 -0.9(5)
Pt1 C3 C4 C5 178.8(2)
C3 C4 C5 C6 -0.8(5)
C4 C5 C6 C7 1.5(5)
C5 C6 C7 C8 -0.5(5)
C6 C7 C8 C3 -1.3(5)
C6 C7 C8 C9 174.0(3)
C4 C3 C8 C7 2.0(5)
Pt1 C3 C8 C7 -177.8(3)
C4 C3 C8 C9 -173.6(3)
Pt1 C3 C8 C9 6.6(4)
C7 C8 C9 N1 -177.7(3)
C3 C8 C9 N1 -2.1(4)
C8 C9 N1 C10 175.5(3)
C8 C9 N1 Pt1 -3.1(3)
C9 N1 C10 C11 -134.6(3)
Pt1 N1 C10 C11 43.7(4)
C9 N1 C10 C15 45.0(4)
Pt1 N1 C10 C15 -136.7(3)
C15 C10 C11 C12 -1.8(4)
N1 C10 C11 C12 177.8(3)
C10 C11 C12 C13 1.1(5)
C11 C12 C13 C14 0.7(5)
C12 C13 C14 C15 -1.8(6)
C13 C14 C15 C10 1.1(5)
C11 C10 C15 C14 0.7(5)
N1 C10 C15 C14 -178.9(3)
