#------------------------------------------------------------------------------
#$Date: 2016-03-26 12:50:16 +0200 (Sat, 26 Mar 2016) $
#$Revision: 180216 $
#$URL: svn://www.crystallography.net/cod/cif/7/11/02/7110228.cif $
#------------------------------------------------------------------------------
#
# This file is available in the Crystallography Open Database (COD),
# http://www.crystallography.net/
#
# All data on this site have been placed in the public domain by the
# contributors.
#
data_7110228
loop_
_publ_author_name
'Wan Yue'
'Tao He'
'Matthias Stolte'
'Marcel Gsanger'
'Frank Wurthner'
_publ_section_title
;
 Cyanated isoindigos for n-type and ambipolar organic thin film
 transistors
;
_journal_name_full               Chem.Commun.
_journal_page_first              545
_journal_paper_doi               10.1039/c3cc48037b
_journal_volume                  50
_journal_year                    2014
_chemical_formula_moiety         'C34 H40 N4 O2'
_chemical_formula_sum            'C34 H40 N4 O2'
_chemical_formula_weight         536.70
_chemical_name_common            dicyano-isoindigo
_chemical_name_systematic
;
6,6'-dicyano-N.N'-(1-octyl)isoindigo 
;
_space_group_crystal_system      triclinic
_space_group_IT_number           2
_space_group_name_Hall           '-P 1'
_space_group_name_H-M_alt        'P -1'
_symmetry_space_group_name_Hall  '-P 1'
_symmetry_space_group_name_H-M   'P -1'
_atom_sites_solution_hydrogens   geom
_audit_creation_method           SHELXL-2013
_cell_angle_alpha                107.491(2)
_cell_angle_beta                 90.824(2)
_cell_angle_gamma                93.038(2)
_cell_formula_units_Z            1
_cell_length_a                   5.2943(4)
_cell_length_b                   9.7777(8)
_cell_length_c                   14.7860(12)
_cell_measurement_reflns_used    9986
_cell_measurement_temperature    100(2)
_cell_measurement_theta_max      72.41
_cell_measurement_theta_min      3.14
_cell_volume                     728.63(10)
_computing_cell_refinement       'Bruker SAINT'
_computing_data_collection       'Bruker APEX2'
_computing_data_reduction        'Bruker SAINT'
_computing_molecular_graphics    'Bruker SHELXTL'
_computing_publication_material  'Bruker SHELXTL'
_computing_structure_refinement  'SHELXL-2013 (Sheldrick, 2013)'
_computing_structure_solution    'SHELXS-2013 (Sheldrick, 2013)'
_diffrn_ambient_temperature      100(2)
_diffrn_measured_fraction_theta_full 0.994
_diffrn_measured_fraction_theta_max 0.992
_diffrn_measurement_device_type  'Bruker D8 QUEST PHOTON 100'
_diffrn_measurement_method       '\f and \w scans'
_diffrn_radiation_monochromator  multi_layered_optics
_diffrn_radiation_type           CuK\a
_diffrn_radiation_wavelength     1.54178
_diffrn_reflns_av_R_equivalents  0.0407
_diffrn_reflns_av_unetI/netI     0.0252
_diffrn_reflns_Laue_measured_fraction_full 0.994
_diffrn_reflns_Laue_measured_fraction_max 0.992
_diffrn_reflns_limit_h_max       6
_diffrn_reflns_limit_h_min       -5
_diffrn_reflns_limit_k_max       12
_diffrn_reflns_limit_k_min       -12
_diffrn_reflns_limit_l_max       18
_diffrn_reflns_limit_l_min       -18
_diffrn_reflns_number            15978
_diffrn_reflns_point_group_measured_fraction_full 0.994
_diffrn_reflns_point_group_measured_fraction_max 0.992
_diffrn_reflns_theta_full        67.679
_diffrn_reflns_theta_max         72.256
_diffrn_reflns_theta_min         3.135
_diffrn_source                   'Incoatec ImuS_microsource_with_mirror'
_exptl_absorpt_coefficient_mu    0.602
_exptl_absorpt_correction_T_max  0.7536
_exptl_absorpt_correction_T_min  0.5968
_exptl_absorpt_correction_type   multi-scan
_exptl_absorpt_process_details   'SADABS-2008/1 (Bruker, 2008)'
_exptl_crystal_colour            red
_exptl_crystal_density_diffrn    1.223
_exptl_crystal_density_method    'not measured'
_exptl_crystal_description       plate
_exptl_crystal_F_000             288
_exptl_crystal_size_max          0.749
_exptl_crystal_size_mid          0.346
_exptl_crystal_size_min          0.059
_refine_diff_density_max         0.206
_refine_diff_density_min         -0.231
_refine_diff_density_rms         0.049
_refine_ls_extinction_method     none
_refine_ls_goodness_of_fit_ref   1.076
_refine_ls_hydrogen_treatment    constr
_refine_ls_matrix_type           full
_refine_ls_number_parameters     182
_refine_ls_number_reflns         2869
_refine_ls_number_restraints     0
_refine_ls_restrained_S_all      1.076
_refine_ls_R_factor_all          0.0422
_refine_ls_R_factor_gt           0.0407
_refine_ls_shift/su_max          0.001
_refine_ls_shift/su_mean         0.000
_refine_ls_structure_factor_coef Fsqd
_refine_ls_weighting_details
'w=1/[\s^2^(Fo^2^)+(0.0677P)^2^+0.1776P] where P=(Fo^2^+2Fc^2^)/3'
_refine_ls_weighting_scheme      calc
_refine_ls_wR_factor_gt          0.1135
_refine_ls_wR_factor_ref         0.1155
_reflns_Friedel_coverage         0.000
_reflns_number_gt                2707
_reflns_number_total             2869
_reflns_threshold_expression     'I > 2\s(I)'
_cod_data_source_file            c3cc48037b.txt
_cod_data_source_block           yw27b_c
_cod_database_code               7110228
#BEGIN Tags that were not found in dictionaries:
_shelx_space_group_comment
;
The symmetry employed for this shelxl refinement is uniquely defined
by the following loop, which should always be used as a source of
symmetry information in preference to the above space-group names.
They are only intended as comments.
;
_shelxl_version_number           2013-4
_shelx_res_file
;
TITL yw27b in P-1
CELL  1.54178   5.2943   9.7777  14.7860  107.491   90.824   93.038
ZERR    1.00   0.0004   0.0008   0.0012   0.002   0.002   0.002
LATT 1
SFAC C  H  N  O
UNIT 34  40  4  2
L.S. 10
REM SHEL 999 0.809
ACTA
BOND
FMAP  -2
PLAN 20
MORE   -1
HTAB  2.5
CONF
REM  DELU
TEMP -173.150
WGHT    0.067700    0.177600
FVAR       0.30011
C1    1    0.760566    1.024822    0.605771    11.00000    0.01720    0.02187 =
         0.02096    0.00975    0.00251    0.00168
C2    1    0.896884    0.965246    0.512925    11.00000    0.01712    0.02060 =
         0.01910    0.00897    0.00159    0.00284
C3    1    0.755658    0.827410    0.465328    11.00000    0.01553    0.02132 =
         0.02221    0.01082    0.00158    0.00209
C4    1    0.551410    0.814000    0.523930    11.00000    0.01754    0.02027 =
         0.02093    0.00971    0.00194    0.00339
C5    1    0.781252    0.715622    0.381768    11.00000    0.01805    0.02344 =
         0.02391    0.00835    0.00414    0.00104
AFIX  43
H5    2    0.917337    0.720110    0.341376    11.00000   -1.20000
AFIX   0
C6    1    0.607776    0.597838    0.357682    11.00000    0.02094    0.02233 =
         0.02412    0.00708    0.00267    0.00171
AFIX  43
H6    2    0.626574    0.521767    0.300922    11.00000   -1.20000
AFIX   0
C7    1    0.406001    0.590140    0.416081    11.00000    0.01831    0.02034 =
         0.02653    0.01120    0.00029    0.00092
C8    1    0.375594    0.698832    0.501269    11.00000    0.01739    0.02314 =
         0.02496    0.01183    0.00290    0.00143
AFIX  43
H8    2    0.239874    0.693429    0.541630    11.00000   -1.20000
AFIX   0
C9    1    0.225177    0.468170    0.387858    11.00000    0.02034    0.02352 =
         0.02614    0.00962    0.00473    0.00357
C10   1    0.388502    0.952302    0.684958    11.00000    0.01854    0.02457 =
         0.02223    0.00938    0.00732    0.00230
AFIX  23
H10A  2    0.217635    0.909738    0.660872    11.00000   -1.20000
H10B  2    0.374414    1.056342    0.716144    11.00000   -1.20000
AFIX   0
C11   1    0.482312    0.883335    0.757678    11.00000    0.02191    0.03183 =
         0.02541    0.01410    0.00645    0.00571
AFIX  23
H11A  2    0.647863    0.930709    0.784977    11.00000   -1.20000
H11B  2    0.508251    0.780814    0.725452    11.00000   -1.20000
AFIX   0
C12   1    0.298366    0.894163    0.837894    11.00000    0.02256    0.02654 =
         0.02326    0.01120    0.00609    0.00331
AFIX  23
H12A  2    0.285085    0.996488    0.874240    11.00000   -1.20000
H12B  2    0.128469    0.854941    0.810461    11.00000   -1.20000
AFIX   0
C13   1    0.383710    0.812273    0.904937    11.00000    0.02405    0.03011 =
         0.02657    0.01414    0.00631    0.00393
AFIX  23
H13A  2    0.544544    0.859079    0.937431    11.00000   -1.20000
H13B  2    0.418041    0.713322    0.866878    11.00000   -1.20000
AFIX   0
C14   1    0.192737    0.804166    0.979909    11.00000    0.02522    0.02783 =
         0.02498    0.01259    0.00504    0.00180
AFIX  23
H14A  2    0.172760    0.902133    1.022962    11.00000   -1.20000
H14B  2    0.026354    0.766817    0.948213    11.00000   -1.20000
AFIX   0
C15   1    0.272717    0.708034    1.038274    11.00000    0.02715    0.02946 =
         0.02721    0.01415    0.00260    0.00081
AFIX  23
H15A  2    0.323071    0.616031    0.994457    11.00000   -1.20000
H15B  2    0.423274    0.754777    1.078328    11.00000   -1.20000
AFIX   0
C16   1    0.068549    0.675991    1.101899    11.00000    0.03437    0.02913 =
         0.02240    0.01080    0.00492   -0.00021
AFIX  23
H16A  2   -0.085948    0.633985    1.062793    11.00000   -1.20000
H16B  2    0.025634    0.766966    1.148890    11.00000   -1.20000
AFIX   0
C17   1    0.152496    0.572459    1.154027    11.00000    0.05606    0.02928 =
         0.02417    0.01212    0.00556    0.00116
AFIX 137
H17A  2    0.206374    0.484788    1.107982    11.00000   -1.50000
H17B  2    0.011044    0.548099    1.189514    11.00000   -1.50000
H17C  2    0.294042    0.617924    1.198102    11.00000   -1.50000
AFIX   0
N1    3    0.557372    0.932582    0.604931    11.00000    0.01889    0.02175 =
         0.02031    0.00825    0.00483    0.00068
N2    3    0.083439    0.370654    0.363988    11.00000    0.02331    0.02620 =
         0.03352    0.00760    0.00629   -0.00164
O1    4    0.812903    1.132668    0.671718    11.00000    0.02602    0.02692 =
         0.02340    0.00444    0.00707   -0.00423
HKLF 4

REM  yw27b in P-1
REM R1 =  0.0407 for    2707 Fo > 4sig(Fo)  and  0.0422 for all    2869 data
REM    182 parameters refined using      0 restraints

END

WGHT      0.0677      0.1776

REM Instructions for potential hydrogen bonds
EQIV $1 -x, -y+1, -z+1
HTAB C8 N2_$1
HTAB C10 N2_$1
EQIV $2 x-1, y, z
HTAB C10 O1_$2
EQIV $3 -x+1, -y+1, -z+1
HTAB C11 N2_$3

REM Highest difference peak  0.206,  deepest hole -0.231,  1-sigma level  0.049
Q1    1   0.6440  0.9099  0.5533  11.00000  0.05   -0.23
Q2    1   0.1698  0.5196  0.4410  11.00000  0.05   -0.23
Q3    1   0.8181  0.9648  0.6220  11.00000  0.05   -0.22
Q4    1   0.4674  0.8225  0.5652  11.00000  0.05   -0.21
Q5    1   0.2969  0.8135  0.9442  11.00000  0.05    0.21
Q6    1   0.5212  0.7361  0.4022  11.00000  0.05   -0.20
Q7    1   0.5403  0.6744  0.4438  11.00000  0.05   -0.20
Q8    1   0.3772  0.9934  0.6553  11.00000  0.05   -0.20
Q9    1   1.0138  0.8777  0.4232  11.00000  0.05   -0.20
Q10   1   0.1773  0.6954  1.0737  11.00000  0.05    0.20
Q11   1   1.0332  0.9825  0.5100  11.00000  0.05    0.19
Q12   1   0.8418  0.8567  0.4357  11.00000  0.05   -0.19
Q13   1   0.3072  0.7446  0.5427  11.00000  0.05   -0.19
Q14   1   0.6394  0.8256  0.4886  11.00000  0.05    0.19
Q15   1   0.2458  0.9254  0.8020  11.00000  0.05   -0.19
Q16   1   0.6951  0.5642  0.3064  11.00000  0.05   -0.18
Q17   1   0.5815  0.7828  0.5642  11.00000  0.05   -0.18
Q18   1   0.6932  0.9029  0.5032  11.00000  0.05   -0.18
Q19   1   0.3675  0.8960  0.9426  11.00000  0.05   -0.17
Q20   1   0.3264  0.9847  0.7369  11.00000  0.05   -0.17
;
_shelx_res_checksum              60469
_shelx_hkl_file
;
  -1   0   0   61.71    2.60
  -1   0   0   58.37    3.28
  -1   0   0   55.65    3.67
  -1   0   0   59.70    2.99
  -1   0   0   58.66    3.88
  -1   0   0   62.11    3.05
  -1   0   0   58.25    2.57
  -1   0   0   64.35    2.44
  -1   0   0   58.20    3.28
  -1   0   0   63.84    2.91
  -1   0   0   61.65    2.62
  -2   0   0   27.66    1.41
  -2   0   0   26.74    1.12
  -2   0   0   22.95    2.17
  -2   0   0   25.19    1.57
  -2   0   0   26.05    1.12
  -2   0   0   26.49    1.25
  -2   0   0   22.25    2.21
  -2   0   0   26.72    1.11
  -2   0   0   27.89    1.41
  -3   0   0   12.86    1.21
  -3   0   0   13.33    1.24
  -3   0   0   14.62    0.63
  -3   0   0   14.03    0.63
  -3   0   0   14.43    0.78
  -3   0   0   14.85    0.63
  -3   0   0   15.17    0.95
  -3   0   0   14.57    0.78
  -3   0   0   14.56    0.70
  -3   0   0   14.52    0.88
  -3   0   0   14.26    0.72
   4   0   0    0.35    0.09
   4   0   0    0.26    0.06
   4   0   0    0.42    0.11
   4   0   0    0.35    0.06
   5   0   0    9.69    0.83
   5   0   0   10.74    0.78
   6   0   0   16.67    1.32
   6   0   0   16.39    1.23
   6  -1   0    0.57    0.07
   6  -1   0    0.57    0.09
   6  -1   0    0.69    0.13
   5  -1   0    2.88    0.25
   4  -1   0    2.13    0.19
   4  -1   0    2.43    0.21
   4  -1   0    2.87    0.22
   4  -1   0    2.66    0.22
   4  -1   0    2.56    0.22
  -3   1   0    7.26    0.32
  -3   1   0    7.23    0.40
  -3   1   0    7.07    0.45
  -3   1   0    6.67    0.37
  -3   1   0    7.87    0.62
  -3   1   0    7.29    0.62
  -3   1   0    7.31    0.36
  -3   1   0    6.44    0.62
   2  -1   0    2.10    0.09
  -2   1   0    2.10    0.11
  -2   1   0    1.84    0.18
  -2   1   0    2.09    0.12
  -2   1   0    2.27    0.11
  -2   1   0    2.08    0.09
   1  -1   0  245.50   10.59
   1  -1   0  253.66   10.05
   1  -1   0  233.05   15.11
   1  -1   0  254.43   13.52
   1  -1   0  267.44   12.54
  -1   1   0  245.41   10.70
  -1   1   0  259.04   10.60
  -1   1   0  252.85   13.52
  -1   1   0  248.83   24.47
  -1   1   0  233.16   15.99
  -1   1   0  223.35   15.11
  -1   1   0  262.85   10.05
   0  -1   0   63.59    2.48
   0  -1   0   66.53    2.65
   0  -1   0   61.81    2.62
   0  -1   0   56.15    6.04
   0  -1   0   58.82    3.73
   0  -1   0   63.18    5.15
   0   1   0   62.84    2.48
   0   1   0   61.82    5.15
   0   1   0   62.91    2.62
   0   1   0   61.91    2.96
   0   1   0   53.03    6.04
   0   1   0   59.86    3.73
   0   1   0   63.55    2.65
  -1  -1   0    3.86    0.15
  -1  -1   0    3.07    0.31
  -1  -1   0    3.41    0.24
  -1  -1   0    3.58    0.18
  -1  -1   0    3.75    0.16
  -1  -1   0    3.77    0.16
  -1  -1   0    3.45    0.22
  -1  -1   0    3.72    0.18
  -1  -1   0    3.56    0.16
  -1  -1   0    3.59    0.16
   1   1   0    3.88    0.16
   1   1   0    3.96    0.15
   1   1   0    3.24    0.31
   1   1   0    3.89    0.15
   1   1   0    3.83    0.16
   1   1   0    3.77    0.18
   1   1   0    3.71    0.18
   1   1   0    3.88    0.16
  -2  -1   0    7.98    0.32
  -2  -1   0    7.57    0.32
  -2  -1   0    6.38    0.63
  -2  -1   0    7.44    0.32
  -2  -1   0    7.35    0.47
  -2  -1   0    7.15    0.44
  -2  -1   0    7.50    0.36
  -2  -1   0    6.68    0.61
  -2  -1   0    6.13    0.72
  -2  -1   0    7.36    0.40
  -2  -1   0    7.71    0.40
  -3  -1   0    7.36    0.46
  -3  -1   0    7.25    0.38
  -3  -1   0    6.82    0.64
  -3  -1   0    7.52    0.33
  -3  -1   0    6.22    0.74
  -3  -1   0    7.20    0.41
  -3  -1   0    7.68    0.38
  -3  -1   0    7.47    0.50
  -3  -1   0    7.67    0.33
  -3  -1   0    6.88    0.65
  -3  -1   0    7.40    0.33
  -3  -1   0    8.01    0.41
  -3  -1   0    7.95    0.39
   4   1   0    4.22    0.30
   4   1   0    4.00    0.26
   4   1   0    4.11    0.32
   4   1   0    4.39    0.35
   5   1   0   10.83    0.69
   5   1   0    9.26    0.77
   6   1   0    2.62    0.19
   6   1   0    2.00    0.18
   6  -2   0    7.53    0.62
   6  -2   0    7.28    0.57
   6  -2   0    7.84    0.56
   5  -2   0    1.40    0.14
   5  -2   0    1.03    0.14
   5  -2   0    1.01    0.12
   4  -2   0    1.02    0.13
   4  -2   0    0.90    0.10
  -3   2   0    2.35    0.23
  -3   2   0    2.16    0.11
  -3   2   0    1.96    0.12
   2  -2   0   10.21    0.46
   2  -2   0   10.42    0.58
  -2   2   0    9.70    0.58
  -2   2   0   10.80    0.52
  -2   2   0   11.80    1.05
   1  -2   0   34.96    1.86
   1  -2   0   34.17    1.46
   1  -2   0   34.13    1.39
   1  -2   0   36.36    1.86
  -1   2   0   31.99    2.08
  -1   2   0   32.39    2.20
  -1   2   0   35.17    3.37
  -1   2   0   33.98    1.38
   0  -2   0    0.28    0.02
   0  -2   0    0.23    0.03
   0  -2   0    0.31    0.03
   0  -2   0    0.28    0.02
   0  -2   0    0.27    0.02
   0  -2   0    0.28    0.04
   0   2   0    0.30    0.02
   0   2   0    0.28    0.03
   0   2   0    0.30    0.02
   0   2   0    0.28    0.02
   0   2   0    0.32    0.02
   0   2   0    0.26    0.04
   0   2   0    0.29    0.02
  -1  -2   0   17.95    0.74
  -1  -2   0   18.39    0.78
  -1  -2   0   18.00    0.79
  -1  -2   0   18.04    0.79
  -1  -2   0   16.91    1.54
  -1  -2   0   17.64    1.18
  -1  -2   0   18.08    0.89
   1   2   0   19.17    0.79
   1   2   0   18.41    0.89
   1   2   0   18.50    0.78
   1   2   0   19.10    0.91
   1   2   0   17.18    1.54
   1   2   0   19.32    0.80
   1   2   0   19.07    0.74
  -2  -2   0   16.42    0.71
  -2  -2   0   17.08    0.71
  -2  -2   0   17.43    0.83
  -2  -2   0   16.81    1.00
  -2  -2   0   16.74    1.06
  -2  -2   0   15.93    1.39
  -2  -2   0   14.15    0.82
  -2  -2   0   14.01    1.62
  -2  -2   0   17.43    0.71
   2   2   0   17.70    0.82
  -3  -2   0    6.82    0.79
  -3  -2   0    7.94    0.34
  -3  -2   0    7.53    0.68
  -3  -2   0    7.90    0.40
  -3  -2   0    8.20    0.53
  -3  -2   0    8.38    0.44
  -3  -2   0    7.62    0.35
  -3  -2   0    7.37    0.69
  -3  -2   0    7.38    0.34
  -3  -2   0    8.44    0.44
   3   2   0    7.38    0.60
   3   2   0    7.64    0.43
   4   2   0    2.10    0.14
   4   2   0    2.21    0.19
   4   2   0    2.16    0.18
   4   2   0    2.08    0.20
   5   2   0    3.77    0.28
   6   2   0    0.83    0.10
   6  -3   0    4.05    0.29
   6  -3   0    3.44    0.24
   6  -3   0    3.68    0.32
   5  -3   0    1.48    0.17
   5  -3   0    1.47    0.15
   5  -3   0    1.54    0.16
   5  -3   0    1.77    0.15
   4  -3   0    1.45    0.13
   4  -3   0    1.19    0.16
   4  -3   0    1.23    0.14
   3  -3   0   62.99    4.63
   3  -3   0   56.32    3.64
   3  -3   0   66.02    4.12
  -3   3   0   65.49    5.28
   2  -3   0    2.08    0.12
   2  -3   0    1.76    0.09
  -2   3   0    1.97    0.20
   1  -3   0    4.99    0.41
   1  -3   0    4.60    0.21
   1  -3   0    4.70    0.26
  -1   3   0    4.61    0.20
  -1   3   0    4.40    0.31
  -1   3   0    5.04    0.47
  -1   3   0    4.68    0.23
   0  -3   0    0.15    0.03
   0  -3   0    0.14    0.03
   0  -3   0    0.20    0.02
   0  -3   0    0.19    0.02
   0   3   0    0.18    0.02
   0   3   0    0.18    0.02
   0   3   0    0.16    0.02
   0   3   0    0.19    0.01
  -1  -3   0   31.70    1.43
  -1  -3   0   32.73    1.41
  -1  -3   0   32.22    1.34
   1   3   0   33.01    1.64
   1   3   0   34.19    1.43
   1   3   0   33.71    1.43
   1   3   0   32.84    1.41
  -2  -3   0   14.21    0.67
  -2  -3   0   15.49    0.63
  -2  -3   0   13.72    0.68
  -2  -3   0   16.02    0.67
   2   3   0   16.27    0.66
   2   3   0   15.84    0.78
   2   3   0   15.99    0.63
   2   3   0   15.19    0.68
   2   3   0   16.33    0.63
  -3  -3   0    0.33    0.08
  -3  -3   0    0.31    0.05
  -3  -3   0    0.31    0.06
  -3  -3   0    0.35    0.12
   3   3   0    0.37    0.07
   3   3   0    0.37    0.11
   3   3   0    0.14    0.10
   3   3   0    0.45    0.09
   4   3   0   13.68    1.10
   4   3   0   14.32    1.07
   4   3   0   14.41    1.00
   4   3   0   14.19    0.94
   5   3   0    3.60    0.27
   5   3   0    3.46    0.21
   5   3   0    4.00    0.28
   5   3   0    4.05    0.31
   6  -4   0    1.22    0.10
   6  -4   0    1.09    0.09
   6  -4   0    1.02    0.10
   5  -4   0    1.25    0.13
   5  -4   0    0.72    0.11
   5  -4   0    1.18    0.10
   5  -4   0    1.06    0.13
   5  -4   0    0.84    0.12
   4  -4   0    0.35    0.07
   4  -4   0    0.49    0.07
   4  -4   0    0.34    0.06
   4  -4   0    0.42    0.08
   4  -4   0    0.35    0.07
   4  -4   0    0.43    0.07
   3  -4   0   10.53    0.46
   3  -4   0   10.38    0.55
  -3   4   0    9.73    0.50
   2  -4   0    1.11    0.09
  -2   4   0    1.04    0.12
  -2   4   0    1.05    0.06
  -2   4   0    0.91    0.13
  -2   4   0    1.02    0.12
   1  -4   0    0.82    0.08
   1  -4   0    0.73    0.05
   1  -4   0    0.68    0.06
   1  -4   0    0.70    0.07
  -1   4   0    0.64    0.06
  -1   4   0    0.69    0.04
  -1   4   0    0.64    0.06
  -1   4   0    0.60    0.04
  -1   4   0    0.56    0.09
  -1   4   0    0.72    0.04
   0  -4   0   27.12    2.62
   0  -4   0   23.31    2.28
   0  -4   0   26.09    1.14
   0  -4   0   26.16    1.08
   0   4   0   27.10    1.62
   0   4   0   28.93    1.15
   0   4   0   26.15    1.14
   0   4   0   26.90    1.08
   0   4   0   26.61    1.14
   0   4   0   26.40    1.29
  -1  -4   0   12.21    0.53
  -1  -4   0   12.54    0.55
   1   4   0   12.84    0.52
   1   4   0   12.46    0.55
   1   4   0   12.88    0.56
   1   4   0   13.17    0.64
   1   4   0   13.04    0.56
  -2  -4   0   43.50    1.82
  -2  -4   0   41.88    1.73
  -2  -4   0   39.80    1.85
   2   4   0   45.15    2.12
   2   4   0   41.93    1.85
   3   4   0    1.24    0.18
   3   4   0    1.18    0.11
   4   4   0    8.88    0.74
   4   4   0    9.31    0.62
   4   4   0    9.38    0.50
   4   4   0    8.97    0.67
   4   4   0    9.82    0.64
   5   4   0    6.36    0.43
   5   4   0    6.74    0.45
   5   4   0    5.85    0.49
   5   4   0    5.84    0.33
   5   4   0    6.01    0.42
   6  -5   0    2.00    0.16
   5  -5   0    3.49    0.25
   5  -5   0    2.84    0.20
   5  -5   0    3.36    0.25
   5  -5   0    2.77    0.27
   5  -5   0    2.55    0.20
   4  -5   0   13.74    0.86
   4  -5   0   14.20    0.86
   4  -5   0   15.82    1.08
   4  -5   0   15.28    1.06
   4  -5   0   12.46    1.16
   4  -5   0   13.78    0.87
   4  -5   0   14.67    0.86
   3  -5   0    0.07    0.04
   3  -5   0    0.05    0.07
   3  -5   0   -0.04    0.05
   3  -5   0    0.05    0.04
   3  -5   0   -0.04    0.05
   2  -5   0   13.73    0.98
   2  -5   0   12.40    0.74
   1  -5   0    1.64    0.13
   1  -5   0    1.47    0.13
   1  -5   0    1.85    0.16
  -1   5   0    1.60    0.12
  -1   5   0    1.78    0.13
  -1   5   0    1.59    0.09
  -1   5   0    1.58    0.10
   0  -5   0    0.30    0.04
   0  -5   0    0.32    0.07
   0  -5   0    0.26    0.04
   0   5   0    0.32    0.03
   0   5   0    0.39    0.05
   0   5   0    0.28    0.04
   0   5   0    0.32    0.03
   0   5   0    0.36    0.03
   0   5   0    0.37    0.05
  -1  -5   0    1.89    0.11
  -1  -5   0    1.84    0.12
   1   5   0    2.06    0.12
   1   5   0    1.99    0.12
   1   5   0    2.01    0.11
   1   5   0    1.87    0.13
  -2  -5   0    0.15    0.06
   2   5   0    0.08    0.08
   2   5   0    0.13    0.04
   2   5   0    0.14    0.07
   2   5   0    0.13    0.09
   3   5   0    0.13    0.04
   3   5   0    0.12    0.06
   3   5   0    0.08    0.05
   3   5   0    0.16    0.05
   3   5   0    0.13    0.04
   4   5   0    1.53    0.14
   4   5   0    1.59    0.15
   4   5   0    1.55    0.12
   4   5   0    1.87    0.15
   4   5   0    1.63    0.15
   4   5   0    1.47    0.16
   4   5   0    1.62    0.18
   5   5   0    3.10    0.24
   5   5   0    3.03    0.26
   5   5   0    3.17    0.22
   5   5   0    3.13    0.23
   5  -6   0    0.08    0.04
   5  -6   0    0.00    0.04
   5  -6   0    0.01    0.03
   5  -6   0    0.19    0.04
   5  -6   0    0.07    0.07
   4  -6   0   11.56    0.79
   4  -6   0   10.28    0.64
   4  -6   0   10.73    0.78
   4  -6   0   10.53    0.63
   4  -6   0    9.57    0.85
   4  -6   0   10.44    0.64
   4  -6   0    9.68    0.56
   3  -6   0   10.85    0.68
   3  -6   0   10.36    0.91
   3  -6   0   11.18    0.59
   3  -6   0   11.90    0.83
   3  -6   0   11.44    0.67
  -3   6   0   10.97    0.53
   2  -6   0    1.55    0.12
   2  -6   0    1.66    0.13
   2  -6   0    1.45    0.20
   2  -6   0    1.79    0.15
   2  -6   0    1.54    0.13
  -2   6   0    1.45    0.16
  -2   6   0    1.40    0.13
  -2   6   0    1.63    0.11
   1  -6   0   23.44    1.49
  -1   6   0   26.55    1.04
  -1   6   0   25.39    1.10
  -1   6   0   25.02    1.47
  -1   6   0   25.75    1.56
   0  -6   0    0.26    0.07
   0  -6   0    0.23    0.05
   0  -6   0    0.25    0.06
   0  -6   0    0.38    0.11
   0   6   0    0.26    0.06
   0   6   0    0.33    0.05
  -1  -6   0    1.22    0.13
   1   6   0    0.75    0.11
   1   6   0    0.84    0.07
   1   6   0    0.76    0.13
   1   6   0    0.74    0.10
   1   6   0    0.82    0.10
   1   6   0    0.80    0.08
   1   6   0    0.94    0.11
   2   6   0    7.93    0.47
   2   6   0    7.49    0.53
   2   6   0    7.92    0.42
   2   6   0    7.21    0.56
   2   6   0    8.32    0.47
   3   6   0   12.16    0.67
   3   6   0   11.41    0.85
   3   6   0   11.29    0.67
   3   6   0   11.80    0.76
   3   6   0   11.47    0.60
   3   6   0   10.92    0.75
   3   6   0   10.16    0.80
   3   6   0   10.43    0.88
   4   6   0    0.05    0.04
   4   6   0    0.16    0.06
   4   6   0    0.05    0.04
   4   6   0    0.08    0.04
   4   6   0    0.12    0.03
   4   6   0    0.04    0.04
   5   6   0    0.24    0.03
   5   6   0    0.20    0.04
   5   6   0    0.24    0.04
   5   6   0    0.32    0.05
   5   6   0    0.30    0.05
   5  -7   0    6.58    0.39
   5  -7   0    6.53    0.48
   5  -7   0    6.03    0.52
   4  -7   0    0.04    0.04
   4  -7   0    0.06    0.04
   4  -7   0    0.07    0.04
   4  -7   0    0.03    0.06
   4  -7   0    0.05    0.05
   4  -7   0    0.08    0.04
   4  -7   0    0.06    0.05
   4  -7   0    0.06    0.04
  -4   7   0    0.09    0.04
  -4   7   0    0.05    0.03
   3  -7   0    5.29    0.29
   3  -7   0    4.90    0.39
   3  -7   0    5.09    0.29
   3  -7   0    5.12    0.33
   3  -7   0    5.30    0.34
  -3   7   0    5.29    0.31
  -3   7   0    4.73    0.26
   2  -7   0    6.92    0.38
   2  -7   0    7.25    0.39
   2  -7   0    7.18    0.45
   2  -7   0    7.18    0.44
  -2   7   0    7.12    0.35
  -2   7   0    6.67    0.44
  -2   7   0    6.91    0.39
   1  -7   0    1.21    0.13
   1  -7   0    1.16    0.09
  -1   7   0    1.21    0.09
   0  -7   0    5.84    0.32
   0   7   0    5.95    0.36
  -1  -7   0    0.07    0.09
   1   7   0    0.03    0.05
   1   7   0    0.04    0.11
   1   7   0    0.11    0.04
   1   7   0    0.09    0.05
   1   7   0    0.09    0.07
   1   7   0    0.02    0.03
   2   7   0   16.06    0.83
   2   7   0   13.99    1.10
   2   7   0   16.84    0.90
   2   7   0   16.91    0.93
   2   7   0   15.80    0.92
   2   7   0   15.74    0.82
   2   7   0   13.92    1.21
   3   7   0    0.73    0.14
   3   7   0    0.58    0.08
   3   7   0    0.59    0.08
   3   7   0    0.56    0.08
   3   7   0    0.67    0.09
   3   7   0    0.61    0.07
   4   7   0    2.02    0.17
   4   7   0    2.27    0.14
   4   7   0    2.26    0.17
   4   7   0    2.27    0.18
   4   7   0    2.23    0.19
   4  -8   0    6.00    0.32
   4  -8   0    6.26    0.36
   4  -8   0    5.26    0.48
   4  -8   0    5.76    0.36
   4  -8   0    6.21    0.36
   4  -8   0    5.77    0.37
   4  -8   0    5.94    0.45
  -4   8   0    5.96    0.28
  -4   8   0    5.33    0.35
   3  -8   0   -0.02    0.06
   3  -8   0   -0.01    0.07
   3  -8   0    0.00    0.03
   3  -8   0    0.03    0.08
   3  -8   0   -0.02    0.03
  -3   8   0    0.00    0.03
   2  -8   0    0.84    0.11
   2  -8   0    1.01    0.08
  -2   8   0    1.05    0.07
  -2   8   0    0.89    0.09
  -2   8   0    0.87    0.09
   1  -8   0    2.69    0.16
   1  -8   0    2.64    0.20
   1  -8   0    2.52    0.17
  -1   8   0    2.58    0.15
  -1   8   0    2.64    0.19
  -1   8   0    2.59    0.19
  -1   8   0    2.61    0.17
   0  -8   0   11.43    0.60
   0  -8   0   10.70    0.68
   0  -8   0   11.38    0.59
   0   8   0   10.77    0.66
   0   8   0   10.82    0.60
   0   8   0   10.48    0.65
   0   8   0   11.62    0.66
   0   8   0   12.21    0.54
  -1  -8   0    8.35    0.52
   1   8   0    9.14    0.51
   1   8   0    9.42    0.47
   1   8   0    7.32    0.62
   1   8   0    8.77    0.52
   1   8   0    8.60    0.47
   2   8   0    2.76    0.16
   2   8   0    3.08    0.20
   2   8   0    2.71    0.18
   2   8   0    2.51    0.21
   2   8   0    2.57    0.17
   2   8   0    2.37    0.22
  -3  -8   0    0.44    0.06
   3   8   0    0.56    0.06
   3   8   0    0.40    0.07
   3   8   0    0.59    0.08
   3   8   0    0.47    0.07
   3   8   0    0.58    0.06
   3   8   0    0.52    0.05
   3   8   0    0.48    0.09
   4   8   0    0.04    0.04
   4   8   0    0.01    0.03
   4   8   0    0.03    0.03
   4   8   0   -0.02    0.04
   4   8   0    0.06    0.02
   4  -9   0    6.65    0.39
   4  -9   0    6.44    0.35
   4  -9   0    6.53    0.39
   4  -9   0    6.57    0.40
  -4   9   0    6.38    0.37
   3  -9   0    0.42    0.07
   3  -9   0    0.40    0.05
   3  -9   0    0.36    0.05
   3  -9   0    0.52    0.07
  -3   9   0    0.49    0.04
  -3   9   0    0.45    0.06
  -3   9   0    0.47    0.06
   2  -9   0    1.22    0.14
   2  -9   0    1.44    0.11
   2  -9   0    1.28    0.13
   2  -9   0    1.64    0.11
  -2   9   0    1.43    0.09
  -2   9   0    1.48    0.11
  -2   9   0    1.35    0.14
   1  -9   0   11.87    0.65
   1  -9   0   12.39    0.66
  -1   9   0   12.76    0.59
  -1   9   0   12.02    0.65
  -1   9   0   12.47    0.72
   0  -9   0    5.86    0.39
   0  -9   0    6.32    0.35
   0   9   0    6.33    0.37
   0   9   0    6.29    0.34
   0   9   0    6.10    0.38
  -1  -9   0    0.02    0.09
  -1  -9   0    0.19    0.04
   1   9   0    0.13    0.06
   1   9   0    0.10    0.05
   1   9   0    0.19    0.05
  -2  -9   0    0.99    0.09
   2   9   0    0.99    0.09
   2   9   0    1.01    0.09
   2   9   0    0.84    0.11
   2   9   0    0.95    0.08
   2   9   0    1.04    0.11
   2   9   0    1.04    0.10
   2   9   0    1.01    0.07
   2   9   0    0.69    0.11
   2   9   0    0.86    0.14
  -3  -9   0    2.79    0.16
   3   9   0    2.96    0.21
   3   9   0    3.13    0.20
   3   9   0    2.69    0.21
   3   9   0    2.74    0.24
   3 -10   0    1.10    0.07
   3 -10   0    0.96    0.08
  -3  10   0    0.97    0.08
  -3  10   0    1.23    0.09
  -3  10   0    0.99    0.06
   2 -10   0    2.01    0.14
   2 -10   0    2.03    0.13
   2 -10   0    2.06    0.13
  -2  10   0    1.99    0.14
  -2  10   0    2.11    0.14
  -2  10   0    2.10    0.11
   1 -10   0   34.67    1.80
   1 -10   0   35.91    2.03
   1 -10   0   36.46    1.81
  -1  10   0   33.02    1.80
  -1  10   0   34.58    1.61
  -1  10   0   35.10    1.96
  -1  10   0   32.81    2.00
  -1  10   0   35.44    1.90
   0 -10   0    5.85    0.38
   0 -10   0    6.32    0.34
   0  10   0    6.32    0.34
   0  10   0    6.32    0.37
   0  10   0    6.03    0.37
  -1 -10   0    2.90    0.17
   1  10   0    2.82    0.19
   1  10   0    2.86    0.22
   1  10   0    2.96    0.18
   1  10   0    2.86    0.17
  -2 -10   0    0.05    0.02
   2  10   0    0.08    0.03
   2  10   0    0.01    0.02
   2  10   0    0.03    0.05
   2  10   0    0.12    0.03
   2  10   0    0.12    0.03
   2 -11   0    0.53    0.05
   2 -11   0    0.40    0.05
  -2  11   0    0.39    0.04
  -2  11   0    0.38    0.05
  -2  11   0    0.41    0.04
   1 -11   0    0.70    0.06
  -1  11   0    0.70    0.06
   0 -11   0    0.08    0.02
   0  11   0    0.09    0.02
   0  11   0    0.11    0.03
   0  11   0    0.04    0.03
   0  11   0    0.06    0.03
  -1 -11   0    1.29    0.07
   1  11   0    1.46    0.09
   1  11   0    1.40    0.11
   1  11   0    1.18    0.09
   1  11   0    1.35    0.08
   1  11  -1    0.58    0.05
   1  11  -1    0.47    0.05
   1  11  -1    0.44    0.06
   1  11  -1    0.47    0.05
  -1 -11   1    0.53    0.04
  -1 -11   1    0.43    0.06
  -1 -11   1    0.52    0.05
   0  11  -1    1.23    0.08
   0  11  -1    0.91    0.08
   0  11  -1    1.16    0.08
   0  11  -1    1.02    0.11
   0 -11   1    1.10    0.08
   0 -11   1    1.27    0.08
   0 -11   1    1.16    0.06
  -1  11  -1    0.28    0.04
  -1  11  -1    0.22    0.05
   1 -11   1    0.36    0.05
   1 -11   1    0.33    0.04
  -2  11  -1    0.06    0.03
  -2  11  -1    0.05    0.03
  -2  11  -1    0.05    0.02
   2 -11   1    0.02    0.03
   2 -11   1    0.06    0.03
   3  10  -1    2.00    0.15
   2  10  -1    0.05    0.03
   2  10  -1    0.04    0.03
   2  10  -1    0.01    0.04
   2  10  -1    0.06    0.03
   2  10  -1    0.05    0.03
  -2 -10   1    0.03    0.03
   1  10  -1   11.78    0.67
   1  10  -1   11.68    0.68
   1  10  -1   12.29    0.61
   1  10  -1   10.51    0.78
  -1 -10   1   11.62    0.61
   0  10  -1    2.07    0.13
   0  10  -1    1.99    0.14
   0  10  -1    2.03    0.14
   0 -10   1    2.12    0.15
   0 -10   1    2.10    0.13
  -1  10  -1   18.87    1.08
  -1  10  -1   18.57    1.05
  -1  10  -1   20.08    0.89
   1 -10   1   18.51    1.12
   1 -10   1   18.96    1.00
  -2  10  -1    4.75    0.28
  -2  10  -1    4.68    0.23
  -2  10  -1    4.64    0.28
   2 -10   1    4.70    0.29
   2 -10   1    4.78    0.26
   2 -10   1    4.54    0.26
  -3  10  -1    2.21    0.11
  -3  10  -1    1.98    0.13
  -3  10  -1    2.07    0.13
   3 -10   1    1.98    0.12
   3 -10   1    2.22    0.14
   3   9  -1    1.87    0.11
   3   9  -1    1.99    0.16
   3   9  -1    1.62    0.16
   3   9  -1    1.67    0.15
   3   9  -1    2.07    0.14
   3   9  -1    1.83    0.14
  -3  -9   1    1.79    0.11
  -3  -9   1    1.67    0.13
   2   9  -1    4.02    0.26
   2   9  -1    3.62    0.30
   2   9  -1    4.14    0.25
   2   9  -1    4.39    0.29
   2   9  -1    3.85    0.29
   2   9  -1    4.16    0.23
   2   9  -1    4.50    0.23
   2   9  -1    4.05    0.34
  -2  -9   1    3.90    0.23
   1   9  -1    0.62    0.09
   1   9  -1    0.57    0.06
   1   9  -1    0.49    0.07
  -1  -9   1    0.48    0.06
   0   9  -1   20.63    1.15
   0   9  -1   19.63    1.17
   0   9  -1   19.83    1.05
   0   9  -1   18.80    0.94
   0   9  -1   20.65    1.11
   0  -9   1   20.36    1.05
  -1   9  -1    0.50    0.05
  -1   9  -1    0.59    0.07
  -1   9  -1    0.42    0.06
  -1   9  -1    0.56    0.07
   1  -9   1    0.34    0.06
   1  -9   1    0.36    0.05
   1  -9   1    0.51    0.07
  -2   9  -1    0.12    0.04
   2  -9   1    0.23    0.06
   2  -9   1    0.11    0.04
  -3   9  -1    2.32    0.13
  -3   9  -1    2.49    0.16
  -3   9  -1    2.41    0.17
   3  -9   1    2.48    0.18
   3  -9   1    2.38    0.14
   3  -9   1    2.44    0.17
   3  -9   1    2.41    0.17
  -4   9  -1    2.89    0.16
  -4   9  -1    2.88    0.19
  -4   9  -1    3.42    0.19
   4  -9   1    3.26    0.18
   4  -9   1    3.21    0.20
   4  -9   1    3.25    0.20
   4  -9   1    3.49    0.20
   4   8  -1    0.00    0.02
   4   8  -1    0.00    0.03
   4   8  -1    0.03    0.02
   4   8  -1    0.04    0.04
   4   8  -1    0.02    0.04
   3   8  -1    0.32    0.05
   3   8  -1    0.28    0.06
   3   8  -1    0.39    0.05
   3   8  -1    0.34    0.06
   3   8  -1    0.28    0.07
   3   8  -1    0.33    0.07
   3   8  -1    0.34    0.05
   3   8  -1    0.36    0.06
  -3  -8   1    0.29    0.06
   2   8  -1   21.27    1.19
   2   8  -1   20.94    1.22
   2   8  -1   20.46    1.09
   2   8  -1   21.31    1.39
   2   8  -1   21.40    1.09
  -2  -8   1   19.32    1.09
   1   8  -1    4.04    0.26
   1   8  -1    3.66    0.26
   1   8  -1    4.27    0.23
   1   8  -1    3.90    0.24
   1   8  -1    4.40    0.28
   1   8  -1    4.22    0.29
  -1  -8   1    3.72    0.23
   0   8  -1   15.40    0.83
   0   8  -1   14.26    0.79
   0   8  -1   15.58    0.86
   0   8  -1   15.45    0.70
   0  -8   1   14.60    0.79
   0  -8   1   13.74    0.88
  -1   8  -1    9.73    0.54
  -1   8  -1    9.60    0.45
  -1   8  -1    8.95    0.56
  -1   8  -1    9.73    0.55
   1  -8   1    9.02    0.50
   1  -8   1    9.54    0.51
   1  -8   1    9.03    0.57
  -2   8  -1    2.03    0.13
  -2   8  -1    2.08    0.15
   2  -8   1    2.27    0.14
   2  -8   1    1.97    0.16
   2  -8   1    2.17    0.18
   2  -8   1    2.34    0.15
  -3   8  -1    3.87    0.21
   3  -8   1    3.97    0.23
   3  -8   1    4.03    0.27
  -4   8  -1    1.66    0.11
  -4   8  -1    1.73    0.12
   4  -8   1    1.86    0.13
   4  -8   1    1.76    0.12
   4  -8   1    1.95    0.14
   4  -8   1    1.91    0.14
   4  -8   1    1.74    0.19
   4  -8   1    1.89    0.16
  -5   8  -1    0.03    0.03
   5  -8   1    0.01    0.02
   5   7  -1    0.10    0.02
   5   7  -1    0.14    0.03
   4   7  -1    9.50    0.75
   4   7  -1   10.24    0.64
   4   7  -1    9.24    0.68
   4   7  -1    9.52    0.72
   4   7  -1    9.42    0.65
   4   7  -1    9.82    0.51
   3   7  -1    0.01    0.04
   3   7  -1    0.03    0.05
   3   7  -1    0.05    0.04
   3   7  -1    0.05    0.06
   3   7  -1    0.07    0.04
   3   7  -1   -0.01    0.05
   2   7  -1    8.76    0.75
   2   7  -1    9.75    0.51
   2   7  -1    9.61    0.57
   2   7  -1    9.71    0.51
   2   7  -1    9.66    0.57
   1   7  -1    1.89    0.12
   1   7  -1    1.85    0.17
   1   7  -1    1.57    0.19
   1   7  -1    2.33    0.16
   1   7  -1    1.98    0.14
   1   7  -1    1.98    0.15
   1   7  -1    1.63    0.17
   1   7  -1    2.16    0.19
  -1  -7   1    2.00    0.20
   0   7  -1    0.31    0.06
   0   7  -1    0.38    0.07
  -1   7  -1   23.33    1.30
   1  -7   1   22.47    1.20
   2  -7   1    0.00    0.03
   2  -7   1   -0.04    0.06
  -3   7  -1   -0.01    0.03
  -3   7  -1    0.02    0.04
   3  -7   1    0.03    0.06
   3  -7   1   -0.09    0.06
   3  -7   1    0.00    0.04
   3  -7   1    0.02    0.06
   3  -7   1    0.02    0.04
   3  -7   1   -0.01    0.03
  -4   7  -1    0.15    0.05
   4  -7   1    0.11    0.05
   4  -7   1    0.13    0.04
   4  -7   1    0.15    0.05
   4  -7   1    0.07    0.03
   4  -7   1    0.12    0.05
   4  -7   1    0.07    0.07
   5  -7   1    0.15    0.04
   5  -7   1    0.14    0.03
   5  -7   1    0.18    0.06
   5   6  -1    2.10    0.17
   5   6  -1    2.38    0.19
   5   6  -1    2.16    0.13
   5   6  -1    2.17    0.17
   5   6  -1    2.08    0.16
   4   6  -1   10.88    0.75
   4   6  -1   11.15    0.81
   4   6  -1   11.84    0.77
   4   6  -1   12.32    0.85
   4   6  -1   11.12    0.60
   4   6  -1   10.70    0.89
   3   6  -1   10.31    0.54
   3   6  -1    8.20    0.65
   3   6  -1    8.76    0.62
   3   6  -1    8.47    0.72
   3   6  -1    9.31    0.49
   3   6  -1    9.40    0.55
   3   6  -1    9.09    0.70
   3   6  -1    9.49    0.63
   2   6  -1    8.00    0.54
   2   6  -1    8.68    0.49
   2   6  -1    7.04    0.57
   2   6  -1    8.12    0.43
   1   6  -1    3.27    0.33
   1   6  -1    4.03    0.23
   1   6  -1    4.19    0.26
   1   6  -1    4.26    0.28
   1   6  -1    3.70    0.32
   1   6  -1    4.36    0.24
  -1  -6   1    4.00    0.21
   0   6  -1    7.18    0.36
   0   6  -1    5.14    0.37
   0   6  -1    6.21    0.27
   0   6  -1    5.94    0.32
   0   6  -1    6.38    0.30
   0  -6   1    6.16    0.63
   0  -6   1    5.55    0.55
   0  -6   1    6.15    0.29
   0  -6   1    6.23    0.31
  -1   6  -1    1.08    0.09
  -1   6  -1    1.33    0.13
  -1   6  -1    1.14    0.10
  -1   6  -1    1.02    0.14
  -1   6  -1    1.15    0.15
   1  -6   1    1.38    0.17
   1  -6   1    0.99    0.18
   1  -6   1    0.94    0.13
   2  -6   1    5.41    0.30
   2  -6   1    4.74    0.47
   2  -6   1    5.92    0.32
   2  -6   1    5.56    0.41
   3  -6   1   12.25    0.68
   3  -6   1   11.31    1.05
   3  -6   1   14.50    0.98
   3  -6   1   13.12    0.96
   3  -6   1   12.47    0.77
   3  -6   1   12.29    0.78
   3  -6   1   14.39    0.70
  -4   6  -1   14.12    0.73
   4  -6   1   15.65    1.13
   4  -6   1   13.95    1.24
   4  -6   1   17.30    1.15
   4  -6   1   14.88    0.81
   4  -6   1   15.70    0.92
   4  -6   1   16.41    0.92
   4  -6   1   15.35    0.92
   4  -6   1   14.72    0.93
   5  -6   1    9.23    0.60
   5  -6   1    9.87    0.82
   5  -6   1   10.10    0.61
   5  -6   1   11.03    0.76
   5  -6   1   10.14    0.75
   5   5  -1   11.94    0.80
   5   5  -1   11.76    0.84
   5   5  -1   11.54    0.87
   5   5  -1   11.83    0.92
   5   5  -1   12.28    0.78
   4   5  -1    2.23    0.17
   4   5  -1    2.19    0.20
   4   5  -1    2.27    0.19
   4   5  -1    2.33    0.18
   3   5  -1    3.95    0.23
   3   5  -1    3.83    0.30
   3   5  -1    4.06    0.29
   3   5  -1    3.85    0.33
   2   5  -1    0.03    0.06
   2   5  -1    0.00    0.04
  -2  -5   1    0.03    0.06
   1   5  -1    0.33    0.08
   1   5  -1    0.24    0.04
   1   5  -1    0.23    0.03
   1   5  -1    0.25    0.03
   1   5  -1    0.24    0.05
  -1  -5   1    0.27    0.05
  -1  -5   1    0.21    0.04
   0   5  -1    1.68    0.08
   0   5  -1    1.65    0.10
   0   5  -1    1.76    0.11
   0   5  -1    1.78    0.09
   0   5  -1    1.75    0.12
   0   5  -1    1.84    0.09
   0   5  -1    1.45    0.21
   0  -5   1    1.44    0.16
   0  -5   1    1.78    0.11
   0  -5   1    1.77    0.10
  -1   5  -1    3.03    0.30
  -1   5  -1    2.98    0.21
  -1   5  -1    3.06    0.16
  -1   5  -1    3.47    0.22
  -1   5  -1    3.24    0.15
   1  -5   1    3.10    0.19
   1  -5   1    3.15    0.28
   1  -5   1    3.26    0.20
   1  -5   1    2.97    0.15
  -2   5  -1   22.15    1.44
  -2   5  -1   20.34    1.87
   2  -5   1   22.38    1.22
   2  -5   1   22.77    1.15
   3  -5   1    0.47    0.06
   3  -5   1    0.46    0.07
   3  -5   1    0.48    0.08
   3  -5   1    0.38    0.07
   4  -5   1    0.72    0.11
   4  -5   1    1.03    0.12
   4  -5   1    1.04    0.11
   4  -5   1    0.97    0.10
   4  -5   1    0.84    0.10
   4  -5   1    0.79    0.12
   4  -5   1    0.90    0.10
   5  -5   1   14.47    1.20
   5  -5   1   14.06    0.88
   5  -5   1   14.95    0.89
   5  -5   1   15.46    1.11
   5  -5   1   15.19    1.09
   6  -5   1   14.10    1.05
   5   4  -1    5.56    0.41
   5   4  -1    5.75    0.43
   5   4  -1    5.41    0.38
   5   4  -1    5.65    0.39
   5   4  -1    5.58    0.45
   4   4  -1    0.37    0.08
   4   4  -1    0.41    0.06
   4   4  -1    0.45    0.07
   4   4  -1    0.40    0.07
   4   4  -1    0.46    0.08
   3   4  -1    0.11    0.06
   2   4  -1    6.66    0.30
   2   4  -1    6.77    0.28
   2   4  -1    6.59    0.31
   2   4  -1    6.95    0.34
   2   4  -1    6.73    0.29
  -2  -4   1    6.53    0.28
   1   4  -1   87.09    3.77
   1   4  -1   87.94    4.31
   1   4  -1   88.51    3.52
   1   4  -1   84.87    3.71
  -1  -4   1   86.25    3.52
  -1  -4   1   85.87    3.71
   0   4  -1   13.03    0.67
   0   4  -1   13.44    0.84
   0   4  -1   15.02    0.60
   0   4  -1   14.15    0.59
   0   4  -1   13.74    0.56
   0  -4   1   13.52    0.59
   0  -4   1   13.76    0.56
   0  -4   1   12.74    1.36
  -1   4  -1    0.38    0.05
  -1   4  -1    0.34    0.05
  -1   4  -1    0.32    0.03
  -1   4  -1    0.25    0.06
  -1   4  -1    0.29    0.07
   1  -4   1    0.43    0.05
   1  -4   1    0.43    0.06
   1  -4   1    0.34    0.04
   1  -4   1    0.37    0.03
  -2   4  -1   14.73    1.02
  -2   4  -1   15.38    1.33
   2  -4   1   16.64    0.86
  -3   4  -1    0.40    0.09
   3  -4   1    0.46    0.09
   3  -4   1    0.37    0.06
   4  -4   1   29.91    1.86
   4  -4   1   32.66    2.34
   4  -4   1   29.14    1.87
   4  -4   1   32.74    1.85
   4  -4   1   27.76    2.51
   4  -4   1   32.13    1.85
   4  -4   1   32.24    2.09
   4  -4   1   35.54    2.30
   5  -4   1    0.26    0.06
   5  -4   1    0.23    0.06
   5  -4   1    0.26    0.06
   5  -4   1    0.35    0.07
   5  -4   1    0.27    0.06
   6  -4   1    8.90    0.73
   6  -4   1   10.28    0.80
   6  -4   1   10.93    0.74
   6  -4   1    9.63    0.59
   6   3  -1    6.01    0.39
   6   3  -1    5.57    0.41
   5   3  -1    5.06    0.41
   5   3  -1    5.40    0.40
   5   3  -1    5.16    0.36
   4   3  -1   78.71    5.96
   4   3  -1   82.14    5.32
   4   3  -1   76.86    5.60
   4   3  -1   85.70    5.88
   3   3  -1   13.76    1.10
  -3  -3   1   13.84    1.26
  -3  -3   1   15.14    0.65
  -3  -3   1   15.47    0.82
  -3  -3   1   15.18    0.82
   2   3  -1    0.26    0.02
   2   3  -1    0.18    0.02
   2   3  -1    0.19    0.02
   2   3  -1    0.20    0.02
   2   3  -1    0.21    0.02
   2   3  -1    0.27    0.04
   2   3  -1    0.23    0.02
  -2  -3   1    0.19    0.02
  -2  -3   1    0.20    0.03
   1   3  -1    8.39    0.36
   1   3  -1    8.74    0.36
   1   3  -1    8.11    0.36
   1   3  -1    8.25    0.41
  -1  -3   1    8.16    0.36
  -1  -3   1    8.14    0.34
  -1  -3   1    8.06    0.36
   0   3  -1    0.85    0.04
   0   3  -1    0.99    0.05
   0   3  -1    0.82    0.06
   0   3  -1    0.94    0.05
   0  -3   1    0.78    0.10
   0  -3   1    0.93    0.06
   0  -3   1    0.87    0.05
   0  -3   1    0.86    0.04
   0  -3   1    0.90    0.08
   1  -3   1    0.12    0.03
  -2   3  -1    0.02    0.03
  -2   3  -1    0.03    0.01
  -2   3  -1    0.01    0.01
   2  -3   1    0.03    0.02
   2  -3   1    0.02    0.01
  -3   3  -1   22.84    1.85
   3  -3   1   20.75    1.29
   4  -3   1    3.08    0.24
   4  -3   1    3.60    0.26
   4  -3   1    2.90    0.22
   4  -3   1    2.88    0.30
   5  -3   1    9.88    0.86
   5  -3   1   10.11    0.64
   5  -3   1   11.75    0.80
   6  -3   1    2.92    0.24
   6  -3   1    3.00    0.21
   6  -3   1    3.18    0.27
   6  -3   1    3.44    0.25
   6   2  -1    0.54    0.07
   6   2  -1    0.51    0.07
   5   2  -1    1.13    0.11
   5   2  -1    1.26    0.11
   4   2  -1   15.22    1.15
   4   2  -1   15.55    1.04
   4   2  -1   15.68    1.03
   3   2  -1    1.00    0.15
  -3  -2   1    1.15    0.09
  -3  -2   1    1.07    0.15
  -3  -2   1    0.92    0.16
  -3  -2   1    1.16    0.10
  -3  -2   1    1.12    0.08
  -3  -2   1    0.89    0.15
  -3  -2   1    0.99    0.08
  -3  -2   1    1.04    0.16
  -3  -2   1    1.04    0.09
  -3  -2   1    1.02    0.07
   2   2  -1    0.11    0.01
  -2  -2   1    0.08    0.01
  -2  -2   1    0.07    0.02
  -2  -2   1    0.09    0.01
  -2  -2   1    0.08    0.01
   1   2  -1   36.98    1.55
   1   2  -1   38.40    1.55
   1   2  -1   36.80    1.45
   1   2  -1   37.84    1.54
   1   2  -1   37.44    1.45
   1   2  -1   37.03    1.77
   1   2  -1   35.75    1.52
   1   2  -1   32.17    3.00
   1   2  -1   34.87    1.73
   1   2  -1   35.57    1.52
  -1  -2   1   35.30    1.54
  -1  -2   1   33.69    1.55
  -1  -2   1   37.37    1.52
  -1  -2   1   35.99    1.45
  -1  -2   1   35.44    1.55
  -1  -2   1   30.13    3.00
   0   2  -1    4.96    0.20
   0   2  -1    4.97    0.20
   0   2  -1    4.39    0.38
   0   2  -1    4.51    0.20
   0   2  -1    4.21    0.28
   0   2  -1    4.49    0.19
   0  -2   1    4.47    0.20
   0  -2   1    4.58    0.19
   0  -2   1    4.50    0.29
   0  -2   1    4.38    0.25
   0  -2   1    4.50    0.38
   0  -2   1    4.83    0.20
   0  -2   1    3.75    0.45
  -1   2  -1  266.68   10.57
  -1   2  -1  237.85   15.89
  -1   2  -1  287.60   21.92
  -1   2  -1  255.01   14.22
  -1   2  -1  255.93   16.80
  -1   2  -1  227.54   25.71
   1  -2   1  271.39   14.22
   1  -2   1  284.15   14.21
   1  -2   1  264.61   10.57
   1  -2   1  258.58   11.14
  -2   2  -1   59.31    5.56
  -2   2  -1   53.95    3.07
  -2   2  -1   57.45    2.41
   2  -2   1   56.02    2.41
   2  -2   1   55.11    3.07
  -3   2  -1    4.02    0.23
  -3   2  -1    4.03    0.22
  -3   2  -1    3.98    0.18
  -3   2  -1    4.23    0.41
   4  -2   1    9.70    0.61
   4  -2   1   10.30    0.77
   4  -2   1   10.10    0.68
   5  -2   1    2.93    0.22
   5  -2   1    2.46    0.18
   5  -2   1    2.38    0.24
   6  -2   1    3.24    0.27
   6  -2   1    3.09    0.24
   6  -2   1    2.90    0.20
   6   1  -1    0.06    0.04
   6   1  -1    0.11    0.05
   6   1  -1    0.09    0.05
   5   1  -1    6.67    0.51
   5   1  -1    6.47    0.46
   5   1  -1    6.55    0.55
   4   1  -1   10.05    0.75
   4   1  -1    9.62    0.61
   4   1  -1   10.21    0.68
  -3  -1   1    4.38    0.23
  -3  -1   1    4.50    0.25
  -3  -1   1    4.28    0.32
  -3  -1   1    4.44    0.20
  -3  -1   1    4.26    0.20
  -3  -1   1    3.69    0.39
  -3  -1   1    4.22    0.27
  -3  -1   1    4.58    0.24
  -3  -1   1    4.31    0.23
   2   1  -1   39.59    1.69
  -2  -1   1   33.39    1.68
  -2  -1   1   31.16    2.93
  -2  -1   1   35.01    1.51
  -2  -1   1   35.45    1.50
  -2  -1   1   34.25    1.90
  -2  -1   1   33.48    1.51
  -2  -1   1   35.16    1.73
  -2  -1   1   36.78    2.12
  -2  -1   1   33.44    2.25
   1   1  -1    0.67    0.03
   1   1  -1    0.60    0.04
   1   1  -1    0.64    0.03
   1   1  -1    0.69    0.03
   1   1  -1    0.63    0.04
   1   1  -1    0.70    0.03
   1   1  -1    0.65    0.03
   1   1  -1    0.68    0.03
  -1  -1   1    0.68    0.03
  -1  -1   1    0.62    0.03
  -1  -1   1    0.59    0.06
  -1  -1   1    0.63    0.03
  -1  -1   1    0.63    0.04
  -1  -1   1    0.66    0.03
   0   1  -1   25.53    1.43
   0   1  -1   23.78    2.20
   0   1  -1   26.76    1.14
   0   1  -1   27.07    1.14
   0   1  -1   26.96    1.12
   0  -1   1   29.07    1.69
   0  -1   1   25.40    1.43
   0  -1   1   26.49    1.14
   0  -1   1   26.42    1.14
   0  -1   1   26.95    1.12
   0  -1   1   27.13    1.06
   0  -1   1   23.05    2.20
  -1   1  -1  275.73   17.78
  -1   1  -1  287.31   15.91
  -1   1  -1  280.66   18.81
  -1   1  -1  296.51   12.46
  -1   1  -1  301.58   11.83
   1  -1   1  299.56   11.82
   1  -1   1  298.74   12.46
   1  -1   1  283.56   18.81
   1  -1   1  314.40   14.75
   1  -1   1  283.32   15.91
  -2   1  -1    3.22    0.16
  -2   1  -1    3.24    0.14
  -2   1  -1    3.30    0.18
  -2   1  -1    3.24    0.18
  -2   1  -1    3.15    0.28
  -3   1  -1   28.22    1.51
  -3   1  -1   24.35    2.33
  -3   1  -1   26.82    1.21
  -3   1  -1   30.14    1.51
  -3   1  -1   28.94    2.37
  -3   1  -1   27.67    1.21
  -3   1  -1   27.84    1.70
  -3   1  -1   26.80    1.34
   4  -1   1    0.59    0.08
   4  -1   1    0.56    0.10
   4  -1   1    0.80    0.14
   5  -1   1   11.74    0.73
   5  -1   1   12.18    0.91
   6  -1   1    2.14    0.17
   6  -1   1    2.16    0.20
   6  -1   1    1.80    0.16
   6  -1   1    1.76    0.16
   6   0  -1   10.24    0.74
   6   0  -1   10.80    0.73
   6   0  -1    9.10    0.80
   6   0  -1    9.29    0.66
   5   0  -1    1.29    0.12
   5   0  -1    1.38    0.14
   5   0  -1    1.22    0.14
   5   0  -1    1.22    0.13
   5   0  -1    1.16    0.15
   4   0  -1    0.41    0.11
   4   0  -1    0.35    0.07
  -3   0   1    7.65    0.69
  -3   0   1    7.02    0.69
  -3   0   1    8.11    0.36
  -3   0   1    8.31    0.44
  -3   0   1    8.07    0.44
  -3   0   1    8.14    0.50
  -3   0   1    7.96    0.41
  -3   0   1    8.22    0.40
  -2   0   1   73.20    4.10
  -2   0   1   72.95    3.05
  -2   0   1   76.79    3.24
  -2   0   1   76.93    3.27
  -2   0   1   74.08    3.73
  -2   0   1   72.74    3.21
  -2   0   1   73.58    4.58
  -2   0   1   77.31    4.10
  -2   0   1   79.15    3.63
   1   0  -1  102.14    4.11
   1   0  -1   92.68    5.86
   1   0  -1  100.84    4.66
   1   0  -1  104.19    3.90
   1   0  -1   97.57    4.15
  -1   0   1   91.28    4.11
  -1   0   1   97.26    4.87
  -1   0   1   95.63    4.19
  -1   0   1   97.35    4.15
  -1   0   1   91.89    5.86
  -1   0   1   93.98    4.65
  -1   0   1   89.65    5.24
  -1   0   1   96.94    3.90
   0   0  -1  196.15    8.44
   0   0  -1  210.81    7.94
   0   0  -1  190.77    9.73
   0   0   1  184.05   16.82
   0   0   1  191.77   10.68
   0   0   1  203.55    7.94
  -1   0  -1   18.06    0.73
  -1   0  -1   18.17    1.16
  -1   0  -1   18.12    0.90
  -1   0  -1   19.18    0.87
  -1   0  -1   18.00    0.77
  -1   0  -1   19.14    0.91
  -1   0  -1   15.72    1.51
  -1   0  -1   18.48    0.98
  -1   0  -1   18.19    0.98
  -1   0  -1   16.65    1.55
   1   0   1   17.89    1.16
   1   0   1   18.74    0.91
  -2   0  -1   99.91    4.39
  -2   0  -1  101.59    6.16
  -2   0  -1   91.17    8.50
  -2   0  -1  111.72    5.52
  -2   0  -1   94.41    8.68
  -2   0  -1  103.38    5.52
  -2   0  -1  100.40    4.40
  -2   0  -1  107.59    4.36
  -3   0  -1    7.95    0.52
  -3   0  -1    7.95    0.34
  -3   0  -1    7.84    0.39
  -3   0  -1    7.99    0.42
  -3   0  -1    6.95    0.34
  -3   0  -1    7.86    0.67
  -3   0  -1    7.92    0.48
  -3   0  -1    7.13    0.65
  -3   0  -1    7.72    0.39
  -3   0  -1    7.12    0.34
  -3   0  -1    6.51    0.76
  -3   0  -1    8.41    0.43
   4   0   1    1.48    0.13
   4   0   1    1.77    0.17
   4   0   1    1.51    0.19
   4   0   1    1.58    0.20
   5   0   1   15.05    1.06
   5   0   1   13.74    0.85
   5   0   1   13.80    1.14
   5   0   1   15.03    1.04
   5   0   1   12.62    0.84
   6   0   1   13.85    1.09
   6   0   1   13.38    1.00
   6  -1  -1    1.04    0.11
   6  -1  -1    1.09    0.10
   6  -1  -1    1.07    0.15
   6  -1  -1    0.99    0.09
   5  -1  -1    0.04    0.05
   5  -1  -1    0.07    0.05
   5  -1  -1    0.04    0.04
   5  -1  -1    0.12    0.06
   4  -1  -1    4.90    0.33
   4  -1  -1    5.02    0.40
   4  -1  -1    5.06    0.39
   4  -1  -1    4.77    0.33
  -3   1   1    0.64    0.08
  -3   1   1    0.56    0.07
  -3   1   1    0.46    0.06
  -3   1   1    0.66    0.06
  -3   1   1    0.49    0.06
  -3   1   1    0.64    0.04
   2  -1  -1   54.32    2.27
  -2   1   1   50.16    2.90
  -2   1   1   51.85    2.57
  -2   1   1   55.32    2.27
  -2   1   1   54.73    4.57
   1  -1  -1  197.25   10.26
   1  -1  -1  173.59   11.47
   1  -1  -1  193.00    9.52
   1  -1  -1  190.38    8.04
   1  -1  -1  194.50    7.63
  -1   1   1  191.32    7.63
  -1   1   1  174.92   11.46
  -1   1   1  203.49   18.58
  -1   1   1  186.01    9.09
  -1   1   1  182.59    8.11
  -1   1   1  184.82   16.15
   0  -1  -1   10.46    0.94
   0  -1  -1   10.95    0.47
   0  -1  -1   10.08    0.60
   0  -1  -1   10.92    0.44
   0  -1  -1   10.79    0.47
   0  -1  -1   11.81    1.08
   0  -1  -1   10.77    0.53
   0  -1  -1   10.96    0.67
   0   1   1    9.82    0.94
   0   1   1   10.41    1.08
   0   1   1   11.55    0.67
   0   1   1   10.98    0.47
   0   1   1   11.87    0.44
   0   1   1   11.49    0.92
   0   1   1   10.97    0.53
   0   1   1   11.22    0.47
  -1  -1  -1  321.83   14.03
  -1  -1  -1  277.51   31.93
  -1  -1  -1  339.07   13.82
  -1  -1  -1  334.53   15.66
  -1  -1  -1  317.71   17.64
  -1  -1  -1  335.30   20.85
  -1  -1  -1  358.14   13.11
  -1  -1  -1  287.56   27.79
  -1  -1  -1  318.71   27.20
   1   1   1  320.46   14.03
   1   1   1  277.13   31.93
   1   1   1  324.19   27.20
   1   1   1  346.52   16.09
   1   1   1  366.54   15.66
   1   1   1  333.52   20.85
  -2  -1  -1    5.47    0.51
  -2  -1  -1    6.40    0.26
  -2  -1  -1    6.02    0.26
  -2  -1  -1    5.22    0.59
  -2  -1  -1    5.98    0.39
  -2  -1  -1    5.78    0.36
  -2  -1  -1    6.02    0.26
  -2  -1  -1    6.11    0.33
  -2  -1  -1    5.21    0.50
  -2  -1  -1    6.14    0.33
  -2  -1  -1    6.33    0.30
  -3  -1  -1    7.20    0.49
  -3  -1  -1    7.20    0.32
  -3  -1  -1    7.24    0.45
  -3  -1  -1    6.83    0.62
  -3  -1  -1    7.23    0.32
  -3  -1  -1    7.29    0.31
  -3  -1  -1    6.81    0.37
  -3  -1  -1    6.92    0.61
  -3  -1  -1    6.44    0.71
  -3  -1  -1    7.66    0.40
  -3  -1  -1    7.39    0.40
   3   1   1    6.39    0.57
   4   1   1    0.26    0.09
   4   1   1    0.20    0.08
   4   1   1    0.28    0.11
   4   1   1    0.22    0.08
   4   1   1    0.23    0.07
   4   1   1    0.20    0.06
   5   1   1   39.32    2.86
   6  -2  -1    8.82    0.57
   6  -2  -1    7.64    0.63
   6  -2  -1    6.67    0.47
   6  -2  -1    7.72    0.58
   5  -2  -1    0.22    0.05
   5  -2  -1    0.23    0.06
   5  -2  -1    0.26    0.05
   5  -2  -1    0.28    0.06
   5  -2  -1    0.25    0.07
   4  -2  -1    1.62    0.15
   4  -2  -1    1.57    0.19
   4  -2  -1    1.54    0.17
   4  -2  -1    1.57    0.16
   4  -2  -1    1.61    0.14
   3  -2  -1   26.20    1.78
   3  -2  -1   27.22    1.15
  -3   2   1   24.48    1.16
  -3   2   1   29.77    2.67
   2  -2  -1   21.78    0.97
   2  -2  -1   22.32    1.24
  -2   2   1   25.49    2.24
  -2   2   1   21.01    1.09
   1  -2  -1  129.18    5.57
   1  -2  -1  131.60    7.11
   1  -2  -1  133.13    7.10
   1  -2  -1  137.17    6.59
   1  -2  -1  141.35   11.19
  -1   2   1  139.48   12.88
  -1   2   1  129.13    6.30
  -1   2   1  132.42    5.29
  -1   2   1  125.50    5.62
  -1   2   1  110.84   11.19
  -1   2   1  124.76    7.94
   0  -2  -1  377.51   15.92
   0  -2  -1  400.95   31.33
   0  -2  -1  374.01   36.77
   0  -2  -1  388.90   15.11
   0  -2  -1  349.11   32.00
   0  -2  -1  373.18   18.02
   0  -2  -1  371.35   22.69
   0   2   1  377.89   22.69
   0   2   1  381.65   15.11
   0   2   1  375.60   16.05
   0   2   1  384.76   15.92
   0   2   1  367.60   18.02
   0   2   1  364.88   31.32
   0   2   1  322.07   36.77
   0   2   1  385.59   16.16
  -1  -2  -1   31.26    1.36
  -1  -2  -1   31.36    1.27
  -1  -2  -1   32.38    1.90
  -1  -2  -1   29.35    2.63
  -1  -2  -1   31.41    1.34
   1   2   1   29.06    2.63
   1   2   1   32.06    1.27
   1   2   1   31.65    1.36
   1   2   1   31.57    1.56
   1   2   1   31.77    1.34
   1   2   1   32.15    1.51
   1   2   1   31.16    1.36
  -2  -2  -1  128.21   11.24
  -2  -2  -1  138.13    6.76
  -2  -2  -1  136.75    6.65
  -2  -2  -1  128.25    5.76
  -2  -2  -1  141.24    5.42
  -2  -2  -1  146.19    5.72
  -2  -2  -1  130.11    5.80
  -2  -2  -1  141.20    8.62
  -2  -2  -1  128.15    5.82
  -2  -2  -1  119.63   13.20
  -2  -2  -1  124.53    8.15
   2   2   1  144.71    6.65
  -3  -2  -1    4.78    0.33
  -3  -2  -1    4.43    0.41
  -3  -2  -1    4.83    0.28
  -3  -2  -1    4.90    0.27
  -3  -2  -1    4.21    0.49
  -3  -2  -1    4.53    0.21
  -3  -2  -1    5.15    0.28
  -3  -2  -1    4.52    0.42
   3   2   1    4.48    0.30
   3   2   1    4.23    0.35
   4   2   1    0.93    0.12
   4   2   1    1.05    0.16
   4   2   1    0.96    0.10
   4   2   1    0.84    0.12
   5   2   1    0.12    0.08
   6  -3  -1    0.03    0.03
   6  -3  -1    0.06    0.03
   6  -3  -1    0.03    0.04
   5  -3  -1    8.02    0.62
   5  -3  -1    7.77    0.50
   5  -3  -1    9.30    0.61
   5  -3  -1    7.13    0.67
   4  -3  -1    6.18    0.47
   4  -3  -1    6.85    0.47
   4  -3  -1    5.85    0.38
   4  -3  -1    5.07    0.51
   3  -3  -1    3.95    0.27
   3  -3  -1    4.37    0.20
   2  -3  -1    9.17    0.53
   2  -3  -1   10.70    0.42
  -2   3   1    9.92    0.82
  -2   3   1    8.63    0.96
   1  -3  -1    6.26    0.34
   1  -3  -1    6.53    0.34
   1  -3  -1    6.39    0.27
  -1   3   1    5.85    0.41
  -1   3   1    6.20    0.28
  -1   3   1    6.40    0.26
  -1   3   1    5.84    0.62
  -1   3   1    6.07    0.30
   0  -3  -1   46.38    2.95
   0  -3  -1   51.09    4.78
   0  -3  -1   45.50    4.16
   0  -3  -1   48.89    1.97
   0  -3  -1   47.33    2.07
   0   3   1   48.92    2.34
   0   3   1   48.75    2.09
   0   3   1   51.86    2.95
   0   3   1   45.01    3.12
   0   3   1   49.30    1.96
   0   3   1   49.73    2.07
  -1  -3  -1    1.26    0.06
  -1  -3  -1    1.24    0.06
  -1  -3  -1    1.15    0.08
  -1  -3  -1    1.22    0.06
   1   3   1    1.32    0.06
   1   3   1    1.25    0.07
   1   3   1    1.28    0.06
   1   3   1    1.30    0.06
  -2  -3  -1    1.48    0.08
  -2  -3  -1    1.46    0.07
  -2  -3  -1    1.41    0.08
  -2  -3  -1    1.44    0.09
  -2  -3  -1    1.40    0.15
   2   3   1    1.57    0.08
   2   3   1    1.58    0.06
   2   3   1    1.56    0.07
   2   3   1    1.53    0.09
  -3  -3  -1    0.21    0.12
  -3  -3  -1    0.02    0.07
   3   3   1    0.07    0.10
   3   3   1    0.00    0.05
   3   3   1   -0.05    0.05
   4   3   1    0.25    0.08
   4   3   1    0.22    0.06
   4   3   1    0.25    0.06
   4   3   1    0.24    0.06
   4   3   1    0.35    0.07
   5   3   1    0.62    0.07
   5   3   1    0.82    0.11
   5   3   1    0.62    0.08
   5   3   1    0.60    0.11
   5   3   1    0.69    0.08
   6  -4  -1    0.79    0.08
   6  -4  -1    0.71    0.08
   6  -4  -1    0.84    0.10
   5  -4  -1    0.10    0.07
   5  -4  -1    0.14    0.04
   5  -4  -1    0.10    0.04
   5  -4  -1    0.09    0.04
   5  -4  -1    0.18    0.05
   4  -4  -1    0.38    0.08
   4  -4  -1    0.35    0.08
   4  -4  -1    0.54    0.07
   4  -4  -1    0.53    0.09
   4  -4  -1    0.48    0.08
   4  -4  -1    0.45    0.08
   4  -4  -1    0.51    0.08
   4  -4  -1    0.51    0.09
   3  -4  -1    8.92    0.57
   3  -4  -1    9.33    0.72
   3  -4  -1   10.70    0.72
   3  -4  -1   10.37    0.64
  -3   4   1    7.99    0.46
   2  -4  -1   37.42    1.85
  -2   4   1   35.68    2.86
  -2   4   1   31.63    2.19
  -2   4   1   30.33    3.34
   1  -4  -1   24.00    0.98
   1  -4  -1   23.73    1.31
   1  -4  -1   25.31    1.31
   1  -4  -1   26.73    2.06
   1  -4  -1   22.38    1.47
  -1   4   1   24.73    0.98
  -1   4   1   23.82    1.04
  -1   4   1   23.97    1.16
  -1   4   1   20.99    2.37
  -1   4   1   23.34    1.55
   0  -4  -1    7.98    0.36
   0  -4  -1    7.42    0.50
   0  -4  -1    7.96    0.34
   0  -4  -1    7.69    0.71
   0   4   1    8.09    0.35
   0   4   1    8.16    0.40
   0   4   1    8.23    0.36
   0   4   1    8.75    0.36
   0   4   1    8.85    0.50
   0   4   1    8.03    0.34
  -1  -4  -1    0.01    0.02
  -1  -4  -1    0.02    0.01
  -1  -4  -1    0.05    0.03
   1   4   1    0.04    0.02
   1   4   1    0.06    0.02
   1   4   1    0.01    0.03
   1   4   1   -0.01    0.02
  -2  -4  -1   23.60    1.04
   2   4   1   24.57    1.20
   2   4   1   23.48    1.05
   3   4   1    6.44    0.41
   3   4   1    6.60    0.46
   4   4   1    5.79    0.32
   4   4   1    5.65    0.40
   4   4   1    6.48    0.47
   4   4   1    5.83    0.41
   4   4   1    5.37    0.47
   4   4   1    5.58    0.43
   5   4   1    0.16    0.06
   5   4   1    0.12    0.05
   5   4   1    0.18    0.05
   5   4   1    0.24    0.05
   5   4   1    0.18    0.05
   5  -5  -1    5.01    0.32
   5  -5  -1    4.61    0.44
   5  -5  -1    5.19    0.39
   5  -5  -1    5.50    0.40
   4  -5  -1    1.01    0.11
   4  -5  -1    1.25    0.12
   4  -5  -1    0.95    0.13
   4  -5  -1    0.89    0.12
   4  -5  -1    0.98    0.10
   3  -5  -1    1.76    0.14
   3  -5  -1    1.91    0.17
   3  -5  -1    1.54    0.16
   2  -5  -1    2.66    0.25
   2  -5  -1    2.47    0.26
  -2   5   1    2.61    0.20
   1  -5  -1    2.20    0.14
   1  -5  -1    2.09    0.17
   1  -5  -1    2.39    0.15
   1  -5  -1    2.70    0.15
   1  -5  -1    2.79    0.23
   1  -5  -1    2.50    0.18
  -1   5   1    2.52    0.12
  -1   5   1    2.39    0.12
  -1   5   1    2.43    0.13
  -1   5   1    2.02    0.27
  -1   5   1    2.09    0.18
  -1   5   1    2.25    0.18
  -1   5   1    2.61    0.18
   0  -5  -1    5.36    0.37
   0  -5  -1    5.72    0.51
   0  -5  -1    5.45    0.33
   0  -5  -1    5.60    0.27
   0  -5  -1    5.79    0.26
   0   5   1    5.52    0.29
   0   5   1    5.73    0.25
   0   5   1    5.63    0.26
   0   5   1    5.68    0.27
   0   5   1    6.02    0.26
   0   5   1    5.76    0.25
   0   5   1    6.26    0.36
  -1  -5  -1    1.27    0.11
   1   5   1    1.22    0.12
   2   5   1    0.04    0.06
   3   5   1    0.26    0.08
   3   5   1    0.20    0.06
   3   5   1    0.27    0.05
   3   5   1    0.21    0.06
   3   5   1    0.18    0.05
   3   5   1    0.14    0.07
   3   5   1    0.20    0.06
   3   5   1    0.20    0.08
   4   5   1    4.91    0.28
   4   5   1    5.05    0.35
   4   5   1    5.48    0.36
   4   5   1    4.80    0.37
   4   5   1    4.64    0.41
   5   5   1    0.06    0.05
   5   5   1    0.15    0.04
   5   5   1    0.08    0.05
   5   5   1    0.07    0.03
   5   5   1    0.13    0.03
   5  -6  -1    2.24    0.16
   5  -6  -1    2.11    0.20
   5  -6  -1    2.33    0.18
   5  -6  -1    2.42    0.18
  -5   6   1    1.85    0.14
  -5   6   1    1.92    0.12
   4  -6  -1    3.02    0.23
   4  -6  -1    2.55    0.20
   4  -6  -1    2.65    0.17
   4  -6  -1    2.68    0.20
   4  -6  -1    2.79    0.23
   3  -6  -1   14.16    0.82
   3  -6  -1   12.92    1.12
   3  -6  -1   13.07    0.73
   3  -6  -1   15.11    1.03
   3  -6  -1   13.11    0.83
   3  -6  -1   14.10    1.01
  -3   6   1   13.28    0.65
   2  -6  -1    6.98    0.50
   2  -6  -1    6.57    0.48
   2  -6  -1    5.65    0.55
   2  -6  -1    6.24    0.40
   2  -6  -1    6.33    0.35
   2  -6  -1    6.48    0.40
  -2   6   1    6.21    0.39
  -2   6   1    6.45    0.31
  -2   6   1    5.87    0.36
   1  -6  -1    9.20    0.55
  -1   6   1    8.69    0.59
  -1   6   1    9.16    0.41
   0  -6  -1    7.16    0.64
   0  -6  -1    6.82    0.41
   0  -6  -1    7.13    0.35
   0   6   1    7.25    0.38
   0   6   1    7.37    0.37
   0   6   1    7.01    0.43
   0   6   1    6.36    0.42
   1   6   1   12.06    0.75
   1   6   1   10.22    0.88
   2   6   1    2.97    0.29
   2   6   1    3.39    0.22
   2   6   1    3.40    0.20
   2   6   1    3.75    0.23
   2   6   1    3.33    0.27
   3   6   1   31.75    1.74
   3   6   1   31.91    2.00
   3   6   1   26.47    2.09
   3   6   1   29.76    1.96
   3   6   1   32.90    1.76
   3   6   1   30.38    1.57
   3   6   1   26.86    2.31
   3   6   1   30.21    2.20
   4   6   1    1.79    0.15
   4   6   1    1.81    0.12
   4   6   1    1.85    0.16
   4   6   1    1.82    0.15
   4   6   1    1.74    0.17
   4   6   1    1.78    0.15
   5   6   1    1.61    0.09
   5   6   1    1.42    0.11
   5   6   1    1.23    0.11
   5   6   1    1.65    0.13
   5   6   1    1.56    0.12
   5  -7  -1   46.42    3.41
  -5   7   1   39.81    2.42
   4  -7  -1   11.62    0.98
   4  -7  -1   11.98    0.64
   4  -7  -1   11.45    0.89
   4  -7  -1   12.06    0.73
   4  -7  -1   12.15    0.72
   4  -7  -1   12.81    0.72
   4  -7  -1   11.61    0.73
   4  -7  -1   13.13    0.90
  -4   7   1   11.70    0.57
  -4   7   1   11.63    0.69
   3  -7  -1    2.52    0.22
   3  -7  -1    2.29    0.21
   3  -7  -1    2.20    0.18
   3  -7  -1    2.26    0.17
   3  -7  -1    2.49    0.15
  -3   7   1    2.42    0.16
   2  -7  -1    0.84    0.09
   2  -7  -1    0.78    0.08
  -2   7   1    0.83    0.09
  -2   7   1    0.75    0.07
  -2   7   1    0.79    0.09
   1  -7  -1    0.01    0.04
   1  -7  -1    0.04    0.05
   1  -7  -1   -0.03    0.05
   1  -7  -1    0.08    0.06
  -1   7   1   -0.09    0.04
  -1   7   1    0.03    0.04
   0  -7  -1    2.38    0.16
   0   7   1    2.44    0.18
   0   7   1    2.59    0.17
   0   7   1    2.29    0.17
   0   7   1    2.38    0.16
   1   7   1    3.76    0.23
   1   7   1    3.80    0.25
   1   7   1    3.73    0.25
   1   7   1    3.55    0.25
   1   7   1    3.34    0.34
   1   7   1    4.31    0.26
   1   7   1    4.06    0.22
   2   7   1    7.45    0.41
   2   7   1    7.56    0.46
   2   7   1    7.54    0.51
   2   7   1    6.95    0.60
   2   7   1    7.48    0.45
   2   7   1    7.55    0.46
   2   7   1    7.61    0.41
   2   7   1    7.06    0.55
   2   7   1    8.16    0.45
   3   7   1    1.80    0.11
   3   7   1    1.79    0.16
   3   7   1    1.64    0.14
   3   7   1    1.69    0.16
   4   7   1    2.33    0.21
   4   7   1    2.50    0.19
   4   7   1    2.48    0.14
   4   7   1    2.29    0.19
   4   7   1    2.49    0.18
   4  -8  -1    0.67    0.10
   4  -8  -1    0.71    0.08
   4  -8  -1    0.63    0.08
   4  -8  -1    0.71    0.06
   4  -8  -1    0.69    0.07
   4  -8  -1    0.77    0.09
  -4   8   1    0.66    0.07
   3  -8  -1    0.24    0.12
   3  -8  -1    0.14    0.03
   3  -8  -1    0.26    0.07
   3  -8  -1    0.21    0.08
  -3   8   1    0.24    0.03
   2  -8  -1    1.52    0.11
   2  -8  -1    1.45    0.10
   2  -8  -1    1.34    0.13
  -2   8   1    1.39    0.13
  -2   8   1    1.39    0.12
  -2   8   1    1.42    0.09
   1  -8  -1    6.65    0.37
   1  -8  -1    6.73    0.42
   1  -8  -1    6.24    0.43
   1  -8  -1    6.98    0.38
  -1   8   1    7.33    0.34
  -1   8   1    6.88    0.40
  -1   8   1    7.09    0.41
  -1   8   1    6.84    0.42
  -1   8   1    6.49    0.37
   0  -8  -1   14.76    0.79
   0  -8  -1   14.72    0.89
   0  -8  -1   14.88    0.79
   0   8   1   14.64    0.88
   0   8   1   16.52    0.87
   0   8   1   14.42    0.79
  -1  -8  -1   20.43    1.23
   1   8   1   19.32    1.47
   1   8   1   21.03    1.20
   1   8   1   21.19    1.10
   1   8   1   21.47    1.23
   1   8   1   22.27    1.20
   2   8   1    0.02    0.05
   2   8   1    0.06    0.03
   2   8   1    0.11    0.03
   2   8   1   -0.03    0.06
  -3  -8  -1    0.14    0.03
   3   8   1    0.10    0.03
   3   8   1    0.19    0.04
   3   8   1    0.18    0.06
   3   8   1    0.15    0.06
   3   8   1    0.12    0.05
   3   8   1    0.15    0.05
   4   8   1    3.95    0.34
   4   8   1    4.76    0.24
   4   8   1    4.55    0.30
   4   8   1    4.21    0.32
   4  -9  -1    2.82    0.20
   4  -9  -1    3.46    0.18
   4  -9  -1    3.01    0.20
  -4   9   1    3.55    0.16
  -4   9   1    3.23    0.19
  -4   9   1    3.42    0.19
   3  -9  -1    2.64    0.16
   3  -9  -1    2.51    0.19
   3  -9  -1    2.58    0.18
   3  -9  -1    2.50    0.18
  -3   9   1    2.73    0.14
  -3   9   1    2.65    0.16
  -3   9   1    2.84    0.17
   2  -9  -1    0.06    0.06
   2  -9  -1   -0.02    0.03
   2  -9  -1    0.01    0.07
   2  -9  -1    0.02    0.04
  -2   9   1    0.01    0.03
  -2   9   1    0.06    0.04
  -2   9   1    0.03    0.04
  -2   9   1    0.00    0.03
   1  -9  -1    3.17    0.19
   1  -9  -1    3.45    0.19
  -1   9   1    3.20    0.17
  -1   9   1    3.24    0.22
  -1   9   1    3.09    0.19
   0  -9  -1    6.93    0.38
   0   9   1    7.13    0.41
   0   9   1    6.67    0.38
  -1  -9  -1   10.48    0.65
  -1  -9  -1   11.14    0.58
   1   9   1   10.99    0.58
   1   9   1   11.48    0.63
   1   9   1   11.10    0.64
   1   9   1    9.63    0.77
  -2  -9  -1    0.04    0.03
   2   9   1    0.07    0.05
   2   9   1    0.10    0.05
   2   9   1    0.03    0.04
   2   9   1    0.06    0.04
   2   9   1    0.15    0.06
   2   9   1    0.12    0.03
   2   9   1    0.09    0.04
  -3  -9  -1    0.37    0.05
   3   9   1    0.35    0.07
   3   9   1    0.43    0.07
   3   9   1    0.50    0.05
   3   9   1    0.44    0.06
   3 -10  -1    2.02    0.13
   3 -10  -1    2.19    0.15
   3 -10  -1    2.74    0.15
  -3  10   1    2.34    0.12
  -3  10   1    2.14    0.14
  -3  10   1    2.64    0.15
   2 -10  -1    8.30    0.49
   2 -10  -1    7.52    0.43
   2 -10  -1    8.55    0.43
  -2  10   1    8.39    0.39
  -2  10   1    7.86    0.47
  -2  10   1    8.31    0.46
   1 -10  -1   12.54    0.62
   1 -10  -1   11.91    0.70
  -1  10   1   10.97    0.68
  -1  10   1   11.95    0.67
  -1  10   1   11.63    0.55
  -1  10   1   11.18    0.65
  -1  10   1   11.67    0.62
   0 -10  -1    8.43    0.44
   0 -10  -1    7.96    0.49
   0  10   1    7.78    0.48
   0  10   1    8.43    0.44
   0  10   1    8.10    0.48
  -1 -10  -1    0.33    0.05
   1  10   1    0.46    0.05
   1  10   1    0.35    0.05
   1  10   1    0.46    0.05
   1  10   1    0.38    0.06
  -2 -10  -1    0.11    0.02
   2  10   1    0.06    0.03
   2  10   1    0.00    0.03
   2  10   1    0.07    0.02
   1 -11  -1    5.11    0.29
  -1  11   1    4.62    0.28
   0 -11  -1    0.00    0.02
   0  11   1   -0.01    0.02
   0  11   1    0.03    0.03
   0  11   1   -0.01    0.03
   0  11   1    0.02    0.02
  -1 -11  -1    0.04    0.03
  -1 -11  -1    0.03    0.02
   1  11   1    0.01    0.02
   1  11   1    0.05    0.02
   1  11   1    0.05    0.03
   1  11   1    0.01    0.03
   2  11  -2    0.77    0.05
   2  11  -2    0.89    0.07
   2  11  -2    0.69    0.06
   1  11  -2    0.85    0.06
   1  11  -2    0.78    0.07
   1  11  -2    0.67    0.07
  -1 -11   2    0.66    0.06
  -1 -11   2    0.79    0.05
  -1 -11   2    0.80    0.06
   0  11  -2   10.90    0.77
   0  11  -2   12.04    0.61
   0  11  -2   11.78    0.66
   0  11  -2   11.33    0.67
   0 -11   2   11.06    0.54
   0 -11   2   11.92    0.62
   0 -11   2   11.90    0.61
  -1  11  -2    5.19    0.30
  -1  11  -2    5.16    0.31
   1 -11   2    4.98    0.28
   1 -11   2    5.35    0.32
  -2  11  -2    0.65    0.06
  -2  11  -2    0.56    0.06
   2 -11   2    0.63    0.07
   2 -11   2    0.59    0.05
   2 -11   2    0.60    0.06
   3  10  -2    1.19    0.09
   3  10  -2    1.24    0.10
   2  10  -2    0.21    0.07
   2  10  -2    0.44    0.06
   2  10  -2    0.46    0.07
   2  10  -2    0.34    0.06
   2  10  -2    0.38    0.06
   2  10  -2    0.41    0.06
  -2 -10   2    0.39    0.04
  -2 -10   2    0.36    0.04
   1  10  -2    3.40    0.23
   1  10  -2    3.25    0.26
   1  10  -2    3.75    0.22
   1  10  -2    3.72    0.21
  -1 -10   2    3.62    0.21
   0  10  -2   12.60    0.71
   0  10  -2   13.06    0.67
   0  10  -2   11.89    0.75
   0  10  -2   12.98    0.74
   0 -10   2   12.65    0.76
   0 -10   2   13.06    0.67
  -1  10  -2    3.83    0.19
  -1  10  -2    3.71    0.23
  -1  10  -2    3.86    0.23
  -1  10  -2    3.29    0.24
   1 -10   2    3.80    0.25
   1 -10   2    3.74    0.22
  -2  10  -2    0.88    0.06
  -2  10  -2    0.90    0.08
  -2  10  -2    1.03    0.08
   2 -10   2    0.96    0.08
   2 -10   2    0.88    0.07
   2 -10   2    0.88    0.09
  -3  10  -2    0.71    0.05
  -3  10  -2    0.61    0.06
  -3  10  -2    0.58    0.06
   3 -10   2    0.69    0.05
   3 -10   2    0.70    0.07
   4   9  -2    0.43    0.05
  -4  -9   2    0.38    0.04
   3   9  -2    1.00    0.11
   3   9  -2    1.18    0.09
   3   9  -2    1.11    0.12
   3   9  -2    1.17    0.10
   3   9  -2    1.25    0.11
   3   9  -2    1.16    0.11
   3   9  -2    1.22    0.10
  -3  -9   2    1.10    0.07
   2   9  -2    0.55    0.08
   2   9  -2    0.55    0.07
   2   9  -2    0.66    0.10
   2   9  -2    0.56    0.08
   2   9  -2    0.58    0.08
   2   9  -2    0.70    0.07
  -2  -9   2    0.60    0.08
   1   9  -2    4.14    0.27
   1   9  -2    4.22    0.24
   1   9  -2    4.44    0.27
  -1  -9   2    4.04    0.24
   0   9  -2   10.77    0.59
   0   9  -2   11.22    0.65
   0   9  -2   11.29    0.63
   0  -9   2   10.93    0.59
  -1   9  -2   31.87    1.69
  -1   9  -2   33.87    1.79
  -1   9  -2   32.17    1.84
  -1   9  -2   33.25    1.52
   1  -9   2   32.60    1.70
   1  -9   2   32.12    1.69
   1  -9   2   31.78    1.90
  -2   9  -2    0.55    0.06
   2  -9   2    0.45    0.06
   2  -9   2    0.58    0.08
   2  -9   2    0.61    0.06
  -3   9  -2    4.86    0.30
  -3   9  -2    5.17    0.30
  -3   9  -2    5.04    0.25
   3  -9   2    5.15    0.28
   3  -9   2    5.17    0.28
   3  -9   2    5.09    0.32
   3  -9   2    5.05    0.32
  -4   9  -2    0.00    0.02
  -4   9  -2    0.03    0.03
   4  -9   2    0.01    0.02
   4  -9   2    0.04    0.03
   4  -9   2    0.06    0.04
   4  -9   2    0.04    0.03
   4   8  -2    1.30    0.11
   4   8  -2    1.36    0.11
   4   8  -2    1.35    0.12
   4   8  -2    1.11    0.12
   4   8  -2    1.45    0.10
   3   8  -2    0.32    0.04
   3   8  -2    0.20    0.05
   3   8  -2    0.26    0.06
   3   8  -2    0.17    0.04
   3   8  -2    0.21    0.05
   3   8  -2    0.26    0.05
   3   8  -2    0.30    0.05
   3   8  -2    0.25    0.04
  -3  -8   2    0.18    0.06
   2   8  -2   32.42    1.62
   2   8  -2   32.67    2.02
   2   8  -2   31.27    1.61
   2   8  -2   26.80    2.16
   2   8  -2   30.10    2.38
   2   8  -2   32.39    1.76
   2   8  -2   30.55    1.80
   2   8  -2   30.04    2.05
  -2  -8   2   32.43    1.62
   1   8  -2    1.75    0.11
   1   8  -2    1.50    0.13
   1   8  -2    1.57    0.13
   1   8  -2    1.45    0.12
   1   8  -2    1.72    0.14
   1   8  -2    1.51    0.13
  -1  -8   2    1.43    0.12
   0   8  -2    1.07    0.10
   0   8  -2    1.01    0.10
   0   8  -2    1.09    0.09
   0  -8   2    1.13    0.09
  -1   8  -2   15.04    0.81
  -1   8  -2   15.85    0.72
  -1   8  -2   13.37    0.89
  -1   8  -2   16.04    0.85
  -1   8  -2   15.64    0.88
   1  -8   2   14.99    0.80
   1  -8   2   15.50    0.81
  -2   8  -2   22.02    1.04
  -2   8  -2   22.43    1.26
   2  -8   2   21.83    1.31
   2  -8   2   22.33    1.32
   2  -8   2   22.64    1.17
   2  -8   2   21.82    1.16
  -3   8  -2    0.18    0.03
   3  -8   2    0.24    0.04
   3  -8   2    0.11    0.06
   3  -8   2    0.21    0.05
   3  -8   2    0.17    0.07
  -4   8  -2    1.53    0.12
  -4   8  -2    1.43    0.10
   4  -8   2    1.71    0.10
   4  -8   2    1.95    0.13
   4  -8   2    1.70    0.16
   4  -8   2    1.54    0.17
   4  -8   2    1.70    0.12
   4  -8   2    1.61    0.13
  -5   8  -2    2.87    0.17
   5  -8   2    2.92    0.19
   5   7  -2    0.57    0.07
   5   7  -2    0.60    0.06
   4   7  -2    0.34    0.07
   4   7  -2    0.38    0.05
   4   7  -2    0.32    0.06
   4   7  -2    0.29    0.05
   4   7  -2    0.32    0.06
   4   7  -2    0.31    0.06
   3   7  -2    2.40    0.17
   3   7  -2    2.16    0.22
   3   7  -2    2.13    0.19
   3   7  -2    2.33    0.14
   3   7  -2    2.08    0.18
   3   7  -2    2.20    0.17
   2   7  -2    0.44    0.07
   2   7  -2    0.38    0.07
   2   7  -2    0.36    0.06
   2   7  -2    0.40    0.06
   2   7  -2    0.38    0.05
   2   7  -2    0.38    0.05
   2   7  -2    0.36    0.06
   1   7  -2    2.50    0.18
   1   7  -2    2.62    0.15
   1   7  -2    2.46    0.24
   1   7  -2    2.63    0.16
   0   7  -2   10.40    0.63
   0   7  -2    9.24    0.55
   0  -7   2    8.40    0.57
  -1   7  -2    1.55    0.14
  -1   7  -2    1.51    0.16
   1  -7   2    1.69    0.11
   1  -7   2    1.43    0.18
   1  -7   2    1.60    0.15
  -2   7  -2    2.83    0.20
  -2   7  -2    2.85    0.16
   2  -7   2    2.84    0.17
   2  -7   2    3.01    0.19
   2  -7   2    2.64    0.21
   2  -7   2    3.04    0.24
  -3   7  -2    6.49    0.39
  -3   7  -2    6.48    0.33
   3  -7   2    6.45    0.42
   3  -7   2    6.34    0.41
   3  -7   2    6.88    0.41
   3  -7   2    6.33    0.50
   3  -7   2    6.62    0.36
   3  -7   2    7.33    0.52
  -4   7  -2   -0.01    0.04
  -4   7  -2   -0.03    0.06
   4  -7   2    0.01    0.03
   4  -7   2    0.06    0.08
   4  -7   2    0.02    0.03
   4  -7   2    0.04    0.04
   5  -7   2    0.21    0.05
   5  -7   2    0.18    0.05
   5  -7   2    0.18    0.03
   5  -7   2    0.19    0.04
   5   6  -2    2.51    0.21
   5   6  -2    2.14    0.19
   5   6  -2    2.69    0.18
   5   6  -2    2.62    0.18
   5   6  -2    2.28    0.19
   4   6  -2    0.62    0.07
   4   6  -2    0.54    0.08
   4   6  -2    0.68    0.06
   4   6  -2    0.69    0.08
   4   6  -2    0.69    0.09
   3   6  -2    0.03    0.04
   3   6  -2    0.05    0.04
   3   6  -2    0.03    0.04
   3   6  -2    0.07    0.05
   3   6  -2    0.03    0.07
   3   6  -2    0.05    0.04
   3   6  -2   -0.05    0.06
   3   6  -2    0.04    0.06
   3   6  -2    0.10    0.04
   2   6  -2    1.80    0.19
   2   6  -2    1.37    0.14
   2   6  -2    1.87    0.14
   2   6  -2    1.59    0.12
   1   6  -2   10.85    0.51
   1   6  -2    8.63    0.71
   1   6  -2    9.45    0.53
  -1  -6   2   10.47    0.45
   0   6  -2    6.01    0.35
   0   6  -2    6.12    0.27
   0   6  -2    5.28    0.34
   0   6  -2    5.32    0.25
   0   6  -2    5.87    0.26
   0  -6   2    5.60    0.27
   0  -6   2    5.10    0.50
   0  -6   2    5.34    0.29
   0  -6   2    4.96    0.35
   0  -6   2    5.53    0.57
  -1   6  -2    0.85    0.09
  -1   6  -2    0.92    0.10
  -1   6  -2    0.85    0.09
  -1   6  -2    0.99    0.10
   1  -6   2    0.93    0.16
   1  -6   2    1.01    0.16
   1  -6   2    0.97    0.09
  -2   6  -2    9.69    0.58
   2  -6   2   10.15    0.53
   3  -6   2    2.57    0.19
   3  -6   2    2.82    0.20
   3  -6   2    2.97    0.24
   3  -6   2    2.86    0.18
   3  -6   2    2.50    0.28
   3  -6   2    2.82    0.20
  -4   6  -2    1.75    0.13
   4  -6   2    2.32    0.18
   4  -6   2    2.11    0.18
   4  -6   2    2.44    0.20
   4  -6   2    2.24    0.16
   4  -6   2    2.07    0.16
   4  -6   2    2.15    0.16
   4  -6   2    1.94    0.21
   5  -6   2    0.05    0.03
   5  -6   2    0.02    0.03
   5  -6   2    0.05    0.04
   5  -6   2    0.09    0.05
   5  -6   2    0.06    0.06
   5   5  -2    1.92    0.16
   5   5  -2    2.05    0.18
   5   5  -2    1.98    0.15
   5   5  -2    1.93    0.17
   5   5  -2    2.14    0.16
   4   5  -2    0.07    0.04
   4   5  -2    0.06    0.05
   4   5  -2    0.09    0.05
   4   5  -2    0.06    0.03
   4   5  -2    0.06    0.06
   4   5  -2    0.07    0.04
   3   5  -2   13.16    1.10
   3   5  -2   13.64    1.07
   3   5  -2   14.13    1.05
   3   5  -2   13.87    0.75
   3   5  -2   12.71    1.00
   3   5  -2   14.66    0.96
   3   5  -2   15.45    0.80
   3   5  -2   15.59    0.82
   2   5  -2   -0.02    0.06
   2   5  -2   -0.03    0.05
   2   5  -2    0.01    0.03
   2   5  -2    0.24    0.12
   1   5  -2    2.45    0.12
   1   5  -2    1.90    0.10
   1   5  -2    2.26    0.13
   1   5  -2    2.32    0.12
  -1  -5   2    2.32    0.13
  -1  -5   2    2.24    0.11
   0   5  -2    0.30    0.04
   0   5  -2    0.38    0.04
   0   5  -2    0.31    0.04
   0   5  -2    0.32    0.03
   0  -5   2    0.24    0.05
   0  -5   2    0.27    0.03
   0  -5   2    0.26    0.06
   0  -5   2    0.32    0.03
  -1   5  -2    4.65    0.43
  -1   5  -2    5.61    0.33
  -1   5  -2    5.00    0.25
  -1   5  -2    4.63    0.31
   1  -5   2    4.66    0.22
   1  -5   2    4.94    0.28
   1  -5   2    4.33    0.42
  -2   5  -2   15.65    1.09
   2  -5   2   16.16    0.87
   2  -5   2   17.57    1.23
  -3   5  -2    3.72    0.22
   3  -5   2    4.40    0.29
   3  -5   2    4.30    0.28
   3  -5   2    4.16    0.25
   3  -5   2    4.30    0.33
   4  -5   2    8.39    0.55
   4  -5   2    9.26    0.68
   4  -5   2    8.44    0.55
   4  -5   2    9.52    0.55
   4  -5   2    8.24    0.74
   4  -5   2    9.53    0.67
   5  -5   2    2.40    0.18
   5  -5   2    2.19    0.19
   5  -5   2    2.09    0.22
   5  -5   2    2.12    0.15
   5  -5   2    2.12    0.18
   6  -5   2    0.69    0.06
   6  -5   2    0.56    0.07
   6   4  -2    0.97    0.09
   6   4  -2    1.13    0.09
   5   4  -2    0.71    0.09
   5   4  -2    0.61    0.07
   5   4  -2    0.67    0.08
   5   4  -2    0.66    0.09
   5   4  -2    0.72    0.08
   4   4  -2   13.81    1.01
   4   4  -2   13.33    0.96
   4   4  -2   13.50    0.90
   4   4  -2   12.83    1.06
   4   4  -2   14.35    0.92
   3   4  -2   17.80    0.91
   3   4  -2   14.07    0.84
   3   4  -2   16.16    0.92
   2   4  -2   24.10    1.06
   2   4  -2   25.34    0.98
   2   4  -2   25.82    1.06
  -2  -4   2   22.55    1.33
  -2  -4   2   22.60    1.05
   1   4  -2  100.84    4.39
   1   4  -2   97.78    4.31
   1   4  -2  100.20    5.01
   1   4  -2  105.75    4.35
  -1  -4   2  100.25    4.09
  -1  -4   2  101.14    4.31
   0   4  -2    0.32    0.03
   0   4  -2    0.31    0.03
   0   4  -2    0.29    0.03
   0  -4   2    0.26    0.05
   0  -4   2    0.33    0.03
   0  -4   2    0.32    0.03
  -1   4  -2    0.39    0.05
  -1   4  -2    0.33    0.07
  -1   4  -2    0.35    0.05
   1  -4   2    0.45    0.06
   1  -4   2    0.49    0.06
   1  -4   2    0.45    0.04
  -2   4  -2   34.36    2.98
  -2   4  -2   35.76    1.54
  -2   4  -2   33.95    2.29
   2  -4   2   35.77    1.94
   2  -4   2   36.74    1.93
   3  -4   2    9.35    0.50
   4  -4   2    7.52    0.45
   4  -4   2    7.10    0.45
   4  -4   2    6.88    0.60
   5  -4   2   10.57    0.64
   5  -4   2   10.27    0.86
   5  -4   2   10.61    0.63
   6  -4   2    7.50    0.48
   6  -4   2    8.40    0.60
   6  -4   2    7.85    0.64
   6   3  -2    7.15    0.50
   6   3  -2    6.43    0.47
   6   3  -2    6.57    0.45
   5   3  -2    2.95    0.25
   5   3  -2    3.04    0.22
   4   3  -2    3.04    0.19
   4   3  -2    2.88    0.24
   4   3  -2    3.20    0.28
   4   3  -2    3.50    0.24
   3   3  -2    5.21    0.31
   3   3  -2    5.77    0.35
  -3  -3   2    5.44    0.27
  -3  -3   2    5.39    0.26
  -3  -3   2    5.49    0.34
   2   3  -2   10.22    0.40
   2   3  -2   10.24    0.43
   2   3  -2    9.99    0.42
   2   3  -2   10.29    0.43
  -2  -3   2    9.27    0.43
  -2  -3   2    8.98    0.64
  -2  -3   2    9.28    0.42
   1   3  -2    6.97    0.29
   1   3  -2    6.74    0.29
   1   3  -2    6.34    0.27
   1   3  -2    6.81    0.29
   1   3  -2    6.68    0.33
   1   3  -2    6.27    0.29
  -1  -3   2    6.80    0.29
  -1  -3   2    6.21    0.29
  -1  -3   2    6.24    0.27
   0   3  -2   -0.01    0.01
   0   3  -2   -0.01    0.01
   0  -3   2    0.02    0.01
   0  -3   2    0.00    0.01
   0  -3   2    0.02    0.01
   0  -3   2    0.01    0.01
   0  -3   2    0.01    0.01
  -1   3  -2    0.08    0.01
  -1   3  -2    0.07    0.02
  -1   3  -2    0.12    0.01
   1  -3   2    0.11    0.02
   1  -3   2    0.06    0.01
   1  -3   2    0.10    0.01
   1  -3   2    0.09    0.01
   1  -3   2    0.05    0.01
  -2   3  -2    2.36    0.21
  -2   3  -2    2.39    0.11
  -2   3  -2    2.26    0.14
   2  -3   2    2.38    0.13
  -3   3  -2   10.44    0.57
  -3   3  -2   10.06    0.52
   4  -3   2   -0.04    0.07
   4  -3   2    0.03    0.04
   4  -3   2    0.00    0.06
   4  -3   2    0.03    0.05
   4  -3   2    0.04    0.04
   5  -3   2    2.17    0.22
   5  -3   2    2.27    0.20
   5  -3   2    2.08    0.17
   6  -3   2    0.76    0.07
   6  -3   2    0.83    0.08
   6  -3   2    0.83    0.10
   6   2  -2    1.31    0.11
   6   2  -2    1.25    0.11
   6   2  -2    1.55    0.13
   6   2  -2    1.40    0.13
   5   2  -2   74.42    5.50
   5   2  -2   76.69    5.24
   5   2  -2   76.01    4.98
   4   2  -2    3.42    0.29
   4   2  -2    3.27    0.26
   3   2  -2    0.53    0.10
   3   2  -2    0.39    0.10
  -3  -2   2    0.55    0.06
  -3  -2   2    0.38    0.05
  -3  -2   2    0.27    0.08
  -3  -2   2    0.41    0.04
  -3  -2   2    0.33    0.08
  -3  -2   2    0.44    0.05
  -3  -2   2    0.23    0.08
  -3  -2   2    0.41    0.05
   2   2  -2    4.08    0.19
   2   2  -2    3.87    0.16
   2   2  -2    4.01    0.16
   2   2  -2    3.70    0.17
   2   2  -2    3.78    0.17
   2   2  -2    3.97    0.16
  -2  -2   2    3.65    0.19
  -2  -2   2    3.96    0.23
  -2  -2   2    3.64    0.17
  -2  -2   2    3.51    0.25
  -2  -2   2    3.44    0.17
   1   2  -2    8.89    0.38
   1   2  -2    8.94    0.37
   1   2  -2    9.34    0.35
   1   2  -2    8.86    0.42
   1   2  -2    8.48    0.37
   1   2  -2    9.14    0.37
   1   2  -2    9.10    0.43
   1   2  -2    8.41    0.53
  -1  -2   2    8.28    0.47
  -1  -2   2    8.45    0.38
  -1  -2   2    8.53    0.37
  -1  -2   2    7.35    0.73
  -1  -2   2    8.34    0.38
   0   2  -2    0.40    0.02
   0   2  -2    0.43    0.02
   0   2  -2    0.41    0.02
   0   2  -2    0.44    0.02
   0   2  -2    0.35    0.04
   0   2  -2    0.39    0.03
   0  -2   2    0.40    0.04
   0  -2   2    0.41    0.02
   0  -2   2    0.41    0.03
   0  -2   2    0.42    0.03
   0  -2   2    0.40    0.02
  -1   2  -2  884.80   55.12
  -1   2  -2  924.31   37.09
  -1   2  -2  820.80   52.10
  -1   2  -2  842.35   71.87
  -1   2  -2  767.90   46.61
  -1   2  -2  870.86   34.67
   1  -2   2  866.71   36.53
   1  -2   2  823.14   55.12
   1  -2   2  858.44   46.64
   1  -2   2  907.06   34.66
  -2   2  -2   18.05    0.79
  -2   2  -2   20.79    1.55
  -2   2  -2   17.89    1.00
  -2   2  -2   17.71    1.01
   2  -2   2   18.17    1.00
   2  -2   2   17.52    1.01
  -3   2  -2   16.91    0.94
  -3   2  -2   16.00    0.69
  -3   2  -2   16.13    0.73
  -3   2  -2   18.33    1.44
  -3   2  -2   16.11    0.84
   3  -2   2   18.81    1.02
   4  -2   2    0.24    0.07
   5  -2   2    1.55    0.15
   5  -2   2    1.34    0.18
   5  -2   2    1.91    0.15
   5  -2   2    1.62    0.13
   6  -2   2    0.12    0.04
   6  -2   2    0.13    0.04
   6  -2   2    0.10    0.07
   6  -2   2    0.09    0.04
   6   1  -2    4.69    0.38
   6   1  -2    5.55    0.37
   6   1  -2    5.81    0.41
   6   1  -2    5.54    0.41
   5   1  -2    0.30    0.07
   5   1  -2    0.15    0.06
   5   1  -2    0.11    0.10
   5   1  -2    0.16    0.05
   4   1  -2    6.11    0.47
  -3  -1   2    0.26    0.03
  -3  -1   2    0.22    0.06
  -3  -1   2    0.17    0.07
  -3  -1   2    0.25    0.03
  -3  -1   2    0.28    0.03
  -3  -1   2    0.28    0.03
  -3  -1   2    0.35    0.04
  -3  -1   2    0.20    0.06
  -3  -1   2    0.31    0.05
   2   1  -2   63.91    2.63
   2   1  -2   62.90    2.49
   2   1  -2   67.44    2.98
   2   1  -2   60.64    2.63
   2   1  -2   57.73    2.49
   2   1  -2   63.43    2.66
  -2  -1   2   60.63    2.98
  -2  -1   2   57.59    3.36
  -2  -1   2   60.56    2.68
  -2  -1   2   60.47    3.06
  -2  -1   2   62.94    3.75
  -2  -1   2   61.48    2.66
   1   1  -2   28.17    1.74
   1   1  -2   29.14    1.24
   1   1  -2   29.15    1.22
   1   1  -2   28.51    1.16
   1   1  -2   30.18    1.16
   1   1  -2   29.09    1.38
   1   1  -2   29.23    1.23
  -1  -1   2   31.13    1.74
  -1  -1   2   26.85    1.42
  -1  -1   2   26.87    1.24
  -1  -1   2   29.00    1.23
  -1  -1   2   27.21    1.55
  -1  -1   2   27.48    1.24
  -1  -1   2   27.14    1.16
   0   1  -2    8.77    0.38
   0   1  -2    8.90    0.36
   0   1  -2    8.69    0.38
   0   1  -2    8.41    0.48
   0   1  -2    8.80    0.48
   0   1  -2    9.33    0.38
   0   1  -2    9.44    0.38
   0   1  -2    8.86    0.44
   0  -1   2    8.47    0.48
   0  -1   2    9.28    0.38
   0  -1   2    8.64    0.38
   0  -1   2    8.72    0.36
   0  -1   2    7.79    0.74
   0  -1   2    8.77    0.48
   0  -1   2    8.90    0.38
  -1   1  -2   29.18    1.50
  -1   1  -2   29.70    1.65
  -1   1  -2   32.45    2.59
  -1   1  -2   31.41    1.29
  -1   1  -2   32.40    2.54
  -1   1  -2   30.77    1.95
  -1   1  -2   31.88    1.64
  -1   1  -2   25.48    1.29
  -1   1  -2   31.55    1.22
  -1   1  -2   30.21    1.22
   1  -1   2   29.51    1.65
   1  -1   2   28.98    1.95
   1  -1   2   28.27    2.59
   1  -1   2   30.67    1.64
  -2   1  -2   13.57    1.28
  -2   1  -2   15.48    0.83
  -2   1  -2   15.52    0.65
  -2   1  -2   16.55    1.31
  -2   1  -2   15.22    0.65
  -2   1  -2   15.19    0.62
  -2   1  -2   13.90    1.50
  -2   1  -2   15.82    0.83
   2  -1   2   15.37    0.77
  -3   1  -2    4.89    0.47
  -3   1  -2    5.86    0.48
  -3   1  -2    5.45    0.25
  -3   1  -2    5.66    0.25
  -3   1  -2    5.34    0.28
  -3   1  -2    5.72    0.31
  -3   1  -2    5.75    0.31
   3  -1   2    5.12    0.34
   4  -1   2    7.46    0.47
   4  -1   2    7.55    0.53
   4  -1   2    7.85    0.59
   4  -1   2    7.55    0.42
   5  -1   2   14.33    0.91
   5  -1   2   15.04    1.15
   5  -1   2   16.39    1.13
   6  -1   2   10.47    0.79
   6  -1   2    8.97    0.73
   6   0  -2    2.86    0.20
   6   0  -2    2.41    0.25
   6   0  -2    2.81    0.22
   6   0  -2    2.79    0.22
   5   0  -2    0.47    0.08
   5   0  -2    0.34    0.08
   5   0  -2    0.48    0.08
   4   0  -2    3.31    0.29
   4   0  -2    3.49    0.26
   4   0  -2    3.46    0.28
   4   0  -2    3.45    0.26
   4   0  -2    3.20    0.31
   3   0  -2    0.27    0.09
  -3   0   2    0.16    0.05
  -3   0   2    0.22    0.02
  -3   0   2    0.20    0.04
  -3   0   2    0.25    0.02
  -3   0   2    0.18    0.04
  -3   0   2    0.14    0.04
  -3   0   2    0.14    0.04
   2   0  -2    4.00    0.27
   2   0  -2    4.60    0.19
   2   0  -2    4.53    0.18
  -2   0   2    4.41    0.19
  -2   0   2    4.10    0.24
  -2   0   2    4.07    0.21
  -2   0   2    4.38    0.27
   1   0  -2   25.97    1.09
   1   0  -2   26.35    1.03
   1   0  -2   26.54    1.10
   1   0  -2   25.84    1.08
   1   0  -2   24.01    1.54
   1   0  -2   25.13    1.22
  -1   0   2   24.80    1.38
  -1   0   2   25.05    1.09
  -1   0   2   24.83    1.28
  -1   0   2   25.05    1.10
  -1   0   2   24.83    1.03
  -1   0   2   25.03    1.54
   0   0  -2  136.12    7.60
   0   0  -2  138.25    6.05
   0   0  -2  139.23    7.60
   0   0  -2  144.34   11.96
   0   0  -2  135.07    5.95
   0   0  -2  144.11    5.65
   0   0  -2  143.29    6.00
   0   0  -2  151.70    8.49
   0   0   2  160.59   13.76
   0   0   2  133.14    6.92
   0   0   2  135.38    5.65
   0   0   2  129.77    6.05
   0   0   2  128.55    6.00
   0   0   2  134.77    7.60
   0   0   2  137.77    5.95
   0   0   2  138.61   11.97
  -1   0  -2   29.90    1.48
  -1   0  -2   32.30    1.63
  -1   0  -2   31.18    1.63
  -1   0  -2   31.82    2.56
  -1   0  -2   30.98    2.94
  -1   0  -2   29.44    1.28
  -1   0  -2   29.52    2.51
  -1   0  -2   26.02    1.21
  -1   0  -2   29.68    1.29
   1   0   2   25.43    2.94
   1   0   2   31.25    1.63
   1   0   2   30.69    1.92
   1   0   2   27.17    2.56
   1   0   2   30.93    1.48
   1   0   2   30.93    1.21
   1   0   2   30.23    1.51
  -2   0  -2   16.05    0.63
  -2   0  -2   15.97    0.85
  -2   0  -2   15.14    0.95
  -2   0  -2   15.48    0.67
  -2   0  -2   15.76    0.68
  -2   0  -2   15.76    1.34
  -2   0  -2   14.47    1.53
  -2   0  -2   15.96    0.85
  -2   0  -2   13.57    1.30
  -2   0  -2   16.72    0.63
  -3   0  -2    0.90    0.07
  -3   0  -2    0.94    0.09
  -3   0  -2    0.85    0.11
  -3   0  -2    0.81    0.12
  -3   0  -2    0.83    0.06
  -3   0  -2    0.89    0.11
  -3   0  -2    0.81    0.10
  -3   0  -2    0.77    0.06
  -3   0  -2    0.91    0.07
  -3   0  -2    0.86    0.07
   3   0   2    0.81    0.14
   4   0   2    1.95    0.15
   5   0   2    4.59    0.37
   5   0   2    4.22    0.29
   5   0   2    3.92    0.25
   6  -1  -2    5.59    0.38
   6  -1  -2    4.52    0.34
   6  -1  -2    4.95    0.38
   6  -1  -2    4.80    0.42
   5  -1  -2    5.20    0.39
   5  -1  -2    5.19    0.37
   5  -1  -2    4.58    0.39
   5  -1  -2    4.82    0.35
   4  -1  -2    0.21    0.06
   4  -1  -2    0.13    0.11
   4  -1  -2    0.05    0.06
   4  -1  -2   -0.01    0.08
   4  -1  -2    0.08    0.05
   3  -1  -2    1.10    0.12
  -3   1   2    0.89    0.09
  -3   1   2    0.94    0.15
  -3   1   2    0.82    0.08
  -3   1   2    0.71    0.09
  -3   1   2    0.87    0.11
  -3   1   2    0.86    0.06
   2  -1  -2   65.11    2.80
  -2   1   2   66.26    5.63
   1  -1  -2    3.56    0.15
   1  -1  -2    3.56    0.19
   1  -1  -2    3.72    0.19
   1  -1  -2    3.24    0.22
   1  -1  -2    3.58    0.15
   1  -1  -2    3.51    0.18
  -1   1   2    3.31    0.22
  -1   1   2    3.37    0.19
  -1   1   2    3.49    0.14
  -1   1   2    3.35    0.15
  -1   1   2    3.29    0.15
  -1   1   2    3.65    0.30
   0  -1  -2   27.42    2.36
   0  -1  -2   23.27    0.97
   0  -1  -2   23.05    1.30
   0  -1  -2   23.47    2.05
   0  -1  -2   23.39    1.02
   0  -1  -2   22.84    1.16
   0  -1  -2   23.50    1.03
   0  -1  -2   24.38    1.46
   0   1   2   23.79    0.97
   0   1   2   21.98    1.30
   0   1   2   22.81    2.06
   0   1   2   24.00    2.36
   0   1   2   23.91    1.02
   0   1   2   25.59    1.46
   0   1   2   26.86    2.01
   0   1   2   23.22    1.03
   0   1   2   23.27    1.04
  -1  -1  -2  339.79   13.21
  -1  -1  -2  332.90   14.04
  -1  -1  -2  347.11   27.40
  -1  -1  -2  334.63   15.77
  -1  -1  -2  304.34   28.00
  -1  -1  -2  315.18   32.17
  -1  -1  -2  333.67   16.46
  -1  -1  -2  323.26   17.78
  -1  -1  -2  347.36   14.12
   1   1   2  328.85   14.13
   1   1   2  282.72   32.17
   1   1   2  329.97   21.00
   1   1   2  334.83   16.21
   1   1   2  322.50   27.40
   1   1   2  273.74   27.99
   1   1   2  357.51   13.21
   1   1   2  337.82   13.92
  -2  -1  -2   15.60    1.46
  -2  -1  -2   15.38    1.67
  -2  -1  -2   16.16    0.73
  -2  -1  -2   17.30    1.09
  -2  -1  -2   17.26    0.93
  -2  -1  -2   16.56    0.73
  -2  -1  -2   18.08    0.68
  -2  -1  -2   16.78    0.73
  -2  -1  -2   17.01    0.93
  -2  -1  -2   17.53    0.86
  -2  -1  -2   18.77    0.72
  -2  -1  -2   16.02    1.42
  -3  -1  -2    1.66    0.09
  -3  -1  -2    1.65    0.19
  -3  -1  -2    1.81    0.16
  -3  -1  -2    1.78    0.21
  -3  -1  -2    1.93    0.13
  -3  -1  -2    1.60    0.18
  -3  -1  -2    1.72    0.09
  -3  -1  -2    1.91    0.09
  -3  -1  -2    1.80    0.12
  -3  -1  -2    1.52    0.14
   3   1   2    1.52    0.20
   3   1   2    1.69    0.16
   3   1   2    1.98    0.18
   3   1   2    1.52    0.18
   4   1   2    0.08    0.09
   6  -2  -2    1.73    0.14
   6  -2  -2    1.49    0.17
   6  -2  -2    1.55    0.13
   6  -2  -2    1.41    0.12
   5  -2  -2    1.78    0.16
   5  -2  -2    1.60    0.15
   5  -2  -2    1.67    0.16
   5  -2  -2    1.53    0.17
   4  -2  -2    3.56    0.24
   4  -2  -2    3.14    0.31
   4  -2  -2    3.62    0.29
   3  -2  -2   29.87    1.92
  -3   2   2   34.90    3.22
   2  -2  -2    3.82    0.21
   2  -2  -2    3.75    0.17
  -2   2   2    4.25    0.39
  -2   2   2    3.47    0.33
   1  -2  -2   19.73    1.48
   1  -2  -2   17.14    0.87
   1  -2  -2   16.74    0.74
   1  -2  -2   16.78    0.94
   1  -2  -2   17.70    0.94
  -1   2   2   15.67    1.48
  -1   2   2   16.76    0.70
   0  -2  -2  313.71   15.72
   0  -2  -2  301.88   27.93
   0  -2  -2  343.15   32.10
   0  -2  -2  321.25   13.19
   0  -2  -2  309.95   17.73
   0  -2  -2  322.30   13.90
   0  -2  -2  317.53   19.81
   0   2   2  329.11   27.35
   0   2   2  316.02   14.01
   0   2   2  329.55   13.18
   0   2   2  334.88   14.10
   0   2   2  343.39   13.90
   0   2   2  337.16   15.72
   0   2   2  336.35   19.81
  -1  -2  -2   54.71    2.29
  -1  -2  -2   56.23    4.74
  -1  -2  -2   54.60    2.41
  -1  -2  -2   60.88    2.44
  -1  -2  -2   57.94    3.43
   1   2   2   59.01    2.29
   1   2   2   55.46    2.44
   1   2   2   58.61    2.41
   1   2   2   51.60    3.63
   1   2   2   55.22    4.74
   1   2   2   56.23    2.80
  -2  -2  -2  146.71    6.22
  -2  -2  -2  144.98    5.90
  -2  -2  -2  152.11    8.87
  -2  -2  -2  150.46    7.35
  -2  -2  -2  141.71    6.31
  -2  -2  -2  126.70   14.37
  -2  -2  -2  142.35   12.24
   2   2   2  151.48    7.24
   2   2   2  155.27    6.21
  -3  -2  -2   32.52    1.71
  -3  -2  -2   32.23    2.69
  -3  -2  -2   33.21    1.71
  -3  -2  -2   30.48    2.63
  -3  -2  -2   30.56    3.09
   3   2   2   33.40    2.06
   3   2   2   29.96    2.17
   3   2   2   26.19    2.38
   4   2   2    0.68    0.08
   5   2   2    3.15    0.25
   5   2   2    3.96    0.21
   5   2   2    3.53    0.27
   5   2   2    3.57    0.24
   5   2   2    3.17    0.29
   6  -3  -2    2.10    0.20
   6  -3  -2    2.38    0.18
   6  -3  -2    2.20    0.18
   5  -3  -2    6.39    0.39
   5  -3  -2    6.03    0.48
   5  -3  -2    6.52    0.48
   5  -3  -2    5.63    0.52
   5  -3  -2    6.30    0.43
   4  -3  -2    4.52    0.45
   4  -3  -2    5.26    0.41
   4  -3  -2    5.03    0.34
   4  -3  -2    5.72    0.41
   4  -3  -2    5.32    0.35
   3  -3  -2    3.86    0.28
   3  -3  -2    3.65    0.20
   3  -3  -2    3.53    0.22
   3  -3  -2    4.13    0.29
  -3   3   2    3.23    0.22
   2  -3  -2    2.73    0.15
  -2   3   2    2.65    0.28
  -2   3   2    2.42    0.19
   1  -3  -2  218.57    9.49
   1  -3  -2  227.28   12.11
   1  -3  -2  229.69   19.09
   1  -3  -2  227.25    9.00
   1  -3  -2  225.61   12.12
   1  -3  -2  222.95   11.23
  -1   3   2  210.74    9.58
  -1   3   2  217.10    9.01
   0  -3  -2   17.59    1.55
   0  -3  -2   17.04    1.10
   0  -3  -2   16.71    0.99
   0  -3  -2   18.18    0.87
   0  -3  -2   17.22    0.74
   0  -3  -2   17.62    0.78
   0   3   2   19.48    0.79
   0   3   2   18.53    0.87
   0   3   2   19.30    1.10
   0   3   2   18.18    0.78
   0   3   2   17.86    0.73
   0   3   2   18.18    0.77
  -1  -3  -2   22.51    1.02
  -1  -3  -2   22.75    1.44
  -1  -3  -2   22.94    0.96
  -1  -3  -2   25.03    2.00
   1   3   2   24.15    1.02
   1   3   2   24.59    1.03
  -2  -3  -2    2.19    0.14
  -2  -3  -2    2.21    0.10
  -2  -3  -2    2.14    0.11
  -2  -3  -2    2.35    0.10
  -2  -3  -2    1.98    0.14
  -2  -3  -2    2.27    0.21
  -2  -3  -2    2.17    0.13
   2   3   2    2.29    0.24
   2   3   2    2.33    0.10
   3   3   2    3.88    0.25
   3   3   2    3.39    0.23
   3   3   2    3.49    0.25
   3   3   2    3.38    0.26
   4   3   2    0.24    0.07
   4   3   2    0.30    0.06
   4   3   2    0.24    0.05
   4   3   2    0.33    0.06
   4   3   2    0.24    0.07
   5   3   2    0.34    0.06
   5   3   2    0.27    0.07
   5   3   2    0.34    0.06
   5   3   2    0.29    0.07
   5   3   2    0.24    0.04
   6  -4  -2    0.74    0.07
   6  -4  -2    0.57    0.09
   6  -4  -2    0.47    0.06
   6  -4  -2    0.67    0.07
   5  -4  -2    2.49    0.19
   5  -4  -2    2.76    0.21
   5  -4  -2    2.45    0.18
   5  -4  -2    2.69    0.22
   5  -4  -2    2.23    0.24
   4  -4  -2    4.47    0.31
   4  -4  -2    4.18    0.42
   4  -4  -2    4.75    0.39
   4  -4  -2    4.68    0.32
   4  -4  -2    5.18    0.37
   4  -4  -2    5.31    0.34
   3  -4  -2    8.90    0.84
   3  -4  -2   10.33    0.56
   3  -4  -2   11.53    0.79
   3  -4  -2   10.45    0.63
  -3   4   2    9.91    0.50
  -3   4   2   10.87    0.62
   2  -4  -2   22.55    1.17
   2  -4  -2   25.76    1.23
  -2   4   2   20.82    2.23
  -2   4   2   20.43    1.47
   1  -4  -2    8.34    0.36
   1  -4  -2    8.89    0.47
   1  -4  -2    9.24    0.74
   1  -4  -2    7.38    0.53
   1  -4  -2    8.56    0.47
  -1   4   2    8.31    0.37
  -1   4   2    9.10    0.41
  -1   4   2    7.92    0.56
  -1   4   2    8.04    0.86
  -1   4   2    8.61    0.35
   0  -4  -2  105.63    5.83
   0  -4  -2   99.68    6.52
   0  -4  -2   93.00    9.19
   0  -4  -2  108.23    4.57
   0  -4  -2  106.41    4.34
   0   4   2  110.18    4.57
   0   4   2  101.93    6.89
   0   4   2  118.72    6.52
   0   4   2  112.01    5.17
   0   4   2  112.35    4.34
   0   4   2  105.86    4.61
   0   4   2  110.72    4.64
  -1  -4  -2   15.73    1.01
  -1  -4  -2   16.24    0.81
  -1  -4  -2   16.67    0.68
  -1  -4  -2   16.06    0.72
   1   4   2   16.97    0.73
   1   4   2   16.36    0.71
   1   4   2   17.46    0.68
  -2  -4  -2    0.82    0.16
   2   4   2    0.97    0.09
   3   4   2    6.05    0.45
   3   4   2    5.83    0.53
   3   4   2    6.87    0.43
   3   4   2    6.82    0.39
   3   4   2    6.79    0.46
   3   4   2    6.34    0.48
   3   4   2    6.71    0.37
   4   4   2    2.64    0.18
   4   4   2    2.54    0.19
   4   4   2    2.44    0.16
   4   4   2    2.27    0.23
   4   4   2    2.44    0.20
   5   4   2    2.46    0.19
   5   4   2    2.28    0.18
   5   4   2    2.39    0.19
   5   4   2    2.36    0.15
   5   4   2    2.41    0.21
   5  -5  -2    0.33    0.06
   5  -5  -2    0.35    0.08
   5  -5  -2    0.51    0.09
   5  -5  -2    0.51    0.08
   4  -5  -2    1.44    0.13
   4  -5  -2    1.46    0.13
   4  -5  -2    1.71    0.15
   4  -5  -2    1.68    0.15
   4  -5  -2    1.79    0.16
   4  -5  -2    1.53    0.20
   3  -5  -2    5.89    0.37
   3  -5  -2    6.07    0.40
   3  -5  -2    5.63    0.33
   3  -5  -2    6.27    0.45
  -3   5   2    5.08    0.36
   2  -5  -2    0.98    0.11
   2  -5  -2    0.82    0.08
   2  -5  -2    0.78    0.13
  -2   5   2    0.94    0.11
  -2   5   2    0.99    0.08
  -2   5   2    0.93    0.10
   1  -5  -2   28.25    1.67
   1  -5  -2   28.07    2.21
   1  -5  -2   32.24    2.61
   1  -5  -2   31.45    1.54
   1  -5  -2   30.10    1.65
  -1   5   2   30.57    1.86
  -1   5   2   29.68    1.31
  -1   5   2   31.28    1.24
   0  -5  -2   46.80    1.97
   0  -5  -2   45.76    2.50
   0  -5  -2   42.24    2.80
   0  -5  -2   44.31    1.87
   0   5   2   51.82    2.80
   0   5   2   46.69    1.87
   0   5   2   49.53    2.22
   0   5   2   46.20    1.97
   0   5   2   44.66    2.12
   0   5   2   40.38    2.59
   0   5   2   44.73    2.00
   0   5   2   45.91    1.99
  -1  -5  -2    2.60    0.17
   1   5   2    2.56    0.18
   2   5   2    0.14    0.06
   2   5   2    0.24    0.07
   3   5   2   21.96    1.39
   3   5   2   20.61    1.37
   3   5   2   21.53    1.10
   3   5   2   18.75    1.61
   3   5   2   22.47    1.22
   3   5   2   19.51    1.46
   4   5   2    0.18    0.05
   4   5   2    0.10    0.05
   4   5   2    0.18    0.05
   4   5   2    0.21    0.04
   5   5   2    8.60    0.63
   5   5   2    9.46    0.62
   5   5   2    9.82    0.67
   5   5   2    9.64    0.73
   5   5   2    9.28    0.50
   5  -6  -2    0.10    0.03
   5  -6  -2    0.09    0.03
   5  -6  -2    0.10    0.04
   5  -6  -2    0.15    0.03
  -5   6   2    0.10    0.03
   4  -6  -2    4.58    0.31
   4  -6  -2    4.64    0.31
   4  -6  -2    4.87    0.36
   4  -6  -2    4.54    0.26
   4  -6  -2    4.73    0.31
   3  -6  -2    2.08    0.17
   3  -6  -2    1.83    0.14
   3  -6  -2    2.13    0.17
   3  -6  -2    1.69    0.23
   3  -6  -2    1.67    0.16
   2  -6  -2    3.01    0.19
   2  -6  -2    2.71    0.29
   2  -6  -2    2.91    0.23
   2  -6  -2    3.16    0.21
  -2   6   2    3.09    0.21
  -2   6   2    3.20    0.17
  -2   6   2    3.18    0.20
  -1   6   2    1.99    0.18
   0  -6  -2   33.17    1.44
   0   6   2   35.28    1.54
   0   6   2   32.40    1.81
   0   6   2   29.98    1.87
   0   6   2   32.79    1.72
   0   6   2   34.30    1.91
   1   6   2    1.86    0.13
   1   6   2    1.82    0.16
   1   6   2    1.70    0.15
   1   6   2    2.09    0.15
  -2  -6  -2    6.52    0.42
   2   6   2    7.10    0.42
   2   6   2    6.04    0.55
   2   6   2    7.11    0.41
   2   6   2    6.82    0.37
   2   6   2    6.32    0.50
   2   6   2    7.60    0.42
   3   6   2   10.50    0.91
   3   6   2   11.72    0.77
   3   6   2   11.10    0.83
   3   6   2   11.80    0.79
   3   6   2   11.76    0.62
   3   6   2   11.88    0.69
   3   6   2   12.31    0.69
   4   6   2    4.59    0.34
   4   6   2    4.62    0.38
   4   6   2    4.80    0.26
   4   6   2    4.58    0.33
   4   6   2    4.68    0.35
   4   6   2    4.73    0.29
   5   6   2    3.24    0.22
   5   6   2    2.87    0.21
   5   6   2    2.88    0.21
   5  -7  -2    3.97    0.33
   4  -7  -2    2.26    0.19
   4  -7  -2    2.12    0.18
   4  -7  -2    2.20    0.16
   4  -7  -2    2.26    0.17
   4  -7  -2    1.98    0.13
   4  -7  -2    2.14    0.16
   4  -7  -2    1.86    0.23
   4  -7  -2    2.54    0.17
  -4   7   2    2.17    0.15
  -4   7   2    2.06    0.12
   3  -7  -2   19.36    1.14
   3  -7  -2   19.05    1.12
   3  -7  -2   17.63    1.39
   3  -7  -2   18.92    1.00
  -3   7   2   19.37    0.89
  -3   7   2   19.34    1.08
   2  -7  -2    0.33    0.06
   2  -7  -2    0.18    0.06
   2  -7  -2    0.22    0.07
   2  -7  -2    0.29    0.06
  -2   7   2    0.22    0.05
  -2   7   2    0.37    0.06
   1  -7  -2    0.39    0.06
   1  -7  -2    0.51    0.08
   1  -7  -2    0.44    0.06
   1  -7  -2    0.48    0.07
  -1   7   2    0.40    0.07
  -1   7   2    0.48    0.06
  -1   7   2    0.47    0.05
  -1   7   2    0.45    0.06
   0  -7  -2    7.02    0.49
   0  -7  -2    7.74    0.43
   0   7   2    8.03    0.48
   0   7   2    7.82    0.47
   0   7   2    7.55    0.47
   0   7   2    7.62    0.42
   0   7   2    7.85    0.47
   0   7   2    8.60    0.43
  -1  -7  -2    9.19    0.57
   1   7   2    9.68    0.56
   1   7   2    9.29    0.50
   1   7   2    8.95    0.63
   1   7   2    9.67    0.50
   1   7   2    9.45    0.56
   1   7   2    9.14    0.55
   2   7   2    0.12    0.06
   2   7   2    0.16    0.05
   2   7   2    0.11    0.04
   2   7   2    0.10    0.06
   2   7   2    0.09    0.04
   2   7   2    0.09    0.06
   3   7   2    0.01    0.06
   3   7   2    0.02    0.03
   4   7   2    0.53    0.05
   4   7   2    0.30    0.06
   4   7   2    0.36    0.05
   4   7   2    0.48    0.06
   4   7   2    0.44    0.06
   4  -8  -2    9.03    0.48
   4  -8  -2    9.44    0.55
   4  -8  -2    8.82    0.54
   4  -8  -2    8.94    0.54
   4  -8  -2    9.10    0.54
  -4   8   2    8.72    0.52
  -4   8   2    8.71    0.43
   3  -8  -2   11.15    0.69
   3  -8  -2   11.48    0.68
   3  -8  -2   11.54    0.60
  -3   8   2   11.48    0.66
  -3   8   2   11.15    0.54
   2  -8  -2    0.04    0.06
   2  -8  -2    0.08    0.05
   2  -8  -2    0.07    0.03
  -2   8   2    0.04    0.03
  -2   8   2    0.10    0.04
   1  -8  -2    0.14    0.04
   1  -8  -2    0.16    0.05
   1  -8  -2    0.06    0.08
   1  -8  -2    0.18    0.04
  -1   8   2    0.15    0.05
  -1   8   2    0.27    0.05
  -1   8   2    0.23    0.05
  -1   8   2    0.23    0.04
   0  -8  -2   57.57    3.30
   0  -8  -2   52.33    2.93
   0   8   2   57.56    2.94
   0   8   2   57.25    3.19
   0   8   2   58.89    3.27
   1   8   2   10.01    0.61
   1   8   2   10.32    0.56
   1   8   2   10.23    0.62
   1   8   2   11.08    0.56
   2   8   2    3.17    0.20
   2   8   2    2.82    0.23
   2   8   2    2.60    0.21
   2   8   2    3.06    0.20
   2   8   2    3.04    0.18
   3   8   2    0.50    0.07
   3   8   2    0.61    0.09
   3   8   2    0.52    0.06
   3   8   2    0.48    0.08
   3   8   2    0.63    0.08
   3   8   2    0.51    0.06
   4   8   2   -0.02    0.02
   4   8   2   -0.01    0.02
   4   8   2    0.01    0.03
   4   8   2   -0.01    0.02
   4   8   2    0.00    0.02
   4  -9  -2    2.98    0.16
   3  -9  -2   23.32    1.44
   3  -9  -2   25.03    1.44
   3  -9  -2   24.83    1.43
   3  -9  -2   24.02    1.27
  -3   9   2   24.21    1.14
  -3   9   2   24.27    1.38
  -3   9   2   25.26    1.34
   2  -9  -2    2.74    0.19
   2  -9  -2    2.71    0.15
   2  -9  -2    2.45    0.15
   2  -9  -2    2.67    0.18
  -2   9   2    2.57    0.16
  -2   9   2    2.43    0.17
  -2   9   2    2.24    0.17
  -2   9   2    2.56    0.14
   1  -9  -2    0.24    0.04
   1  -9  -2    0.17    0.09
   1  -9  -2    0.16    0.04
  -1   9   2    0.35    0.08
  -1   9   2    0.21    0.06
  -1   9   2    0.33    0.04
  -1   9   2    0.19    0.06
  -1   9   2    0.25    0.03
   0  -9  -2    2.29    0.16
   0  -9  -2    2.18    0.14
   0   9   2    1.84    0.15
   0   9   2    2.30    0.13
   0   9   2    2.00    0.18
  -1  -9  -2    0.10    0.07
  -1  -9  -2    0.06    0.03
   1   9   2    0.09    0.04
   1   9   2    0.03    0.04
   1   9   2    0.09    0.04
   1   9   2    0.06    0.05
  -2  -9  -2    0.02    0.03
   2   9   2    0.02    0.06
   2   9   2    0.02    0.06
   2   9   2    0.06    0.05
   2   9   2   -0.01    0.05
   2   9   2    0.01    0.02
   2   9   2    0.00    0.03
   2   9   2    0.02    0.03
  -3  -9  -2    0.57    0.06
   3   9   2    0.74    0.07
   3   9   2    0.78    0.08
   3   9   2    0.82    0.07
   3 -10  -2    0.35    0.05
   3 -10  -2    0.20    0.03
  -3  10   2    0.31    0.04
   2 -10  -2    2.72    0.16
   2 -10  -2    2.75    0.17
  -2  10   2    2.45    0.16
  -2  10   2    2.77    0.16
  -2  10   2    2.26    0.13
   1 -10  -2    0.15    0.04
   1 -10  -2    0.12    0.03
  -1  10   2    0.11    0.03
  -1  10   2    0.14    0.03
   0 -10  -2    0.05    0.02
   0 -10  -2    0.11    0.06
   0  10   2    0.03    0.02
   0  10   2    0.07    0.03
   0  10   2    0.06    0.03
  -1 -10  -2    0.14    0.03
   1  10   2    0.17    0.03
   1  10   2    0.16    0.03
   1  10   2    0.20    0.04
   1  10   2    0.11    0.04
   1  10   2    0.10    0.04
  -2 -10  -2    4.02    0.24
   2  10   2    4.77    0.31
   2  10   2    4.84    0.24
   1 -11  -2    2.33    0.12
   1 -11  -2    1.94    0.14
  -1  11   2    2.33    0.14
   0 -11  -2    0.55    0.04
   0  11   2    0.42    0.05
   0  11   2    0.44    0.05
   2  11  -3    3.35    0.17
   2  11  -3    3.02    0.21
  -2 -11   3    2.83    0.15
   1  11  -3    4.46    0.35
   1  11  -3    5.21    0.28
   1  11  -3    5.55    0.31
  -1 -11   3    5.38    0.28
  -1 -11   3    5.39    0.28
  -1 -11   3    4.97    0.25
   0  11  -3    1.89    0.11
   0  11  -3    1.54    0.14
   0  11  -3    1.76    0.12
   0  11  -3    1.72    0.12
   0 -11   3    1.88    0.11
   0 -11   3    1.80    0.10
   0 -11   3    1.89    0.11
  -1  11  -3   23.18    1.12
  -1  11  -3   21.05    1.18
  -1  11  -3   21.80    1.21
   1 -11   3   22.06    1.12
   1 -11   3   19.05    1.25
  -2  11  -3    5.49    0.33
  -2  11  -3    5.77    0.32
  -2  11  -3    5.88    0.27
   2 -11   3    5.64    0.31
   2 -11   3    5.72    0.35
   3  10  -3    0.02    0.05
   3  10  -3    0.01    0.02
   3  10  -3    0.01    0.02
  -3 -10   3    0.01    0.02
   2  10  -3    0.83    0.08
   2  10  -3    1.05    0.09
   2  10  -3    0.84    0.06
   2  10  -3    0.69    0.10
   2  10  -3    0.81    0.09
  -2 -10   3    0.82    0.07
  -2 -10   3    0.82    0.06
   1  10  -3    4.78    0.37
   1  10  -3    5.28    0.32
   1  10  -3    5.46    0.29
   1  10  -3    5.35    0.32
  -1 -10   3    5.33    0.29
   0  10  -3   17.56    0.89
   0  10  -3   17.54    0.97
   0  10  -3   16.71    0.94
   0  10  -3   15.82    0.99
   0 -10   3   17.76    0.91
   0 -10   3   16.86    0.89
   0 -10   3   15.94    1.00
  -1  10  -3   10.19    0.57
  -1  10  -3   10.34    0.48
  -1  10  -3   10.21    0.53
  -1  10  -3    9.74    0.58
   1 -10   3   10.01    0.54
   1 -10   3    9.75    0.60
   1 -10   3    9.89    0.48
   1 -10   3   10.20    0.55
  -2  10  -3   10.51    0.63
  -2  10  -3   11.06    0.61
  -2  10  -3   10.99    0.52
   2 -10   3   11.04    0.58
   2 -10   3   11.04    0.58
   2 -10   3   10.61    0.65
  -3  10  -3    0.19    0.05
  -3  10  -3    0.38    0.04
  -3  10  -3    0.33    0.05
   3 -10   3    0.31    0.05
   3 -10   3    0.51    0.05
   3 -10   3    0.23    0.05
   4   9  -3    0.04    0.02
   4   9  -3    0.03    0.03
   4   9  -3    0.02    0.02
   3   9  -3    0.10    0.03
   3   9  -3    0.16    0.05
   3   9  -3    0.05    0.03
   3   9  -3    0.14    0.03
   3   9  -3    0.09    0.05
   3   9  -3    0.20    0.05
   3   9  -3    0.08    0.05
   2   9  -3   -0.15    0.08
   2   9  -3   -0.02    0.03
   2   9  -3    0.01    0.08
   2   9  -3   -0.01    0.04
   2   9  -3   -0.03    0.04
   2   9  -3    0.02    0.05
  -2  -9   3    0.01    0.05
   1   9  -3   17.20    0.95
   1   9  -3   16.17    0.87
   1   9  -3   16.97    0.92
   1   9  -3   15.54    0.96
  -1  -9   3   16.49    0.87
   0   9  -3    1.55    0.12
   0   9  -3    1.79    0.10
   0   9  -3    1.53    0.12
   0   9  -3    1.81    0.13
   0   9  -3    1.42    0.12
   0  -9   3    1.51    0.12
   0  -9   3    1.50    0.11
  -1   9  -3    0.01    0.03
  -1   9  -3    0.03    0.02
  -1   9  -3   -0.07    0.05
   1  -9   3    0.03    0.02
   1  -9   3    0.08    0.03
  -2   9  -3    1.02    0.07
  -2   9  -3    1.02    0.10
   2  -9   3    0.98    0.09
   2  -9   3    1.11    0.10
   2  -9   3    0.98    0.10
  -3   9  -3    1.08    0.10
  -3   9  -3    1.22    0.08
  -3   9  -3    1.08    0.11
   3  -9   3    1.29    0.09
   3  -9   3    1.14    0.11
   3  -9   3    1.26    0.11
   3  -9   3    1.11    0.11
  -4   9  -3    0.07    0.02
  -4   9  -3    0.07    0.03
   4  -9   3    0.03    0.03
   4  -9   3    0.05    0.03
   4  -9   3    0.06    0.03
   4  -9   3    0.01    0.03
   4   8  -3    0.15    0.05
   4   8  -3    0.14    0.03
   4   8  -3    0.19    0.06
   4   8  -3    0.16    0.04
   4   8  -3    0.20    0.03
   3   8  -3    6.66    0.38
   3   8  -3    6.54    0.34
   3   8  -3    6.26    0.43
   3   8  -3    5.84    0.43
   3   8  -3    6.30    0.50
   3   8  -3    5.99    0.49
   2   8  -3   15.41    0.78
   2   8  -3   14.38    0.99
   2   8  -3   13.16    1.03
   2   8  -3   15.10    0.87
   2   8  -3   15.05    0.77
   2   8  -3   14.86    0.85
   1   8  -3   17.67    1.03
   1   8  -3   19.92    1.18
   1   8  -3   18.68    0.95
   1   8  -3   18.21    1.00
   1   8  -3   16.69    1.05
   1   8  -3   17.23    0.95
  -1  -8   3   17.44    0.95
   0   8  -3    1.17    0.12
   0   8  -3    1.30    0.10
   0   8  -3    1.14    0.12
   0   8  -3    1.55    0.15
   0   8  -3    1.23    0.09
   0   8  -3    1.13    0.11
   0  -8   3    1.33    0.11
  -1   8  -3    0.03    0.04
  -1   8  -3    0.04    0.04
  -1   8  -3    0.00    0.04
   1  -8   3    0.01    0.03
   1  -8   3    0.00    0.07
   1  -8   3    0.03    0.03
  -2   8  -3    4.72    0.30
  -2   8  -3    4.82    0.25
   2  -8   3    4.86    0.28
   2  -8   3    4.70    0.27
   2  -8   3    4.83    0.32
   2  -8   3    4.92    0.31
   2  -8   3    5.08    0.39
  -3   8  -3    1.17    0.08
   3  -8   3    1.24    0.11
   3  -8   3    1.26    0.09
   3  -8   3    1.49    0.10
   3  -8   3    1.39    0.13
   3  -8   3    1.34    0.14
  -4   8  -3    9.42    0.47
   4  -8   3   10.48    0.59
   4  -8   3    9.89    0.74
   4  -8   3    9.87    0.52
   4  -8   3    9.35    0.59
   4  -8   3   10.53    0.59
   4  -8   3    9.23    0.80
  -5   8  -3    5.51    0.31
   5  -8   3    5.74    0.33
   5  -8   3    4.77    0.42
   5  -8   3    6.10    0.34
   5   7  -3    3.93    0.25
   5   7  -3    3.81    0.27
   5   7  -3    3.52    0.26
   4   7  -3    1.76    0.16
   4   7  -3    1.71    0.14
   4   7  -3    1.89    0.14
   4   7  -3    1.72    0.18
   4   7  -3    1.69    0.15
   3   7  -3    1.04    0.10
   3   7  -3    1.04    0.10
   3   7  -3    0.96    0.10
   3   7  -3    1.01    0.10
   3   7  -3    1.09    0.09
   3   7  -3    0.94    0.12
   2   7  -3    1.27    0.12
   2   7  -3    1.11    0.13
   2   7  -3    1.04    0.09
   2   7  -3    1.21    0.09
   2   7  -3    1.01    0.14
   2   7  -3    1.14    0.10
   2   7  -3    1.12    0.12
   2   7  -3    1.14    0.15
   1   7  -3    0.51    0.06
   1   7  -3    0.53    0.09
   1   7  -3    0.50    0.06
   1   7  -3    0.46    0.07
   1   7  -3    0.40    0.09
   0   7  -3    0.86    0.11
  -1   7  -3   37.12    2.43
  -1   7  -3   43.91    2.38
  -1   7  -3   44.26    2.19
   1  -7   3   43.79    3.12
   1  -7   3   40.55    2.48
   1  -7   3   41.93    2.18
   1  -7   3   43.23    2.19
  -2   7  -3    1.28    0.13
  -2   7  -3    1.28    0.10
   2  -7   3    1.38    0.15
   2  -7   3    1.31    0.10
   2  -7   3    1.28    0.12
  -3   7  -3    2.07    0.13
   3  -7   3    2.32    0.18
   3  -7   3    2.30    0.16
   3  -7   3    2.05    0.15
   3  -7   3    2.40    0.20
   3  -7   3    2.23    0.16
   3  -7   3    2.05    0.20
   3  -7   3    2.53    0.18
  -4   7  -3   -0.05    0.03
   4  -7   3   -0.02    0.05
   4  -7   3   -0.01    0.04
   4  -7   3   -0.12    0.07
   4  -7   3    0.01    0.03
  -5   7  -3    0.25    0.05
   5  -7   3    0.24    0.04
   5  -7   3    0.27    0.05
   5  -7   3    0.21    0.03
   5   6  -3    3.60    0.26
   5   6  -3    3.83    0.24
   5   6  -3    3.25    0.25
   5   6  -3    3.58    0.28
   5   6  -3    3.07    0.27
   4   6  -3    1.82    0.14
   4   6  -3    1.95    0.17
   4   6  -3    1.74    0.17
   4   6  -3    1.80    0.15
   3   6  -3    5.02    0.34
   3   6  -3    4.86    0.37
   3   6  -3    4.45    0.35
   3   6  -3    5.49    0.31
   3   6  -3    4.80    0.41
   3   6  -3    4.83    0.39
   2   6  -3    1.64    0.13
   2   6  -3    1.34    0.15
   1   6  -3   19.71    0.82
   1   6  -3   16.43    1.34
   1   6  -3   18.20    0.91
   1   6  -3   15.05    1.22
   0   6  -3    1.22    0.10
   0   6  -3    1.08    0.10
   0   6  -3    1.07    0.09
   0  -6   3    1.05    0.18
   0  -6   3    1.13    0.09
   0  -6   3    0.98    0.16
   0  -6   3    1.13    0.08
   0  -6   3    1.04    0.08
  -1   6  -3    0.07    0.06
  -1   6  -3    0.16    0.07
  -1   6  -3    0.10    0.06
  -1   6  -3    0.19    0.06
   1  -6   3    0.11    0.06
   1  -6   3    0.23    0.11
   1  -6   3    0.04    0.07
   2  -6   3    0.86    0.08
   2  -6   3    0.96    0.12
  -3   6  -3    0.83    0.12
  -3   6  -3    0.77    0.07
   3  -6   3    0.88    0.13
   3  -6   3    0.71    0.09
   3  -6   3    0.76    0.10
   3  -6   3    0.72    0.09
   3  -6   3    0.81    0.09
   3  -6   3    0.74    0.12
   3  -6   3    0.83    0.09
   4  -6   3    0.15    0.06
   4  -6   3    0.18    0.07
   4  -6   3    0.23    0.07
   4  -6   3    0.11    0.04
   4  -6   3    0.22    0.05
   4  -6   3    0.23    0.06
   5  -6   3    4.56    0.37
   5  -6   3    4.87    0.41
   5  -6   3    4.58    0.30
   5  -6   3    5.27    0.37
   5  -6   3    4.66    0.30
   5   5  -3    1.48    0.14
   5   5  -3    1.53    0.12
   5   5  -3    1.58    0.13
   5   5  -3    1.56    0.15
   5   5  -3    1.54    0.14
   4   5  -3    3.46    0.24
   4   5  -3    3.38    0.29
   4   5  -3    3.44    0.27
   4   5  -3    3.20    0.26
   4   5  -3    3.36    0.28
   3   5  -3   17.20    1.27
   3   5  -3   18.88    1.21
   3   5  -3   17.85    1.40
   3   5  -3   18.20    1.19
   2   5  -3    8.62    0.36
   2   5  -3    7.24    0.43
   1   5  -3   15.33    0.71
   1   5  -3   16.52    0.71
   1   5  -3   16.49    0.73
   1   5  -3   17.40    0.82
  -1  -5   3   16.22    0.68
   0   5  -3   -0.02    0.02
   0   5  -3   -0.01    0.02
   0   5  -3    0.03    0.03
   0   5  -3    0.00    0.04
   0   5  -3    0.02    0.03
   0  -5   3    0.03    0.02
   0  -5   3    0.04    0.04
   0  -5   3    0.02    0.02
  -1   5  -3    3.08    0.30
  -1   5  -3    3.04    0.22
   1  -5   3    3.45    0.19
   1  -5   3    3.18    0.16
  -2   5  -3    3.21    0.32
   2  -5   3    3.39    0.31
  -3   5  -3    0.22    0.06
  -3   5  -3    0.26    0.09
   3  -5   3    0.22    0.05
   3  -5   3    0.23    0.05
   3  -5   3    0.17    0.07
   3  -5   3    0.10    0.06
   3  -5   3    0.24    0.07
   4  -5   3   12.60    0.74
   4  -5   3   12.28    0.66
   4  -5   3   12.76    0.73
   4  -5   3   11.48    0.99
   4  -5   3   13.46    0.91
   4  -5   3   11.92    0.74
   4  -5   3   10.77    0.65
   5  -5   3   -0.01    0.04
   5  -5   3    0.05    0.03
   5  -5   3    0.00    0.04
   5  -5   3    0.04    0.05
   5  -5   3   -0.01    0.05
   6  -5   3    0.66    0.09
   6   4  -3   -0.01    0.05
   6   4  -3    0.07    0.03
   6   4  -3    0.04    0.03
   5   4  -3    5.05    0.37
   5   4  -3    5.03    0.35
   5   4  -3    5.18    0.41
   5   4  -3    4.86    0.39
   5   4  -3    5.01    0.35
   4   4  -3    7.88    0.63
   4   4  -3    8.18    0.65
   4   4  -3    8.09    0.56
   4   4  -3    8.39    0.62
   4   4  -3    7.98    0.59
   3   4  -3    1.24    0.15
   3   4  -3    1.30    0.14
   2   4  -3    0.44    0.04
   2   4  -3    0.47    0.04
   2   4  -3    0.44    0.04
  -2  -4   3    0.39    0.06
  -2  -4   3    0.44    0.04
  -2  -4   3    0.42    0.05
   1   4  -3   19.71    0.91
   1   4  -3   20.24    0.86
   1   4  -3   22.12    0.91
   1   4  -3   21.76    0.92
   1   4  -3   21.83    1.05
  -1  -4   3   20.76    1.36
   0   4  -3   34.34    1.33
   0   4  -3   31.22    1.99
   0  -4   3   27.53    3.23
   0  -4   3   31.63    2.10
   0  -4   3   34.25    1.33
   0  -4   3   34.78    1.40
   0  -4   3   34.93    2.75
  -1   4  -3   42.62    2.40
  -1   4  -3   33.96    3.13
  -1   4  -3   34.49    2.27
   1  -4   3   35.17    2.03
   1  -4   3   37.44    3.19
   1  -4   3   34.01    2.40
   1  -4   3   42.23    3.66
  -2   4  -3    1.34    0.14
  -2   4  -3    1.32    0.09
  -2   4  -3    1.22    0.13
   2  -4   3    1.35    0.10
   2  -4   3    1.25    0.09
  -3   4  -3    8.52    0.53
   3  -4   3    9.24    0.57
   3  -4   3   10.91    0.58
   3  -4   3    8.66    0.51
   4  -4   3   -0.02    0.07
   4  -4   3    0.02    0.05
   4  -4   3    0.03    0.04
   4  -4   3   -0.05    0.08
   4  -4   3   -0.01    0.06
   5  -4   3    0.56    0.09
   5  -4   3    0.59    0.10
   5  -4   3    0.60    0.10
   5  -4   3    0.55    0.07
   6  -4   3    0.08    0.03
   6  -4   3    0.09    0.03
   6  -4   3    0.07    0.03
   6   3  -3    0.00    0.03
   6   3  -3   -0.02    0.03
   6   3  -3    0.06    0.04
   5   3  -3    6.52    0.50
   5   3  -3    5.97    0.44
   5   3  -3    6.78    0.45
   4   3  -3   14.95    1.05
   4   3  -3   14.83    1.11
   4   3  -3   14.97    1.00
   4   3  -3   14.77    0.98
   3   3  -3    4.52    0.31
   3   3  -3    5.80    0.29
  -3  -3   3    5.14    0.25
   2   3  -3    0.34    0.03
   2   3  -3    0.31    0.03
   2   3  -3    0.41    0.03
   2   3  -3    0.36    0.03
   2   3  -3    0.34    0.04
  -2  -3   3    0.30    0.03
  -2  -3   3    0.26    0.03
  -2  -3   3    0.31    0.04
   1   3  -3    4.02    0.17
   1   3  -3    3.92    0.18
   1   3  -3    4.27    0.18
   1   3  -3    4.00    0.25
   1   3  -3    4.08    0.18
   1   3  -3    4.49    0.20
  -1  -3   3    3.85    0.18
  -1  -3   3    3.78    0.23
   0   3  -3    7.90    0.31
   0   3  -3    7.26    0.31
   0   3  -3    6.94    0.30
   0   3  -3    6.56    0.61
   0  -3   3    6.74    0.61
   0  -3   3    7.40    0.30
   0  -3   3    7.32    0.47
  -1   3  -3    4.22    0.20
  -1   3  -3    4.73    0.31
   1  -3   3    4.05    0.31
   1  -3   3    5.11    0.40
   1  -3   3    5.12    0.46
   1  -3   3    4.64    0.26
  -2   3  -3    3.94    0.36
  -2   3  -3    4.48    0.19
  -2   3  -3    4.22    0.19
   2  -3   3    4.33    0.24
   2  -3   3    4.34    0.25
  -3   3  -3    0.10    0.06
  -3   3  -3    0.02    0.06
  -3   3  -3    0.18    0.07
   4  -3   3    5.22    0.47
   4  -3   3    5.82    0.36
   4  -3   3    5.40    0.43
   4  -3   3    5.34    0.35
   5  -3   3    1.58    0.13
   5  -3   3    1.49    0.18
   6  -3   3   20.48    1.42
   6  -3   3   17.88    1.53
   6   2  -3    4.75    0.33
   6   2  -3    4.19    0.35
   6   2  -3    4.91    0.36
   5   2  -3   21.82    1.71
   5   2  -3   24.82    1.63
   4   2  -3   85.82    5.33
   4   2  -3   79.78    5.61
   4   2  -3   77.78    5.88
   4   2  -3   80.88    5.98
   3   2  -3   20.09    1.47
   3   2  -3   25.70    1.25
  -3  -2   3   21.66    1.48
  -3  -2   3   22.78    0.98
  -3  -2   3   22.18    0.99
   2   2  -3   77.79    3.59
   2   2  -3   73.29    3.17
   2   2  -3   75.44    3.20
   2   2  -3   74.17    3.01
  -2  -2   3   72.42    3.23
  -2  -2   3   73.46    3.20
  -2  -2   3   73.02    4.04
   1   2  -3   72.18    2.87
   1   2  -3   71.34    3.02
   1   2  -3   70.32    3.02
   1   2  -3   72.49    3.42
   1   2  -3   72.62    3.05
   1   2  -3   74.57    4.31
  -1  -2   3   68.76    3.08
  -1  -2   3   67.92    3.05
  -1  -2   3   67.23    3.86
   0   2  -3   60.06    2.38
   0   2  -3   59.38    2.38
   0   2  -3   61.40    2.56
   0   2  -3   57.43    3.21
   0   2  -3   58.04    2.51
   0   2  -3   60.51    2.55
   0   2  -3   61.38    2.54
   0   2  -3   59.14    2.51
   0  -2   3   49.99    4.95
   0  -2   3   57.14    2.55
   0  -2   3   66.57    3.79
   0  -2   3   57.14    3.21
   0  -2   3   58.18    3.21
   0  -2   3   57.81    2.56
  -1   2  -3 1000.00   38.44
  -1   2  -3  961.48   51.72
  -1   2  -3  945.58   40.51
  -1   2  -3  961.53   41.12
  -1   2  -3  943.82   38.43
   1  -2   3  893.32   51.69
   1  -2   3  942.75   61.12
  -2   2  -3    0.40    0.04
  -2   2  -3    0.35    0.03
  -2   2  -3    0.37    0.03
  -2   2  -3    0.31    0.04
  -2   2  -3    0.40    0.03
  -2   2  -3    0.44    0.03
  -2   2  -3    0.44    0.03
  -2   2  -3    0.39    0.03
   2  -2   3    0.36    0.04
   2  -2   3    0.42    0.03
  -3   2  -3    2.84    0.14
  -3   2  -3    2.63    0.18
  -3   2  -3    3.19    0.12
  -3   2  -3    2.61    0.16
  -3   2  -3    2.72    0.17
   3  -2   3    2.41    0.20
   3  -2   3    2.49    0.18
   4  -2   3    9.30    0.65
   4  -2   3    8.00    0.70
   4  -2   3    7.98    0.52
   4  -2   3    7.68    0.52
   4  -2   3    9.72    0.65
   5  -2   3    7.52    0.47
   5  -2   3    7.66    0.47
   5  -2   3    7.56    0.63
   5  -2   3    7.47    0.58
   6  -2   3   30.46    2.43
   6  -2   3   31.44    1.80
   6  -2   3   29.92    2.26
   6   1  -3    0.07    0.05
   6   1  -3    0.00    0.04
   6   1  -3   -0.01    0.03
   6   1  -3    0.04    0.03
   5   1  -3   24.73    1.58
   5   1  -3   19.81    1.74
   5   1  -3   22.00    1.69
   5   1  -3   23.36    1.66
   5   1  -3   23.25    1.50
   4   1  -3   39.06    3.22
   4   1  -3   41.72    2.96
   4   1  -3   40.91    3.01
   3   1  -3   23.63    1.94
  -3  -1   3   25.74    1.38
  -3  -1   3   25.96    1.55
  -3  -1   3   25.58    1.38
   2   1  -3    1.29    0.06
   2   1  -3    1.13    0.06
   2   1  -3    1.22    0.07
   2   1  -3    1.09    0.09
   2   1  -3    1.20    0.07
   2   1  -3    1.14    0.05
  -2  -1   3    1.18    0.08
  -2  -1   3    1.06    0.07
  -2  -1   3    1.13    0.06
  -2  -1   3    1.06    0.06
  -2  -1   3    1.19    0.06
  -2  -1   3    1.08    0.06
  -2  -1   3    1.21    0.06
   1   1  -3    6.09    0.36
   1   1  -3    6.18    0.24
   1   1  -3    5.94    0.29
   1   1  -3    5.93    0.25
   1   1  -3    5.98    0.26
   1   1  -3    5.87    0.26
  -1  -1   3    5.89    0.26
  -1  -1   3    5.68    0.24
  -1  -1   3    5.70    0.32
  -1  -1   3    5.69    0.29
  -1  -1   3    5.51    0.26
  -1  -1   3    5.66    0.32
  -1  -1   3    6.53    0.36
  -1  -1   3    5.76    0.26
   0   1  -3   36.74    1.92
   0   1  -3   35.42    1.50
   0   1  -3   34.43    1.52
   0   1  -3   35.91    1.51
   0   1  -3   35.54    1.92
   0   1  -3   36.74    1.53
   0   1  -3   35.09    1.42
   0   1  -3   34.43    1.75
   0  -1   3   34.48    1.50
   0  -1   3   35.52    1.53
   0  -1   3   34.54    1.92
   0  -1   3   36.02    1.92
   0  -1   3   34.93    1.42
   0  -1   3   33.48    1.52
   0  -1   3   33.25    1.75
   0  -1   3   35.92    3.02
  -1   1  -3    0.16    0.01
  -1   1  -3    0.19    0.02
  -1   1  -3    0.17    0.02
  -1   1  -3    0.20    0.02
  -1   1  -3    0.19    0.01
  -1   1  -3    0.21    0.02
  -1   1  -3    0.16    0.02
  -1   1  -3    0.21    0.03
   1  -1   3    0.24    0.02
   1  -1   3    0.17    0.02
   1  -1   3    0.19    0.03
   1  -1   3    0.17    0.03
  -2   1  -3    0.71    0.04
  -2   1  -3    0.69    0.05
  -2   1  -3    0.82    0.06
  -2   1  -3    0.72    0.07
  -2   1  -3    0.74    0.06
  -2   1  -3    0.78    0.05
  -2   1  -3    0.69    0.03
  -2   1  -3    0.80    0.08
  -2   1  -3    0.67    0.04
   2  -1   3    0.61    0.05
   2  -1   3    0.68    0.06
  -3   1  -3    1.60    0.12
  -3   1  -3    1.59    0.11
  -3   1  -3    1.56    0.09
  -3   1  -3    1.49    0.08
  -3   1  -3    1.64    0.15
   3  -1   3    1.47    0.15
   4  -1   3    2.77    0.20
   4  -1   3    2.91    0.25
   5  -1   3    1.22    0.14
   5  -1   3    1.08    0.13
   5  -1   3    1.10    0.10
   6  -1   3   15.75    1.29
   6  -1   3   16.51    1.20
   6   0  -3    4.66    0.34
   6   0  -3    4.79    0.38
   6   0  -3    5.41    0.38
   5   0  -3   43.35    3.66
   5   0  -3   46.02    3.41
   5   0  -3   49.32    3.36
   5   0  -3   45.89    3.04
   4   0  -3    0.04    0.07
   4   0  -3    0.04    0.10
   4   0  -3    0.00    0.07
   3   0  -3    2.99    0.21
  -3   0   3    2.80    0.14
  -3   0   3    2.78    0.17
  -3   0   3    2.92    0.21
  -3   0   3    2.96    0.27
   2   0  -3   17.00    0.69
   2   0  -3   14.89    0.99
  -2   0   3   15.72    1.39
  -2   0   3   16.70    0.88
  -2   0   3   16.22    0.99
   1   0  -3   34.50    1.67
   1   0  -3   34.36    1.88
   1   0  -3   35.17    1.48
   1   0  -3   34.39    1.49
   1   0  -3   34.03    2.11
   1   0  -3   35.62    1.40
  -1   0   3   33.57    1.50
  -1   0   3   36.31    2.11
  -1   0   3   33.78    1.40
  -1   0   3   33.10    1.75
  -1   0   3   35.51    2.97
  -1   0   3   34.71    1.88
   0   0  -3   24.07    1.08
   0   0  -3   27.39    1.54
   0   0  -3   25.03    1.38
   0   0  -3   25.75    1.09
   0   0  -3   25.49    1.03
   0   0  -3   24.90    1.10
   0   0  -3   26.49    1.38
   0   0  -3   28.51    2.17
   0   0   3   24.75    1.26
   0   0   3   24.07    1.38
   0   0   3   25.21    1.08
   0   0   3   24.39    1.03
   0   0   3   23.80    1.10
   0   0   3   25.93    2.17
   0   0   3   24.58    1.10
   0   0   3   24.19    1.09
  -1   0  -3   14.04    0.74
  -1   0  -3   14.39    1.16
  -1   0  -3   13.88    0.55
  -1   0  -3   14.07    0.59
  -1   0  -3   13.70    0.58
  -1   0  -3   13.04    0.67
  -1   0  -3   13.66    0.74
   1   0   3   12.93    1.16
   1   0   3   13.92    0.88
   1   0   3   13.45    0.74
   1   0   3   11.83    1.34
   1   0   3   12.20    1.13
   1   0   3   12.92    0.68
   1   0   3   13.88    0.55
   1   0   3   14.08    0.67
   1   0   3   14.12    0.58
  -2   0  -3   14.59    1.45
  -2   0  -3   14.55    0.59
  -2   0  -3   14.53    0.62
  -2   0  -3   13.83    0.64
  -2   0  -3   15.48    0.95
  -2   0  -3   15.08    1.26
  -2   0  -3   15.48    0.63
  -2   0  -3   13.96    1.23
  -2   0  -3   13.78    0.63
  -2   0  -3   14.82    0.80
  -3   0  -3   45.02    4.32
  -3   0  -3   44.71    3.68
  -3   0  -3   46.39    3.76
  -3   0  -3   43.08    2.68
  -3   0  -3   43.03    1.89
  -3   0  -3   42.60    1.90
  -3   0  -3   45.26    2.39
  -3   0  -3   45.48    2.39
  -3   0  -3   42.40    1.90
   3   0   3   39.54    2.84
   3   0   3   43.15    2.28
   4   0   3    2.82    0.24
   4   0   3    3.01    0.20
   4   0   3    3.33    0.26
   4   0   3    2.96    0.23
   4   0   3    2.72    0.26
   4   0   3    3.05    0.28
   5   0   3    0.09    0.05
   5   0   3    0.10    0.06
   6   0   3    1.37    0.17
   6   0   3    1.23    0.10
   6  -1  -3    0.05    0.03
   6  -1  -3    0.07    0.04
   6  -1  -3    0.08    0.05
   6  -1  -3    0.08    0.05
   5  -1  -3    4.19    0.40
   5  -1  -3    4.42    0.36
   5  -1  -3    4.95    0.32
   5  -1  -3    4.67    0.36
   4  -1  -3    6.68    0.42
   4  -1  -3    6.58    0.51
   4  -1  -3    6.33    0.42
   3  -1  -3    4.99    0.39
   3  -1  -3    5.14    0.23
  -3   1   3    5.63    0.56
   2  -1  -3   50.65    2.25
  -2   1   3   50.69    4.52
  -2   1   3   56.76    5.20
   1  -1  -3    5.44    0.24
   1  -1  -3    5.26    0.30
   1  -1  -3    5.62    0.30
  -1   1   3    5.20    0.24
  -1   1   3    5.51    0.47
  -1   1   3    5.24    0.30
  -1   1   3    5.46    0.22
   0  -1  -3   10.59    0.84
   0  -1  -3    9.51    0.42
   0  -1  -3    9.52    0.47
   0  -1  -3    9.75    0.60
   0  -1  -3    9.32    0.42
   0  -1  -3    9.14    0.40
   0  -1  -3    9.55    0.53
   0   1   3    9.54    0.42
   0   1   3   10.06    0.97
   0   1   3    9.39    0.53
   0   1   3    9.79    0.40
   0   1   3    9.12    0.84
   0   1   3   10.84    0.82
   0   1   3    9.52    0.42
   0   1   3    9.59    0.49
   0   1   3   10.54    0.60
   0   1   3    9.75    0.42
  -1  -1  -3   10.64    0.79
  -1  -1  -3    9.36    0.38
  -1  -1  -3    9.87    0.93
  -1  -1  -3    9.18    0.40
  -1  -1  -3    9.03    0.40
  -1  -1  -3    9.39    0.81
   1   1   3    9.25    0.61
   1   1   3    8.26    0.93
   1   1   3    9.49    0.38
   1   1   3    8.75    0.79
   1   1   3    9.44    0.40
  -2  -1  -3    3.14    0.26
  -2  -1  -3    2.95    0.13
  -2  -1  -3    3.09    0.13
  -2  -1  -3    2.96    0.13
  -2  -1  -3    3.02    0.13
  -2  -1  -3    2.91    0.28
  -2  -1  -3    3.02    0.31
  -2  -1  -3    3.51    0.21
  -2  -1  -3    2.93    0.14
  -2  -1  -3    2.99    0.13
   2   1   3    2.98    0.21
  -3  -1  -3   48.22    2.59
  -3  -1  -3   49.87    4.07
  -3  -1  -3   49.44    4.68
  -3  -1  -3   49.79    2.59
  -3  -1  -3   46.32    2.89
   3   1   3   39.99    3.28
   4   1   3    0.17    0.07
   4   1   3    0.09    0.05
   4   1   3    0.12    0.06
   6  -2  -3    1.02    0.10
   6  -2  -3    0.90    0.08
   6  -2  -3    0.94    0.10
   5  -2  -3    1.35    0.15
   5  -2  -3    1.52    0.14
   4  -2  -3    3.41    0.23
   4  -2  -3    3.04    0.22
   4  -2  -3    2.88    0.29
   4  -2  -3    2.94    0.27
   4  -2  -3    3.52    0.27
   3  -2  -3    7.54    0.43
   3  -2  -3    7.64    0.55
   3  -2  -3    7.37    0.34
  -3   2   3    7.74    0.78
  -2   2   3   23.88    2.22
  -2   2   3   20.80    1.92
   1  -2  -3   69.19    3.54
   1  -2  -3   70.74    3.82
   1  -2  -3   70.96    3.00
   1  -2  -3   76.57    6.02
  -1   2   3   69.87    2.84
  -1   2   3   68.28    3.05
  -1   2   3   65.11    6.01
   0  -2  -3   11.94    0.62
   0  -2  -3   12.74    0.55
   0  -2  -3   12.57    0.64
   0  -2  -3   12.39    0.55
   0  -2  -3   12.47    0.52
   0  -2  -3   12.33    0.78
   0  -2  -3   11.93    0.69
   0   2   3   12.59    0.55
   0   2   3   12.70    0.52
   0   2   3   13.43    0.78
   0   2   3   13.99    0.55
   0   2   3   12.63    0.55
   0   2   3   12.76    0.55
  -1  -2  -3    3.28    0.15
  -1  -2  -3    3.69    0.29
  -1  -2  -3    3.32    0.14
  -1  -2  -3    3.27    0.15
  -1  -2  -3    3.49    0.21
  -1  -2  -3    3.27    0.17
   1   2   3    3.23    0.30
   1   2   3    3.38    0.22
   1   2   3    3.37    0.15
   1   2   3    3.37    0.15
  -2  -2  -3   36.85    1.71
  -2  -2  -3   32.94    3.35
  -2  -2  -3   35.16    2.85
  -2  -2  -3   31.86    1.37
  -2  -2  -3   35.38    2.07
  -2  -2  -3   33.53    1.45
   2   2   3   34.62    1.45
   2   2   3   30.43    2.85
  -3  -2  -3   18.09    1.80
   3   2   3   18.05    1.04
   3   2   3   16.62    1.08
   3   2   3   19.15    1.45
   4   2   3    2.20    0.20
   4   2   3    2.12    0.18
   4   2   3    2.20    0.14
   4   2   3    2.42    0.19
   5   2   3    0.45    0.07
   5   2   3    0.40    0.06
   5   2   3    0.57    0.10
   5   2   3    0.56    0.09
   5   2   3    0.36    0.09
   5   2   3    0.67    0.10
   6  -3  -3    4.46    0.33
   6  -3  -3    4.49    0.34
   6  -3  -3    4.03    0.36
   5  -3  -3    2.44    0.19
   5  -3  -3    2.04    0.24
   5  -3  -3    2.39    0.21
   5  -3  -3    2.77    0.21
   4  -3  -3    4.03    0.28
   4  -3  -3    4.58    0.32
   4  -3  -3    4.59    0.30
   4  -3  -3    4.06    0.34
   4  -3  -3    3.99    0.26
   4  -3  -3    4.39    0.33
   4  -3  -3    3.41    0.37
   3  -3  -3   11.68    0.75
   3  -3  -3   13.89    0.87
  -3   3   3   11.24    0.59
   2  -3  -3    5.11    0.26
  -2   3   3    4.12    0.41
  -2   3   3    4.95    0.50
   1  -3  -3    1.49    0.08
   1  -3  -3    1.35    0.07
   1  -3  -3    1.33    0.09
   1  -3  -3    1.43    0.08
  -1   3   3    1.14    0.13
  -1   3   3    1.39    0.07
  -1   3   3    1.36    0.07
  -1   3   3    1.39    0.07
   0  -3  -3    3.40    0.18
   0  -3  -3    3.42    0.20
   0  -3  -3    3.33    0.15
   0  -3  -3    3.38    0.16
   0  -3  -3    3.30    0.22
   0   3   3    3.66    0.16
   0   3   3    3.75    0.22
   0   3   3    3.44    0.15
   0   3   3    3.39    0.15
   0   3   3    3.45    0.15
   0   3   3    3.41    0.16
  -1  -3  -3  117.00    4.68
  -1  -3  -3  113.53    5.59
  -1  -3  -3  115.08    7.03
  -1  -3  -3  116.53    4.94
   1   3   3  109.53    9.71
   1   3   3  123.19    4.93
   1   3   3  110.66    7.44
   1   3   3  119.27    5.01
  -2  -3  -3    7.77    0.50
  -2  -3  -3    7.79    0.34
  -2  -3  -3    8.68    0.70
  -2  -3  -3    7.98    0.36
   2   3   3    7.92    0.71
   2   3   3    8.31    0.33
   3   3   3    0.90    0.13
   3   3   3    0.70    0.09
   4   3   3    2.94    0.22
   4   3   3    2.52    0.20
   4   3   3    2.37    0.24
   4   3   3    2.60    0.16
   4   3   3    2.56    0.21
   4   3   3    2.83    0.20
   5   3   3    1.81    0.15
   5   3   3    1.88    0.12
   5   3   3    1.87    0.16
   5   3   3    1.90    0.17
   5   3   3    1.84    0.15
   6  -4  -3    0.26    0.04
   6  -4  -3    0.14    0.04
   6  -4  -3    0.21    0.04
   5  -4  -3    1.88    0.17
   5  -4  -3    2.07    0.15
   5  -4  -3    1.63    0.19
   5  -4  -3    1.71    0.15
   5  -4  -3    1.84    0.14
   5  -4  -3    1.96    0.17
   4  -4  -3    6.42    0.42
   4  -4  -3    6.19    0.42
   4  -4  -3    6.53    0.43
   4  -4  -3    7.46    0.51
   4  -4  -3    7.08    0.45
   4  -4  -3    6.31    0.42
   4  -4  -3    6.78    0.52
   4  -4  -3    5.75    0.56
   3  -4  -3    5.22    0.35
   3  -4  -3    5.91    0.43
   3  -4  -3    5.94    0.38
   3  -4  -3    4.75    0.30
   2  -4  -3   37.59    1.95
   1  -4  -3    4.74    0.24
   1  -4  -3    4.60    0.22
   1  -4  -3    4.61    0.27
   1  -4  -3    4.80    0.26
   1  -4  -3    5.34    0.41
   1  -4  -3    4.16    0.31
  -1   4   3    3.90    0.49
  -1   4   3    4.68    0.21
  -1   4   3    4.44    0.21
   0  -4  -3    2.56    0.15
   0  -4  -3    2.47    0.14
   0  -4  -3    2.18    0.18
   0  -4  -3    2.32    0.12
   0   4   3    2.81    0.17
   0   4   3    2.38    0.11
   0   4   3    2.46    0.12
   0   4   3    2.44    0.12
   0   4   3    2.44    0.11
   0   4   3    2.37    0.13
  -1  -4  -3    5.42    0.25
  -1  -4  -3    5.62    0.26
  -1  -4  -3    5.45    0.36
  -1  -4  -3    5.72    0.29
   1   4   3    5.70    0.26
   1   4   3    5.63    0.25
   1   4   3    5.36    0.50
  -2  -4  -3   10.79    0.84
   2   4   3    8.08    0.53
   2   4   3    9.75    0.57
   3   4   3   17.79    1.21
   3   4   3   19.65    0.97
   3   4   3   16.61    1.42
   3   4   3   17.90    1.30
   3   4   3   19.86    1.06
   4   4   3   15.82    0.81
   4   4   3   15.02    1.01
   4   4   3   14.54    1.19
   4   4   3   14.92    1.08
   4   4   3   15.79    0.91
   5   4   3    1.06    0.07
   5   4   3    1.05    0.09
   5   4   3    1.08    0.10
   5   4   3    0.87    0.09
   5   4   3    1.14    0.11
   5   4   3    1.04    0.11
   5  -5  -3    1.12    0.16
   5  -5  -3    1.41    0.12
   5  -5  -3    1.36    0.12
   5  -5  -3    1.52    0.13
   5  -5  -3    1.29    0.11
   4  -5  -3   39.63    2.51
   4  -5  -3   35.06    2.04
   4  -5  -3   30.40    2.74
   4  -5  -3   34.15    2.28
   4  -5  -3   33.20    1.79
   4  -5  -3   34.23    2.04
   3  -5  -3    0.30    0.07
   3  -5  -3    0.28    0.06
   3  -5  -3    0.38    0.08
   3  -5  -3    0.37    0.06
  -3   5   3    0.45    0.06
   2  -5  -3    1.07    0.17
   2  -5  -3    1.43    0.13
   2  -5  -3    1.35    0.10
  -2   5   3    1.40    0.11
  -2   5   3    1.20    0.15
  -2   5   3    1.51    0.09
   1  -5  -3    0.58    0.07
   1  -5  -3    0.83    0.14
   1  -5  -3    0.64    0.11
   1  -5  -3    0.94    0.12
  -1   5   3    0.76    0.11
  -1   5   3    0.72    0.07
  -1   5   3    0.85    0.10
  -1   5   3    0.72    0.06
  -1   5   3    0.79    0.07
   0  -5  -3    0.74    0.08
   0  -5  -3    0.72    0.11
   0  -5  -3    0.78    0.08
   0   5   3    0.90    0.09
   1   5   3    1.37    0.18
   2   5   3    2.99    0.19
   2   5   3    2.85    0.19
   2   5   3    2.75    0.19
   2   5   3    3.00    0.22
   2   5   3    2.57    0.23
   3   5   3   27.64    1.92
   3   5   3   28.97    1.54
   3   5   3   31.31    1.70
   3   5   3   28.73    2.05
   3   5   3   30.75    1.67
   3   5   3   29.41    1.72
   3   5   3   26.87    2.26
   3   5   3   30.87    1.95
   4   5   3    0.23    0.05
   4   5   3    0.26    0.06
   4   5   3    0.19    0.06
   4   5   3    0.19    0.05
   4   5   3    0.22    0.07
   5   5   3    0.27    0.06
   5   5   3    0.43    0.04
   5   5   3    0.51    0.06
   5   5   3    0.43    0.05
   5  -6  -3    0.26    0.05
   5  -6  -3    0.38    0.06
   5  -6  -3    0.36    0.05
  -5   6   3    0.33    0.05
   4  -6  -3    6.01    0.43
   4  -6  -3    5.27    0.42
   4  -6  -3    5.51    0.31
   4  -6  -3    4.90    0.35
   4  -6  -3    6.09    0.35
   4  -6  -3    5.57    0.36
  -4   6   3    5.38    0.27
   3  -6  -3    0.96    0.15
   3  -6  -3    1.10    0.13
   3  -6  -3    1.25    0.13
   3  -6  -3    1.27    0.12
   3  -6  -3    1.22    0.11
  -3   6   3    1.14    0.12
   2  -6  -3    0.03    0.05
   2  -6  -3   -0.02    0.07
   2  -6  -3    0.03    0.05
  -2   6   3    0.06    0.06
  -2   6   3   -0.02    0.04
   1  -6  -3    0.00    0.04
  -1   6   3    0.05    0.05
  -1   6   3    0.05    0.06
  -1   6   3    0.11    0.06
   0  -6  -3   14.47    0.86
   0   6   3   15.17    0.77
   0   6   3   15.10    0.69
   0   6   3   13.01    0.85
  -1  -6  -3   22.51    1.31
   1   6   3   21.65    1.45
   1   6   3   23.68    1.31
   1   6   3   22.48    1.27
   1   6   3   23.73    1.17
   1   6   3   19.07    1.71
  -2  -6  -3   34.72    2.09
   2   6   3   36.66    1.87
   2   6   3   34.03    2.50
   2   6   3   37.04    2.09
   2   6   3   35.75    2.04
   2   6   3   35.35    2.33
   2   6   3   37.43    1.87
   2   6   3   32.61    2.75
   2   6   3   38.97    2.08
   3   6   3    1.57    0.13
   3   6   3    1.48    0.11
   3   6   3    1.48    0.10
   3   6   3    1.46    0.13
   3   6   3    1.42    0.11
   3   6   3    1.16    0.16
   3   6   3    1.40    0.13
   4   6   3    1.44    0.09
   4   6   3    1.41    0.12
   4   6   3    1.49    0.14
   4   6   3    1.36    0.11
   4   6   3    1.32    0.14
   4   6   3    1.45    0.13
   5   6   3    0.00    0.02
   5  -7  -3    5.43    0.40
  -5   7   3    4.44    0.29
   4  -7  -3    5.94    0.54
   4  -7  -3    6.63    0.35
   4  -7  -3    6.02    0.49
   4  -7  -3    6.93    0.40
   4  -7  -3    6.37    0.40
   4  -7  -3    6.94    0.40
  -4   7   3    6.55    0.38
  -4   7   3    6.36    0.31
   3  -7  -3    0.65    0.08
   3  -7  -3    0.58    0.07
  -3   7   3    0.49    0.07
   2  -7  -3    5.46    0.31
   2  -7  -3    5.50    0.35
   2  -7  -3    5.42    0.36
   2  -7  -3    6.08    0.32
  -2   7   3    5.65    0.34
  -2   7   3    5.29    0.31
  -2   7   3    5.66    0.28
  -2   7   3    5.53    0.35
   1  -7  -3    0.00    0.05
   1  -7  -3    0.09    0.05
  -1   7   3    0.05    0.04
  -1   7   3    0.04    0.04
  -1   7   3    0.02    0.05
  -1   7   3    0.14    0.04
   0  -7  -3    6.18    0.41
   0  -7  -3    5.93    0.34
   0   7   3    5.87    0.34
   0   7   3    6.12    0.37
   0   7   3    6.52    0.34
   0   7   3    5.71    0.37
  -1  -7  -3   26.05    1.56
   1   7   3   27.36    1.40
   1   7   3   26.18    1.52
   1   7   3   26.77    1.40
   1   7   3   28.10    1.52
   1   7   3   27.04    1.56
   1   7   3   27.24    1.55
   1   7   3   24.39    1.74
   2   7   3    6.55    0.50
   2   7   3    6.63    0.41
   2   7   3    6.87    0.41
   2   7   3    6.63    0.37
   2   7   3    6.97    0.41
   3   7   3    2.61    0.24
   3   7   3    3.14    0.19
   3   7   3    2.71    0.22
   3   7   3    2.89    0.21
   3   7   3    2.79    0.19
   3   7   3    3.02    0.22
   3   7   3    2.81    0.17
   4   7   3    3.28    0.23
   4   7   3    3.13    0.17
   4   7   3    3.19    0.22
   4   7   3    2.94    0.25
   4   7   3    2.95    0.23
   4  -8  -3    0.52    0.06
   4  -8  -3    0.50    0.05
   4  -8  -3    0.52    0.06
   4  -8  -3    0.38    0.06
  -4   8   3    0.47    0.05
   3  -8  -3    1.40    0.10
   3  -8  -3    1.54    0.12
   3  -8  -3    1.43    0.13
  -3   8   3    1.41    0.09
  -3   8   3    1.48    0.11
  -3   8   3    1.15    0.11
   2  -8  -3    4.81    0.28
   2  -8  -3    5.00    0.32
  -2   8   3    5.07    0.31
  -2   8   3    5.19    0.26
   1  -8  -3    0.81    0.09
   1  -8  -3    0.88    0.09
  -1   8   3    0.75    0.10
  -1   8   3    0.87    0.09
  -1   8   3    0.95    0.08
  -1   8   3    1.01    0.10
   0  -8  -3   28.54    1.72
   0   8   3   29.03    1.53
   0   8   3   30.31    1.67
   0   8   3   29.39    1.71
   0   8   3   29.62    1.37
   1   8   3    1.28    0.11
   1   8   3    1.34    0.10
   1   8   3    1.44    0.09
   1   8   3    1.24    0.12
  -2  -8  -3    1.91    0.16
   2   8   3    2.12    0.18
   2   8   3    2.12    0.15
   2   8   3    2.29    0.17
   2   8   3    2.04    0.21
   2   8   3    2.23    0.14
   2   8   3    2.31    0.18
   2   8   3    2.40    0.14
   3   8   3    0.34    0.06
   3   8   3    0.43    0.06
   3   8   3    0.33    0.05
   3   8   3    0.43    0.04
   3   8   3    0.27    0.06
   3   8   3    0.30    0.06
   3  -9  -3    7.86    0.52
   3  -9  -3    9.38    0.51
   3  -9  -3    8.04    0.52
   3  -9  -3    8.64    0.45
  -3   9   3    8.71    0.49
  -3   9   3    8.58    0.48
  -3   9   3    8.83    0.41
   2  -9  -3    2.01    0.13
   2  -9  -3    2.05    0.15
   2  -9  -3    2.11    0.16
   2  -9  -3    2.06    0.13
  -2   9   3    2.20    0.11
  -2   9   3    1.99    0.14
  -2   9   3    2.18    0.14
  -2   9   3    2.07    0.15
   1  -9  -3    1.32    0.16
   1  -9  -3    1.66    0.11
   1  -9  -3    1.28    0.12
   1  -9  -3    1.88    0.11
  -1   9   3    1.49    0.11
  -1   9   3    1.60    0.11
  -1   9   3    1.48    0.12
  -1   9   3    1.71    0.10
   0  -9  -3    4.59    0.31
   0  -9  -3    5.08    0.27
   0   9   3    5.15    0.29
   0   9   3    4.78    0.27
   0   9   3    4.77    0.30
   0   9   3    4.28    0.35
  -1  -9  -3    0.07    0.06
  -1  -9  -3    0.02    0.03
   1   9   3    0.00    0.05
   1   9   3    0.04    0.03
   1   9   3   -0.01    0.05
   1   9   3   -0.01    0.03
  -2  -9  -3    0.64    0.06
   2   9   3    0.64    0.07
   2   9   3    0.72    0.07
   2   9   3    0.65    0.07
   2   9   3    0.52    0.07
  -3  -9  -3    0.83    0.06
   2 -10  -3    0.08    0.03
   2 -10  -3    0.04    0.03
  -2  10   3    0.09    0.03
  -2  10   3    0.05    0.02
   1 -10  -3    0.63    0.06
   1 -10  -3    0.56    0.05
  -1  10   3    0.55    0.06
  -1  10   3    0.52    0.06
   0 -10  -3    3.19    0.18
   0 -10  -3    3.05    0.20
   0  10   3    3.13    0.17
   0  10   3    3.10    0.19
   0  10   3    2.99    0.19
  -1 -10  -3    1.59    0.10
   1  10   3    1.71    0.13
   1  10   3    1.60    0.10
   1  10   3    1.69    0.11
   0  12  -4    0.01    0.02
   0 -12   4    0.00    0.02
   2  11  -4    0.18    0.03
   2  11  -4    0.08    0.04
   2  11  -4    0.13    0.03
  -2 -11   4    0.17    0.02
   1  11  -4    0.95    0.11
   1  11  -4    1.20    0.07
   1  11  -4    1.19    0.08
   1  11  -4    0.92    0.09
  -1 -11   4    1.09    0.06
  -1 -11   4    1.06    0.07
  -1 -11   4    1.11    0.07
   0  11  -4    0.52    0.06
   0  11  -4    0.51    0.06
   0  11  -4    0.60    0.05
   0  11  -4    0.36    0.07
   0 -11   4    0.48    0.05
   0 -11   4    0.45    0.06
   0 -11   4    0.48    0.06
  -1  11  -4    7.91    0.38
  -1  11  -4    8.13    0.46
  -1  11  -4    8.08    0.47
   1 -11   4    7.91    0.38
   1 -11   4    8.33    0.43
   1 -11   4    8.01    0.49
  -2  11  -4    2.92    0.20
  -2  11  -4    3.34    0.19
   2 -11   4    3.26    0.21
   2 -11   4    3.54    0.19
   2 -11   4    3.31    0.18
  -3  11  -4    0.05    0.02
   3  10  -4    2.48    0.15
   3  10  -4    2.12    0.19
   3  10  -4    2.46    0.17
  -3 -10   4    2.44    0.12
   2  10  -4    4.15    0.24
   2  10  -4    3.55    0.28
   2  10  -4    4.28    0.22
   2  10  -4    3.36    0.31
   2  10  -4    4.60    0.27
  -2 -10   4    3.69    0.22
  -2 -10   4    3.81    0.19
   1  10  -4   18.33    0.91
   1  10  -4   17.45    1.01
   1  10  -4   17.58    0.96
   1  10  -4   17.88    0.99
   1  10  -4   16.39    1.16
  -1 -10   4   16.63    0.91
  -1 -10   4   17.30    0.81
   0  10  -4    0.12    0.05
   0  10  -4    0.17    0.04
   0  10  -4    0.13    0.05
   0  10  -4    0.10    0.05
   0  10  -4    0.12    0.03
   0  10  -4    0.23    0.06
   0 -10   4    0.06    0.03
   0 -10   4    0.13    0.04
   0 -10   4    0.15    0.03
   0 -10   4    0.17    0.03
  -1  10  -4    1.20    0.09
  -1  10  -4    1.19    0.10
  -1  10  -4    1.23    0.10
  -1  10  -4    1.21    0.09
   1 -10   4    1.26    0.12
   1 -10   4    1.24    0.09
   1 -10   4    1.28    0.11
   1 -10   4    1.19    0.08
  -2  10  -4   11.78    0.66
  -2  10  -4   11.36    0.68
  -2  10  -4   11.69    0.56
   2 -10   4   11.72    0.71
   2 -10   4   12.32    0.62
   2 -10   4   11.98    0.63
  -3  10  -4    0.24    0.04
  -3  10  -4    0.36    0.04
  -3  10  -4    0.26    0.04
   3 -10   4    0.29    0.04
   3 -10   4    0.30    0.05
   3 -10   4    0.34    0.04
   4   9  -4    0.33    0.04
   3   9  -4   10.32    0.80
   3   9  -4   12.58    0.89
   3   9  -4   11.82    0.60
   3   9  -4   10.37    0.85
   3   9  -4   11.80    0.66
   3   9  -4   12.58    0.76
   3   9  -4   10.59    0.77
   2   9  -4    0.93    0.11
   2   9  -4    1.23    0.14
   2   9  -4    1.15    0.09
   2   9  -4    1.04    0.13
   2   9  -4    1.08    0.11
  -2  -9   4    1.05    0.09
  -2  -9   4    0.98    0.07
   1   9  -4    7.57    0.41
   1   9  -4    7.54    0.45
   1   9  -4    7.60    0.45
   1   9  -4    8.08    0.44
   1   9  -4    6.53    0.51
  -1  -9   4    7.61    0.41
   0   9  -4    0.56    0.07
   0   9  -4    0.42    0.07
   0   9  -4    0.51    0.06
   0   9  -4    0.44    0.06
   0  -9   4    0.55    0.06
   0  -9   4    0.58    0.06
  -1   9  -4    4.37    0.26
  -1   9  -4    4.26    0.21
   1  -9   4    4.22    0.25
   1  -9   4    3.96    0.21
   1  -9   4    4.20    0.24
  -2   9  -4   16.38    0.96
  -2   9  -4   16.31    0.79
  -2   9  -4   17.26    0.94
   2  -9   4   16.60    0.99
   2  -9   4   17.41    0.89
   2  -9   4   16.61    0.88
  -3   9  -4    6.35    0.41
  -3   9  -4    7.16    0.40
  -3   9  -4    6.69    0.34
   3  -9   4    6.99    0.38
   3  -9   4    7.79    0.39
   3  -9   4    6.79    0.43
   3  -9   4    7.08    0.43
  -4   9  -4    0.28    0.04
  -4   9  -4    0.21    0.03
   4  -9   4    0.16    0.04
   4  -9   4    0.27    0.04
   4  -9   4    0.16    0.04
   4  -9   4    0.22    0.03
   4   8  -4    0.45    0.06
   4   8  -4    0.47    0.06
   4   8  -4    0.48    0.06
   4   8  -4    0.47    0.06
   4   8  -4    0.39    0.07
   3   8  -4    3.56    0.21
   3   8  -4    3.87    0.24
   3   8  -4    4.04    0.26
   3   8  -4    3.41    0.27
   3   8  -4    3.41    0.28
  -3  -8   4    3.69    0.19
   2   8  -4    0.43    0.05
   2   8  -4    0.48    0.07
   2   8  -4    0.47    0.06
   2   8  -4    0.37    0.07
   2   8  -4    0.48    0.08
   2   8  -4    0.56    0.08
  -2  -8   4    0.45    0.07
   1   8  -4    1.36    0.11
   1   8  -4    1.29    0.11
   1   8  -4    1.52    0.12
   1   8  -4    1.19    0.11
   0   8  -4    0.09    0.03
   0   8  -4    0.09    0.04
   0   8  -4    0.01    0.04
   0  -8   4    0.14    0.09
   0  -8   4    0.00    0.05
   0  -8   4    0.05    0.04
  -1   8  -4   10.34    0.61
  -1   8  -4   10.88    0.60
  -1   8  -4   10.63    0.50
  -1   8  -4   10.19    0.56
   1  -8   4   10.42    0.56
   1  -8   4   10.48    0.56
   1  -8   4   10.22    0.63
  -2   8  -4   20.02    1.15
  -2   8  -4   19.72    0.95
  -2   8  -4   20.98    1.11
   2  -8   4   19.30    1.19
   2  -8   4   20.25    1.20
   2  -8   4   19.88    1.05
   2  -8   4   19.60    1.50
   2  -8   4   20.86    1.06
  -3   8  -4    4.39    0.23
   3  -8   4    4.51    0.26
   3  -8   4    4.69    0.36
   3  -8   4    4.65    0.29
  -4   8  -4    0.83    0.06
  -4   8  -4    0.91    0.09
   4  -8   4    0.97    0.10
   4  -8   4    0.91    0.09
   4  -8   4    0.89    0.10
   4  -8   4    0.83    0.08
   4  -8   4    1.01    0.09
   4  -8   4    0.92    0.13
   5  -8   4    2.88    0.18
   5   7  -4    2.25    0.21
   5   7  -4    2.73    0.20
   5   7  -4    2.89    0.19
   4   7  -4    3.42    0.26
   4   7  -4    3.72    0.25
   4   7  -4    3.72    0.29
   4   7  -4    3.24    0.28
   4   7  -4    3.24    0.25
   3   7  -4    2.71    0.19
   3   7  -4    2.30    0.20
   3   7  -4    2.19    0.20
   3   7  -4    2.45    0.17
   3   7  -4    2.62    0.15
   3   7  -4    2.29    0.21
   2   7  -4    0.92    0.10
   2   7  -4    0.74    0.10
   2   7  -4    0.88    0.09
   2   7  -4    0.76    0.11
   2   7  -4    0.93    0.08
   2   7  -4    0.95    0.11
   2   7  -4    0.90    0.08
  -2  -7   4    0.95    0.12
   1   7  -4    1.22    0.11
   1   7  -4    0.64    0.12
   1   7  -4    0.99    0.09
   1   7  -4    0.80    0.12
   1   7  -4    0.92    0.08
   1   7  -4    0.88    0.08
   1   7  -4    0.96    0.10
   0   7  -4    2.97    0.21
   0  -7   4    2.60    0.24
   0  -7   4    2.94    0.18
   0  -7   4    3.15    0.18
   1  -7   4   12.30    0.63
   1  -7   4   11.68    0.71
   1  -7   4   11.60    0.73
   1  -7   4   10.87    0.63
   1  -7   4   12.91    0.65
  -2   7  -4    0.95    0.07
  -2   7  -4    0.97    0.10
   2  -7   4    0.95    0.08
   2  -7   4    1.14    0.11
   2  -7   4    0.98    0.11
  -3   7  -4   32.02    1.59
   3  -7   4   33.51    2.00
   3  -7   4   32.17    2.02
   3  -7   4   33.54    1.78
   3  -7   4   36.21    1.78
   3  -7   4   37.39    2.53
  -4   7  -4    1.42    0.09
   4  -7   4    1.59    0.14
   4  -7   4    1.49    0.16
   4  -7   4    1.62    0.15
   4  -7   4    1.59    0.13
   4  -7   4    1.46    0.14
  -5   7  -4    0.09    0.05
   5  -7   4    0.07    0.03
   5  -7   4    0.08    0.03
   5  -7   4    0.08    0.04
   5  -7   4    0.03    0.03
   5   6  -4    2.39    0.19
   5   6  -4    2.06    0.19
   5   6  -4    2.04    0.17
   5   6  -4    2.15    0.17
   5   6  -4    2.35    0.16
   4   6  -4    0.12    0.04
   4   6  -4    0.12    0.04
   4   6  -4    0.07    0.04
   4   6  -4    0.03    0.08
   4   6  -4    0.15    0.04
   3   6  -4    4.39    0.25
   3   6  -4    4.13    0.37
   3   6  -4    4.25    0.33
   3   6  -4    4.75    0.28
   3   6  -4    4.92    0.28
   3   6  -4    4.21    0.32
   3   6  -4    4.45    0.31
   3   6  -4    4.11    0.35
   3   6  -4    4.30    0.36
   2   6  -4    0.92    0.11
   2   6  -4    0.96    0.09
   2   6  -4    0.84    0.08
  -2  -6   4    0.94    0.10
   1   6  -4    9.68    0.69
   0   6  -4   96.43    3.72
   0   6  -4   97.67    3.94
   0   6  -4   85.70    5.24
   0  -6   4   85.79    9.02
  -1   6  -4    3.72    0.27
  -1   6  -4    3.99    0.22
  -1   6  -4    4.31    0.21
  -1   6  -4    3.59    0.28
  -1   6  -4    4.15    0.21
  -1   6  -4    3.43    0.40
  -1   6  -4    3.84    0.22
   1  -6   4    3.92    0.29
   1  -6   4    3.88    0.23
   2  -6   4   24.25    1.42
   2  -6   4   25.98    1.44
   2  -6   4   22.47    1.43
   2  -6   4   26.55    1.30
   2  -6   4   21.63    1.93
  -3   6  -4    5.96    0.40
  -3   6  -4    6.59    0.33
   3  -6   4    6.89    0.42
   3  -6   4    6.53    0.41
   3  -6   4    6.37    0.36
   3  -6   4    6.33    0.55
   3  -6   4    7.10    0.51
   3  -6   4    6.56    0.42
   3  -6   4    6.99    0.37
   4  -6   4    0.37    0.09
   4  -6   4    0.42    0.06
   4  -6   4    0.34    0.05
   4  -6   4    0.37    0.07
   4  -6   4    0.36    0.06
   4  -6   4    0.42    0.07
   4  -6   4    0.31    0.06
  -5   6  -4    6.60    0.40
   5  -6   4    6.61    0.43
   5  -6   4    6.73    0.43
   5  -6   4    7.80    0.54
   5  -6   4    7.11    0.58
   5   5  -4    5.82    0.37
   5   5  -4    5.73    0.44
   5   5  -4    5.58    0.40
   5   5  -4    5.09    0.42
   5   5  -4    5.26    0.38
   5   5  -4    5.19    0.43
   4   5  -4    0.47    0.09
   4   5  -4    0.51    0.08
   4   5  -4    0.50    0.08
   4   5  -4    0.52    0.07
   4   5  -4    0.41    0.07
   4   5  -4    0.47    0.08
   3   5  -4   29.71    1.51
   3   5  -4   25.62    1.81
   3   5  -4   25.95    1.91
   3   5  -4   28.34    1.79
   3   5  -4   26.54    2.04
   3   5  -4   26.78    2.01
   3   5  -4   27.81    1.43
   3   5  -4   26.60    2.10
   3   5  -4   28.69    1.43
   2   5  -4    9.12    0.40
   2   5  -4    8.77    0.49
   1   5  -4    0.46    0.05
   1   5  -4    0.45    0.04
   1   5  -4    0.57    0.04
   1   5  -4    0.47    0.05
  -1  -5   4    0.43    0.04
  -1  -5   4    0.61    0.07
   0   5  -4    6.29    0.25
   0   5  -4    5.90    0.27
   0   5  -4    5.44    0.50
   0   5  -4    5.31    0.35
   0   5  -4    5.87    0.24
   0   5  -4    5.98    0.24
   0  -5   4    5.12    0.37
   0  -5   4    5.82    0.49
   0  -5   4    4.90    0.57
  -1   5  -4   92.34    4.01
  -1   5  -4   83.33    7.88
  -1   5  -4   87.20    5.71
   1  -5   4   98.48    5.11
   1  -5   4  102.39    9.25
   1  -5   4   98.90    8.05
  -2   5  -4    2.29    0.15
   2  -5   4    1.94    0.17
   2  -5   4    2.74    0.21
  -3   5  -4    0.40    0.06
   3  -5   4    0.44    0.08
   3  -5   4    0.33    0.06
   3  -5   4    0.43    0.06
   3  -5   4    0.32    0.07
   4  -5   4    6.52    0.40
   4  -5   4    6.17    0.54
   4  -5   4    6.07    0.40
   4  -5   4    6.51    0.40
   4  -5   4    6.66    0.36
   4  -5   4    6.76    0.49
   4  -5   4    6.22    0.35
   4  -5   4    5.98    0.48
   5  -5   4    0.13    0.03
   5  -5   4    0.17    0.05
   5  -5   4    0.09    0.04
   5  -5   4    0.18    0.05
   5  -5   4    0.10    0.06
   6  -5   4    0.01    0.02
   6  -5   4    0.01    0.02
   6  -5   4    0.02    0.03
   6   4  -4    0.61    0.07
   6   4  -4    0.62    0.06
   5   4  -4    0.43    0.08
   5   4  -4    0.30    0.06
   5   4  -4    0.28    0.06
   5   4  -4    0.31    0.07
   5   4  -4    0.41    0.06
   5   4  -4    0.25    0.06
   4   4  -4   37.86    2.47
   4   4  -4   38.11    2.43
   4   4  -4   36.49    2.73
   4   4  -4   37.12    2.77
   4   4  -4   36.91    2.60
   4   4  -4   37.68    2.86
   3   4  -4   17.23    1.33
   3   4  -4   16.47    1.20
   3   4  -4   18.66    0.96
   3   4  -4   16.03    0.90
   2   4  -4   21.48    0.91
   2   4  -4   21.31    0.89
   2   4  -4   21.30    0.90
  -2  -4   4   19.46    0.91
  -2  -4   4   19.53    1.14
   1   4  -4    0.55    0.03
   1   4  -4    0.46    0.05
   1   4  -4    0.51    0.04
   1   4  -4    0.44    0.03
   1   4  -4    0.47    0.05
   1   4  -4    0.51    0.03
  -1  -4   4    0.46    0.06
  -1  -4   4    0.42    0.04
   0   4  -4   21.20    0.85
   0   4  -4   19.72    1.27
   0   4  -4   21.23    0.85
   0   4  -4   22.46    0.90
   0   4  -4   19.51    1.75
   0   4  -4   21.21    0.89
   0  -4   4   20.19    1.75
   0  -4   4   20.34    1.34
  -1   4  -4   11.92    0.53
  -1   4  -4   10.67    1.04
  -1   4  -4   12.77    0.54
   1  -4   4   11.21    0.80
   1  -4   4   12.84    1.21
   1  -4   4   12.69    0.68
   1  -4   4   13.76    1.06
  -2   4  -4  108.53   10.09
  -2   4  -4  123.82    5.14
  -2   4  -4  122.93    4.87
  -2   4  -4  137.49    7.76
  -2   4  -4  116.38    5.21
   2  -4   4  117.87    6.55
   2  -4   4  114.65    6.56
   3  -4   4    1.95    0.15
   3  -4   4    1.89    0.17
   4  -4   4    3.09    0.30
   4  -4   4    3.12    0.22
   4  -4   4    3.52    0.28
   4  -4   4    3.37    0.23
   4  -4   4    3.43    0.23
   4  -4   4    3.30    0.24
   4  -4   4    3.55    0.28
   5  -4   4    0.24    0.05
   5  -4   4    0.28    0.07
   5  -4   4   -0.01    0.07
   5  -4   4    0.21    0.07
   5  -4   4    0.15    0.04
   6  -4   4    0.46    0.07
   6  -4   4    0.46    0.07
   6  -4   4    0.43    0.07
   6   3  -4    0.87    0.11
   6   3  -4    1.00    0.08
   6   3  -4    0.85    0.09
   6   3  -4    0.96    0.08
   5   3  -4    4.72    0.33
   5   3  -4    5.15    0.37
   5   3  -4    4.41    0.35
   5   3  -4    4.37    0.37
   4   3  -4    7.73    0.63
   4   3  -4    8.10    0.62
   4   3  -4    8.32    0.56
   4   3  -4    8.22    0.59
   3   3  -4   63.78    4.95
   3   3  -4   69.92    3.16
   3   3  -4   61.05    3.52
   2   3  -4   22.21    0.94
   2   3  -4   23.22    1.05
   2   3  -4   20.60    0.88
   2   3  -4   20.77    0.92
   2   3  -4   21.88    0.95
   2   3  -4   22.36    0.92
  -2  -3   4   20.27    0.93
  -2  -3   4   20.65    0.94
   1   3  -4   55.76    2.37
   1   3  -4   55.87    2.49
   1   3  -4   64.87    3.55
   1   3  -4   59.27    2.52
  -1  -3   4   56.02    3.18
   0   3  -4   31.65    1.29
   0   3  -4   32.51    1.36
   0   3  -4   32.54    1.29
   0  -3   4   33.61    2.05
   0  -3   4   28.69    2.67
  -1   3  -4   30.87    1.28
  -1   3  -4   31.54    1.37
  -1   3  -4   31.30    1.35
   1  -3   4   29.41    3.10
   1  -3   4   33.99    1.72
  -2   3  -4    3.10    0.14
  -2   3  -4    3.17    0.14
  -2   3  -4    3.08    0.14
   2  -3   4    2.95    0.18
   2  -3   4    3.04    0.19
  -3   3  -4    2.12    0.18
   4  -3   4   12.84    0.88
   4  -3   4   16.92    1.11
   4  -3   4   15.25    0.80
   4  -3   4   13.08    1.19
   4  -3   4   14.30    0.88
   4  -3   4   16.03    1.09
   6  -3   4    0.56    0.08
   6  -3   4    0.46    0.06
   6  -3   4    0.47    0.07
   6  -3   4    0.63    0.08
   6   2  -4    4.43    0.32
   6   2  -4    4.48    0.31
   6   2  -4    4.57    0.34
   6   2  -4    4.27    0.35
   5   2  -4    5.82    0.41
   5   2  -4    6.06    0.46
   4   2  -4    4.74    0.39
   4   2  -4    5.05    0.37
   4   2  -4    4.98    0.40
   4   2  -4    5.04    0.35
   4   2  -4    5.09    0.30
   4   2  -4    4.57    0.35
  -3  -2   4   19.79    0.88
  -3  -2   4   19.74    0.87
   2   2  -4   36.29    1.45
   2   2  -4   32.37    2.06
   2   2  -4   34.77    1.64
   2   2  -4   33.69    1.37
   2   2  -4   33.29    1.45
   2   2  -4   35.81    1.47
  -2  -2   4   33.50    1.84
  -2  -2   4   33.90    1.46
  -2  -2   4   30.81    1.85
   1   2  -4   96.43    5.50
   1   2  -4   93.50    3.86
   1   2  -4   94.90    3.86
   1   2  -4  100.75    4.37
   1   2  -4   93.73    3.66
  -1  -2   4   88.83    4.93
  -1  -2   4   77.27    7.59
  -1  -2   4   88.79    3.93
  -1  -2   4   84.70    3.89
  -1  -2   4   85.32    3.66
   0   2  -4  153.77    6.32
   0   2  -4  147.31    6.26
   0   2  -4  149.03    7.28
   0   2  -4  144.65    7.99
   0   2  -4  151.40    5.94
   0   2  -4  149.40    5.94
   0   2  -4  148.24    6.36
   0  -2   4  145.33    6.36
   0  -2   4  147.19    6.37
   0  -2   4  129.21   12.32
   0  -2   4  148.91    7.99
   0  -2   4  144.12   12.59
  -1   2  -4  437.12   17.66
  -1   2  -4  431.42   21.64
  -1   2  -4  435.07   23.75
  -1   2  -4  431.43   18.61
  -1   2  -4  444.58   18.93
  -1   2  -4  429.79   18.89
   1  -2   4  442.95   37.41
  -2   2  -4    0.90    0.05
  -2   2  -4    0.80    0.04
  -2   2  -4    0.83    0.06
  -2   2  -4    0.91    0.05
  -2   2  -4    0.78    0.05
   2  -2   4    0.92    0.07
   2  -2   4    0.73    0.07
   2  -2   4    0.91    0.06
  -3   2  -4    5.23    0.30
  -3   2  -4    5.26    0.22
  -3   2  -4    5.27    0.31
   4  -2   4    0.30    0.07
   4  -2   4    0.30    0.06
   4  -2   4    0.40    0.08
   4  -2   4    0.34    0.08
   5  -2   4    0.00    0.03
   5  -2   4    0.03    0.06
   6  -2   4    1.32    0.10
   6  -2   4    1.18    0.12
   6  -2   4    1.36    0.13
   6   1  -4    0.10    0.04
   6   1  -4    0.08    0.04
   6   1  -4   -0.02    0.05
   6   1  -4    0.07    0.03
   5   1  -4   -0.02    0.03
   5   1  -4    0.01    0.06
   5   1  -4    0.05    0.05
   5   1  -4    0.06    0.05
   4   1  -4   11.30    0.81
   4   1  -4   10.56    0.82
   4   1  -4   10.84    0.76
   4   1  -4   10.78    0.72
   4   1  -4    9.90    0.66
   3   1  -4   19.29    1.55
  -3  -1   4   20.62    0.88
  -3  -1   4   19.50    1.75
  -3  -1   4   21.32    1.24
   2   1  -4   23.04    1.09
   2   1  -4   23.82    0.96
   2   1  -4   22.62    0.98
   2   1  -4   20.92    1.37
  -2  -1   4   23.47    1.37
  -2  -1   4   20.60    1.11
  -2  -1   4   22.39    1.22
   1   1  -4   88.90    4.79
   1   1  -4   87.73    3.75
   1   1  -4   93.08    5.35
  -1  -1   4   84.93    4.79
  -1  -1   4   83.51    3.56
  -1  -1   4   88.64    4.36
  -1  -1   4   88.14    4.79
   0   1  -4   39.97    1.91
   0   1  -4   37.69    1.56
   0   1  -4   38.39    1.64
   0   1  -4   38.40    1.67
   0   1  -4   39.84    2.10
   0   1  -4   37.04    1.67
   0   1  -4   38.89    2.10
   0  -1   4   40.78    3.30
   0  -1   4   37.76    1.67
   0  -1   4   38.49    1.56
   0  -1   4   37.60    1.91
   0  -1   4   37.01    2.10
   0  -1   4   38.78    1.67
   0  -1   4   38.08    2.10
  -1   1  -4    0.76    0.05
  -1   1  -4    0.73    0.04
  -1   1  -4    0.82    0.07
  -1   1  -4    0.71    0.04
  -1   1  -4    0.69    0.03
  -1   1  -4    0.70    0.03
   1  -1   4    0.70    0.08
   1  -1   4    0.69    0.04
   1  -1   4    0.77    0.07
  -2   1  -4    0.76    0.04
  -2   1  -4    0.81    0.06
  -2   1  -4    0.80    0.04
  -2   1  -4    0.72    0.04
  -2   1  -4    0.83    0.05
  -2   1  -4    0.71    0.04
   2  -1   4    0.66    0.09
   2  -1   4    0.74    0.06
   2  -1   4    0.72    0.05
  -3   1  -4    1.08    0.10
  -3   1  -4    1.14    0.10
  -3   1  -4    0.98    0.08
  -3   1  -4    0.96    0.08
   3  -1   4    0.99    0.13
   4  -1   4    0.56    0.10
   5  -1   4    2.86    0.20
   6  -1   4    6.69    0.48
   6  -1   4    5.04    0.36
   6  -1   4    5.79    0.36
   6   0  -4    1.52    0.12
   6   0  -4    1.19    0.12
   6   0  -4    1.20    0.12
   6   0  -4    1.35    0.11
   5   0  -4    2.78    0.24
   5   0  -4    2.75    0.21
   5   0  -4    2.73    0.24
   4   0  -4   10.32    0.84
   4   0  -4   10.96    0.82
   4   0  -4   11.40    0.75
   4   0  -4   11.37    0.63
   4   0  -4   10.39    0.67
   4   0  -4   11.04    0.92
   4   0  -4   11.46    0.78
   3   0  -4   45.66    2.92
   3   0  -4   43.69    2.76
   3   0  -4   49.42    2.03
  -3   0   4   50.11    2.90
  -3   0   4   48.35    4.08
   2   0  -4   76.31    4.97
   2   0  -4   84.90    3.49
  -2   0   4   85.26    4.97
  -2   0   4   85.30    7.00
  -2   0   4   76.31    4.44
   1   0  -4   18.95    0.79
   1   0  -4   17.31    1.00
   1   0  -4   18.73    1.00
  -1   0   4   18.05    0.80
  -1   0   4   18.13    0.93
  -1   0   4   19.87    1.12
  -1   0   4   17.82    0.74
  -1   0   4   17.48    1.00
   0   0  -4  118.93    6.38
   0   0  -4  124.18    6.37
   0   0  -4  124.30    7.13
   0   0  -4  113.51    5.08
   0   0  -4  115.23    5.04
   0   0  -4  116.83    4.74
   0   0  -4  128.37   10.05
   0   0  -4  112.96    5.00
   0   0   4  107.06    5.90
   0   0   4  111.16    5.07
   0   0   4  131.49   11.56
   0   0   4  117.95   10.05
   0   0   4  112.34    5.81
   0   0   4  109.94    5.08
   0   0   4  113.69    5.04
   0   0   4  113.17    4.74
  -1   0  -4   11.12    0.45
  -1   0  -4   12.50    0.96
  -1   0  -4   11.23    0.48
  -1   0  -4   11.14    0.48
  -1   0  -4   11.01    0.48
   1   0   4   11.09    0.48
   1   0   4   11.94    0.72
   1   0   4   11.19    0.56
   1   0   4    9.74    0.45
   1   0   4   11.08    0.94
   1   0   4   10.28    1.10
  -2   0  -4   13.02    0.55
  -2   0  -4   10.99    0.71
  -2   0  -4   14.05    1.11
  -2   0  -4   12.95    0.52
  -2   0  -4   13.07    0.56
  -3   0  -4   30.73    1.36
  -3   0  -4   32.15    1.72
  -3   0  -4   31.12    2.71
  -3   0  -4   32.24    1.73
  -3   0  -4   30.91    1.93
   3   0   4   30.71    1.85
   3   0   4   31.68    1.68
   4   0   4    4.36    0.30
   4   0   4    5.02    0.40
   4   0   4    4.57    0.27
   4   0   4    4.48    0.30
   5   0   4    7.37    0.45
   5   0   4    6.94    0.40
   6   0   4    6.14    0.38
   6  -1  -4    1.60    0.13
   6  -1  -4    1.37    0.17
   6  -1  -4    2.03    0.15
   6  -1  -4    1.88    0.15
   5  -1  -4    6.48    0.53
   5  -1  -4    7.19    0.52
   4  -1  -4    0.07    0.04
   4  -1  -4    0.07    0.07
   4  -1  -4    0.08    0.04
   4  -1  -4    0.10    0.06
   4  -1  -4    0.22    0.12
   3  -1  -4   21.05    0.90
  -3   1   4   20.66    1.29
   2  -1  -4   13.27    0.57
  -2   1   4   12.85    1.13
   1  -1  -4   16.30    0.71
   1  -1  -4   16.80    0.90
   1  -1  -4   15.83    1.42
   1  -1  -4   17.00    0.90
  -1   1   4   15.59    0.90
  -1   1   4   17.02    1.42
  -1   1   4   16.86    0.67
  -1   1   4   16.19    0.72
   0  -1  -4   95.50    4.78
   0  -1  -4   99.06    4.22
   0  -1  -4   99.39    5.39
   0  -1  -4  102.17    4.00
   0  -1  -4   90.85    5.39
   0  -1  -4   96.76    4.25
   0   1   4  100.49    4.00
   0   1   4  110.28    8.32
   0   1   4   97.02    4.29
   0   1   4   97.25    4.26
   0   1   4   98.27    4.91
  -1  -1  -4   18.96    0.81
  -1  -1  -4   21.04    1.22
  -1  -1  -4   19.47    0.86
  -1  -1  -4   22.99    1.97
  -1  -1  -4   18.95    0.85
   1   1   4   16.85    1.97
   1   1   4   19.72    1.68
   1   1   4   20.23    0.85
   1   1   4   20.76    1.29
  -2  -1  -4    0.56    0.04
  -2  -1  -4    0.50    0.04
  -2  -1  -4    0.64    0.06
  -2  -1  -4    0.59    0.04
  -2  -1  -4    0.59    0.09
   2   1   4    0.45    0.09
   2   1   4    0.54    0.03
   2   1   4    0.53    0.06
  -3  -1  -4    3.19    0.31
  -3  -1  -4    2.90    0.25
  -3  -1  -4    3.27    0.21
   3   1   4    3.32    0.29
   4   1   4    0.41    0.09
   4   1   4    0.44    0.06
   4   1   4    0.53    0.10
   4   1   4    0.52    0.06
   5   1   4    1.47    0.16
   5   1   4    1.39    0.12
   5   1   4    1.54    0.12
   5   1   4    1.38    0.15
   5   1   4    1.43    0.14
   6  -2  -4    5.48    0.40
   6  -2  -4    5.59    0.39
   6  -2  -4    4.34    0.42
   5  -2  -4   11.53    0.76
   5  -2  -4   10.46    0.82
   5  -2  -4   11.22    0.80
   5  -2  -4   10.00    0.66
   4  -2  -4    0.31    0.09
   4  -2  -4    0.24    0.06
   4  -2  -4    0.20    0.05
   4  -2  -4    0.25    0.06
   4  -2  -4    0.26    0.10
   4  -2  -4    0.24    0.07
   4  -2  -4    0.18    0.06
   4  -2  -4    0.38    0.10
   3  -2  -4    4.29    0.35
  -3   2   4    4.24    0.22
  -2   2   4   12.51    1.18
  -2   2   4   11.08    1.02
   1  -2  -4   38.87    2.08
   1  -2  -4   40.63    1.67
   1  -2  -4   46.28    3.54
   1  -2  -4   40.73    1.78
   1  -2  -4   44.55    2.24
  -1   2   4   40.86    1.67
  -1   2   4   39.61    1.79
  -1   2   4   37.59    3.54
   0  -2  -4   12.05    0.50
   0  -2  -4   12.05    0.67
   0  -2  -4   12.07    0.53
   0  -2  -4   12.02    0.53
   0  -2  -4   11.69    0.59
   0   2   4   12.29    0.53
   0   2   4   13.78    0.53
   0   2   4   12.31    0.53
   0   2   4   10.84    0.52
   0   2   4   12.44    0.50
  -1  -2  -4   13.25    0.60
  -1  -2  -4   13.40    0.60
  -1  -2  -4   15.48    1.37
  -1  -2  -4   13.79    0.57
  -1  -2  -4   12.73    0.85
   1   2   4   14.22    0.60
   1   2   4   14.54    0.90
   1   2   4   12.75    1.17
   1   2   4   13.87    0.60
  -2  -2  -4   16.77    0.97
  -2  -2  -4   15.57    0.65
  -2  -2  -4   17.45    1.58
  -2  -2  -4   16.09    0.68
   2   2   4   14.08    0.84
   2   2   4   16.04    1.03
   2   2   4   15.00    1.34
   2   2   4   15.25    1.05
   3   2   4    0.47    0.08
   3   2   4    0.52    0.07
   4   2   4   12.49    0.95
   4   2   4   10.59    0.91
   4   2   4   11.22    0.83
   4   2   4   11.85    0.70
   4   2   4   11.90    0.62
   4   2   4   12.02    0.70
   4   2   4   11.08    0.78
   5   2   4    1.06    0.14
   5   2   4    1.09    0.13
   5   2   4    1.11    0.10
   5   2   4    1.06    0.08
   5   2   4    0.97    0.10
   6  -3  -4    5.66    0.39
   6  -3  -4    5.01    0.38
   6  -3  -4    4.63    0.42
   5  -3  -4    1.38    0.12
   5  -3  -4    1.41    0.13
   5  -3  -4    1.13    0.18
   5  -3  -4    1.56    0.14
   5  -3  -4    1.41    0.15
   5  -3  -4    1.59    0.13
   4  -3  -4    0.18    0.06
   4  -3  -4    0.14    0.04
   4  -3  -4    0.11    0.08
   4  -3  -4    0.12    0.05
   4  -3  -4    0.11    0.08
   4  -3  -4    0.12    0.08
   3  -3  -4    0.60    0.10
   3  -3  -4    0.66    0.09
   3  -3  -4    0.69    0.11
  -3   3   4    0.79    0.07
   2  -3  -4    0.49    0.08
  -2   3   4    0.30    0.06
  -2   3   4    0.39    0.11
   1  -3  -4    2.44    0.13
   1  -3  -4    2.26    0.13
   1  -3  -4    2.81    0.23
   1  -3  -4    2.61    0.14
  -1   3   4    2.36    0.12
  -1   3   4    2.46    0.12
  -1   3   4    2.44    0.12
  -1   3   4    2.07    0.23
   0  -3  -4   10.42    0.54
   0  -3  -4   10.00    0.66
   0  -3  -4   10.84    0.59
   0  -3  -4   10.53    0.44
   0  -3  -4   10.68    0.46
   0  -3  -4   10.32    0.52
   0   3   4   11.03    0.47
   0   3   4   10.61    0.46
   0   3   4   10.67    0.46
   0   3   4   10.64    0.46
   0   3   4   10.99    0.44
  -1  -3  -4    1.03    0.08
  -1  -3  -4    0.79    0.07
  -1  -3  -4    0.82    0.07
  -1  -3  -4    0.86    0.08
   1   3   4    0.95    0.07
   1   3   4    0.83    0.14
   1   3   4    0.96    0.05
   1   3   4    0.86    0.08
   1   3   4    0.83    0.06
   2   3   4   19.75    1.67
   2   3   4   19.13    1.03
   3   3   4    8.59    0.66
   3   3   4    9.08    0.50
   3   3   4   10.06    0.56
   3   3   4    8.78    0.62
   4   3   4    6.57    0.46
   4   3   4    6.40    0.36
   4   3   4    7.17    0.41
   4   3   4    6.05    0.53
   5   3   4    0.83    0.09
   5   3   4    0.73    0.09
   5   3   4    0.65    0.06
   5   3   4    0.77    0.09
   5   3   4    0.79    0.09
   5  -4  -4    4.51    0.33
   5  -4  -4    3.97    0.27
   5  -4  -4    3.68    0.36
   5  -4  -4    4.31    0.33
   5  -4  -4    4.25    0.29
   5  -4  -4    4.35    0.29
   4  -4  -4    1.58    0.16
   4  -4  -4    1.51    0.12
   4  -4  -4    1.49    0.16
   4  -4  -4    1.47    0.20
   4  -4  -4    1.76    0.15
   4  -4  -4    1.73    0.13
   3  -4  -4    1.09    0.10
   3  -4  -4    1.30    0.11
   3  -4  -4    1.15    0.14
   3  -4  -4    1.45    0.16
  -3   4   4    1.24    0.11
   2  -4  -4    6.40    0.46
   2  -4  -4    6.01    0.33
   2  -4  -4    6.81    0.41
   2  -4  -4    5.82    0.33
  -2   4   4    5.35    0.36
   1  -4  -4    4.17    0.26
   1  -4  -4    4.97    0.40
   1  -4  -4    4.30    0.25
   1  -4  -4    4.31    0.23
  -1   4   4    4.20    0.21
  -1   4   4    4.30    0.20
  -1   4   4    4.22    0.20
   0  -4  -4   44.55    2.98
   0  -4  -4   47.04    1.99
   0  -4  -4   49.86    2.67
   0  -4  -4   48.67    2.46
   0  -4  -4   48.97    2.10
   0   4   4   50.74    1.99
   0   4   4   50.66    2.10
   0   4   4   49.69    2.12
   0   4   4   48.72    2.10
   0   4   4   48.75    2.12
  -1  -4  -4   43.98    1.72
  -1  -4  -4   42.71    2.44
   1   4   4   37.87    2.59
   1   4   4   35.57    3.05
   1   4   4   39.25    2.08
   2   4   4    0.66    0.08
   2   4   4    0.74    0.10
   3   4   4    2.53    0.23
   3   4   4    2.84    0.20
   3   4   4    2.82    0.16
   3   4   4    2.55    0.25
   3   4   4    2.61    0.21
   4   4   4   19.56    1.33
   4   4   4   21.09    1.19
   4   4   4   20.19    1.43
   4   4   4   19.63    1.57
   4   4   4   20.82    1.07
   5   4   4    0.41    0.06
   5   4   4    0.39    0.05
   5   4   4    0.37    0.07
   5   4   4    0.32    0.04
   5   4   4    0.37    0.04
   5  -5  -4    6.02    0.43
   5  -5  -4    5.96    0.36
   5  -5  -4    5.07    0.48
   5  -5  -4    5.77    0.35
   5  -5  -4    6.26    0.44
  -5   5   4    5.13    0.28
   4  -5  -4   26.23    2.37
   4  -5  -4   33.51    2.17
   4  -5  -4   29.46    1.55
   3  -5  -4    0.60    0.08
   3  -5  -4    0.68    0.09
   3  -5  -4    0.69    0.08
   3  -5  -4    0.73    0.09
   3  -5  -4    0.68    0.09
   3  -5  -4    0.61    0.12
   3  -5  -4    0.74    0.10
   2  -5  -4    0.98    0.09
   2  -5  -4    1.21    0.11
   2  -5  -4    1.08    0.11
  -2   5   4    1.23    0.08
  -2   5   4    1.18    0.11
   1  -5  -4   11.74    0.80
   1  -5  -4   13.35    0.80
   1  -5  -4   13.63    0.81
  -1   5   4   12.73    0.77
  -1   5   4   14.47    0.57
   0  -5  -4    3.81    0.23
   0  -5  -4    3.49    0.28
   0  -5  -4    3.86    0.22
   0  -5  -4    4.27    0.24
   0   5   4    3.86    0.26
   0   5   4    3.98    0.24
   0   5   4    3.76    0.24
   0   5   4    3.57    0.26
   1   5   4   46.71    2.36
   1   5   4   43.10    2.94
   1   5   4   46.53    2.66
   1   5   4   41.42    3.46
   1   5   4   48.53    2.56
   2   5   4   11.58    0.62
   2   5   4   11.91    0.67
   2   5   4   12.10    0.70
   2   5   4   10.47    0.91
   3   5   4    3.09    0.24
   3   5   4    2.80    0.28
   3   5   4    3.20    0.26
   3   5   4    3.31    0.21
   3   5   4    3.22    0.22
   3   5   4    3.15    0.19
   3   5   4    3.28    0.26
   4   5   4    0.19    0.05
   4   5   4    0.14    0.06
   4   5   4    0.16    0.04
   4   5   4    0.19    0.04
   4   5   4    0.20    0.04
   5   5   4    0.07    0.03
   5   5   4    0.04    0.04
   5   5   4    0.05    0.03
   5   5   4    0.04    0.02
   5   5   4    0.08    0.03
   5  -6  -4    1.50    0.15
   5  -6  -4    1.71    0.11
   5  -6  -4    1.57    0.13
  -5   6   4    1.54    0.10
   4  -6  -4    6.16    0.44
   4  -6  -4    6.24    0.36
   4  -6  -4    5.90    0.37
   4  -6  -4    5.91    0.32
   4  -6  -4    5.68    0.37
   4  -6  -4    5.32    0.49
  -4   6   4    5.38    0.29
   3  -6  -4    0.65    0.09
   3  -6  -4    0.71    0.08
   3  -6  -4    0.60    0.09
   3  -6  -4    0.58    0.07
  -3   6   4    0.61    0.06
   2  -6  -4    3.03    0.18
   2  -6  -4    2.95    0.25
   2  -6  -4    3.01    0.21
   2  -6  -4    3.05    0.21
  -2   6   4    2.96    0.16
   1  -6  -4    1.17    0.11
   1  -6  -4    1.02    0.11
  -1   6   4    1.35    0.12
  -1   6   4    1.05    0.13
  -1   6   4    1.07    0.08
  -1   6   4    1.05    0.11
   0  -6  -4    3.31    0.23
   0  -6  -4    2.78    0.21
   0   6   4    3.51    0.21
   0   6   4    3.44    0.21
   0   6   4    3.50    0.23
   0   6   4    3.46    0.18
  -1  -6  -4   22.99    1.33
   1   6   4   22.32    1.29
   1   6   4   23.48    1.18
   1   6   4   22.90    1.32
   1   6   4   19.76    1.73
   1   6   4   23.73    1.31
   1   6   4   23.25    1.18
   1   6   4   20.93    1.47
   2   6   4   12.21    0.70
   2   6   4   11.59    0.68
   2   6   4   11.70    0.78
   2   6   4   11.22    0.83
   2   6   4   11.78    0.62
   2   6   4   10.36    0.91
   2   6   4   11.85    0.62
   2   6   4   12.13    0.70
   3   6   4    0.27    0.07
   3   6   4    0.31    0.07
   3   6   4    0.26    0.05
   4   6   4    0.12    0.04
   4   6   4    0.11    0.04
   4   6   4    0.15    0.04
   4   6   4    0.14    0.04
   4   6   4    0.17    0.04
   4   6   4    0.14    0.03
   4  -7  -4    0.81    0.08
   4  -7  -4    0.77    0.08
   4  -7  -4    0.85    0.10
   4  -7  -4    0.72    0.07
   4  -7  -4    0.81    0.11
  -4   7   4    0.73    0.06
  -4   7   4    0.76    0.07
   3  -7  -4    5.36    0.49
   3  -7  -4    6.17    0.32
   3  -7  -4    4.83    0.35
  -3   7   4    5.67    0.34
  -3   7   4    5.65    0.28
  -3   7   4    6.06    0.34
   2  -7  -4   13.13    0.82
   2  -7  -4   13.50    0.72
   2  -7  -4   13.33    0.81
  -2   7   4   13.74    0.78
  -2   7   4   13.75    0.64
  -2   7   4   13.61    0.80
   1  -7  -4    5.22    0.30
   1  -7  -4    5.34    0.31
   1  -7  -4    5.29    0.34
   1  -7  -4    5.26    0.35
  -1   7   4    5.63    0.27
  -1   7   4    5.25    0.30
  -1   7   4    5.38    0.34
  -1   7   4    5.27    0.33
   0  -7  -4    1.83    0.16
   0  -7  -4    1.84    0.16
   0   7   4    1.79    0.14
   0   7   4    1.81    0.15
   0   7   4    2.30    0.16
   0   7   4    1.85    0.13
   0   7   4    1.41    0.12
   1   7   4    5.31    0.30
   1   7   4    5.31    0.33
   1   7   4    5.13    0.33
   1   7   4    5.61    0.30
   1   7   4    5.36    0.33
   2   7   4   11.59    0.69
   2   7   4   12.11    0.69
   2   7   4   11.26    0.67
   2   7   4   10.57    0.82
   2   7   4   12.02    0.62
   3   7   4    0.26    0.05
   3   7   4    0.23    0.05
   3   7   4    0.15    0.04
   3   7   4    0.19    0.04
   3   7   4    0.21    0.03
   3   7   4    0.20    0.05
   3   7   4    0.15    0.04
   4   7   4    0.06    0.03
   4   7   4   -0.02    0.03
   4   7   4    0.03    0.03
   4   7   4    0.05    0.03
   4   7   4    0.01    0.02
   4  -8  -4    5.57    0.37
   4  -8  -4    6.44    0.37
   4  -8  -4    5.26    0.36
   4  -8  -4    6.46    0.32
  -4   8   4    6.27    0.29
   3  -8  -4    0.21    0.04
   3  -8  -4    0.43    0.07
   3  -8  -4    0.35    0.07
  -3   8   4    0.31    0.04
  -3   8   4    0.33    0.04
  -3   8   4    0.23    0.06
   2  -8  -4    9.00    0.55
   2  -8  -4    9.27    0.54
   2  -8  -4    9.01    0.48
  -2   8   4    8.57    0.53
  -2   8   4    8.99    0.52
  -2   8   4    9.27    0.43
  -2   8   4    7.95    0.47
   1  -8  -4    5.71    0.34
   1  -8  -4    6.16    0.39
  -1   8   4    6.43    0.31
  -1   8   4    6.07    0.34
  -1   8   4    6.66    0.37
   0   8   4    6.15    0.39
   0   8   4    6.50    0.36
   0   8   4    6.51    0.38
   1   8   4    4.83    0.28
   1   8   4    5.02    0.30
   1   8   4    4.74    0.31
  -2  -8  -4    0.35    0.08
   2   8   4    0.57    0.05
   2   8   4    0.56    0.08
   2   8   4    0.38    0.07
   2   8   4    0.69    0.06
   2   8   4    0.57    0.07
   2   8   4    0.48    0.09
   2   8   4    0.49    0.06
   3   8   4    3.15    0.21
   3   8   4    2.78    0.21
   3   8   4    2.81    0.23
   3   8   4    2.91    0.24
   3   8   4    3.26    0.17
   3  -9  -4    0.06    0.02
   3  -9  -4    0.05    0.03
   3  -9  -4    0.16    0.04
   3  -9  -4    0.03    0.03
  -3   9   4    0.06    0.03
  -3   9   4    0.10    0.02
  -3   9   4    0.11    0.02
   2  -9  -4    1.04    0.09
   2  -9  -4    0.84    0.06
   2  -9  -4    0.65    0.08
  -2   9   4    0.84    0.08
  -2   9   4    0.90    0.07
  -2   9   4    1.03    0.07
  -2   9   4    0.81    0.07
   1  -9  -4    0.21    0.08
   1  -9  -4    0.46    0.06
   1  -9  -4    0.26    0.05
  -1   9   4    0.34    0.05
  -1   9   4    0.36    0.05
  -1   9   4    0.41    0.04
  -1   9   4    0.36    0.05
   0  -9  -4    0.72    0.08
   0  -9  -4    0.70    0.09
   0   9   4    0.54    0.07
   0   9   4    0.68    0.07
   0   9   4    0.65    0.07
   0   9   4    0.54    0.08
  -1  -9  -4    3.35    0.18
  -1  -9  -4    3.37    0.21
   1   9   4    3.23    0.21
   1   9   4    3.39    0.18
   1   9   4    2.73    0.24
   1   9   4    3.11    0.20
  -2  -9  -4    3.16    0.17
   2   9   4    3.25    0.19
   2   9   4    3.12    0.17
   2   9   4    2.90    0.21
   2   9   4    2.62    0.23
  -2  10   4    1.39    0.07
  -2  10   4    1.08    0.08
   1 -10  -4    7.59    0.42
   1 -10  -4    6.45    0.37
   0 -10  -4    0.87    0.06
   0 -10  -4    0.69    0.07
   0  10   4    0.66    0.07
   0  10   4    0.65    0.05
   0  10   4    0.59    0.06
  -1 -10  -4    2.36    0.14
   1  10   4    2.31    0.15
   1  10   4    2.54    0.17
   1  10   4    2.48    0.14
   0 -12   5    0.35    0.04
   0 -12   5    0.39    0.05
  -1  12  -5    3.54    0.21
   2  11  -5    0.19    0.04
   2  11  -5    0.18    0.05
   2  11  -5    0.31    0.06
   2  11  -5    0.33    0.03
  -2 -11   5    0.28    0.03
  -2 -11   5    0.28    0.03
   1  11  -5    0.96    0.08
   1  11  -5    0.78    0.06
   1  11  -5    0.81    0.08
  -1 -11   5    0.93    0.06
  -1 -11   5    0.98    0.07
  -1 -11   5    0.95    0.07
   0  11  -5    2.87    0.19
   0  11  -5    3.00    0.18
   0  11  -5    3.01    0.19
   0 -11   5    3.29    0.16
   0 -11   5    3.30    0.18
   0 -11   5    3.14    0.18
  -1  11  -5    1.27    0.10
  -1  11  -5    1.53    0.09
  -1  11  -5    1.40    0.10
   1 -11   5    1.32    0.11
   1 -11   5    1.57    0.10
   1 -11   5    1.46    0.08
   1 -11   5    1.30    0.11
  -2  11  -5    0.64    0.06
  -2  11  -5    0.49    0.06
  -2  11  -5    0.68    0.05
   2 -11   5    0.68    0.07
   2 -11   5    0.56    0.05
   2 -11   5    0.62    0.06
  -3  11  -5    0.33    0.04
   3 -11   5    0.45    0.05
   3 -11   5    0.37    0.05
   3  10  -5    2.21    0.19
   3  10  -5    2.43    0.15
   3  10  -5    2.55    0.17
  -3 -10   5    2.53    0.14
  -3 -10   5    2.33    0.12
   2  10  -5    8.01    0.44
   2  10  -5    7.25    0.52
   2  10  -5    7.40    0.43
   2  10  -5    7.05    0.57
   2  10  -5    8.14    0.41
  -2 -10   5    7.91    0.41
  -2 -10   5    7.77    0.36
  -2 -10   5    7.13    0.40
   1  10  -5   25.55    1.43
   1  10  -5   22.60    1.67
   1  10  -5   25.47    1.39
   1  10  -5   26.10    1.32
  -1 -10   5   26.74    1.35
  -1 -10   5   25.12    1.32
  -1 -10   5   25.07    1.18
   0  10  -5   12.08    0.80
   0  10  -5   10.85    0.68
   0  10  -5   13.84    0.56
   0  10  -5   10.88    0.62
   0 -10   5   11.16    0.63
   0 -10   5   11.96    0.56
  -1  10  -5    1.87    0.14
  -1  10  -5    1.97    0.14
  -1  10  -5    2.14    0.11
   1 -10   5    1.87    0.14
   1 -10   5    2.24    0.14
   1 -10   5    1.90    0.15
   1 -10   5    1.98    0.13
   1 -10   5    2.11    0.11
  -2  10  -5    0.11    0.03
  -2  10  -5    0.19    0.05
  -2  10  -5    0.10    0.04
   2 -10   5    0.15    0.03
   2 -10   5    0.16    0.04
   2 -10   5    0.18    0.06
  -3  10  -5    1.87    0.13
  -3  10  -5    1.97    0.11
   3 -10   5    2.05    0.12
   3 -10   5    2.03    0.12
   3 -10   5    1.96    0.15
   3 -10   5    2.07    0.14
   4   9  -5   11.18    0.67
   4   9  -5    9.19    0.74
   4   9  -5    9.86    0.70
   3   9  -5    1.10    0.09
   3   9  -5    1.13    0.10
   3   9  -5    1.02    0.07
   3   9  -5    0.96    0.09
   3   9  -5    0.90    0.09
   3   9  -5    0.93    0.08
   3   9  -5    0.93    0.12
   2   9  -5    3.08    0.21
   2   9  -5    3.28    0.18
   2   9  -5    3.67    0.28
   2   9  -5    3.41    0.22
   2   9  -5    2.79    0.24
  -2  -9   5    2.99    0.16
  -2  -9   5    2.92    0.18
   1   9  -5    3.54    0.23
   1   9  -5    3.81    0.23
   1   9  -5    3.48    0.21
   1   9  -5    3.38    0.22
  -1  -9   5    3.44    0.20
  -1  -9   5    3.45    0.18
   0   9  -5    0.44    0.06
   0   9  -5    0.42    0.06
   0   9  -5    0.60    0.07
   0  -9   5    0.56    0.06
   0  -9   5    0.54    0.06
   0  -9   5    0.50    0.06
  -1   9  -5    0.02    0.04
  -1   9  -5    0.02    0.05
  -1   9  -5    0.02    0.03
  -1   9  -5    0.07    0.04
   1  -9   5    0.04    0.03
   1  -9   5    0.05    0.04
   1  -9   5    0.02    0.02
  -2   9  -5    0.75    0.06
  -2   9  -5    0.79    0.08
   2  -9   5    0.82    0.08
   2  -9   5    0.86    0.09
  -3   9  -5    0.73    0.07
  -3   9  -5    0.69    0.07
   3  -9   5    0.79    0.09
   3  -9   5    0.67    0.07
   3  -9   5    0.68    0.08
  -4   9  -5    4.66    0.22
  -4   9  -5    4.43    0.26
   4  -9   5    4.24    0.28
   4  -9   5    4.46    0.28
   4  -9   5    4.89    0.24
   4  -9   5    4.71    0.28
   4  -9   5    4.13    0.25
   4   8  -5    2.56    0.20
   4   8  -5    2.94    0.22
   4   8  -5    2.37    0.22
   4   8  -5    2.91    0.18
   4   8  -5    2.30    0.19
  -4  -8   5    2.35    0.16
   3   8  -5    0.52    0.08
   3   8  -5    0.32    0.06
   3   8  -5    0.30    0.05
   3   8  -5    0.26    0.05
   3   8  -5    0.43    0.05
   3   8  -5    0.25    0.08
  -3  -8   5    0.46    0.05
   2   8  -5    1.78    0.13
   2   8  -5    1.40    0.14
   2   8  -5    1.80    0.12
   2   8  -5    1.95    0.15
   1   8  -5    1.89    0.19
   1   8  -5    2.06    0.15
   1   8  -5    1.69    0.14
   1   8  -5    1.66    0.14
   1   8  -5    1.92    0.15
   1   8  -5    1.76    0.13
   0   8  -5   12.95    0.68
   0   8  -5   12.81    0.58
   0   8  -5   12.06    0.64
   0   8  -5   10.94    0.72
   0  -8   5   12.64    0.64
   0  -8   5   11.27    0.73
  -1   8  -5    1.63    0.11
  -1   8  -5    1.64    0.13
  -1   8  -5    1.75    0.13
  -1   8  -5    1.71    0.14
   1  -8   5    1.73    0.14
   1  -8   5    1.59    0.10
   1  -8   5    1.78    0.12
   1  -8   5    1.71    0.12
  -2   8  -5    0.48    0.07
  -2   8  -5    0.53    0.06
   2  -8   5    0.61    0.09
   2  -8   5    0.54    0.10
   2  -8   5    0.56    0.06
   2  -8   5    0.50    0.08
   2  -8   5    0.60    0.07
  -3   8  -5    8.40    0.43
   3  -8   5    8.98    0.54
   3  -8   5    9.19    0.68
   3  -8   5    9.40    0.49
   3  -8   5    8.87    0.48
  -4   8  -5    6.31    0.32
  -4   8  -5    6.19    0.37
   4  -8   5    6.26    0.36
   4  -8   5    6.80    0.50
   4  -8   5    6.78    0.40
   4  -8   5    6.85    0.55
   4  -8   5    6.94    0.40
   4  -8   5    6.84    0.35
   4  -8   5    5.99    0.40
   5  -8   5    0.79    0.07
   5   7  -5    0.46    0.06
   5   7  -5    0.50    0.05
   5   7  -5    0.66    0.07
   4   7  -5    0.03    0.03
   4   7  -5    0.02    0.03
   4   7  -5    0.01    0.03
   4   7  -5    0.00    0.04
   4   7  -5    0.00    0.04
  -4  -7   5   -0.04    0.04
   3   7  -5    0.03    0.04
   3   7  -5   -0.04    0.07
   3   7  -5    0.02    0.04
   3   7  -5   -0.03    0.04
   3   7  -5    0.12    0.07
   3   7  -5    0.02    0.03
   3   7  -5    0.04    0.04
   2   7  -5    4.54    0.38
   2   7  -5    4.53    0.26
   2   7  -5    4.35    0.29
   2   7  -5    4.60    0.28
   2   7  -5    4.83    0.32
   1   7  -5    1.49    0.14
   1   7  -5    1.73    0.11
   1   7  -5    1.73    0.19
   1   7  -5    1.72    0.15
   1   7  -5    1.58    0.12
   0   7  -5    0.62    0.09
   0   7  -5    0.46    0.06
   0   7  -5    0.57    0.08
   0  -7   5    0.80    0.12
   0  -7   5    0.62    0.07
   0  -7   5    0.65    0.07
   1  -7   5    0.14    0.05
   1  -7   5    0.11    0.04
  -2   7  -5    5.78    0.37
  -2   7  -5    5.90    0.30
   2  -7   5    6.50    0.34
   2  -7   5    6.17    0.33
  -3   7  -5    6.06    0.32
   3  -7   5    6.89    0.51
   3  -7   5    7.08    0.37
   3  -7   5    6.47    0.36
   3  -7   5    6.35    0.41
  -4   7  -5    1.02    0.08
  -4   7  -5    1.03    0.09
   4  -7   5    0.74    0.11
   4  -7   5    1.23    0.11
   4  -7   5    1.11    0.12
   4  -7   5    0.90    0.10
   4  -7   5    1.08    0.16
   4  -7   5    1.14    0.09
   4  -7   5    1.13    0.10
   5  -7   5    5.27    0.39
   5  -7   5    5.36    0.42
   5  -7   5    4.80    0.31
   5  -7   5    4.61    0.31
   5   6  -5    0.56    0.06
   5   6  -5    0.47    0.06
   5   6  -5    0.51    0.09
   5   6  -5    0.50    0.06
   5   6  -5    0.48    0.07
   4   6  -5    0.02    0.05
   4   6  -5    0.08    0.08
   4   6  -5    0.01    0.03
   4   6  -5    0.01    0.04
   4   6  -5    0.04    0.05
   3   6  -5    0.07    0.06
   3   6  -5    0.14    0.07
   3   6  -5    0.09    0.06
   3   6  -5    0.17    0.07
   3   6  -5    0.23    0.06
   3   6  -5    0.20    0.05
   3   6  -5    0.12    0.06
   3   6  -5    0.15    0.04
  -3  -6   5    0.21    0.06
   2   6  -5    0.43    0.07
   2   6  -5    0.51    0.07
   2   6  -5    0.69    0.08
   1   6  -5    6.10    0.29
   1   6  -5    5.45    0.42
   1   6  -5    5.88    0.31
   1   6  -5    5.85    0.37
  -1  -6   5    5.20    0.33
  -1  -6   5    5.86    0.33
   0   6  -5   51.42    2.02
   0   6  -5   42.04    2.68
   0   6  -5   47.82    1.91
   0  -6   5   50.16    3.94
   0  -6   5   41.67    4.61
  -1   6  -5    0.24    0.06
  -1   6  -5    0.15    0.06
  -1   6  -5    0.16    0.05
  -1   6  -5    0.12    0.04
  -1   6  -5    0.17    0.06
   1  -6   5    0.08    0.06
   1  -6   5    0.17    0.06
  -2   6  -5   69.45    3.23
  -2   6  -5   65.91    3.92
   2  -6   5   70.83    4.05
   2  -6   5   66.01    5.51
   2  -6   5   67.11    4.10
   2  -6   5   79.35    5.14
   3  -6   5    6.16    0.33
   3  -6   5    6.17    0.38
   3  -6   5    5.74    0.39
   3  -6   5    6.01    0.51
   4  -6   5   10.37    0.56
   4  -6   5    9.95    0.83
   4  -6   5   10.27    0.55
   4  -6   5   10.52    0.77
   4  -6   5   10.08    0.54
   4  -6   5   10.04    0.61
   4  -6   5   10.41    0.62
   4  -6   5    9.71    0.62
   5  -6   5    1.12    0.10
   5  -6   5    0.97    0.09
   5  -6   5    1.12    0.13
   5  -6   5    0.99    0.09
   5   5  -5    1.63    0.15
   5   5  -5    1.88    0.16
   5   5  -5    1.95    0.13
   5   5  -5    1.74    0.14
   5   5  -5    1.53    0.17
   5   5  -5    1.64    0.14
   4   5  -5    4.90    0.35
   4   5  -5    4.82    0.29
   4   5  -5    4.69    0.40
   4   5  -5    4.67    0.39
   4   5  -5    4.61    0.39
   4   5  -5    4.68    0.36
   4   5  -5    5.20    0.34
   3   5  -5   26.93    1.43
   3   5  -5   27.51    1.47
   3   5  -5   24.23    1.90
   3   5  -5   26.24    1.69
   3   5  -5   25.16    1.72
   3   5  -5   24.93    1.99
   2   5  -5    0.15    0.04
   2   5  -5    0.19    0.07
   2   5  -5    0.17    0.07
   2   5  -5    0.23    0.06
   1   5  -5   10.04    0.49
   1   5  -5    8.52    0.42
   1   5  -5    9.34    0.41
   1   5  -5    9.87    0.53
  -1  -5   5    8.27    0.59
  -1  -5   5    8.20    0.51
   0   5  -5    0.36    0.04
   0   5  -5    0.38    0.06
   0   5  -5    0.39    0.04
   0   5  -5    0.40    0.05
   0   5  -5    0.39    0.04
   0  -5   5    0.31    0.05
   0  -5   5    0.40    0.06
   0  -5   5    0.27    0.06
  -1   5  -5   90.99    3.60
  -1   5  -5   84.89    5.41
  -1   5  -5   90.57    3.80
  -1   5  -5   88.71    3.85
  -1   5  -5   82.55    7.46
   1  -5   5   98.50    7.62
   1  -5   5   85.77    4.58
   1  -5   5   83.29    5.72
   1  -5   5   87.11    6.53
   1  -5   5   95.08    4.84
  -2   5  -5    2.60    0.16
   2  -5   5    2.32    0.18
  -3   5  -5    7.45    0.37
   3  -5   5    6.78    0.57
   3  -5   5    7.45    0.47
   3  -5   5    8.74    0.42
   4  -5   5    3.66    0.26
   4  -5   5    3.47    0.26
   4  -5   5    4.48    0.31
   4  -5   5    3.67    0.34
   4  -5   5    3.96    0.24
   4  -5   5    3.82    0.25
   5  -5   5    1.26    0.16
   5  -5   5    1.35    0.11
   5  -5   5    1.31    0.13
   5  -5   5    1.43    0.13
   5   4  -5    0.62    0.09
   5   4  -5    0.55    0.11
   5   4  -5    0.73    0.08
   5   4  -5    0.54    0.08
   5   4  -5    0.73    0.08
   4   4  -5   38.37    2.88
   4   4  -5   38.10    2.62
   4   4  -5   39.13    2.07
   4   4  -5   36.54    2.75
   4   4  -5   37.45    2.79
   4   4  -5   33.86    2.49
   4   4  -5   39.99    2.45
   3   4  -5   23.81    1.22
   3   4  -5   22.82    1.29
   3   4  -5   24.08    1.55
   3   4  -5   24.14    1.53
   3   4  -5   22.79    1.63
   3   4  -5   22.34    1.71
   3   4  -5   23.42    1.80
   2   4  -5    3.78    0.18
   2   4  -5    3.43    0.16
  -2  -4   5    3.04    0.16
  -2  -4   5    3.12    0.21
   1   4  -5   16.06    0.66
   1   4  -5   15.47    0.70
   1   4  -5   17.47    0.70
  -1  -4   5   15.39    0.89
   0   4  -5   35.90    1.43
   0   4  -5   34.86    1.43
   0   4  -5   36.89    1.52
   0  -4   5   32.92    2.96
   0  -4   5   35.31    2.27
  -1   4  -5   29.34    1.29
  -1   4  -5   29.03    1.28
  -1   4  -5   29.30    1.21
   1  -4   5   28.53    2.93
   1  -4   5   32.13    2.55
   1  -4   5   28.34    1.92
   1  -4   5   31.13    1.63
  -2   4  -5  150.75    6.12
  -2   4  -5  148.54    5.81
  -2   4  -5  139.33    6.21
   2  -4   5  132.01    8.38
   2  -4   5  145.84    7.81
   3  -4   5    1.26    0.17
   4  -4   5    4.91    0.30
   4  -4   5    4.97    0.44
   4  -4   5    4.91    0.33
   4  -4   5    5.81    0.41
   4  -4   5    5.11    0.33
   5  -4   5    2.09    0.17
   5  -4   5    1.55    0.13
   5  -4   5    1.76    0.14
   5  -4   5    2.12    0.19
   5  -4   5    1.88    0.14
   6  -4   5   -0.01    0.03
   6  -4   5    0.03    0.03
   6  -4   5    0.05    0.03
   6   3  -5    4.23    0.28
   6   3  -5    3.99    0.31
   5   3  -5    0.02    0.03
   5   3  -5   -0.02    0.06
   5   3  -5   -0.02    0.03
   5   3  -5    0.04    0.04
   4   3  -5    1.91    0.15
   4   3  -5    1.74    0.18
   4   3  -5    1.74    0.19
   4   3  -5    1.73    0.18
   4   3  -5    1.68    0.15
   4   3  -5    1.71    0.15
   4   3  -5    1.86    0.18
   3   3  -5   33.19    2.17
   3   3  -5   33.60    2.44
   2   3  -5    1.88    0.13
   2   3  -5    1.99    0.11
   2   3  -5    1.92    0.11
   2   3  -5    2.04    0.12
   2   3  -5    2.22    0.10
  -2  -3   5    1.82    0.10
  -2  -3   5    2.03    0.12
  -2  -3   5    1.70    0.12
   1   3  -5    2.44    0.11
   1   3  -5    2.64    0.12
   1   3  -5    2.76    0.16
   1   3  -5    2.30    0.12
  -1  -3   5    2.07    0.14
   0   3  -5    1.33    0.07
   0   3  -5    1.37    0.07
   0   3  -5    1.38    0.07
   0   3  -5    1.35    0.07
   0  -3   5    1.36    0.10
   0  -3   5    1.14    0.12
   0  -3   5    1.48    0.13
  -1   3  -5  154.52    8.02
  -1   3  -5  154.94    6.89
  -1   3  -5  153.48    6.99
  -1   3  -5  155.02    6.54
   1  -3   5  182.39   15.92
   1  -3   5  149.39   13.86
   1  -3   5  180.77   13.57
  -2   3  -5    4.43    0.26
  -2   3  -5    4.76    0.22
  -2   3  -5    4.83    0.21
  -2   3  -5    4.82    0.21
  -2   3  -5    5.03    0.20
   2  -3   5    4.56    0.27
   2  -3   5    4.81    0.25
   2  -3   5    4.08    0.41
   3  -3   5    0.02    0.08
   3  -3   5    0.01    0.05
   4  -3   5    4.50    0.28
   4  -3   5    4.42    0.28
   4  -3   5    4.29    0.29
   4  -3   5    4.31    0.39
   5  -3   5    1.56    0.13
   5  -3   5    1.43    0.11
   5  -3   5    1.45    0.17
   6  -3   5    2.12    0.17
   6  -3   5    1.54    0.16
   6  -3   5    2.00    0.13
   6   2  -5    0.03    0.04
   6   2  -5   -0.01    0.03
   6   2  -5    0.01    0.03
   6   2  -5    0.02    0.03
   5   2  -5    0.50    0.09
   5   2  -5    0.59    0.07
   5   2  -5    0.54    0.08
   4   2  -5   15.17    1.13
   4   2  -5   14.46    1.15
   4   2  -5   16.04    1.08
   4   2  -5   15.44    1.03
   3   2  -5    5.39    0.41
  -3  -2   5    6.04    0.27
   2   2  -5   98.32    4.56
   2   2  -5   99.72    4.03
   2   2  -5   94.41    3.82
   2   2  -5   90.82    5.74
   2   2  -5   91.56    4.03
   2   2  -5   97.22    4.07
  -2  -2   5   92.85    5.13
  -2  -2   5   91.21    5.14
  -2  -2   5   92.48    4.06
   1   2  -5    8.71    0.48
   1   2  -5    7.78    0.32
   1   2  -5    7.69    0.34
  -1  -2   5    7.05    0.43
   0   2  -5  101.34    4.38
   0   2  -5  104.87    4.32
   0   2  -5  103.37    5.03
   0   2  -5  104.64    4.10
   0   2  -5  105.65    5.52
   0  -2   5   99.77    4.10
   0  -2   5   89.50    8.51
   0  -2   5   99.83    4.40
   0  -2   5  101.63    4.39
  -1   2  -5   29.93    1.75
  -1   2  -5   35.37    1.43
  -1   2  -5   34.37    1.50
  -1   2  -5   34.42    1.52
  -1   2  -5   35.89    1.53
   1  -2   5   36.82    3.46
   1  -2   5   39.07    3.02
  -2   2  -5    2.10    0.11
  -2   2  -5    2.19    0.13
  -2   2  -5    2.19    0.10
  -2   2  -5    2.22    0.10
  -2   2  -5    2.24    0.10
  -2   2  -5    2.15    0.11
   2  -2   5    1.94    0.20
   2  -2   5    2.21    0.12
   2  -2   5    2.06    0.14
  -3   2  -5    5.35    0.33
  -3   2  -5    4.99    0.31
   3  -2   5    5.36    0.32
   3  -2   5    5.99    0.41
   4  -2   5    1.06    0.13
   4  -2   5    1.26    0.12
   4  -2   5    0.89    0.09
   4  -2   5    0.89    0.12
   4  -2   5    0.83    0.13
   5  -2   5    0.12    0.04
   5  -2   5    0.10    0.05
   5  -2   5    0.14    0.04
   5  -2   5    0.17    0.05
   6  -2   5    2.01    0.14
   6  -2   5    2.40    0.20
   6   1  -5    0.66    0.07
   6   1  -5    0.60    0.07
   6   1  -5    0.60    0.06
   6   1  -5    0.68    0.08
   5   1  -5    0.91    0.11
   5   1  -5    1.18    0.10
   5   1  -5    1.09    0.11
   5   1  -5    0.84    0.15
   4   1  -5   15.96    1.05
   4   1  -5   15.71    1.10
   4   1  -5   13.26    1.21
   4   1  -5   14.31    1.12
   4   1  -5   14.90    1.00
   3   1  -5   31.72    1.90
  -3  -1   5   32.74    1.98
   2   1  -5   53.63    3.50
   2   1  -5   60.37    2.45
   2   1  -5   56.84    2.77
  -2  -1   5   57.02    3.12
  -2  -1   5   54.80    2.84
  -2  -1   5   57.52    4.93
  -2  -1   5   61.13    3.49
   1   1  -5   14.67    0.59
   1   1  -5   14.14    0.75
   1   1  -5   14.02    0.84
  -1  -1   5   13.51    0.75
  -1  -1   5   12.60    0.75
  -1  -1   5   13.43    0.68
   0   1  -5    5.59    0.26
   0   1  -5    5.24    0.23
   0   1  -5    5.14    0.22
   0   1  -5    5.00    0.23
   0   1  -5    5.03    0.29
   0  -1   5    5.52    0.23
   0  -1   5    5.02    0.23
   0  -1   5    5.06    0.26
   0  -1   5    4.87    0.29
   0  -1   5    5.16    0.22
  -1   1  -5    0.60    0.04
  -1   1  -5    0.62    0.04
  -1   1  -5    0.74    0.07
  -1   1  -5    0.69    0.04
   1  -1   5    0.68    0.04
   1  -1   5    0.70    0.08
   1  -1   5    0.73    0.04
   1  -1   5    0.63    0.08
  -2   1  -5    0.19    0.02
  -2   1  -5    0.27    0.03
  -2   1  -5    0.22    0.04
  -2   1  -5    0.18    0.02
  -2   1  -5    0.19    0.03
  -2   1  -5    0.20    0.02
   2  -1   5    0.18    0.04
   2  -1   5    0.23    0.03
   2  -1   5    0.19    0.02
  -3   1  -5    3.18    0.14
  -3   1  -5    3.28    0.21
  -3   1  -5    3.29    0.14
   3  -1   5    3.27    0.28
   3  -1   5    3.16    0.21
   3  -1   5    3.53    0.30
   3  -1   5    3.43    0.20
   4  -1   5    0.09    0.04
   4  -1   5    0.15    0.05
   4  -1   5    0.20    0.06
   4  -1   5    0.19    0.06
   5  -1   5    0.09    0.08
   5  -1   5    0.12    0.08
   5  -1   5    0.11    0.04
   5  -1   5    0.13    0.05
   6  -1   5   23.43    1.54
   6  -1   5   29.69    2.11
   6   0  -5    1.97    0.16
   6   0  -5    2.20    0.17
   6   0  -5    1.93    0.17
   5   0  -5    0.07    0.04
   5   0  -5    0.06    0.04
   5   0  -5    0.00    0.05
   5   0  -5    0.04    0.04
   4   0  -5   35.93    2.00
   4   0  -5   33.52    2.72
   4   0  -5   40.63    2.55
   4   0  -5   32.64    2.42
   4   0  -5   42.02    2.81
   4   0  -5   35.58    2.67
   4   0  -5   36.02    2.15
   3   0  -5    1.28    0.15
   3   0  -5    1.26    0.18
   3   0  -5    1.33    0.10
  -3   0   5    1.27    0.16
   2   0  -5  181.71   11.28
   2   0  -5  191.34    7.91
  -2   0   5  191.41   11.27
  -2   0   5  178.73   10.09
  -2   0   5  181.49    9.35
  -2   0   5  187.06   15.89
   1   0  -5    1.37    0.09
   1   0  -5    1.42    0.07
  -1   0   5    1.51    0.09
  -1   0   5    1.50    0.07
  -1   0   5    1.48    0.08
  -1   0   5    1.44    0.08
   0   0  -5    0.29    0.02
   0   0  -5    0.30    0.02
   0   0  -5    0.24    0.02
   0   0  -5    0.30    0.03
   0   0   5    0.30    0.02
   0   0   5    0.26    0.02
   0   0   5    0.29    0.03
   0   0   5    0.28    0.02
   0   0   5    0.28    0.02
   0   0   5    0.29    0.02
  -1   0  -5    0.86    0.04
  -1   0  -5    0.79    0.04
  -1   0  -5    0.80    0.04
  -1   0  -5    0.78    0.04
   1   0   5    0.81    0.10
   1   0   5    0.79    0.08
   1   0   5    0.80    0.05
  -2   0  -5   15.72    1.28
  -2   0  -5   15.21    0.64
  -2   0  -5   14.88    0.60
  -2   0  -5   14.38    0.64
  -2   0  -5   15.78    0.64
   2   0   5   12.44    1.28
  -3   0  -5   12.37    0.79
  -3   0  -5   13.53    0.70
  -3   0  -5   13.64    1.09
   3   0   5   10.93    0.97
   3   0   5   12.69    0.68
   3   0   5   11.20    0.73
   4   0   5    9.39    0.55
   4   0   5    9.27    0.49
   4   0   5    8.27    0.71
   4   0   5    9.15    0.55
   5   0   5    0.48    0.09
   5   0   5    0.42    0.08
   5   0   5    0.43    0.07
   5   0   5    0.48    0.07
   6   0   5    0.07    0.04
   6  -1  -5    0.33    0.04
   6  -1  -5    0.23    0.04
   6  -1  -5    0.28    0.06
   6  -1  -5    0.31    0.05
   5  -1  -5   19.19    1.39
   5  -1  -5   20.07    1.32
   5  -1  -5   18.82    1.25
   5  -1  -5   17.29    1.41
   4  -1  -5   23.18    1.37
   4  -1  -5   24.86    1.69
   4  -1  -5   20.90    1.20
   4  -1  -5   21.34    1.85
   4  -1  -5   22.15    1.72
   4  -1  -5   25.47    1.53
   3  -1  -5   46.76    2.43
   3  -1  -5   49.57    2.02
   3  -1  -5   45.10    3.47
  -3   1   5   46.28    2.18
  -2   1   5    0.13    0.04
   1  -1  -5   12.49    0.65
   1  -1  -5   11.39    0.57
   1  -1  -5   12.58    0.65
  -1   1   5   11.63    0.52
  -1   1   5   10.99    0.65
  -1   1   5   11.58    1.02
  -1   1   5   11.72    0.48
   0  -1  -5   59.16    3.17
   0  -1  -5   56.72    2.51
   0  -1  -5   57.49    2.36
   0  -1  -5   59.16    2.81
   0  -1  -5   57.05    3.17
   0  -1  -5   56.35    2.49
   0   1   5   57.41    2.53
   0   1   5   56.83    2.51
   0   1   5   57.24    2.89
   0   1   5   57.23    2.36
   0   1   5   65.13    4.89
  -1  -1  -5    7.34    0.33
  -1  -1  -5    7.42    0.31
  -1  -1  -5    7.27    0.33
  -1  -1  -5    7.72    0.47
   1   1   5    7.24    0.64
   1   1   5    8.50    0.49
   1   1   5    6.69    0.75
   1   1   5    7.65    0.33
  -2  -1  -5    9.37    0.59
  -2  -1  -5    9.11    0.39
  -2  -1  -5    9.73    0.41
  -2  -1  -5    9.17    0.41
   2   1   5    9.56    0.62
   3   1   5   -0.06    0.08
   3   1   5   -0.07    0.06
   3   1   5   -0.06    0.06
   4   1   5    0.10    0.06
   4   1   5    0.08    0.07
   4   1   5    0.06    0.04
   4   1   5    0.09    0.04
   4   1   5    0.02    0.04
   4   1   5    0.05    0.08
   4   1   5    0.07    0.06
   5   1   5    2.16    0.18
   5   1   5    2.13    0.15
   5   1   5    2.20    0.15
   5   1   5    2.04    0.14
   5   1   5    2.39    0.21
   5   1   5    2.01    0.20
   6  -2  -5    0.37    0.05
   6  -2  -5    0.36    0.05
   6  -2  -5    0.49    0.05
   5  -2  -5    0.08    0.04
   5  -2  -5    0.06    0.08
   5  -2  -5    0.15    0.06
   5  -2  -5    0.14    0.05
   5  -2  -5    0.21    0.05
   4  -2  -5    0.97    0.12
   4  -2  -5    1.17    0.12
   4  -2  -5    1.32    0.11
   4  -2  -5    1.13    0.13
   4  -2  -5    1.18    0.12
   4  -2  -5    1.27    0.11
   4  -2  -5    1.04    0.15
   3  -2  -5   36.13    2.19
   3  -2  -5   29.60    1.86
   3  -2  -5   29.47    2.34
  -3   2   5   30.83    1.47
   2  -2  -5   33.75    1.75
  -2   2   5   33.74    2.91
   1  -2  -5   45.14    1.90
   1  -2  -5   51.92    2.55
   1  -2  -5   45.72    2.55
   1  -2  -5   51.06    4.01
   1  -2  -5   44.44    2.02
  -1   2   5   42.18    4.01
  -1   2   5   47.06    1.90
  -1   2   5   45.77    2.03
   0  -2  -5    7.23    0.42
   0  -2  -5    7.30    0.34
   0  -2  -5    7.79    0.42
   0  -2  -5    7.47    0.34
   0  -2  -5    7.29    0.37
   0  -2  -5    7.54    0.32
   0   2   5    8.05    0.66
   0   2   5    7.61    0.33
   0   2   5    7.52    0.32
   0   2   5    7.58    0.33
   0   2   5    7.62    0.33
   0   2   5    8.21    0.34
  -1  -2  -5    9.61    0.42
  -1  -2  -5    9.21    0.42
  -1  -2  -5    9.76    0.40
  -1  -2  -5    9.83    0.60
  -1  -2  -5    8.86    0.47
   1   2   5    9.90    0.63
   1   2   5    9.55    0.42
   1   2   5   10.25    0.40
   1   2   5    9.06    0.82
  -2  -2  -5    4.60    0.31
   2   2   5    4.80    0.32
   2   2   5    4.38    0.34
   3   2   5    1.26    0.13
   3   2   5    1.17    0.16
   3   2   5    1.15    0.11
   3   2   5    1.22    0.13
   3   2   5    1.38    0.10
   4   2   5    1.63    0.14
   4   2   5    1.56    0.14
   4   2   5    1.67    0.11
   4   2   5    1.70    0.15
   4   2   5    1.53    0.18
   5   2   5    9.38    0.65
   5   2   5    9.52    0.52
   5   2   5   10.01    0.58
   5   2   5   10.15    0.58
   5   2   5    9.29    0.76
   6  -3  -5    0.27    0.04
   6  -3  -5    0.16    0.05
   6  -3  -5    0.28    0.04
   5  -3  -5    2.32    0.19
   5  -3  -5    2.25    0.17
   5  -3  -5    2.43    0.19
   5  -3  -5    1.96    0.23
   5  -3  -5    2.34    0.17
   4  -3  -5    1.95    0.17
   4  -3  -5    1.51    0.21
   4  -3  -5    1.79    0.17
   4  -3  -5    2.03    0.15
   4  -3  -5    1.72    0.18
   3  -3  -5    2.28    0.25
   3  -3  -5    2.09    0.20
   3  -3  -5    2.48    0.17
   3  -3  -5    2.77    0.21
   2  -3  -5    0.32    0.10
   2  -3  -5    0.29    0.06
  -2   3   5    0.16    0.04
  -2   3   5    0.36    0.08
   1  -3  -5    3.59    0.19
   1  -3  -5    3.08    0.16
   1  -3  -5    3.71    0.30
  -1   3   5    3.20    0.15
  -1   3   5    3.17    0.16
  -1   3   5    2.64    0.32
   0  -3  -5    1.02    0.08
   0  -3  -5    0.99    0.07
   0  -3  -5    0.93    0.10
   0  -3  -5    0.91    0.07
   0  -3  -5    0.98    0.10
   0   3   5    1.00    0.09
   0   3   5    0.83    0.13
   0   3   5    1.09    0.07
   0   3   5    0.99    0.05
   0   3   5    1.01    0.06
  -1  -3  -5   31.68    1.97
  -1  -3  -5   32.98    1.38
  -1  -3  -5   31.85    1.31
  -1  -3  -5   29.48    1.56
   1   3   5   31.40    2.72
   1   3   5   32.89    1.38
   1   3   5   34.07    2.07
   2   3   5    4.94    0.31
   2   3   5    3.85    0.27
   3   3   5    6.88    0.38
   3   3   5    6.12    0.55
   3   3   5    6.85    0.47
   3   3   5    7.10    0.42
   3   3   5    6.95    0.51
   4   3   5   17.44    1.45
   4   3   5   19.58    1.10
   4   3   5   18.39    1.31
   4   3   5   19.07    0.99
   4   3   5   18.86    1.23
   5   3   5    0.05    0.04
   5   3   5    0.02    0.06
   5   3   5   -0.03    0.03
   5   3   5    0.00    0.05
   5   3   5   -0.01    0.03
   5   3   5    0.03    0.02
   5  -4  -5   10.23    0.62
   5  -4  -5    9.74    0.68
   5  -4  -5    8.90    0.83
   5  -4  -5   10.06    0.61
   5  -4  -5   11.09    0.77
   5  -4  -5   10.95    0.75
   4  -4  -5    1.00    0.09
   4  -4  -5    0.76    0.09
   4  -4  -5    1.03    0.11
   4  -4  -5    0.86    0.13
   4  -4  -5    1.15    0.12
   4  -4  -5    0.91    0.13
   3  -4  -5    2.39    0.23
   3  -4  -5    2.21    0.18
   3  -4  -5    2.31    0.20
   3  -4  -5    2.63    0.19
   3  -4  -5    2.27    0.16
   3  -4  -5    2.33    0.19
  -3   4   5    2.35    0.17
   2  -4  -5    3.90    0.30
   2  -4  -5    3.57    0.26
   2  -4  -5    3.71    0.26
   2  -4  -5    3.98    0.23
  -2   4   5    4.22    0.24
  -2   4   5    3.29    0.23
  -2   4   5    3.63    0.26
   1  -4  -5   17.71    1.16
  -1   4   5   18.40    1.11
  -1   4   5   20.09    0.85
  -1   4   5   20.21    0.86
  -1   4   5   20.89    0.81
   0  -4  -5    9.87    0.53
   0  -4  -5    9.26    0.43
   0  -4  -5    9.02    0.58
   0   4   5    8.64    0.55
   0   4   5    9.88    0.42
   2   4   5   15.36    0.88
   2   4   5   16.75    0.92
   2   4   5   14.30    1.19
   2   4   5   15.74    0.89
   2   4   5   15.95    0.81
   2   4   5   15.44    0.81
   2   4   5   15.17    0.91
   2   4   5   13.72    1.02
   3   4   5   18.64    1.04
   3   4   5   18.30    0.95
   3   4   5   17.47    1.19
   3   4   5   18.37    1.20
   3   4   5   17.18    1.27
   3   4   5   18.15    1.06
   3   4   5   19.32    1.07
   3   4   5   16.35    1.40
   4   4   5   10.72    0.73
   4   4   5   10.88    0.59
   4   4   5   11.80    0.66
   4   4   5   10.39    0.86
   5   4   5    0.00    0.04
   5   4   5    0.01    0.03
   5   4   5    0.00    0.04
   5   4   5   -0.01    0.03
   5   4   5    0.02    0.02
   5  -5  -5    6.30    0.41
   5  -5  -5    6.80    0.50
   5  -5  -5    6.25    0.56
   5  -5  -5    7.19    0.41
   5  -5  -5    7.18    0.51
   4  -5  -5   21.91    1.18
  -4   5   5   22.87    1.31
  -4   5   5   22.88    1.06
   3  -5  -5    5.32    0.29
   3  -5  -5    5.22    0.34
   3  -5  -5    5.13    0.34
   3  -5  -5    5.44    0.40
   3  -5  -5    4.92    0.34
  -3   5   5    4.88    0.32
   2  -5  -5   21.10    1.27
   2  -5  -5   24.81    1.58
   2  -5  -5   19.85    1.28
   2  -5  -5   21.39    1.13
   2  -5  -5   21.27    1.28
  -2   5   5   22.58    1.26
  -2   5   5   19.57    1.13
  -2   5   5   21.61    1.01
   1  -5  -5   12.87    0.64
   1  -5  -5   10.36    0.73
   1  -5  -5   11.49    0.73
  -1   5   5   12.55    0.71
  -1   5   5   12.11    0.64
  -1   5   5   12.16    0.71
   0   5   5   -0.02    0.04
   0   5   5    0.08    0.08
   0   5   5    0.02    0.04
   0   5   5    0.05    0.13
   0   5   5    0.03    0.07
   0   5   5    0.06    0.06
  -1  -5  -5    1.12    0.13
   1   5   5    1.25    0.13
   1   5   5    1.31    0.13
   1   5   5    1.07    0.11
   1   5   5    1.09    0.10
   2   5   5   18.99    1.09
   2   5   5   17.83    1.21
   2   5   5   16.36    1.43
   2   5   5   19.90    1.08
   2   5   5   18.46    0.97
   2   5   5   19.07    1.06
   3   5   5    4.86    0.28
   3   5   5    4.67    0.28
   3   5   5    4.40    0.28
   3   5   5    3.89    0.36
   3   5   5    4.22    0.31
   3   5   5    4.05    0.34
   3   5   5    4.20    0.25
   4   5   5    4.44    0.34
   4   5   5    4.57    0.32
   4   5   5    4.70    0.25
   4   5   5    4.74    0.29
   4   5   5    4.36    0.37
   5   5   5    1.51    0.12
   5   5   5    1.72    0.09
   5   5   5    1.45    0.12
   5   5   5    1.81    0.14
   5  -6  -5    0.94    0.10
   4  -6  -5    3.64    0.20
   4  -6  -5    3.36    0.31
   4  -6  -5    3.68    0.23
   4  -6  -5    3.58    0.23
   4  -6  -5    3.24    0.27
  -4   6   5    3.48    0.18
  -4   6   5    2.92    0.22
   3  -6  -5    0.77    0.11
   3  -6  -5    0.83    0.08
   3  -6  -5    1.06    0.13
   3  -6  -5    0.74    0.09
   3  -6  -5    0.72    0.15
   3  -6  -5    0.81    0.09
  -3   6   5    0.79    0.08
  -3   6   5    0.74    0.06
   2  -6  -5    3.25    0.20
   2  -6  -5    3.37    0.23
   2  -6  -5    3.35    0.23
  -2   6   5    3.20    0.18
  -2   6   5    3.32    0.22
   1  -6  -5    4.91    0.34
   1  -6  -5    5.07    0.29
  -1   6   5    5.27    0.26
  -1   6   5    5.01    0.33
  -1   6   5    4.78    0.29
  -1   6   5    6.06    0.33
   0  -6  -5    9.88    0.54
   0  -6  -5    9.86    0.61
   0   6   5   10.43    0.60
   0   6   5   10.04    0.59
   0   6   5    9.88    0.54
  -1  -6  -5   50.01    2.91
   1   6   5   52.19    2.60
   1   6   5   46.34    3.25
   1   6   5   52.15    2.89
   1   6   5   49.65    2.60
   1   6   5   50.61    2.91
   1   6   5   49.00    2.83
   2   6   5    0.50    0.09
   2   6   5    0.39    0.07
   2   6   5    0.44    0.06
   2   6   5    0.45    0.07
  -3  -6  -5   12.77    0.86
   3   6   5   14.82    0.85
   3   6   5   15.23    0.97
   3   6   5   14.57    0.76
   3   6   5   15.94    0.85
   3   6   5   13.87    0.95
   3   6   5   13.84    0.76
   4   6   5    0.24    0.05
   4   6   5    0.14    0.04
   4   6   5    0.22    0.03
   4   6   5    0.22    0.04
   4   6   5    0.25    0.03
   4  -7  -5    4.29    0.27
   4  -7  -5    4.35    0.27
   4  -7  -5    3.91    0.35
   4  -7  -5    4.17    0.23
  -4   7   5    4.21    0.25
  -4   7   5    4.25    0.21
   3  -7  -5    2.87    0.18
   3  -7  -5    2.72    0.27
   3  -7  -5    3.11    0.20
   3  -7  -5    3.00    0.20
  -3   7   5    3.06    0.19
  -3   7   5    2.80    0.19
  -3   7   5    3.12    0.16
   2  -7  -5   12.44    0.65
   2  -7  -5   11.99    0.73
  -2   7   5   12.40    0.70
  -2   7   5   12.45    0.72
  -2   7   5   12.10    0.58
  -2   7   5   11.64    0.65
   1  -7  -5    0.30    0.06
   1  -7  -5    0.47    0.07
   1  -7  -5    0.32    0.06
  -1   7   5    0.37    0.06
  -1   7   5    0.45    0.05
  -1   7   5    0.39    0.07
  -1   7   5    0.50    0.05
  -1   7   5    0.48    0.07
   0  -7  -5    0.11    0.05
   0   7   5   -0.03    0.06
   0   7   5   -0.02    0.05
   0   7   5    0.10    0.05
   0   7   5    0.07    0.06
  -1  -7  -5    2.23    0.16
   1   7   5    2.24    0.16
   1   7   5    2.12    0.15
   1   7   5    2.22    0.15
  -2  -7  -5    2.72    0.21
   2   7   5    2.79    0.20
   2   7   5    2.98    0.19
   2   7   5    3.21    0.18
   2   7   5    2.81    0.22
   3   7   5    1.75    0.13
   3   7   5    1.52    0.15
   3   7   5    1.76    0.14
   3   7   5    1.47    0.14
   3   7   5    1.75    0.12
   3   7   5    1.77    0.13
   3   7   5    1.90    0.10
   4   7   5    0.01    0.01
   4   7   5    0.02    0.02
   4   7   5    0.02    0.02
   4   7   5    0.00    0.02
   3  -8  -5    0.23    0.03
   3  -8  -5    0.25    0.05
   3  -8  -5    0.16    0.04
  -3   8   5    0.26    0.04
  -3   8   5    0.22    0.03
  -3   8   5    0.14    0.05
   2  -8  -5    0.03    0.04
   2  -8  -5    0.02    0.04
   2  -8  -5    0.07    0.03
  -2   8   5    0.05    0.03
  -2   8   5    0.02    0.02
  -2   8   5   -0.05    0.04
  -2   8   5   -0.02    0.06
   1  -8  -5    3.91    0.28
   1  -8  -5    4.61    0.24
   1  -8  -5    4.11    0.24
   1  -8  -5    4.04    0.26
  -1   8   5    3.96    0.26
  -1   8   5    3.95    0.23
  -1   8   5    4.04    0.25
  -1   8   5    3.70    0.25
  -1   8   5    4.12    0.20
   0   8   5    0.13    0.04
   0   8   5    0.12    0.04
   0   8   5    0.21    0.05
   0   8   5    0.12    0.04
  -1  -8  -5    0.15    0.06
   1   8   5    0.18    0.04
   1   8   5    0.18    0.04
   1   8   5    0.12    0.05
   1   8   5    0.13    0.03
  -2  -8  -5    3.52    0.26
   2   8   5    3.84    0.30
   2   8   5    4.53    0.22
   2   8   5    3.81    0.22
   2   8   5    4.02    0.28
   2   8   5    4.17    0.25
  -3  -8  -5    6.36    0.38
   3   8   5    7.71    0.56
   3   8   5    8.02    0.51
   3   8   5    7.59    0.38
   3   8   5    6.29    0.38
   3   8   5    7.12    0.48
   3  -9  -5    1.24    0.10
   3  -9  -5    1.40    0.10
   3  -9  -5    1.62    0.10
  -3   9   5    1.51    0.09
   2  -9  -5    1.00    0.08
   2  -9  -5    0.91    0.06
   2  -9  -5    0.89    0.08
  -2   9   5    0.72    0.07
  -2   9   5    0.79    0.07
   1  -9  -5    0.67    0.09
   1  -9  -5    0.89    0.07
   1  -9  -5    0.90    0.08
  -1   9   5    0.85    0.08
  -1   9   5    0.73    0.07
  -1   9   5    0.77    0.05
   0  -9  -5    0.14    0.03
   0  -9  -5    0.23    0.04
   0   9   5    0.20    0.03
   0   9   5    0.15    0.04
   0   9   5    0.17    0.04
  -1  -9  -5   -0.02    0.02
  -1  -9  -5    0.01    0.03
   1   9   5   -0.01    0.02
   1   9   5    0.02    0.02
   1   9   5    0.01    0.05
  -2  -9  -5    0.04    0.03
   2   9   5    0.08    0.03
   2   9   5    0.11    0.03
   2   9   5    0.08    0.02
   2   9   5    0.07    0.02
   1 -10  -5    0.02    0.03
  -1  10   5    0.01    0.02
  -1  10   5    0.04    0.03
   0 -10  -5    1.35    0.08
   0 -10  -5    1.20    0.09
   0  10   5    1.38    0.08
   0  12  -6    5.77    0.37
   0  12  -6    7.25    0.38
   0 -12   6    6.48    0.36
   0 -12   6    7.14    0.35
  -1  12  -6    0.93    0.07
   1 -12   6    0.88    0.06
   2  11  -6    3.13    0.26
   2  11  -6    3.64    0.19
  -2 -11   6    3.35    0.17
  -2 -11   6    3.54    0.19
   1  11  -6    3.13    0.19
   1  11  -6    3.23    0.18
   1  11  -6    2.95    0.19
  -1 -11   6    3.25    0.18
  -1 -11   6    3.11    0.16
  -1 -11   6    2.92    0.18
   0  11  -6    6.13    0.37
   0  11  -6    6.58    0.37
   0  11  -6    6.37    0.34
   0 -11   6    6.24    0.31
   0 -11   6    6.18    0.34
   0 -11   6    6.89    0.35
  -1  11  -6    0.62    0.05
  -1  11  -6    0.61    0.06
   1 -11   6    0.59    0.06
   1 -11   6    0.53    0.05
  -2  11  -6    0.91    0.11
  -2  11  -6    0.95    0.07
  -2  11  -6    0.77    0.09
  -2  11  -6    0.97    0.06
   2 -11   6    1.01    0.06
   2 -11   6    0.96    0.07
   2 -11   6    0.74    0.08
   3  10  -6    0.33    0.04
  -3 -10   6    0.29    0.04
   2  10  -6    0.17    0.04
   2  10  -6    0.27    0.03
   2  10  -6    0.27    0.05
   2  10  -6    0.26    0.04
   2  10  -6    0.22    0.05
  -2 -10   6    0.31    0.04
  -2 -10   6    0.29    0.03
   1  10  -6    2.58    0.16
   1  10  -6    2.51    0.16
   1  10  -6    2.22    0.19
   1  10  -6    2.44    0.14
  -1 -10   6    2.26    0.15
  -1 -10   6    2.56    0.13
  -1 -10   6    2.56    0.15
   0  10  -6    0.71    0.08
   0  10  -6    0.79    0.08
   0 -10   6    0.74    0.07
   0 -10   6    1.00    0.08
   0 -10   6    0.79    0.06
  -1  10  -6    0.03    0.04
  -1  10  -6    0.04    0.04
  -1  10  -6    0.02    0.08
  -1  10  -6    0.08    0.04
  -1  10  -6    0.03    0.03
   1 -10   6    0.05    0.03
   1 -10   6    0.01    0.05
   1 -10   6   -0.04    0.04
   1 -10   6    0.01    0.03
   1 -10   6    0.02    0.05
  -2  10  -6    0.24    0.04
  -2  10  -6    0.23    0.04
  -2  10  -6    0.13    0.05
   2 -10   6    0.16    0.03
   2 -10   6    0.27    0.05
   2 -10   6    0.23    0.04
  -3  10  -6    3.02    0.19
  -3  10  -6    3.05    0.16
   3 -10   6    3.12    0.18
   3 -10   6    3.17    0.17
   3 -10   6    3.11    0.20
   3 -10   6    3.08    0.20
   4   9  -6    2.27    0.15
   4   9  -6    1.91    0.17
   3   9  -6    0.15    0.04
   3   9  -6    0.14    0.04
   3   9  -6    0.16    0.04
   3   9  -6    0.13    0.05
   3   9  -6    0.19    0.04
   3   9  -6    0.13    0.04
   3   9  -6    0.12    0.04
   3   9  -6    0.18    0.04
  -3  -9   6    0.15    0.04
  -3  -9   6    0.12    0.02
   2   9  -6    7.19    0.38
   2   9  -6    6.09    0.44
   2   9  -6    6.79    0.39
   2   9  -6    5.67    0.35
  -2  -9   6    6.09    0.36
  -2  -9   6    6.58    0.31
   1   9  -6    3.22    0.19
   1   9  -6    3.34    0.21
   1   9  -6    3.20    0.21
  -1  -9   6    3.30    0.17
  -1  -9   6    3.07    0.20
   0   9  -6   -0.07    0.06
   0   9  -6    0.02    0.04
   0   9  -6    0.09    0.03
   0  -9   6    0.09    0.03
   0  -9   6    0.12    0.03
   0  -9   6    0.06    0.02
  -1   9  -6    0.45    0.05
  -1   9  -6    0.47    0.05
  -1   9  -6    0.40    0.06
   1  -9   6    0.37    0.04
   1  -9   6    0.41    0.05
   1  -9   6    0.46    0.06
  -2   9  -6    0.08    0.04
   2  -9   6    0.04    0.04
   2  -9   6    0.08    0.03
  -3   9  -6    0.14    0.04
  -3   9  -6    0.11    0.03
   3  -9   6    0.11    0.03
   3  -9   6    0.11    0.05
   3  -9   6    0.17    0.04
  -4   9  -6    2.20    0.14
  -4   9  -6    1.99    0.11
   4  -9   6    2.09    0.15
   4  -9   6    2.16    0.15
   4  -9   6    2.49    0.13
   4   8  -6    0.09    0.03
   4   8  -6    0.07    0.04
   4   8  -6    0.07    0.03
   4   8  -6    0.06    0.03
   4   8  -6    0.15    0.04
   3   8  -6    4.06    0.25
   3   8  -6    3.60    0.27
   3   8  -6    3.77    0.29
   3   8  -6    3.80    0.23
   3   8  -6    4.50    0.27
   3   8  -6    3.25    0.31
   3   8  -6    3.51    0.31
   3   8  -6    3.32    0.22
   3   8  -6    4.44    0.32
  -3  -8   6    3.97    0.19
   2   8  -6   15.00    0.82
   2   8  -6   13.69    0.84
   2   8  -6   14.32    0.77
   2   8  -6   15.56    0.96
  -2  -8   6   13.98    0.68
   1   8  -6    0.20    0.06
   1   8  -6    0.02    0.08
   1   8  -6    0.13    0.06
   1   8  -6    0.23    0.05
  -1  -8   6    0.15    0.04
   0   8  -6   22.70    1.18
   0   8  -6   20.97    1.22
   0   8  -6   20.75    1.12
   0   8  -6   22.10    1.00
   0   8  -6   21.65    1.19
   0  -8   6   21.38    1.12
   0  -8   6   20.63    1.00
   0  -8   6   20.58    1.12
   0  -8   6   21.88    1.15
  -1   8  -6   10.22    0.48
  -1   8  -6   10.23    0.57
  -1   8  -6    9.99    0.54
   1  -8   6   10.13    0.54
   1  -8   6    9.90    0.48
   1  -8   6   10.02    0.54
   1  -8   6    9.73    0.61
  -2   8  -6    3.39    0.21
  -2   8  -6    3.24    0.18
   2  -8   6    3.34    0.20
   2  -8   6    3.14    0.20
   2  -8   6    3.06    0.22
   2  -8   6    3.36    0.19
  -3   8  -6    0.15    0.04
   3  -8   6    0.24    0.04
   3  -8   6    0.17    0.04
   3  -8   6    0.13    0.04
   3  -8   6    0.23    0.05
  -4   8  -6    1.26    0.09
  -4   8  -6    1.11    0.10
   4  -8   6    1.38    0.09
   4  -8   6    1.47    0.11
   4  -8   6    1.27    0.11
   4  -8   6    1.36    0.13
   4  -8   6    1.33    0.15
   4  -8   6    1.25    0.11
   4  -8   6    1.57    0.12
   4  -8   6    1.29    0.11
   5  -8   6    0.03    0.02
   5  -8   6   -0.04    0.02
   5   7  -6    0.64    0.06
   5   7  -6    0.54    0.07
   5   7  -6    0.67    0.06
   4   7  -6    0.56    0.08
   4   7  -6    0.63    0.07
   4   7  -6    0.60    0.10
   4   7  -6    0.47    0.07
   4   7  -6    0.66    0.09
   3   7  -6    2.03    0.18
   3   7  -6    2.16    0.15
   3   7  -6    2.08    0.16
   3   7  -6    1.93    0.20
   3   7  -6    1.89    0.17
   3   7  -6    2.13    0.13
   3   7  -6    2.23    0.20
   3   7  -6    2.31    0.16
  -3  -7   6    2.12    0.12
   2   7  -6   19.58    1.43
   2   7  -6   21.48    1.12
   2   7  -6   21.67    1.66
   2   7  -6   22.52    1.19
   2   7  -6   23.43    1.41
   2   7  -6   21.37    1.23
  -2  -7   6   20.41    1.01
   1   7  -6    1.49    0.17
   1   7  -6    0.98    0.17
   1   7  -6    1.47    0.12
   1   7  -6    1.37    0.13
   1   7  -6    1.53    0.12
   1   7  -6    1.31    0.11
  -1  -7   6    1.45    0.09
  -1  -7   6    1.31    0.11
   0   7  -6    2.40    0.15
   0   7  -6    2.39    0.19
   0   7  -6    2.54    0.14
  -1   7  -6    7.41    0.46
   1  -7   6    7.88    0.42
   1  -7   6    7.63    0.37
   1  -7   6    7.96    0.42
  -2   7  -6    0.01    0.02
   2  -7   6   -0.01    0.04
   2  -7   6   -0.02    0.02
   2  -7   6   -0.03    0.05
   3  -7   6    0.65    0.08
   3  -7   6    0.69    0.08
   3  -7   6    0.58    0.06
   3  -7   6    0.61    0.08
  -4   7  -6    0.52    0.07
   4  -7   6    0.71    0.06
   4  -7   6    0.67    0.09
   4  -7   6    0.63    0.08
   4  -7   6    0.59    0.08
   4  -7   6    0.62    0.07
   4  -7   6    0.52    0.10
   4  -7   6    0.63    0.08
   4  -7   6    0.61    0.07
   5  -7   6    2.56    0.20
   5  -7   6    2.54    0.16
   5  -7   6    2.47    0.16
   5  -7   6    2.19    0.21
   5   6  -6    0.02    0.03
   5   6  -6   -0.01    0.03
   5   6  -6   -0.03    0.07
   5   6  -6    0.04    0.03
   5   6  -6    0.01    0.03
   4   6  -6    1.79    0.18
   4   6  -6    1.70    0.15
   4   6  -6    1.96    0.13
   4   6  -6    2.00    0.14
   4   6  -6    1.80    0.18
   3   6  -6   10.60    0.60
   3   6  -6   10.64    0.69
   3   6  -6   10.02    0.80
   3   6  -6    9.42    0.77
   3   6  -6   10.48    0.58
   3   6  -6    9.32    0.70
   3   6  -6    9.66    0.73
  -3  -6   6   11.92    0.50
   2   6  -6   -0.07    0.05
   2   6  -6    0.16    0.06
   2   6  -6    0.08    0.05
   1   6  -6   15.16    0.76
   1   6  -6   13.85    0.64
   1   6  -6   11.32    0.90
   1   6  -6   14.36    1.05
   1   6  -6   13.36    0.79
   1   6  -6   13.53    0.71
  -1  -6   6   12.37    0.71
  -1  -6   6   13.55    0.71
   0   6  -6   -0.01    0.08
   0   6  -6    0.06    0.07
   0   6  -6   -0.02    0.05
   0  -6   6   -0.07    0.09
   0  -6   6    0.01    0.09
  -1   6  -6    5.64    0.28
  -1   6  -6    5.71    0.35
  -1   6  -6    5.24    0.38
  -1   6  -6    6.36    0.29
   1  -6   6    5.10    0.40
   2  -6   6    0.80    0.12
   2  -6   6    0.73    0.08
   2  -6   6    1.02    0.11
   2  -6   6    1.00    0.08
   2  -6   6    0.97    0.14
   3  -6   6    1.06    0.09
   3  -6   6    1.16    0.10
   3  -6   6    1.20    0.12
   3  -6   6    0.97    0.12
   3  -6   6    1.22    0.16
   3  -6   6    1.03    0.12
   4  -6   6    1.99    0.13
   4  -6   6    1.86    0.14
   4  -6   6    2.03    0.15
   4  -6   6    1.97    0.17
   4  -6   6    1.81    0.13
   4  -6   6    1.78    0.15
   4  -6   6    1.94    0.14
   5  -6   6    0.16    0.04
   5  -6   6    0.14    0.04
   5  -6   6    0.19    0.03
   5  -6   6    0.18    0.06
   5  -6   6    0.17    0.05
   5   5  -6    0.22    0.05
   5   5  -6    0.35    0.05
   5   5  -6    0.21    0.05
   5   5  -6    0.23    0.05
   5   5  -6    0.26    0.05
   4   5  -6    5.17    0.40
   4   5  -6    4.80    0.35
   4   5  -6    4.67    0.39
   4   5  -6    4.67    0.40
   4   5  -6    4.87    0.37
   4   5  -6    5.55    0.35
   3   5  -6    5.70    0.39
   3   5  -6    6.08    0.34
   3   5  -6    6.04    0.35
   3   5  -6    5.08    0.40
   3   5  -6    5.49    0.46
   3   5  -6    5.07    0.44
  -3  -5   6    5.78    0.28
   2   5  -6   16.43    1.04
   2   5  -6   16.01    0.83
   2   5  -6   15.25    0.83
  -2  -5   6   15.42    0.74
   1   5  -6    1.97    0.15
   1   5  -6    1.82    0.15
   1   5  -6    2.37    0.15
   1   5  -6    2.29    0.16
  -1  -5   6    1.94    0.16
   0   5  -6    7.82    0.38
   0   5  -6    7.14    0.48
   0   5  -6    7.79    0.33
   0   5  -6    7.92    0.44
   0   5  -6    7.91    0.33
   0   5  -6    8.02    0.34
   0  -5   6    6.98    0.50
   0  -5   6    7.63    0.65
   0  -5   6    6.94    0.67
  -1   5  -6    0.02    0.04
  -1   5  -6    0.03    0.03
  -1   5  -6    0.05    0.05
  -1   5  -6    0.11    0.05
   1  -5   6    0.05    0.05
   1  -5   6    0.03    0.05
   1  -5   6    0.07    0.04
   1  -5   6    0.10    0.04
   2  -5   6   13.08    0.68
   2  -5   6   12.54    0.65
   2  -5   6   11.29    0.74
   3  -5   6   17.93    1.28
   3  -5   6   16.40    1.02
   3  -5   6   17.07    0.90
   3  -5   6   16.82    1.01
   4  -5   6    0.31    0.05
   4  -5   6    0.42    0.07
   4  -5   6    0.29    0.05
   4  -5   6    0.51    0.06
   4  -5   6    0.29    0.07
   5  -5   6    3.39    0.28
   5  -5   6    3.21    0.21
   5  -5   6    2.75    0.19
   5  -5   6    3.13    0.21
   5  -5   6    3.51    0.26
   5   4  -6    2.26    0.21
   5   4  -6    2.61    0.21
   5   4  -6    2.24    0.20
   5   4  -6    2.35    0.18
   5   4  -6    2.45    0.19
   4   4  -6   28.57    2.03
   4   4  -6   27.31    2.13
   4   4  -6   30.49    2.23
   4   4  -6   31.72    1.89
   4   4  -6   27.32    2.16
   4   4  -6   28.84    1.93
   3   4  -6   12.31    0.86
   3   4  -6   11.08    0.81
   3   4  -6   12.50    0.64
   3   4  -6   11.05    0.90
   3   4  -6   13.43    0.80
   2   4  -6    1.11    0.09
   2   4  -6    0.84    0.10
   2   4  -6    0.98    0.09
   2   4  -6    0.94    0.11
   2   4  -6    0.93    0.08
   1   4  -6   13.30    0.57
   1   4  -6   12.34    0.57
   1   4  -6   12.58    0.54
   1   4  -6   14.36    0.80
  -1  -4   6   12.07    0.72
   0   4  -6   46.88    1.87
   0   4  -6   44.96    1.87
   0   4  -6   46.42    1.97
   0   4  -6   47.63    2.28
   0   4  -6   46.53    2.00
   0  -4   6   42.27    3.86
   0  -4   6   46.40    2.96
  -1   4  -6   76.26    3.32
  -1   4  -6   75.62    3.10
  -1   4  -6   75.43    3.80
  -1   4  -6   76.35    3.27
   1  -4   6   74.78    4.17
   1  -4   6   80.28    6.56
  -2   4  -6  630.02   25.45
  -2   4  -6  592.86   27.51
  -2   4  -6  606.21   25.83
   2  -4   6  627.71   34.52
   2  -4   6  576.64   30.73
   2  -4   6  609.34   31.47
   2  -4   6  547.11   34.86
   2  -4   6  584.56   32.48
  -3   4  -6    0.90    0.10
   3  -4   6    0.84    0.12
   3  -4   6    0.83    0.10
   3  -4   6    0.82    0.08
   3  -4   6    0.79    0.09
   3  -4   6    0.70    0.09
   3  -4   6    0.75    0.10
   3  -4   6    0.78    0.08
   4  -4   6    0.63    0.08
   4  -4   6    0.53    0.10
   4  -4   6    0.60    0.08
   4  -4   6    0.58    0.07
   5  -4   6    1.76    0.15
   5  -4   6    1.57    0.13
   5  -4   6    1.95    0.19
   5  -4   6    1.87    0.17
   5  -4   6    1.89    0.14
   6  -4   6    0.10    0.02
   6  -4   6    0.10    0.03
   6  -4   6    0.12    0.03
   6   3  -6    6.16    0.45
   6   3  -6    5.49    0.44
   6   3  -6    6.05    0.42
   5   3  -6    1.54    0.14
   5   3  -6    1.33    0.14
   5   3  -6    1.35    0.12
   5   3  -6    1.08    0.14
   5   3  -6    1.26    0.11
   4   3  -6    4.91    0.36
   4   3  -6    4.04    0.35
   4   3  -6    4.22    0.31
   4   3  -6    4.28    0.33
   4   3  -6    4.09    0.34
   3   3  -6    0.11    0.05
   3   3  -6    0.08    0.06
   3   3  -6    0.10    0.08
   3   3  -6    0.10    0.04
   2   3  -6    6.82    0.42
   2   3  -6    7.73    0.32
   2   3  -6    6.91    0.45
   2   3  -6    7.11    0.34
   2   3  -6    7.47    0.36
  -2  -3   6    6.93    0.40
  -2  -3   6    6.64    0.40
   1   3  -6    2.28    0.11
   1   3  -6    2.04    0.12
   1   3  -6    2.17    0.12
   1   3  -6    2.14    0.11
   1   3  -6    2.27    0.15
  -1  -3   6    2.01    0.13
   0   3  -6   10.65    0.44
   0   3  -6   10.66    0.46
   0   3  -6   10.76    0.44
   0   3  -6   10.46    0.47
   0   3  -6   11.17    0.53
   0  -3   6   11.10    0.70
   0  -3   6   10.85    0.47
   0  -3   6    9.38    0.90
  -1   3  -6   63.12    2.56
  -1   3  -6   60.95    3.14
  -1   3  -6   64.26    2.70
  -1   3  -6   59.94    2.74
   1  -3   6   67.60    5.43
  -2   3  -6    7.34    0.31
  -2   3  -6    6.97    0.32
  -2   3  -6    6.51    0.39
  -2   3  -6    6.98    0.31
  -2   3  -6    7.18    0.30
   2  -3   6    6.45    0.43
   2  -3   6    7.22    0.36
   2  -3   6    7.17    0.40
   2  -3   6    6.33    0.61
   2  -3   6    6.96    0.43
   4  -3   6    0.03    0.07
   4  -3   6    0.01    0.03
   4  -3   6    0.08    0.05
   4  -3   6    0.03    0.04
   4  -3   6   -0.06    0.07
   4  -3   6    0.07    0.04
   5  -3   6    0.85    0.08
   5  -3   6    1.01    0.12
   5  -3   6    0.83    0.09
   5  -3   6    1.03    0.12
   5  -3   6    0.69    0.08
   6  -3   6    1.36    0.14
   6  -3   6    1.69    0.12
   6  -3   6    1.66    0.11
   6   2  -6    6.48    0.41
   6   2  -6    5.18    0.43
   6   2  -6    6.51    0.45
   5   2  -6    3.25    0.25
   5   2  -6    2.97    0.22
   5   2  -6    2.78    0.21
   5   2  -6    2.83    0.24
   5   2  -6    2.47    0.24
   4   2  -6   10.65    0.73
   4   2  -6   10.08    0.70
   4   2  -6    9.93    0.79
   4   2  -6   10.65    0.59
   4   2  -6   10.17    0.77
   3   2  -6    1.25    0.12
   3   2  -6    1.35    0.14
   3   2  -6    1.34    0.12
   3   2  -6    1.17    0.13
   2   2  -6    1.11    0.10
   2   2  -6    1.15    0.09
   2   2  -6    1.25    0.09
   2   2  -6    1.08    0.07
  -2  -2   6    1.14    0.07
  -2  -2   6    1.18    0.08
   1   2  -6   42.84    2.44
   1   2  -6   40.36    2.18
  -1  -2   6   37.84    1.62
  -1  -2   6   38.63    2.18
   0   2  -6    0.44    0.04
   0   2  -6    0.42    0.03
   0   2  -6    0.37    0.03
   0   2  -6    0.44    0.03
   0  -2   6    0.36    0.04
   0  -2   6    0.36    0.05
   0  -2   6    0.43    0.03
   0  -2   6    0.39    0.03
   0  -2   6    0.41    0.03
  -1   2  -6   57.32    2.40
  -1   2  -6   60.26    2.57
  -1   2  -6   57.81    2.93
  -1   2  -6   57.53    2.52
  -1   2  -6   57.18    2.56
   1  -2   6   61.59    5.07
   1  -2   6   61.59    5.82
  -2   2  -6    2.20    0.13
  -2   2  -6    2.46    0.11
  -2   2  -6    2.30    0.14
  -2   2  -6    2.22    0.11
   2  -2   6    2.01    0.16
   2  -2   6    2.17    0.12
   2  -2   6    2.13    0.22
   3  -2   6   -0.08    0.09
   4  -2   6    4.70    0.31
   4  -2   6    5.16    0.42
   4  -2   6    4.98    0.28
   4  -2   6    4.89    0.31
   4  -2   6    4.39    0.35
   5  -2   6    1.84    0.13
   5  -2   6    1.89    0.15
   5  -2   6    1.77    0.17
   5  -2   6    1.90    0.14
   5  -2   6    1.93    0.18
   6  -2   6    1.54    0.11
   6  -2   6    1.63    0.15
   6  -2   6    1.24    0.10
   6   1  -6    0.95    0.08
   6   1  -6    0.89    0.09
   6   1  -6    0.94    0.09
   6   1  -6    0.96    0.08
   5   1  -6    2.68    0.24
   5   1  -6    2.66    0.21
   5   1  -6    2.86    0.23
   4   1  -6   10.12    0.66
   4   1  -6    9.17    0.69
   4   1  -6    8.52    0.71
   4   1  -6    8.17    0.77
   4   1  -6    9.14    0.56
   4   1  -6    9.77    0.62
   3   1  -6   17.51    1.25
   3   1  -6   14.92    0.85
   2   1  -6   18.70    1.17
   2   1  -6   19.03    0.92
  -2  -1   6   19.10    1.04
  -2  -1   6   18.42    0.97
  -2  -1   6   19.54    1.64
   1   1  -6  226.66   12.88
   1   1  -6  219.35   11.55
  -1  -1   6  194.64   11.53
  -1  -1   6  206.25   10.51
   0   1  -6    4.76    0.20
   0   1  -6    4.41    0.19
   0   1  -6    4.36    0.20
   0   1  -6    4.68    0.25
   0  -1   6    4.34    0.20
   0  -1   6    4.28    0.25
   0  -1   6    4.46    0.23
   0  -1   6    4.46    0.45
   0  -1   6    4.40    0.19
   0  -1   6    4.39    0.20
  -1   1  -6    6.81    0.53
  -1   1  -6    5.99    0.25
  -1   1  -6    6.10    0.27
  -1   1  -6    6.05    0.27
  -1   1  -6    6.15    0.27
   1  -1   6    6.10    0.61
   1  -1   6    5.27    0.25
   1  -1   6    6.00    0.27
  -2   1  -6    0.51    0.04
  -2   1  -6    0.52    0.05
  -2   1  -6    0.61    0.09
  -2   1  -6    0.68    0.07
  -2   1  -6    0.56    0.05
  -2   1  -6    0.54    0.05
   2  -1   6    0.53    0.08
   2  -1   6    0.57    0.09
   3  -1   6    3.50    0.33
   4  -1   6    1.11    0.12
   4  -1   6    1.19    0.14
   4  -1   6    1.25    0.11
   4  -1   6    1.03    0.09
   5  -1   6    0.89    0.09
   5  -1   6    1.05    0.09
   5  -1   6    0.92    0.11
   5  -1   6    1.02    0.10
   5  -1   6    1.18    0.12
   6  -1   6    1.96    0.13
   6  -1   6    1.84    0.13
   6  -1   6    2.01    0.17
   6   0  -6    0.69    0.07
   6   0  -6    0.68    0.07
   6   0  -6    0.75    0.06
   5   0  -6    3.41    0.26
   5   0  -6    3.22    0.29
   5   0  -6    3.46    0.27
   5   0  -6    3.42    0.31
   5   0  -6    3.55    0.25
   4   0  -6    2.70    0.23
   4   0  -6    2.86    0.23
   4   0  -6    2.71    0.21
   4   0  -6    2.47    0.23
   4   0  -6    2.97    0.22
   4   0  -6    2.92    0.20
   4   0  -6    2.48    0.29
   3   0  -6    4.96    0.29
   3   0  -6    5.64    0.42
   3   0  -6    4.84    0.30
  -3   0   6    4.81    0.26
   2   0  -6   70.24    4.44
  -2   0   6   73.26    3.96
  -2   0   6   72.86    3.68
  -2   0   6   74.46    6.25
   1   0  -6   88.84    4.86
   1   0  -6   93.02    3.62
   1   0  -6   86.05    4.86
  -1   0   6   91.30    4.43
  -1   0   6   92.11    3.62
  -1   0   6   89.96    3.87
  -1   0   6   85.94    4.86
  -1   0   6   89.15    3.88
  -1   0   6   86.43    4.50
   0   0  -6   44.04    1.95
   0   0  -6   44.82    1.94
   0   0  -6   44.62    1.92
   0   0  -6   46.03    2.44
   0   0  -6   44.16    1.82
   0   0   6   43.30    1.82
   0   0   6   44.59    1.95
   0   0   6   44.76    2.23
   0   0   6   43.30    2.26
   0   0   6   44.30    1.94
   0   0   6   48.66    1.92
  -1   0  -6    0.45    0.04
  -1   0  -6    0.50    0.04
  -1   0  -6    0.51    0.03
  -1   0  -6    0.51    0.04
   1   0   6    0.44    0.05
   1   0   6    0.55    0.05
   1   0   6    0.52    0.04
   1   0   6    0.58    0.09
  -2   0  -6    0.74    0.04
  -2   0  -6    0.79    0.07
  -2   0  -6    0.77    0.06
  -2   0  -6    0.79    0.04
  -2   0  -6    0.84    0.06
   2   0   6    0.78    0.08
   2   0   6    0.72    0.13
   2   0   6    0.66    0.13
   3   0   6    4.19    0.24
   3   0   6    3.47    0.33
   4   0   6   15.57    1.13
   4   0   6   14.01    0.84
   4   0   6   13.31    0.83
   4   0   6   13.57    0.75
   4   0   6   13.58    0.93
   5   0   6    2.87    0.20
   5   0   6    2.72    0.19
   5   0   6    3.19    0.27
   5   0   6    2.59    0.22
   5   0   6    2.81    0.18
   6   0   6    0.65    0.06
   6   0   6    0.52    0.06
   6  -1  -6    0.35    0.04
   6  -1  -6    0.22    0.08
   6  -1  -6    0.38    0.05
   6  -1  -6    0.36    0.05
   5  -1  -6    8.19    0.61
   5  -1  -6    7.55    0.62
   5  -1  -6    8.73    0.58
   5  -1  -6    7.09    0.68
   5  -1  -6    8.78    0.55
   4  -1  -6    0.38    0.07
   4  -1  -6    0.22    0.10
   4  -1  -6    0.45    0.07
   4  -1  -6    0.46    0.08
   4  -1  -6    0.35    0.07
   4  -1  -6    0.26    0.07
   4  -1  -6    0.31    0.05
   3  -1  -6   27.63    2.11
   3  -1  -6   28.57    2.07
   3  -1  -6   28.70    1.55
   3  -1  -6   28.43    1.47
  -3   1   6   28.25    1.32
   2  -1  -6   76.90    4.07
  -2   1   6   80.94    6.78
   1  -1  -6   10.45    0.56
   1  -1  -6   10.15    0.43
   1  -1  -6    9.84    0.49
   1  -1  -6   11.09    0.56
  -1   1   6   10.10    0.88
  -1   1   6   10.32    0.51
  -1   1   6    9.36    0.56
  -1   1   6   10.14    0.42
  -1   1   6   10.13    0.45
  -1   1   6    9.75    0.45
   0  -1  -6    5.86    0.33
   0  -1  -6    5.83    0.26
   0  -1  -6    5.87    0.25
   0  -1  -6    5.90    0.29
   0  -1  -6    5.98    0.26
   0   1   6    5.79    0.26
   0   1   6    5.95    0.30
   0   1   6    5.85    0.26
   0   1   6    6.36    0.51
   0   1   6    5.89    0.26
   0   1   6    5.78    0.25
   0   1   6    5.73    0.26
  -1  -1  -6    0.08    0.02
  -1  -1  -6    0.04    0.02
  -1  -1  -6    0.06    0.03
  -1  -1  -6    0.08    0.03
  -1  -1  -6    0.05    0.03
  -1  -1  -6    0.07    0.03
   1   1   6    0.09    0.03
   1   1   6    0.08    0.06
   1   1   6    0.07    0.04
   1   1   6    0.05    0.02
   1   1   6    0.09    0.02
  -2  -1  -6    1.55    0.18
  -2  -1  -6    1.94    0.22
   2   1   6    1.69    0.19
   3   1   6    5.37    0.33
   3   1   6    5.28    0.38
   3   1   6    5.46    0.42
   3   1   6    5.47    0.30
   3   1   6    5.40    0.45
   4   1   6    0.46    0.09
   4   1   6    0.54    0.07
   4   1   6    0.66    0.09
   4   1   6    0.59    0.07
   5   1   6    0.28    0.05
   5   1   6    0.29    0.04
   5   1   6    0.33    0.06
   5   1   6    0.39    0.06
   5   1   6    0.28    0.07
   6  -2  -6    0.04    0.02
   6  -2  -6    0.06    0.04
   6  -2  -6    0.02    0.03
   5  -2  -6    1.45    0.11
   5  -2  -6    1.20    0.15
   5  -2  -6    1.38    0.14
   5  -2  -6    1.40    0.13
   4  -2  -6   30.00    1.87
   4  -2  -6   30.44    2.36
   4  -2  -6   33.92    2.11
   4  -2  -6   33.26    2.32
   4  -2  -6   27.26    2.54
   4  -2  -6   34.81    2.22
   4  -2  -6   33.07    1.89
   3  -2  -6    0.78    0.08
   3  -2  -6    0.55    0.08
   3  -2  -6    0.61    0.07
  -3   2   6    0.67    0.09
  -3   2   6    0.82    0.08
  -2   2   6    8.54    0.37
  -2   2   6    7.20    0.71
   1  -2  -6   25.64    2.05
   1  -2  -6   22.65    0.98
   1  -2  -6   22.14    1.04
   1  -2  -6   26.93    1.30
   1  -2  -6   24.56    1.30
  -1   2   6   23.72    1.19
  -1   2   6   23.21    1.04
  -1   2   6   20.91    2.05
   0  -2  -6    5.16    0.29
   0  -2  -6    4.97    0.23
   0  -2  -6    5.13    0.23
   0  -2  -6    4.80    0.23
   0  -2  -6    4.94    0.26
   0   2   6    4.85    0.24
   0   2   6    5.02    0.45
   0   2   6    5.09    0.23
   0   2   6    5.01    0.22
   0   2   6    5.20    0.23
   0   2   6    5.57    0.23
  -1  -2  -6   32.09    1.32
  -1  -2  -6   29.97    1.58
  -1  -2  -6   31.88    1.40
  -1  -2  -6   33.71    1.39
  -1  -2  -6   32.85    1.99
   1   2   6   30.90    2.73
   1   2   6   34.36    2.10
   1   2   6   33.10    1.39
  -2  -2  -6   14.41    1.27
   2   2   6   10.68    0.67
   3   2   6    4.09    0.38
   3   2   6    4.94    0.41
   3   2   6    4.75    0.29
   3   2   6    4.43    0.29
   3   2   6    4.37    0.33
   3   2   6    4.51    0.26
   4   2   6    2.38    0.23
   4   2   6    2.44    0.17
   4   2   6    2.39    0.18
   4   2   6    2.58    0.16
   4   2   6    2.77    0.25
   4   2   6    2.52    0.21
   4   2   6    2.27    0.20
   5   2   6   10.25    0.71
   5   2   6   10.71    0.57
   5   2   6   10.18    0.84
   5   2   6   11.22    0.64
   5   2   6   11.45    0.64
   5  -3  -6    0.13    0.04
   5  -3  -6    0.11    0.04
   5  -3  -6    0.11    0.03
   5  -3  -6    0.09    0.05
  -5   3   6    0.02    0.06
   4  -3  -6   14.85    1.33
   4  -3  -6   16.32    0.98
   4  -3  -6   16.41    0.87
   4  -3  -6   14.51    1.00
   4  -3  -6   18.94    1.22
   4  -3  -6   17.91    1.10
  -4   3   6   16.30    0.78
   3  -3  -6   34.99    2.08
   3  -3  -6   32.18    2.08
   3  -3  -6   36.40    1.85
   3  -3  -6   37.41    2.59
   3  -3  -6   33.80    2.10
   3  -3  -6   40.71    2.35
  -3   3   6   33.29    2.02
  -3   3   6   35.27    1.66
   2  -3  -6    1.80    0.17
  -2   3   6    1.77    0.17
  -2   3   6    1.83    0.15
   1  -3  -6   11.49    0.94
   1  -3  -6   10.40    0.60
   1  -3  -6   11.54    0.59
  -1   3   6   10.07    0.47
  -1   3   6    9.68    0.48
  -1   3   6   10.74    0.45
   0  -3  -6   16.40    0.85
   0  -3  -6   18.23    0.96
   0  -3  -6   16.68    0.74
   0  -3  -6   16.87    0.76
   0   3   6   17.61    0.72
   0   3   6   18.41    0.77
   0   3   6   17.71    0.76
   0   3   6   17.33    0.82
  -1  -3  -6    0.40    0.06
   1   3   6    0.31    0.07
   2   3   6   13.22    0.77
   2   3   6   13.93    1.05
   2   3   6   11.36    0.74
   3   3   6    2.03    0.17
   3   3   6    2.19    0.16
   3   3   6    1.91    0.21
   3   3   6    2.24    0.14
   4   3   6    8.09    0.47
   4   3   6    8.21    0.43
   4   3   6    7.89    0.56
   4   3   6    7.32    0.62
   4   3   6    7.48    0.53
   5   3   6    0.06    0.04
   5   3   6    0.05    0.03
   5   3   6    0.06    0.03
   5   3   6    0.05    0.05
   5   3   6    0.05    0.03
   5  -4  -6   -0.06    0.04
   5  -4  -6    0.02    0.03
   5  -4  -6    0.02    0.04
   5  -4  -6    0.07    0.06
   4  -4  -6    1.62    0.14
   4  -4  -6    1.56    0.14
   4  -4  -6    1.66    0.11
   3  -4  -6   13.90    0.86
   3  -4  -6   15.24    1.06
   3  -4  -6   14.06    0.96
   3  -4  -6   13.66    0.87
   3  -4  -6   14.29    0.76
  -3   4   6   14.80    0.84
   2  -4  -6   14.27    0.98
   2  -4  -6   12.81    0.89
   2  -4  -6   13.34    0.71
  -2   4   6   12.79    0.77
  -2   4   6   14.64    0.79
  -2   4   6   12.09    0.71
  -2   4   6   13.32    0.63
  -1   4   6    0.52    0.06
   0  -4  -6    0.16    0.09
   0  -4  -6    0.34    0.09
   0  -4  -6    0.35    0.06
   0   4   6    0.41    0.05
   0   4   6    0.44    0.07
   0   4   6    0.38    0.05
   0   4   6    0.52    0.08
  -1  -4  -6    0.68    0.08
   1   4   6    0.58    0.08
   1   4   6    0.72    0.09
   1   4   6    0.68    0.11
   1   4   6    0.60    0.08
   1   4   6    0.56    0.08
   1   4   6    0.65    0.08
  -2  -4  -6   35.47    2.23
   2   4   6   40.36    2.23
   2   4   6   36.94    2.14
   2   4   6   37.88    1.98
   2   4   6   38.42    2.21
   3   4   6    5.17    0.37
   3   4   6    5.66    0.33
   3   4   6    5.50    0.30
   3   4   6    5.17    0.40
   3   4   6    4.92    0.44
   3   4   6    5.59    0.34
   4   4   6    0.30    0.06
   4   4   6    0.31    0.05
   4   4   6    0.25    0.04
   4   4   6    0.29    0.05
   4   4   6    0.27    0.04
   5   4   6    0.01    0.04
   5   4   6    0.02    0.03
   5   4   6    0.00    0.02
   5   4   6    0.00    0.02
   5   4   6    0.02    0.02
   5  -5  -6    2.97    0.26
   5  -5  -6    2.83    0.22
  -5   5   6    2.87    0.15
   4  -5  -6    5.38    0.49
   4  -5  -6    5.89    0.37
   4  -5  -6    5.81    0.45
   4  -5  -6    6.31    0.43
   4  -5  -6    5.79    0.32
  -4   5   6    5.45    0.28
  -4   5   6    5.29    0.35
   3  -5  -6   20.32    1.26
   3  -5  -6   21.19    1.11
   3  -5  -6   22.17    1.25
  -3   5   6   21.45    1.23
  -3   5   6   20.67    0.99
   2  -5  -6   16.18    0.99
   2  -5  -6   16.95    0.87
   2  -5  -6   16.56    1.21
   2  -5  -6   16.81    0.99
  -2   5   6   17.17    0.78
  -2   5   6   15.36    0.95
  -2   5   6   15.54    0.87
  -2   5   6   17.43    0.97
   1  -5  -6    5.12    0.29
   1  -5  -6    5.34    0.34
   1  -5  -6    5.18    0.33
  -1   5   6    4.82    0.32
  -1   5   6    4.78    0.29
  -1   5   6    5.25    0.26
  -1   5   6    5.08    0.32
   0  -5  -6    5.47    0.35
   0  -5  -6    4.53    0.30
   0   5   6    5.76    0.33
   0   5   6    5.18    0.33
   0   5   6    5.41    0.33
   0   5   6    5.52    0.30
  -1  -5  -6    9.07    0.58
   1   5   6    8.73    0.63
   1   5   6   10.30    0.57
   1   5   6   10.29    0.51
   1   5   6    9.35    0.55
   1   5   6    9.41    0.56
   1   5   6    9.78    0.57
   1   5   6    8.51    0.75
   2   5   6    3.09    0.21
   2   5   6    3.09    0.21
   2   5   6    3.52    0.23
   2   5   6    3.34    0.19
   2   5   6    2.99    0.23
   2   5   6    3.29    0.20
   2   5   6    2.81    0.27
   3   5   6    0.01    0.04
   3   5   6    0.01    0.03
   3   5   6    0.02    0.06
   3   5   6    0.03    0.06
   3   5   6    0.02    0.05
   3   5   6   -0.03    0.04
   4   5   6    0.02    0.04
   4   5   6    0.04    0.03
   4   5   6    0.01    0.04
   4   5   6   -0.03    0.03
   4  -6  -6    0.03    0.05
   4  -6  -6    0.17    0.04
   4  -6  -6    0.02    0.07
   4  -6  -6    0.08    0.03
  -4   6   6    0.10    0.03
  -4   6   6    0.09    0.04
   3  -6  -6    8.58    0.54
   3  -6  -6    9.56    0.53
   3  -6  -6    8.86    0.47
  -3   6   6    8.06    0.52
  -3   6   6    8.50    0.42
   2  -6  -6    6.36    0.35
   2  -6  -6    6.48    0.40
   2  -6  -6    6.33    0.40
  -2   6   6    6.15    0.39
  -2   6   6    6.27    0.32
   1  -6  -6    3.76    0.23
   1  -6  -6    3.74    0.26
  -1   6   6    4.14    0.25
  -1   6   6    3.52    0.24
  -1   6   6    3.73    0.23
  -1   6   6    3.79    0.20
   0  -6  -6    0.05    0.04
   0  -6  -6    0.00    0.07
   0   6   6    0.10    0.04
   0   6   6    0.12    0.04
   0   6   6    0.14    0.05
  -1  -6  -6   46.79    2.82
   1   6   6   49.10    2.52
   1   6   6   50.52    2.82
   1   6   6   49.79    2.80
   1   6   6   44.74    2.75
   1   6   6   49.93    2.52
   2   6   6    1.46    0.11
   2   6   6    1.51    0.11
   2   6   6    1.47    0.11
   2   6   6    1.54    0.11
   2   6   6    1.59    0.12
   2   6   6    1.25    0.16
   2   6   6    1.32    0.14
  -3  -6  -6    0.26    0.07
   3   6   6    0.22    0.05
   3   6   6    0.34    0.05
   3   6   6    0.21    0.05
   3   6   6    0.18    0.06
   3   6   6    0.37    0.06
   3   6   6    0.26    0.04
   4   6   6    0.31    0.05
   4   6   6    0.24    0.04
   4   6   6    0.39    0.03
   4   6   6    0.30    0.05
   4   6   6    0.36    0.05
   4  -7  -6    0.27    0.04
   4  -7  -6    0.20    0.03
   4  -7  -6    0.24    0.05
   4  -7  -6    0.29    0.04
  -4   7   6    0.38    0.04
  -4   7   6    0.28    0.04
   3  -7  -6    7.16    0.38
   3  -7  -6    7.29    0.43
   3  -7  -6    7.35    0.44
   3  -7  -6    6.30    0.58
  -3   7   6    7.10    0.41
  -3   7   6    7.13    0.34
  -3   7   6    6.82    0.42
   2  -7  -6    4.89    0.31
   2  -7  -6    5.12    0.27
   2  -7  -6    4.41    0.44
  -2   7   6    4.99    0.24
   1  -7  -6    0.07    0.05
   1  -7  -6    0.05    0.04
  -1   7   6   -0.04    0.03
  -1   7   6    0.00    0.03
  -1   7   6   -0.02    0.04
   0  -7  -6    1.25    0.12
   0   7   6    0.96    0.11
   0   7   6    1.00    0.10
   0   7   6    1.12    0.10
   1   7   6   -0.01    0.08
   1   7   6    0.14    0.05
   1   7   6    0.11    0.05
   1   7   6    0.10    0.04
  -2  -7  -6    0.18    0.05
   2   7   6    0.18    0.05
   2   7   6    0.27    0.05
   2   7   6    0.23    0.05
   2   7   6    0.08    0.06
   2   7   6    0.20    0.04
   2   7   6    0.18    0.03
   2   7   6    0.19    0.05
   2   7   6    0.21    0.04
   2   7   6    0.10    0.05
   3   7   6    2.59    0.22
   3   7   6    2.28    0.18
   3   7   6    2.87    0.15
   3   7   6    2.52    0.20
   3   7   6    2.62    0.19
   3  -8  -6    0.46    0.06
   3  -8  -6    0.37    0.04
   3  -8  -6    0.40    0.06
  -3   8   6    0.25    0.04
  -3   8   6    0.41    0.04
  -3   8   6    0.41    0.06
   2  -8  -6    0.09    0.04
   2  -8  -6    0.10    0.05
   2  -8  -6    0.06    0.03
  -2   8   6    0.12    0.03
  -2   8   6    0.08    0.02
  -2   8   6    0.14    0.03
   1  -8  -6    2.53    0.19
   1  -8  -6    2.62    0.18
   1  -8  -6    2.75    0.16
  -1   8   6    2.60    0.14
  -1   8   6    2.77    0.16
  -1   8   6    2.47    0.17
  -1   8   6    2.58    0.17
  -1   8   6    2.62    0.18
   0  -8  -6    9.41    0.57
   0  -8  -6    9.65    0.50
   0   8   6    9.45    0.56
   0   8   6    8.89    0.55
   0   8   6    9.57    0.50
  -1  -8  -6    0.10    0.04
   1   8   6    0.06    0.03
   1   8   6    0.12    0.04
   1   8   6    0.08    0.04
   1   8   6    0.03    0.05
  -2  -8  -6    2.96    0.21
   2   8   6    3.26    0.23
   2   8   6    2.81    0.24
   2   8   6    3.50    0.18
   2   8   6    3.41    0.20
   2  -9  -6   -0.04    0.03
   2  -9  -6   -0.04    0.03
  -2   9   6    0.02    0.02
  -2   9   6   -0.02    0.02
   1  -9  -6    0.10    0.03
   1  -9  -6    0.00    0.04
  -1   9   6    0.05    0.02
  -1   9   6    0.05    0.03
   0  -9  -6    1.22    0.08
   0  -9  -6    1.25    0.10
   0   9   6    1.04    0.10
   0   9   6    1.10    0.09
   0   9   6    1.25    0.08
  -1  -9  -6    0.72    0.07
  -1  -9  -6    0.80    0.06
   1   9   6    0.70    0.07
   1   9   6    0.80    0.05
   1   9   6    0.59    0.06
   2  11  -7    5.91    0.31
   2  11  -7    6.00    0.34
   2  11  -7    5.18    0.44
  -2 -11   7    6.52    0.32
   1  11  -7    0.21    0.04
   1  11  -7    0.28    0.04
   1  11  -7    0.18    0.03
  -1 -11   7    0.28    0.04
  -1 -11   7    0.27    0.03
   0  11  -7    0.64    0.05
   0  11  -7    0.76    0.08
   0  11  -7    0.58    0.06
   0 -11   7    0.77    0.07
   0 -11   7    0.62    0.06
   0 -11   7    0.63    0.04
  -1  11  -7    0.08    0.03
  -1  11  -7    0.04    0.02
  -1  11  -7    0.08    0.03
   1 -11   7    0.10    0.03
   1 -11   7    0.04    0.03
  -2  11  -7    0.02    0.02
  -2  11  -7   -0.01    0.03
  -2  11  -7    0.10    0.05
   2 -11   7    0.01    0.03
   2 -11   7   -0.01    0.03
   2 -11   7    0.00    0.02
   3  10  -7    2.20    0.18
  -3 -10   7    2.41    0.13
   2  10  -7   10.63    0.76
   2  10  -7   11.56    0.60
   2  10  -7   11.64    0.64
   2  10  -7   10.85    0.85
   2  10  -7   11.85    0.66
  -2 -10   7   12.00    0.62
  -2 -10   7   11.76    0.54
   1  10  -7    6.32    0.34
   1  10  -7    6.32    0.36
   1  10  -7    6.08    0.37
  -1 -10   7    6.22    0.34
  -1 -10   7    6.19    0.30
  -1 -10   7    5.88    0.34
   0  10  -7    4.22    0.27
   0  10  -7    4.20    0.22
   0  10  -7    4.44    0.24
   0  10  -7    4.22    0.26
   0 -10   7    4.44    0.22
   0 -10   7    4.33    0.25
   0 -10   7    4.72    0.25
  -1  10  -7    0.94    0.12
  -1  10  -7    1.00    0.10
  -1  10  -7    1.08    0.07
  -1  10  -7    0.91    0.10
   1 -10   7    1.03    0.09
   1 -10   7    1.08    0.06
   1 -10   7    1.01    0.12
   1 -10   7    1.08    0.08
   1 -10   7    1.11    0.08
  -2  10  -7    0.29    0.05
  -2  10  -7    0.14    0.03
  -2  10  -7    0.13    0.04
  -2  10  -7    0.19    0.05
   2 -10   7    0.05    0.05
   2 -10   7    0.19    0.03
   2 -10   7    0.14    0.03
   2 -10   7    0.17    0.04
  -3  10  -7    0.03    0.04
  -3  10  -7    0.02    0.02
   3 -10   7    0.02    0.03
   3 -10   7    0.02    0.03
   3 -10   7    0.08    0.02
   3 -10   7    0.07    0.03
   3   9  -7   10.80    0.76
   3   9  -7   11.82    0.59
   3   9  -7    9.94    0.63
   3   9  -7   13.33    0.88
   3   9  -7   11.50    0.65
   3   9  -7   10.48    0.84
  -3  -9   7   11.15    0.61
  -3  -9   7   11.26    0.53
   2   9  -7    0.89    0.09
   2   9  -7    1.12    0.08
   2   9  -7    1.06    0.09
   2   9  -7    0.84    0.10
   2   9  -7    1.20    0.13
   2   9  -7    1.23    0.10
  -2  -9   7    1.02    0.08
  -2  -9   7    0.97    0.07
   1   9  -7    0.91    0.09
   1   9  -7    0.97    0.09
   1   9  -7    0.92    0.10
  -1  -9   7    1.08    0.09
  -1  -9   7    0.95    0.07
   0   9  -7    1.73    0.12
   0   9  -7    1.64    0.11
   0   9  -7    1.61    0.14
   0  -9   7    1.74    0.11
   0  -9   7    1.67    0.11
   0  -9   7    1.70    0.10
   0  -9   7    1.67    0.11
  -1   9  -7    0.14    0.04
  -1   9  -7    0.04    0.03
  -1   9  -7    0.18    0.04
   1  -9   7    0.13    0.04
   1  -9   7    0.19    0.04
   1  -9   7    0.13    0.04
   1  -9   7    0.08    0.02
  -2   9  -7    0.22    0.07
  -2   9  -7    0.29    0.03
   2  -9   7    0.33    0.06
   2  -9   7    0.25    0.03
   2  -9   7    0.26    0.05
  -3   9  -7    0.01    0.03
  -3   9  -7    0.03    0.03
   3  -9   7    0.04    0.04
   3  -9   7    0.05    0.03
   3  -9   7    0.04    0.03
   3  -9   7    0.01    0.02
  -4   9  -7    1.54    0.10
  -4   9  -7    1.67    0.09
   4  -9   7    1.64    0.09
   4  -9   7    1.21    0.10
   4  -9   7    1.25    0.11
   4   8  -7    6.76    0.46
   4   8  -7    7.05    0.48
   4   8  -7    6.43    0.51
   4   8  -7    6.80    0.53
   3   8  -7    7.68    0.54
   3   8  -7    6.29    0.47
   3   8  -7    6.42    0.52
   3   8  -7    6.37    0.49
   3   8  -7    7.20    0.39
   3   8  -7    6.95    0.37
   3   8  -7    7.23    0.41
   3   8  -7    5.80    0.53
  -3  -8   7    7.01    0.38
  -3  -8   7    7.10    0.33
   2   8  -7    1.24    0.10
   2   8  -7    1.13    0.10
   2   8  -7    1.44    0.12
   2   8  -7    1.24    0.09
  -2  -8   7    1.11    0.08
  -2  -8   7    1.11    0.10
   1   8  -7    0.84    0.09
   1   8  -7    0.96    0.10
   1   8  -7    0.93    0.11
   1   8  -7    0.98    0.09
  -1  -8   7    0.80    0.07
  -1  -8   7    0.76    0.07
  -1  -8   7    0.74    0.10
   0   8  -7    0.92    0.09
   0   8  -7    1.03    0.11
   0   8  -7    0.97    0.09
   0  -8   7    1.11    0.08
   0  -8   7    1.04    0.09
   0  -8   7    1.03    0.08
  -1   8  -7   21.30    1.01
  -1   8  -7   21.37    1.12
  -1   8  -7   21.31    1.19
  -1   8  -7   20.05    1.22
   1  -8   7   22.39    1.16
   1  -8   7   21.85    1.13
   1  -8   7   21.96    1.13
   1  -8   7   21.71    1.27
   1  -8   7   21.76    1.01
  -2   8  -7   -0.02    0.03
   2  -8   7    0.10    0.06
   2  -8   7    0.02    0.02
   2  -8   7   -0.01    0.04
  -3   8  -7    2.00    0.13
   3  -8   7    2.22    0.16
   3  -8   7    2.26    0.14
   3  -8   7    2.26    0.19
   3  -8   7    2.25    0.14
  -4   8  -7    2.90    0.16
  -4   8  -7    2.91    0.18
   4  -8   7    3.07    0.16
   4  -8   7    2.80    0.18
   4  -8   7    2.76    0.17
   4  -8   7    2.97    0.26
   4  -8   7    2.94    0.19
   4  -8   7    2.88    0.19
   4   7  -7   10.96    0.89
   4   7  -7   11.81    0.66
   4   7  -7   11.72    0.88
   4   7  -7   13.03    0.83
   4   7  -7   11.48    0.79
   3   7  -7   15.10    0.80
   3   7  -7   14.27    0.82
   3   7  -7   12.81    1.06
   3   7  -7   13.19    1.07
   3   7  -7   13.32    0.95
   3   7  -7   14.96    0.75
   3   7  -7   15.76    0.94
   2   7  -7   52.11    2.69
   2   7  -7   45.80    3.42
   2   7  -7   49.88    2.92
   2   7  -7   53.90    3.96
   2   7  -7   52.02    2.84
   2   7  -7   57.85    3.37
  -2  -7   7   51.36    2.40
   1   7  -7   20.21    1.07
   1   7  -7   21.03    1.17
   1   7  -7   20.85    1.13
  -1  -7   7   20.27    1.07
  -1  -7   7   20.17    0.96
   0   7  -7    2.04    0.14
   0   7  -7    2.24    0.13
  -1   7  -7    0.21    0.05
  -1   7  -7    0.22    0.05
  -1   7  -7    0.21    0.05
   1  -7   7    0.35    0.06
   1  -7   7    0.22    0.04
   1  -7   7    0.15    0.04
   1  -7   7    0.20    0.08
  -2   7  -7   -0.01    0.03
   2  -7   7   -0.02    0.04
   2  -7   7    0.05    0.05
   2  -7   7    0.09    0.05
   2  -7   7    0.03    0.04
   2  -7   7   -0.02    0.03
   3  -7   7    0.29    0.05
   3  -7   7    0.32    0.04
   3  -7   7    0.31    0.07
   3  -7   7    0.22    0.06
   3  -7   7    0.26    0.06
  -4   7  -7    1.10    0.12
   4  -7   7    1.29    0.09
   4  -7   7    1.24    0.11
   4  -7   7    1.24    0.14
   4  -7   7    1.18    0.11
   4  -7   7    1.41    0.12
   4  -7   7    1.36    0.12
   4  -7   7    1.28    0.10
   5  -7   7    5.09    0.31
   5  -7   7    5.18    0.31
   5   6  -7    0.07    0.03
   5   6  -7    0.10    0.03
   5   6  -7    0.05    0.04
   5   6  -7    0.10    0.03
   4   6  -7    0.36    0.07
   4   6  -7    0.54    0.07
   4   6  -7    0.37    0.06
   4   6  -7    0.42    0.08
   4   6  -7    0.56    0.10
   4   6  -7    0.42    0.07
   4   6  -7    0.52    0.06
   3   6  -7   11.79    0.96
   3   6  -7   12.47    0.73
   3   6  -7   12.84    0.87
   3   6  -7   14.11    0.85
   3   6  -7   12.34    0.91
   3   6  -7   13.60    1.00
   3   6  -7   12.93    0.75
   2   6  -7   29.82    1.50
   2   6  -7   30.37    1.59
   2   6  -7   26.08    1.90
   1   6  -7    0.61    0.09
   1   6  -7    0.79    0.10
   1   6  -7    0.87    0.09
   1   6  -7    0.56    0.12
   1   6  -7    0.72    0.10
  -1  -6   7    0.75    0.09
  -1  -6   7    0.76    0.08
   0  -6   7    3.57    0.37
   0  -6   7    4.01    0.22
  -1   6  -7    0.89    0.10
   1  -6   7    0.98    0.10
   1  -6   7    0.94    0.08
   1  -6   7    1.09    0.11
  -2   6  -7    1.54    0.12
   2  -6   7    1.61    0.14
   2  -6   7    1.25    0.14
   2  -6   7    1.44    0.20
   2  -6   7    1.63    0.13
   2  -6   7    1.56    0.10
  -3   6  -7   67.56    3.22
  -3   6  -7   64.94    3.78
   3  -6   7   70.34    3.59
   3  -6   7   69.97    4.03
   3  -6   7   74.42    5.12
   3  -6   7   69.98    3.60
   3  -6   7   68.58    4.03
  -4   6  -7    6.25    0.41
   4  -6   7    7.56    0.39
   4  -6   7    7.16    0.44
   4  -6   7    7.84    0.56
   4  -6   7    7.47    0.40
   4  -6   7    7.08    0.45
   5  -6   7    1.90    0.13
   5  -6   7    1.99    0.17
   5  -6   7    1.65    0.12
   5  -6   7    1.87    0.13
   5  -6   7    1.57    0.15
   5   5  -7    2.32    0.19
   5   5  -7    2.36    0.18
   5   5  -7    2.34    0.20
   5   5  -7    2.25    0.17
   4   5  -7    0.06    0.04
   4   5  -7    0.13    0.06
   4   5  -7    0.12    0.04
   4   5  -7    0.13    0.04
   4   5  -7    0.09    0.04
   3   5  -7    4.21    0.35
   3   5  -7    4.36    0.29
   3   5  -7    3.81    0.34
   3   5  -7    4.00    0.25
   3   5  -7    4.03    0.31
   3   5  -7    4.20    0.26
   2   5  -7   19.93    1.49
   2   5  -7   23.32    1.17
   2   5  -7   23.66    1.73
   2   5  -7   24.92    1.47
   2   5  -7   20.94    1.57
   2   5  -7   22.25    1.28
   2   5  -7   22.37    1.24
   1   5  -7   -0.01    0.06
   1   5  -7   -0.03    0.08
  -1  -5   7    0.04    0.04
  -1  -5   7    0.08    0.06
  -1  -5   7    0.06    0.09
   0   5  -7   10.73    0.46
   0  -5   7   10.52    0.93
   0  -5   7   11.43    0.58
   0  -5   7   10.44    0.71
  -1   5  -7    0.20    0.06
  -1   5  -7    0.23    0.06
  -1   5  -7    0.25    0.09
  -1   5  -7    0.38    0.06
  -1   5  -7    0.23    0.05
   1  -5   7    0.26    0.06
  -2   5  -7    5.36    0.29
   2  -5   7    6.14    0.33
   2  -5   7    5.57    0.49
  -3   5  -7   25.12    1.52
   3  -5   7   27.33    1.62
   3  -5   7   25.85    1.63
   3  -5   7   27.62    1.44
   3  -5   7   28.75    2.20
   3  -5   7   28.14    1.62
   3  -5   7   30.25    2.05
   4  -5   7    0.17    0.06
   4  -5   7    0.16    0.04
   4  -5   7    0.19    0.05
   4  -5   7    0.16    0.04
   4  -5   7    0.07    0.06
   4  -5   7    0.15    0.05
   5  -5   7   11.29    0.69
   5  -5   7   12.09    0.86
   5  -5   7   10.55    0.61
   5  -5   7   12.32    0.93
   5  -5   7   11.29    0.69
   5   4  -7    2.98    0.22
   5   4  -7    2.53    0.21
   5   4  -7    2.67    0.20
   5   4  -7    2.43    0.19
   5   4  -7    2.21    0.21
   4   4  -7   14.66    1.03
   4   4  -7   15.71    0.86
   4   4  -7   16.64    1.20
   4   4  -7   17.39    1.02
   4   4  -7   14.31    1.14
   4   4  -7   15.63    1.09
   4   4  -7   13.42    1.16
   3   4  -7    0.00    0.06
   3   4  -7    0.25    0.05
   3   4  -7    0.12    0.04
   3   4  -7    0.16    0.06
   2   4  -7    2.91    0.24
  -2  -4   7    2.94    0.19
   1   4  -7    1.98    0.15
   1   4  -7    1.89    0.13
   1   4  -7    1.71    0.12
   1   4  -7    1.95    0.15
  -1  -4   7    1.64    0.12
   0   4  -7   28.61    1.18
   0   4  -7   27.84    1.18
   0   4  -7   29.80    1.43
   0   4  -7   28.15    1.26
   0  -4   7   29.70    2.48
   0  -4   7   27.06    2.43
   0  -4   7   29.78    1.86
   0  -4   7   28.95    1.25
  -2   4  -7   11.05    0.52
  -2   4  -7   10.37    0.61
  -3   4  -7    1.00    0.10
   3  -4   7    1.00    0.10
   3  -4   7    1.05    0.12
   3  -4   7    1.11    0.13
   3  -4   7    0.93    0.10
   3  -4   7    1.18    0.12
   4  -4   7   22.08    1.13
   4  -4   7   20.79    1.26
   4  -4   7   20.44    1.27
   4  -4   7   22.05    1.71
   5  -4   7    0.61    0.09
   5  -4   7    0.56    0.11
   5  -4   7    0.46    0.06
   5  -4   7    0.54    0.06
   5  -4   7    0.51    0.07
   5   3  -7    0.66    0.09
   5   3  -7    0.68    0.10
   5   3  -7    0.65    0.07
   5   3  -7    0.63    0.07
   5   3  -7    0.62    0.08
   4   3  -7    3.19    0.28
   4   3  -7    3.42    0.28
   4   3  -7    3.31    0.25
   4   3  -7    3.16    0.24
   4   3  -7    3.06    0.27
   3   3  -7    6.88    0.38
   3   3  -7    7.37    0.55
   3   3  -7    7.07    0.41
   3   3  -7    6.44    0.50
   3   3  -7    6.21    0.53
   3   3  -7    7.79    0.47
   3   3  -7    6.87    0.41
  -3  -3   7    6.98    0.34
   2   3  -7    1.92    0.13
   2   3  -7    2.23    0.15
   2   3  -7    1.80    0.19
  -2  -3   7    2.10    0.12
   1   3  -7    0.48    0.04
   1   3  -7    0.45    0.04
   1   3  -7    0.67    0.09
  -1  -3   7    0.46    0.05
   0   3  -7   45.34    2.07
   0   3  -7   42.97    1.70
   0   3  -7   40.96    1.81
   0   3  -7   40.24    1.69
   0   3  -7   47.26    2.55
   0   3  -7   41.83    1.78
   0  -3   7   39.35    1.81
   0  -3   7   39.41    2.28
   0  -3   7   37.24    3.50
  -1   3  -7   83.85    3.69
  -1   3  -7   85.14    3.46
  -1   3  -7   82.25    4.23
  -1   3  -7   81.31    3.70
  -1   3  -7   84.00    3.64
   1  -3   7   92.08    8.40
   1  -3   7   87.50    7.31
  -2   3  -7    0.81    0.09
  -2   3  -7    0.85    0.08
  -2   3  -7    0.65    0.07
   2  -3   7    0.78    0.11
   2  -3   7    0.80    0.07
   2  -3   7    0.68    0.08
   2  -3   7    0.71    0.10
   2  -3   7    0.58    0.09
   3  -3   7   27.68    1.47
   3  -3   7   29.00    2.25
   3  -3   7   29.05    1.48
   3  -3   7   28.00    1.67
   3  -3   7   27.18    1.65
   4  -3   7    3.77    0.23
   4  -3   7    4.08    0.34
   4  -3   7    3.74    0.25
   4  -3   7    3.55    0.25
   5  -3   7    0.50    0.06
   5  -3   7    0.51    0.08
   5  -3   7    0.55    0.08
   5  -3   7    0.48    0.07
   6   2  -7    2.98    0.23
   6   2  -7    3.49    0.22
   6   2  -7    3.26    0.26
   6   2  -7    3.35    0.25
   5   2  -7    5.14    0.37
   5   2  -7    4.92    0.39
   5   2  -7    4.48    0.40
   5   2  -7    5.77    0.41
   5   2  -7    4.86    0.35
   4   2  -7    4.40    0.27
   4   2  -7    4.77    0.33
   4   2  -7    3.97    0.35
   4   2  -7    4.23    0.31
   4   2  -7    4.18    0.34
   3   2  -7    3.15    0.18
   3   2  -7    2.61    0.26
  -3  -2   7    3.27    0.17
   2   2  -7    4.52    0.32
   2   2  -7    4.72    0.23
   2   2  -7    4.44    0.25
   2   2  -7    4.30    0.33
  -2  -2   7    4.28    0.26
   1   2  -7   80.79    4.57
   1   2  -7   75.45    4.09
   1   2  -7   78.17    3.05
  -1  -2   7   69.07    4.09
  -1  -2   7   71.63    4.09
   0   2  -7    0.45    0.04
   0   2  -7    0.60    0.04
   0   2  -7    0.39    0.03
   0  -2   7    0.44    0.04
   0  -2   7    0.48    0.04
   0  -2   7    0.40    0.06
   0  -2   7    0.37    0.03
   0  -2   7    0.38    0.04
   0  -2   7    0.48    0.04
  -1   2  -7   37.31    1.63
  -1   2  -7   36.24    1.60
  -1   2  -7   37.35    1.52
  -1   2  -7   35.58    1.86
   1  -2   7   38.61    3.21
   1  -2   7   38.53    3.68
  -2   2  -7   31.59    1.35
  -2   2  -7   32.31    1.32
   2  -2   7   28.34    2.66
   3  -2   7   14.86    1.04
   3  -2   7   14.29    0.83
   3  -2   7   12.59    0.73
   3  -2   7   13.98    0.82
   3  -2   7   15.18    0.74
   3  -2   7   11.63    1.07
   4  -2   7   18.49    0.95
   4  -2   7   17.79    1.07
   4  -2   7   16.74    1.06
   4  -2   7   19.05    1.44
   4  -2   7   18.66    0.98
   4  -2   7   16.97    1.19
   5  -2   7    2.79    0.20
   5  -2   7    3.30    0.19
   5  -2   7    2.93    0.20
   5  -2   7    3.29    0.28
   6  -2   7    1.16    0.11
   6   1  -7    0.27    0.04
   6   1  -7    0.28    0.04
   6   1  -7    0.19    0.04
   5   1  -7    0.95    0.10
   5   1  -7    1.02    0.10
   5   1  -7    0.88    0.11
   5   1  -7    1.02    0.10
   4   1  -7    0.42    0.08
   4   1  -7    0.30    0.07
   4   1  -7    0.29    0.05
   4   1  -7    0.24    0.06
   4   1  -7    0.32    0.06
   3   1  -7   21.43    1.45
   3   1  -7   21.87    1.21
   3   1  -7   20.57    1.30
   3   1  -7   20.60    1.20
   3   1  -7   23.89    1.14
   3   1  -7   21.88    1.53
  -3  -1   7   22.51    1.02
   2   1  -7   29.00    1.80
  -2  -1   7   29.37    1.60
   1   1  -7    8.97    0.49
   1   1  -7    9.45    0.56
   1   1  -7    8.99    0.37
  -1  -1   7    8.89    0.44
  -1  -1   7    8.86    0.39
  -1  -1   7    8.55    0.46
  -1  -1   7    8.50    0.49
   0   1  -7    1.57    0.08
   0   1  -7    1.55    0.08
   0   1  -7    1.62    0.10
   0   1  -7    1.59    0.08
   0  -1   7    1.61    0.08
   0  -1   7    1.46    0.08
   0  -1   7    1.86    0.18
   0  -1   7    1.50    0.09
   0  -1   7    1.51    0.09
   0  -1   7    1.55    0.08
  -1   1  -7    0.41    0.04
  -1   1  -7    0.27    0.03
  -1   1  -7    0.37    0.04
  -1   1  -7    0.40    0.05
  -1   1  -7    0.35    0.03
   1  -1   7    0.29    0.03
   1  -1   7    0.32    0.02
   1  -1   7    0.28    0.04
   1  -1   7    0.29    0.06
  -2   1  -7   17.25    1.31
  -2   1  -7   16.07    0.66
  -2   1  -7   14.75    0.67
   2  -1   7   14.32    0.86
   2  -1   7   12.81    1.32
   3  -1   7    0.04    0.04
   3  -1   7    0.03    0.05
   3  -1   7   -0.01    0.07
   3  -1   7    0.05    0.04
   3  -1   7    0.15    0.07
   3  -1   7    0.04    0.04
   4  -1   7   -0.01    0.04
   4  -1   7    0.00    0.05
   4  -1   7    0.05    0.05
   4  -1   7    0.02    0.05
   4  -1   7    0.00    0.10
   4  -1   7    0.04    0.03
   5  -1   7    0.16    0.04
   5  -1   7    0.14    0.05
   5  -1   7    0.20    0.05
   5  -1   7    0.22    0.05
   5  -1   7    0.18    0.04
   6   0  -7    0.01    0.02
   6   0  -7    0.01    0.02
   6   0  -7    0.05    0.03
   5   0  -7    2.90    0.26
   5   0  -7    3.29    0.26
   5   0  -7    3.18    0.23
   5   0  -7    3.54    0.24
   5   0  -7    2.91    0.31
   4   0  -7    0.31    0.06
   4   0  -7    0.22    0.05
   4   0  -7    0.20    0.06
   4   0  -7    0.16    0.05
   4   0  -7    0.19    0.06
   4   0  -7    0.25    0.06
   4   0  -7    0.13    0.10
   3   0  -7    0.02    0.09
   3   0  -7    0.06    0.04
   3   0  -7    0.04    0.04
   3   0  -7    0.00    0.05
   3   0  -7    0.00    0.06
  -3   0   7    0.02    0.05
   2   0  -7    1.19    0.10
   2   0  -7    1.51    0.14
  -2   0   7    1.21    0.12
  -2   0   7    1.05    0.10
  -2   0   7    1.39    0.08
   1   0  -7   13.21    0.55
   1   0  -7   14.34    0.73
   1   0  -7   13.51    0.73
  -1   0   7   13.13    0.58
  -1   0   7   12.96    0.58
  -1   0   7   12.45    0.73
  -1   0   7   12.67    0.67
  -1   0   7   13.13    0.66
   0   0  -7   36.29    1.90
   0   0  -7   34.07    1.51
   0   0  -7   35.03    1.49
   0   0  -7   34.29    1.50
   0   0  -7   33.08    1.41
   0   0   7   34.42    1.49
   0   0   7   35.85    1.41
   0   0   7   35.10    1.51
   0   0   7   33.47    1.51
   0   0   7   35.45    1.73
  -1   0  -7    4.09    0.19
  -1   0  -7    4.15    0.19
  -1   0  -7    4.32    0.19
  -1   0  -7    4.14    0.18
   1   0   7    4.13    0.36
   1   0   7    3.82    0.19
   1   0   7    4.43    0.18
   1   0   7    3.84    0.43
  -2   0  -7   12.17    0.98
  -2   0  -7   10.19    0.50
   2   0   7   11.06    0.60
   3   0   7    0.15    0.04
   3   0   7    0.14    0.05
   3   0   7    0.19    0.06
   3   0   7    0.24    0.07
   4   0   7    3.41    0.21
   4   0   7    3.29    0.24
   4   0   7    3.47    0.24
   4   0   7    3.38    0.26
   4   0   7    3.91    0.31
   5   0   7    3.61    0.23
   5   0   7    3.66    0.21
   5   0   7    3.26    0.26
   5   0   7    3.52    0.23
   5   0   7    3.94    0.32
   5  -1  -7    2.19    0.19
   5  -1  -7    2.33    0.19
   5  -1  -7    1.85    0.22
   5  -1  -7    2.42    0.17
   5  -1  -7    2.45    0.18
   4  -1  -7    1.81    0.14
   4  -1  -7    1.49    0.16
   4  -1  -7    1.55    0.14
   4  -1  -7    1.36    0.21
   4  -1  -7    1.81    0.15
   3  -1  -7    4.57    0.33
   3  -1  -7    5.60    0.35
   3  -1  -7    4.36    0.32
   3  -1  -7    5.03    0.28
  -3   1   7    4.88    0.25
   2  -1  -7    0.14    0.11
   2  -1  -7    0.21    0.07
   1  -1  -7   28.24    1.48
   1  -1  -7   24.40    1.10
   1  -1  -7   27.53    1.47
   1  -1  -7   31.03    1.88
  -1   1   7   23.46    2.33
  -1   1   7   26.02    1.18
  -1   1   7   30.09    2.28
  -1   1   7   28.92    1.53
  -1   1   7   29.27    1.11
  -1   1   7   23.82    1.48
  -1   1   7   25.26    1.18
  -1   1   7   25.02    1.34
   0  -1  -7    2.97    0.15
   0  -1  -7    2.75    0.15
   0  -1  -7    2.97    0.17
   0  -1  -7    2.73    0.14
   0  -1  -7    2.90    0.14
   0   1   7    2.89    0.15
   0   1   7    2.69    0.14
   0   1   7    3.38    0.27
   0   1   7    2.80    0.13
   0   1   7    2.96    0.13
   0   1   7    2.61    0.15
   0   1   7    2.88    0.14
   0   1   7    2.68    0.17
  -1  -1  -7    2.59    0.14
  -1  -1  -7    2.91    0.14
  -1  -1  -7    2.68    0.13
  -1  -1  -7    2.43    0.15
   1   1   7    2.60    0.13
   1   1   7    2.36    0.32
   1   1   7    2.53    0.25
   1   1   7    2.95    0.21
   2   1   7    8.43    0.44
   2   1   7    7.98    0.50
   2   1   7    8.31    0.57
   2   1   7    7.82    0.45
   3   1   7    0.23    0.05
   3   1   7    0.23    0.04
   3   1   7    0.20    0.07
   3   1   7    0.19    0.07
   3   1   7    0.28    0.05
   4   1   7    0.22    0.05
   4   1   7    0.30    0.05
   4   1   7    0.29    0.06
   4   1   7    0.20    0.07
   4   1   7    0.28    0.06
   5   1   7    1.57    0.15
   5   1   7    1.66    0.12
   5   1   7    1.62    0.12
   5   1   7    1.69    0.18
   5   1   7    1.59    0.11
   5   1   7    1.57    0.13
   5  -2  -7    0.15    0.08
   5  -2  -7    0.18    0.06
   5  -2  -7    0.20    0.04
   5  -2  -7    0.21    0.04
  -5   2   7    0.12    0.05
   4  -2  -7    1.33    0.15
   4  -2  -7    0.97    0.17
   4  -2  -7    1.20    0.12
   4  -2  -7    1.18    0.16
   4  -2  -7    1.19    0.12
   4  -2  -7    1.07    0.10
   4  -2  -7    1.30    0.11
  -4   2   7    1.16    0.10
   3  -2  -7    3.44    0.26
   3  -2  -7    3.77    0.31
   3  -2  -7    4.32    0.28
   3  -2  -7    3.41    0.24
   3  -2  -7    4.23    0.28
   3  -2  -7    3.37    0.31
  -3   2   7    3.81    0.24
   2  -2  -7   38.08    2.71
   2  -2  -7   34.14    2.18
   2  -2  -7   38.26    1.93
  -2   2   7   42.92    2.11
  -2   2   7   37.35    1.86
  -2   2   7   32.44    1.94
   1  -2  -7   46.21    2.70
   1  -2  -7   42.68    2.23
   1  -2  -7   39.70    2.23
  -1   2   7   37.93    2.04
  -1   2   7   39.59    1.78
  -1   2   7   39.03    1.67
   0  -2  -7   26.14    1.32
   0  -2  -7   26.97    1.18
   0  -2  -7   27.76    1.17
   0  -2  -7   27.04    1.12
   0   2   7   27.63    1.18
   0   2   7   28.89    1.18
   0   2   7   26.18    1.26
   0   2   7   25.46    1.18
   0   2   7   28.35    1.11
   0   2   7   26.61    2.30
   0   2   7   27.47    1.18
  -1  -2  -7    0.88    0.08
   1   2   7    1.10    0.15
   1   2   7    1.14    0.13
   1   2   7    1.00    0.13
   2   2   7    8.77    0.52
   2   2   7    7.81    0.60
   2   2   7    9.96    0.72
   2   2   7    8.58    0.53
   3   2   7   10.05    0.86
   3   2   7   11.61    0.66
   3   2   7   11.04    0.64
   3   2   7   10.94    0.63
   3   2   7   10.65    0.73
   3   2   7   10.95    0.59
   3   2   7   10.84    0.65
   4   2   7    1.18    0.09
   4   2   7    1.25    0.10
   4   2   7    1.24    0.10
   4   2   7    1.09    0.13
   5   2   7   10.06    0.58
   5   2   7    8.65    0.64
   5   2   7    9.74    0.51
   5   2   7    9.95    0.57
   5   2   7    9.75    0.75
   5  -3  -7    4.39    0.38
   5  -3  -7    4.75    0.31
   5  -3  -7    4.80    0.35
  -5   3   7    3.94    0.23
   4  -3  -7    7.09    0.47
   4  -3  -7    6.85    0.38
   4  -3  -7    7.61    0.52
   4  -3  -7    6.81    0.44
   4  -3  -7    5.97    0.58
   3  -3  -7  135.11    8.30
   3  -3  -7  128.19    8.38
   3  -3  -7  153.24    9.40
   3  -3  -7  156.96   10.38
   3  -3  -7  141.99    7.39
  -3   3   7  144.22    8.07
   2  -3  -7   15.88    1.02
   2  -3  -7   15.48    0.81
   2  -3  -7   16.44    1.13
   2  -3  -7   14.88    0.91
  -2   3   7   15.22    0.72
  -2   3   7   15.55    0.88
  -2   3   7   13.25    0.81
  -1   3   7   20.83    0.90
  -1   3   7   18.79    1.07
  -1   3   7   21.17    1.17
  -1   3   7   21.34    0.86
   0  -3  -7    0.00    0.07
   0  -3  -7    0.05    0.08
   0  -3  -7    0.03    0.07
   0  -3  -7    0.28    0.13
   0  -3  -7    0.09    0.08
   0   3   7   -0.04    0.07
   0   3   7    0.06    0.07
   1   3   7    0.84    0.12
   1   3   7    0.85    0.09
   2   3   7    1.43    0.13
   2   3   7    1.39    0.11
   2   3   7    1.26    0.17
   2   3   7    1.43    0.12
   3   3   7    5.54    0.51
   3   3   7    6.74    0.39
   3   3   7    6.92    0.39
   3   3   7    6.02    0.54
   3   3   7    6.17    0.44
   3   3   7    6.55    0.35
   3   3   7    6.29    0.47
   4   3   7    3.18    0.31
   4   3   7    4.20    0.24
   4   3   7    3.68    0.29
   4   3   7    3.53    0.27
   4   3   7    3.66    0.22
   4   3   7    3.97    0.24
   5   3   7    0.36    0.05
   5   3   7    0.21    0.05
   5   3   7    0.29    0.06
   5   3   7    0.35    0.04
   5  -4  -7    0.24    0.06
   5  -4  -7    0.17    0.04
   4  -4  -7    0.63    0.07
   4  -4  -7    0.67    0.08
   4  -4  -7    0.47    0.10
   4  -4  -7    0.70    0.07
   4  -4  -7    0.72    0.10
   4  -4  -7    0.77    0.09
   4  -4  -7    0.72    0.09
  -4   4   7    0.73    0.07
  -4   4   7    0.57    0.08
   3  -4  -7    0.04    0.05
   3  -4  -7    0.10    0.07
   3  -4  -7    0.09    0.06
   3  -4  -7    0.08    0.05
   2  -4  -7    4.31    0.30
   2  -4  -7    4.86    0.26
  -2   4   7    4.58    0.23
  -2   4   7    4.75    0.28
  -2   4   7    3.79    0.27
   1  -4  -7    2.90    0.23
   1  -4  -7    3.29    0.22
   1  -4  -7    3.06    0.18
  -1   4   7    3.15    0.16
  -1   4   7    2.85    0.19
   0  -4  -7    2.58    0.22
   0   4   7    3.14    0.19
   0   4   7    3.49    0.22
   0   4   7    3.09    0.24
   0   4   7    3.32    0.18
   0   4   7    3.17    0.21
   1   4   7    7.13    0.37
   1   4   7    6.65    0.40
   1   4   7    7.11    0.42
   1   4   7    6.11    0.47
   1   4   7    6.61    0.37
   2   4   7   22.56    1.94
   2   4   7   26.77    1.32
   2   4   7   27.47    1.49
   2   4   7   23.66    1.65
   2   4   7   24.66    1.44
   2   4   7   26.53    1.48
   2   4   7   24.66    1.43
   3   4   7    7.62    0.42
   3   4   7    7.07    0.62
   3   4   7    7.69    0.47
   3   4   7    7.30    0.53
   3   4   7    7.97    0.46
   3   4   7    8.46    0.47
   3   4   7    7.71    0.56
   4   4   7    0.10    0.04
   4   4   7    0.06    0.05
   4   4   7    0.08    0.03
   4   4   7    0.07    0.03
   4   4   7    0.10    0.04
   4   4   7    0.08    0.03
   5  -5  -7    0.11    0.04
   5  -5  -7    0.10    0.02
  -5   5   7    0.13    0.02
   4  -5  -7    5.14    0.48
   4  -5  -7    5.99    0.36
   4  -5  -7    5.68    0.31
   4  -5  -7    6.06    0.36
   4  -5  -7    5.64    0.43
  -4   5   7    5.50    0.34
  -4   5   7    5.62    0.28
   3  -5  -7    2.93    0.21
   3  -5  -7    2.99    0.18
  -3   5   7    2.88    0.16
  -3   5   7    2.86    0.19
   2  -5  -7    1.68    0.16
   2  -5  -7    1.49    0.14
   2  -5  -7    1.72    0.12
   2  -5  -7    1.68    0.16
  -2   5   7    1.57    0.14
  -2   5   7    1.74    0.10
  -2   5   7    1.69    0.13
   1  -5  -7    5.78    0.38
   1  -5  -7    6.18    0.38
   1  -5  -7    5.79    0.40
  -1   5   7    5.80    0.33
  -1   5   7    5.74    0.36
  -1   5   7    5.98    0.30
  -1   5   7    6.33    0.37
   0  -5  -7    1.09    0.11
   0  -5  -7    0.95    0.12
   0   5   7    0.93    0.11
   0   5   7    0.99    0.09
   0   5   7    0.98    0.11
   0   5   7    0.92    0.11
  -1  -5  -7    5.51    0.36
   1   5   7    5.69    0.31
   1   5   7    5.31    0.33
   1   5   7    4.88    0.45
   1   5   7    5.29    0.39
   1   5   7    5.37    0.33
   1   5   7    6.03    0.35
   2   5   7    3.65    0.24
   2   5   7    3.92    0.25
   2   5   7    3.77    0.25
   3   5   7    9.33    0.49
   3   5   7    8.46    0.72
   3   5   7    9.19    0.61
   3   5   7    9.27    0.49
   3   5   7    9.54    0.54
   3   5   7    8.74    0.66
   3   5   7    9.30    0.55
   4   5   7    0.87    0.07
   4   5   7    0.76    0.10
   4   5   7    0.84    0.08
   4   5   7    0.82    0.09
   4   5   7    0.86    0.06
   4  -6  -7    0.71    0.06
   4  -6  -7    0.70    0.07
   4  -6  -7    0.70    0.07
   4  -6  -7    0.64    0.09
  -4   6   7    0.67    0.05
  -4   6   7    0.75    0.07
  -4   6   7    0.58    0.07
   3  -6  -7    2.90    0.21
   3  -6  -7    2.59    0.26
   3  -6  -7    2.97    0.20
   3  -6  -7    2.84    0.17
  -3   6   7    2.81    0.19
  -3   6   7    2.98    0.15
   2  -6  -7    3.48    0.22
   2  -6  -7    3.24    0.23
   2  -6  -7    3.41    0.20
  -2   6   7    3.14    0.17
  -2   6   7    3.37    0.21
  -2   6   7    3.17    0.21
  -2   6   7    3.35    0.21
   1  -6  -7    3.68    0.24
  -1   6   7    3.76    0.24
  -1   6   7    3.53    0.19
  -1   6   7    3.68    0.22
   0  -6  -7   23.48    1.38
   0  -6  -7   23.76    1.36
   0   6   7   22.59    1.21
   0   6   7   23.48    1.35
   0   6   7   21.97    1.32
   0   6   7   23.55    1.09
  -1  -6  -7    4.63    0.29
   1   6   7    4.76    0.29
   1   6   7    4.18    0.29
   1   6   7    4.45    0.27
   1   6   7    4.75    0.30
   1   6   7    5.05    0.26
  -2  -6  -7   10.24    0.61
   2   6   7    9.80    0.59
   2   6   7    9.64    0.73
   2   6   7   10.88    0.61
   2   6   7    9.26    0.67
   2   6   7   10.77    0.54
   2   6   7   10.24    0.54
  -3  -6  -7    2.57    0.18
   3   6   7    2.73    0.15
   3   6   7    2.79    0.17
   3   6   7    2.51    0.20
   3   6   7    2.35    0.22
   3   6   7    2.44    0.18
   4   6   7    0.45    0.05
   4   6   7    0.55    0.06
   4   6   7    0.37    0.05
   4  -7  -7    0.02    0.03
   4  -7  -7    0.08    0.05
   4  -7  -7    0.08    0.02
   4  -7  -7    0.14    0.03
  -4   7   7    0.08    0.02
  -4   7   7    0.08    0.02
   3  -7  -7    3.09    0.30
   3  -7  -7    3.50    0.23
   3  -7  -7    3.59    0.19
   3  -7  -7    3.61    0.22
  -3   7   7    3.39    0.17
  -3   7   7    3.29    0.22
  -3   7   7    3.39    0.21
   2  -7  -7    4.11    0.22
   2  -7  -7    3.30    0.35
   2  -7  -7    3.93    0.25
   2  -7  -7    3.97    0.26
  -2   7   7    3.91    0.24
  -2   7   7    4.03    0.24
  -2   7   7    3.75    0.20
   1  -7  -7    8.57    0.56
   1  -7  -7    9.33    0.50
   1  -7  -7    9.49    0.50
   1  -7  -7    9.89    0.57
  -1   7   7    9.80    0.45
  -1   7   7    8.68    0.54
  -1   7   7    9.61    0.50
  -1   7   7    9.61    0.54
  -1   7   7    8.40    0.55
   0  -7  -7    1.96    0.17
   0  -7  -7    1.75    0.13
   0   7   7    1.72    0.12
   0   7   7    1.85    0.14
  -1  -7  -7    6.33    0.38
   1   7   7    5.32    0.50
   1   7   7    6.15    0.34
   1   7   7    6.98    0.34
   1   7   7    5.93    0.37
   1   7   7    6.43    0.38
  -2  -7  -7    0.00    0.04
   2   7   7    0.02    0.03
   2   7   7   -0.05    0.03
   2   7   7   -0.02    0.02
   2   7   7   -0.04    0.06
   2   7   7    0.00    0.03
   2   7   7   -0.02    0.05
   2   7   7   -0.02    0.03
   3   7   7    0.09    0.03
   3   7   7    0.03    0.04
   3   7   7    0.07    0.03
   3   7   7    0.05    0.03
   3   7   7    0.04    0.02
   3  -8  -7    0.33    0.05
  -3   8   7    0.38    0.04
  -3   8   7    0.33    0.04
   2  -8  -7    0.01    0.03
   2  -8  -7    0.06    0.03
   2  -8  -7    0.00    0.04
  -2   8   7    0.05    0.03
  -2   8   7    0.08    0.03
  -2   8   7    0.03    0.02
   1  -8  -7    0.08    0.04
   1  -8  -7    0.05    0.04
   1  -8  -7    0.07    0.04
  -1   8   7    0.05    0.03
  -1   8   7    0.06    0.04
  -1   8   7    0.09    0.03
  -1   8   7    0.02    0.03
   0  -8  -7    2.39    0.14
   0  -8  -7    2.21    0.16
   0   8   7    2.10    0.15
   0   8   7    2.21    0.13
   0   8   7    2.13    0.15
  -1  -8  -7    0.15    0.04
   1   8   7    0.22    0.04
   1   8   7    0.25    0.04
   1   8   7    0.20    0.05
   1   8   7    0.16    0.04
  -2  -8  -7    0.49    0.07
   2   8   7    0.55    0.07
   2   8   7    0.66    0.05
   2   8   7    0.55    0.06
   1  -9  -7    0.12    0.03
  -1   9   7    0.12    0.03
   0  -9  -7    3.35    0.21
   0   9   7    3.59    0.19
   0   9   7    3.45    0.21
   2  11  -8    1.14    0.10
   2  11  -8    1.02    0.08
  -2 -11   8    1.21    0.07
   1  11  -8    0.07    0.02
   1  11  -8    0.03    0.03
   1  11  -8    0.07    0.04
  -1 -11   8    0.01    0.02
  -1 -11   8    0.03    0.01
  -1 -11   8    0.05    0.03
   0  11  -8    0.00    0.02
   0  11  -8    0.03    0.03
   0  11  -8   -0.03    0.04
   0 -11   8    0.01    0.02
   0 -11   8   -0.02    0.02
   0 -11   8   -0.02    0.02
  -1  11  -8    0.90    0.07
  -1  11  -8    0.79    0.05
  -1  11  -8    0.73    0.07
   1 -11   8    0.87    0.08
   1 -11   8    0.74    0.05
   1 -11   8    0.76    0.06
  -2  11  -8    0.94    0.09
  -2  11  -8    1.01    0.06
  -2  11  -8    0.98    0.07
   2 -11   8    0.92    0.06
   2 -11   8    1.01    0.08
   2 -11   8    0.77    0.07
   3  10  -8    3.44    0.27
  -3 -10   8    3.70    0.20
   2  10  -8    0.15    0.03
   2  10  -8    0.11    0.03
   2  10  -8    0.17    0.08
   2  10  -8    0.15    0.05
   2  10  -8    0.09    0.04
  -2 -10   8    0.14    0.03
  -2 -10   8    0.12    0.02
   1  10  -8    0.05    0.04
   1  10  -8    0.02    0.03
   1  10  -8    0.01    0.02
  -1 -10   8    0.01    0.02
  -1 -10   8   -0.01    0.04
  -1 -10   8   -0.03    0.02
   0  10  -8    0.76    0.07
   0  10  -8    0.93    0.08
   0  10  -8    0.82    0.08
   0  10  -8    0.71    0.06
   0 -10   8    0.84    0.07
   0 -10   8    0.76    0.07
   0 -10   8    0.93    0.08
   0 -10   8    0.79    0.06
  -1  10  -8    4.85    0.29
  -1  10  -8    4.51    0.28
  -1  10  -8    4.74    0.24
  -1  10  -8    4.47    0.29
   1 -10   8    4.84    0.23
   1 -10   8    4.84    0.26
   1 -10   8    4.74    0.26
   1 -10   8    4.97    0.27
  -2  10  -8    3.53    0.21
  -2  10  -8    3.26    0.21
  -2  10  -8    3.36    0.17
   2 -10   8    3.46    0.19
   2 -10   8    3.37    0.19
   2 -10   8    3.28    0.22
   2 -10   8    3.33    0.22
  -3  10  -8    0.22    0.04
  -3  10  -8    0.17    0.03
  -3  10  -8    0.13    0.02
   3 -10   8    0.13    0.02
   3 -10   8    0.12    0.03
   3 -10   8    0.14    0.04
   3   9  -8    0.17    0.04
   3   9  -8    0.15    0.05
   3   9  -8    0.10    0.07
   3   9  -8    0.08    0.05
   3   9  -8    0.19    0.04
   3   9  -8    0.16    0.05
  -3  -9   8    0.16    0.02
  -3  -9   8    0.15    0.03
   2   9  -8    0.02    0.03
   2   9  -8    0.00    0.03
   2   9  -8    0.06    0.06
   2   9  -8    0.03    0.04
   2   9  -8    0.01    0.05
   2   9  -8    0.02    0.05
  -2  -9   8   -0.05    0.02
  -2  -9   8    0.02    0.02
   1   9  -8   29.09    1.52
  -1  -9   8   29.30    1.36
  -1  -9   8   29.08    1.56
   0   9  -8    0.03    0.04
   0   9  -8    0.05    0.04
   0   9  -8    0.04    0.04
   0   9  -8    0.03    0.04
   0  -9   8    0.05    0.03
   0  -9   8    0.01    0.03
   0  -9   8    0.02    0.03
   0  -9   8    0.02    0.04
  -1   9  -8    0.99    0.12
  -1   9  -8    1.10    0.09
  -1   9  -8    1.05    0.07
   1  -9   8    1.04    0.08
   1  -9   8    1.07    0.07
   1  -9   8    0.98    0.10
   1  -9   8    1.10    0.08
  -2   9  -8    0.16    0.04
   2  -9   8    0.21    0.06
   2  -9   8    0.23    0.05
   2  -9   8    0.20    0.06
   2  -9   8    0.15    0.04
  -3   9  -8    0.21    0.03
  -3   9  -8    0.19    0.04
   3  -9   8    0.21    0.05
   3  -9   8    0.20    0.05
   3  -9   8    0.25    0.03
   3  -9   8    0.13    0.04
   4  -9   8    0.80    0.06
   4  -9   8    0.70    0.07
   4  -9   8    0.76    0.07
   4   8  -8    0.40    0.07
   4   8  -8    0.39    0.07
   4   8  -8    0.45    0.05
   4   8  -8    0.29    0.05
   3   8  -8    0.19    0.06
   3   8  -8    0.34    0.06
   3   8  -8    0.18    0.05
   3   8  -8    0.24    0.05
   3   8  -8    0.19    0.06
   3   8  -8    0.23    0.04
   3   8  -8    0.18    0.05
   3   8  -8    0.28    0.05
   3   8  -8    0.24    0.04
  -3  -8   8    0.18    0.03
  -3  -8   8    0.21    0.04
   2   8  -8    5.97    0.38
   2   8  -8    6.27    0.35
   2   8  -8    7.06    0.43
   2   8  -8    6.19    0.37
  -2  -8   8    6.02    0.31
   1   8  -8   12.07    0.71
   1   8  -8   12.07    0.67
   1   8  -8   12.80    0.71
   1   8  -8   14.49    0.98
  -1  -8   8   12.25    0.68
  -1  -8   8   11.90    0.60
   0   8  -8   18.79    1.06
   0   8  -8   18.83    1.00
   0   8  -8   18.80    1.06
   0   8  -8   19.37    0.90
   0   8  -8   19.01    1.09
   0  -8   8   18.25    1.00
   0  -8   8   20.38    1.03
   0  -8   8   19.48    0.90
   0  -8   8   19.30    1.00
  -1   8  -8    8.15    0.44
  -1   8  -8    8.13    0.47
  -1   8  -8    8.26    0.40
   1  -8   8    7.74    0.45
   1  -8   8    8.25    0.44
   1  -8   8    8.36    0.50
   1  -8   8    8.24    0.45
  -2   8  -8    1.47    0.13
  -2   8  -8    1.46    0.09
   2  -8   8    1.49    0.13
   2  -8   8    1.51    0.10
   2  -8   8    1.53    0.11
  -3   8  -8    2.91    0.15
  -3   8  -8    2.86    0.18
   3  -8   8    2.77    0.16
   3  -8   8    2.37    0.16
  -4   8  -8    0.09    0.03
  -4   8  -8    0.01    0.04
   4  -8   8    0.10    0.03
   4  -8   8    0.07    0.07
   4  -8   8    0.07    0.03
   4  -8   8    0.05    0.03
   4  -8   8    0.05    0.03
   4   7  -8    4.34    0.25
   4   7  -8    3.79    0.34
   4   7  -8    4.54    0.35
   4   7  -8    4.11    0.30
   4   7  -8    4.81    0.31
   4   7  -8    4.08    0.34
   3   7  -8    0.22    0.07
   3   7  -8    0.32    0.05
   3   7  -8    0.18    0.04
   3   7  -8    0.27    0.05
   2   7  -8    0.09    0.06
   2   7  -8    0.09    0.05
   2   7  -8   -0.01    0.06
   2   7  -8    0.14    0.04
   2   7  -8    0.04    0.07
   2   7  -8    0.05    0.04
  -2  -7   8    0.06    0.04
  -2  -7   8    0.11    0.03
   1   7  -8   13.71    0.74
   1   7  -8   13.24    0.81
   1   7  -8   13.30    0.79
   1   7  -8   16.04    1.09
   1   7  -8   14.07    0.78
  -1  -7   8   13.68    0.76
   0   7  -8    1.99    0.17
   0   7  -8    2.21    0.14
   0   7  -8    2.40    0.16
   0   7  -8    2.22    0.17
   0  -7   8    2.06    0.14
   0  -7   8    2.33    0.15
  -1   7  -8    3.61    0.20
  -1   7  -8    3.32    0.22
   1  -7   8    3.78    0.21
   1  -7   8    4.00    0.22
   1  -7   8    3.82    0.18
   1  -7   8    3.38    0.21
  -2   7  -8    0.17    0.05
  -2   7  -8    0.11    0.05
   2  -7   8    0.17    0.04
   2  -7   8    0.21    0.05
   2  -7   8    0.13    0.04
   2  -7   8    0.22    0.05
  -3   7  -8    0.13    0.03
   3  -7   8    0.11    0.04
   3  -7   8    0.09    0.05
   3  -7   8    0.11    0.03
   3  -7   8    0.15    0.04
   3  -7   8    0.12    0.03
   4  -7   8   -0.01    0.03
   4  -7   8   -0.02    0.04
   4  -7   8    0.17    0.06
   4  -7   8    0.02    0.03
   4  -7   8   -0.04    0.03
   4  -7   8   -0.02    0.03
   4  -7   8    0.02    0.02
  -5   7  -8    0.86    0.07
   5  -7   8    0.92    0.08
   5  -7   8    0.73    0.07
   5   6  -8    0.38    0.05
   5   6  -8    0.40    0.05
   5   6  -8    0.38    0.05
   5   6  -8    0.38    0.05
   4   6  -8    1.07    0.09
   4   6  -8    1.11    0.11
   4   6  -8    0.91    0.12
   4   6  -8    0.93    0.10
   4   6  -8    0.74    0.13
   4   6  -8    0.90    0.10
   4   6  -8    0.94    0.09
   3   6  -8  104.59    5.38
   3   6  -8  109.35    7.94
   3   6  -8  118.91    6.74
   3   6  -8  101.00    5.68
   3   6  -8  103.10    5.85
   3   6  -8   88.69    7.56
  -3  -6   8  104.00    4.82
   2   6  -8    1.94    0.19
   2   6  -8    2.38    0.20
   2   6  -8    2.06    0.13
   2   6  -8    2.01    0.16
   2   6  -8    1.83    0.19
   2   6  -8    2.45    0.17
  -2  -6   8    2.28    0.15
   1   6  -8    0.05    0.03
  -1  -6   8    0.12    0.06
  -1  -6   8    0.02    0.03
  -1  -6   8    0.00    0.05
  -1  -6   8    0.00    0.02
   0   6  -8    1.26    0.11
   0   6  -8    1.10    0.14
   0  -6   8    1.38    0.09
  -1   6  -8    1.47    0.10
   1  -6   8    1.49    0.11
   1  -6   8    1.44    0.09
   1  -6   8    1.45    0.10
   1  -6   8    1.48    0.12
  -2   6  -8    6.74    0.41
   2  -6   8    6.89    0.43
   2  -6   8    6.81    0.38
   2  -6   8    6.85    0.54
   2  -6   8    7.63    0.60
   2  -6   8    6.85    0.39
  -3   6  -8  104.00    4.85
   3  -6   8  101.86    6.08
   3  -6   8  106.48    7.72
   3  -6   8  106.23    6.08
   3  -6   8  106.27    5.41
   3  -6   8  104.22    5.42
   4  -6   8    0.08    0.04
   4  -6   8    0.04    0.05
   4  -6   8    0.06    0.05
   4  -6   8   -0.02    0.06
   4  -6   8    0.02    0.04
   4  -6   8    0.07    0.03
   4  -6   8    0.01    0.04
   5  -6   8    0.04    0.02
   5  -6   8    0.06    0.05
   5  -6   8    0.07    0.03
   5  -6   8    0.04    0.04
   5   5  -8    6.16    0.40
   5   5  -8    5.17    0.43
   5   5  -8    5.63    0.43
   5   5  -8    5.53    0.38
   4   5  -8    0.21    0.05
   4   5  -8    0.12    0.05
   4   5  -8    0.18    0.06
   4   5  -8   -0.11    0.09
   3   5  -8    0.43    0.09
   3   5  -8    0.31    0.06
   3   5  -8    0.24    0.07
   3   5  -8    0.34    0.05
   3   5  -8    0.42    0.05
   3   5  -8    0.32    0.05
   3   5  -8    0.28    0.06
  -3  -5   8    0.37    0.05
   2   5  -8    7.20    0.43
   2   5  -8    5.66    0.46
   2   5  -8    5.92    0.34
   2   5  -8    5.91    0.38
   2   5  -8    6.69    0.51
  -2  -5   8    6.60    0.36
   1   5  -8    0.17    0.06
   1   5  -8    0.08    0.06
   1   5  -8    0.03    0.14
  -1  -5   8    0.15    0.06
  -1  -5   8    0.06    0.05
   0   5  -8    7.94    0.52
   0   5  -8    9.22    0.40
   0  -5   8    8.38    0.75
   0  -5   8    8.85    0.47
   0  -5   8    8.66    0.59
  -1   5  -8    3.66    0.25
  -1   5  -8    3.80    0.22
  -1   5  -8    3.65    0.20
  -1   5  -8    3.78    0.20
   1  -5   8    3.74    0.35
   1  -5   8    4.13    0.22
  -2   5  -8    4.42    0.29
   2  -5   8    4.48    0.26
   2  -5   8    5.08    0.37
   2  -5   8    4.43    0.30
  -3   5  -8    1.67    0.12
   3  -5   8    1.49    0.11
   3  -5   8    1.47    0.12
   3  -5   8    1.59    0.16
   3  -5   8    1.70    0.14
   3  -5   8    1.38    0.12
   4  -5   8    2.58    0.18
   4  -5   8    2.82    0.19
   5  -5   8    0.25    0.06
   5  -5   8    0.27    0.04
   5  -5   8    0.24    0.05
   5  -5   8    0.20    0.05
   5  -5   8    0.22    0.04
   5   4  -8    3.13    0.23
   5   4  -8    3.33    0.26
   5   4  -8    2.92    0.26
   5   4  -8    3.42    0.24
   4   4  -8    0.02    0.04
   4   4  -8    0.08    0.05
   4   4  -8    0.15    0.06
   4   4  -8    0.04    0.04
   4   4  -8    0.01    0.05
   4   4  -8    0.05    0.04
   3   4  -8    7.13    0.46
   3   4  -8    6.71    0.53
   3   4  -8    6.03    0.39
  -3  -4   8    6.83    0.33
   2   4  -8    2.95    0.28
  -2  -4   8    3.68    0.22
  -2  -4   8    3.61    0.18
  -1  -4   8    0.17    0.06
  -1  -4   8    0.13    0.07
  -1  -4   8    0.09    0.09
   0   4  -8    4.70    0.23
   0   4  -8    4.87    0.24
   0   4  -8    5.08    0.30
   0   4  -8    5.08    0.23
   0   4  -8    4.91    0.23
   0   4  -8    5.20    0.35
   0  -4   8    5.00    0.23
  -1   4  -8    5.78    0.32
  -1   4  -8    5.89    0.28
  -1   4  -8    6.08    0.28
   1  -4   8    6.42    0.36
   1  -4   8    5.97    0.29
   1  -4   8    6.29    0.56
   1  -4   8    5.81    0.33
   2  -4   8    1.70    0.12
   2  -4   8    1.59    0.13
   2  -4   8    1.73    0.15
  -3   4  -8    1.37    0.13
   3  -4   8    1.50    0.12
   3  -4   8    1.62    0.10
   3  -4   8    1.49    0.13
   3  -4   8    1.46    0.13
   3  -4   8    1.38    0.11
   4  -4   8    8.80    0.58
   4  -4   8   10.47    0.73
   4  -4   8    9.65    0.78
   4  -4   8    9.93    0.52
   4  -4   8    8.88    0.58
   5  -4   8    0.51    0.08
   5  -4   8    0.35    0.06
   5  -4   8    0.46    0.09
   5  -4   8    0.49    0.07
   5  -4   8    0.32    0.05
   5   3  -8    0.54    0.08
   5   3  -8    0.58    0.07
   5   3  -8    0.66    0.08
   5   3  -8    0.77    0.10
   5   3  -8    0.69    0.07
   4   3  -8    2.46    0.20
   4   3  -8    2.33    0.22
   4   3  -8    2.37    0.20
   4   3  -8    2.87    0.22
   4   3  -8    2.28    0.21
   3   3  -8   11.38    0.79
   3   3  -8   11.60    0.63
   3   3  -8   11.51    0.71
   3   3  -8   10.43    0.85
   3   3  -8   10.83    0.63
   2   3  -8    3.55    0.29
   2   3  -8    3.59    0.28
   2   3  -8    3.59    0.22
   1   3  -8    9.17    0.54
   1   3  -8    8.31    0.39
   1   3  -8    8.58    0.35
  -1  -3   8    7.27    0.72
  -1  -3   8    7.95    0.47
   0   3  -8   20.70    1.19
   0   3  -8   19.02    0.83
   0   3  -8   18.72    0.80
   0  -3   8   21.95    1.91
   0  -3   8   17.82    1.06
   0  -3   8   19.41    0.84
   0  -3   8   17.05    1.63
  -1   3  -8    4.30    0.22
  -1   3  -8    4.48    0.20
  -1   3  -8    4.43    0.21
  -1   3  -8    4.54    0.21
  -1   3  -8    4.22    0.24
   1  -3   8    4.61    0.41
  -2   3  -8    2.16    0.15
   2  -3   8    2.31    0.20
   2  -3   8    1.99    0.19
   2  -3   8    2.19    0.17
   2  -3   8    2.26    0.14
   3  -3   8   38.39    2.08
   3  -3   8   40.73    3.17
   3  -3   8   38.11    2.35
   3  -3   8   40.13    2.09
   3  -3   8   38.06    2.33
   3  -3   8   44.06    2.95
   4  -3   8    2.58    0.18
   4  -3   8    2.61    0.24
   4  -3   8    2.24    0.17
   4  -3   8    2.47    0.17
   4  -3   8    2.49    0.22
   5  -3   8    0.80    0.07
   5  -3   8    0.69    0.07
   5  -3   8    0.77    0.08
   5  -3   8    0.91    0.10
   5   2  -8    0.83    0.08
   5   2  -8    0.73    0.10
   5   2  -8    0.71    0.09
   5   2  -8    0.77    0.09
   4   2  -8   -0.03    0.03
   4   2  -8    0.04    0.05
   4   2  -8    0.03    0.04
   4   2  -8   -0.04    0.06
   4   2  -8    0.02    0.04
   3   2  -8    6.87    0.57
   3   2  -8    7.73    0.43
   3   2  -8    7.09    0.48
   3   2  -8    7.34    0.43
   3   2  -8    7.81    0.53
  -3  -2   8    7.37    0.36
  -2  -2   8   12.62    0.60
   1   2  -8   23.79    1.32
   1   2  -8   24.95    1.25
   1   2  -8   26.28    1.48
  -1  -2   8   23.68    1.32
  -1  -2   8   21.89    2.03
  -1  -2   8   24.43    1.12
  -1  -2   8   22.86    1.32
   0   2  -8   11.48    0.52
   0   2  -8   11.71    0.49
   0   2  -8   12.62    0.65
   0   2  -8   11.50    0.51
   0  -2   8   11.54    0.52
   0  -2   8   10.24    0.99
   0  -2   8   13.43    1.17
   0  -2   8   11.86    0.51
   0  -2   8   10.68    0.65
   0  -2   8   11.90    0.52
   0  -2   8   11.45    0.49
  -1   2  -8    2.29    0.13
  -1   2  -8    2.30    0.13
  -1   2  -8    2.36    0.14
   1  -2   8    2.32    0.25
   1  -2   8    2.51    0.26
  -2   2  -8   28.46    1.40
   2  -2   8   31.71    1.70
   3  -2   8    4.91    0.29
   3  -2   8    5.15    0.33
   3  -2   8    5.22    0.38
   3  -2   8    4.88    0.33
   3  -2   8    5.52    0.30
   3  -2   8    4.71    0.34
   3  -2   8    5.40    0.29
   3  -2   8    5.64    0.45
   4  -2   8   28.23    2.08
   4  -2   8   23.39    1.52
   4  -2   8   26.07    1.54
   4  -2   8   26.26    1.37
   5  -2   8   13.43    0.98
   5  -2   8   11.43    0.73
   5  -2   8   11.64    0.72
   5  -2   8   11.97    0.64
   5   1  -8    0.22    0.05
   5   1  -8    0.32    0.05
   5   1  -8    0.28    0.05
   5   1  -8    0.23    0.04
   4   1  -8    9.97    0.69
   4   1  -8   12.04    0.76
   4   1  -8   10.59    0.85
   4   1  -8   11.19    0.63
   4   1  -8   11.25    0.84
   4   1  -8   12.25    0.80
  -4  -1   8   11.12    0.54
   3   1  -8    1.88    0.14
   3   1  -8    1.85    0.18
   3   1  -8    2.14    0.17
   2   1  -8    0.97    0.09
   2   1  -8    1.01    0.13
  -2  -1   8    0.80    0.12
   1   1  -8   15.01    0.80
   1   1  -8   15.49    0.91
   1   1  -8   16.21    0.66
   1   1  -8   13.97    0.61
  -1  -1   8   15.88    0.65
  -1  -1   8   12.81    0.80
  -1  -1   8   13.91    0.73
  -1  -1   8   14.97    0.69
  -1  -1   8   13.57    0.74
  -1  -1   8   13.77    0.64
   0   1  -8    2.81    0.13
   0   1  -8    3.08    0.18
   0   1  -8    2.89    0.14
   0   1  -8    2.85    0.14
   0  -1   8    2.50    0.15
   0  -1   8    2.80    0.15
   0  -1   8    2.99    0.13
   0  -1   8    3.06    0.31
   0  -1   8    2.83    0.15
   0  -1   8    2.67    0.14
   0  -1   8    2.94    0.14
  -1   1  -8   42.74    1.84
  -1   1  -8   42.84    1.75
  -1   1  -8   41.93    1.86
  -1   1  -8   43.39    1.87
   1  -1   8   45.81    2.23
   1  -1   8   42.05    4.25
   1  -1   8   41.96    1.85
  -2   1  -8    2.80    0.31
   3  -1   8    1.94    0.17
   3  -1   8    1.73    0.18
   3  -1   8    1.89    0.23
   3  -1   8    2.02    0.13
   3  -1   8    2.23    0.20
   3  -1   8    2.06    0.15
   3  -1   8    1.92    0.15
   4  -1   8    0.46    0.06
   4  -1   8    0.41    0.06
   4  -1   8    0.34    0.07
   4  -1   8    0.39    0.08
   4  -1   8    0.37    0.06
   5  -1   8    2.89    0.19
   5  -1   8    3.14    0.26
   5  -1   8    3.04    0.19
   5  -1   8    3.01    0.17
   5  -1   8    2.55    0.21
   5   0  -8    0.16    0.04
   5   0  -8    0.15    0.04
   5   0  -8    0.07    0.06
   5   0  -8    0.11    0.05
   5   0  -8    0.17    0.05
   4   0  -8    1.51    0.14
   4   0  -8    1.60    0.12
   4   0  -8    1.38    0.11
   4   0  -8    1.58    0.15
   4   0  -8    1.70    0.14
   4   0  -8    1.58    0.13
   3   0  -8    6.57    0.39
   3   0  -8    6.28    0.52
   3   0  -8    7.03    0.46
   3   0  -8    6.72    0.51
   3   0  -8    6.01    0.43
   3   0  -8    6.78    0.36
  -3   0   8    7.08    0.33
   2   0  -8   10.24    0.81
   2   0  -8   10.15    0.79
  -2   0   8   11.41    0.62
   1   0  -8    4.28    0.29
   1   0  -8    4.99    0.26
   1   0  -8    4.41    0.26
  -1   0   8    4.38    0.21
  -1   0   8    4.17    0.26
  -1   0   8    4.49    0.23
  -1   0   8    4.48    0.21
   0   0  -8   50.17    2.31
   0   0  -8   55.54    2.92
   0   0  -8   52.59    2.29
   0   0  -8   52.69    2.33
   0   0  -8   51.44    2.18
   0   0   8   54.33    2.66
   0   0   8   54.68    2.18
   0   0   8   59.40    4.50
   0   0   8   55.02    2.33
   0   0   8   49.75    2.29
   0   0   8   52.22    2.32
  -1   0  -8    5.79    0.25
  -1   0  -8    5.41    0.25
   1   0   8    5.81    0.26
   1   0   8    5.38    0.35
   1   0   8    5.10    0.59
   1   0   8    5.36    0.31
   2   0   8   29.00    1.49
   2   0   8   29.29    1.69
   2   0   8   29.80    1.50
   2   0   8   26.20    1.63
   3   0   8    0.96    0.12
   3   0   8    0.94    0.12
   3   0   8    0.79    0.10
   3   0   8    0.75    0.09
   3   0   8    0.71    0.10
   3   0   8    0.94    0.09
   3   0   8    0.74    0.15
   4   0   8    4.89    0.31
   4   0   8    4.87    0.27
   4   0   8    4.25    0.34
   4   0   8    5.63    0.42
   4   0   8    4.39    0.30
   5   0   8    1.62    0.11
   5   0   8    1.48    0.13
   5   0   8    1.62    0.12
   5   0   8    1.82    0.17
   5   0   8    1.67    0.12
   5  -1  -8    0.07    0.03
   5  -1  -8    0.07    0.04
   5  -1  -8    0.07    0.07
   5  -1  -8    0.11    0.03
   4  -1  -8   -0.01    0.05
   4  -1  -8    0.07    0.05
   4  -1  -8    0.07    0.04
   4  -1  -8    0.09    0.07
   4  -1  -8    0.03    0.06
   4  -1  -8    0.02    0.06
   4  -1  -8    0.09    0.06
   4  -1  -8    0.19    0.06
  -4   1   8    0.13    0.05
   3  -1  -8    0.71    0.11
   3  -1  -8    0.66    0.13
   3  -1  -8    0.63    0.07
   3  -1  -8    0.65    0.08
   3  -1  -8    0.69    0.10
   3  -1  -8    0.66    0.08
  -3   1   8    0.59    0.07
   2  -1  -8   17.53    0.98
   2  -1  -8   14.75    1.22
   2  -1  -8   17.48    0.85
   2  -1  -8   16.47    1.19
  -2   1   8   14.69    0.86
   1  -1  -8    8.61    0.50
   1  -1  -8    8.97    0.48
   1  -1  -8    8.21    0.46
   1  -1  -8    9.14    0.59
  -1   1   8    7.33    0.49
  -1   1   8    8.65    0.39
  -1   1   8    8.31    0.44
  -1   1   8    8.67    0.37
  -1   1   8    8.42    0.50
  -1   1   8    8.60    0.38
   0  -1  -8    2.78    0.17
   0  -1  -8    2.46    0.15
   0  -1  -8    2.47    0.15
   0  -1  -8    2.38    0.19
   0  -1  -8    2.61    0.13
   0  -1  -8    2.23    0.16
   0   1   8    2.66    0.13
   0   1   8    2.44    0.12
   0   1   8    2.56    0.15
   0   1   8    2.64    0.27
  -1  -1  -8    8.21    0.55
  -1  -1  -8    9.43    0.41
   1   1   8    8.31    0.48
   1   1   8   10.23    0.61
   1   1   8    8.25    0.49
   2   1   8    6.93    0.50
   2   1   8    7.51    0.45
   2   1   8    7.54    0.46
   2   1   8    7.49    0.41
   3   1   8    0.03    0.07
   3   1   8    0.04    0.05
   3   1   8   -0.09    0.05
   3   1   8   -0.04    0.06
   3   1   8    0.04    0.03
   3   1   8    0.07    0.04
   4   1   8    0.15    0.04
   4   1   8    0.16    0.04
   4   1   8    0.20    0.05
   4   1   8    0.16    0.06
   4   1   8    0.20    0.04
   5   1   8   13.18    0.90
   5   1   8   14.66    0.82
   5   1   8   14.24    0.81
   5   1   8   14.11    0.72
   5   1   8   13.24    1.09
   5   1   8   12.84    1.06
   5  -2  -8    2.64    0.21
   5  -2  -8    2.32    0.25
   5  -2  -8    2.73    0.20
   5  -2  -8    2.71    0.19
  -5   2   8    2.47    0.16
   4  -2  -8    5.13    0.28
   4  -2  -8    4.41    0.44
   4  -2  -8    5.26    0.33
   4  -2  -8    5.40    0.35
   3  -2  -8    2.48    0.17
   3  -2  -8    2.57    0.20
   3  -2  -8    2.60    0.20
   3  -2  -8    2.17    0.22
   3  -2  -8    2.54    0.19
   3  -2  -8    2.45    0.17
  -3   2   8    3.04    0.18
   2  -2  -8    7.58    0.52
   2  -2  -8    8.15    0.43
  -2   2   8    8.92    0.39
  -2   2   8    7.42    0.45
   1  -2  -8    3.43    0.25
   1  -2  -8    3.12    0.23
  -1   2   8    3.82    0.20
  -1   2   8    3.71    0.19
  -1   2   8    3.51    0.20
   0  -2  -8   10.14    0.71
   0  -2  -8   13.59    0.66
   0  -2  -8   12.63    0.63
   0  -2  -8   11.56    0.53
   0  -2  -8   11.74    0.66
   0   2   8   10.48    0.70
   1   2   8    1.25    0.11
   1   2   8    1.25    0.17
   1   2   8    1.35    0.14
   1   2   8    1.52    0.18
   2   2   8    4.14    0.27
   2   2   8    4.21    0.28
   2   2   8    4.33    0.28
   2   2   8    4.20    0.31
   3   2   8    1.34    0.11
   3   2   8    1.14    0.10
   3   2   8    1.12    0.10
   3   2   8    0.90    0.13
   3   2   8    0.95    0.15
   3   2   8    1.11    0.13
   3   2   8    1.06    0.10
   3   2   8    1.06    0.11
   4   2   8    6.19    0.52
   4   2   8    6.48    0.40
   4   2   8    7.24    0.40
   4   2   8    6.31    0.45
   4   2   8    6.17    0.35
   5   2   8    2.06    0.15
   5   2   8    1.97    0.18
   5   2   8    2.15    0.12
   5   2   8    2.14    0.14
   5  -3  -8    1.25    0.13
   5  -3  -8    1.31    0.11
   5  -3  -8    1.20    0.11
  -5   3   8    1.04    0.09
   4  -3  -8   16.60    1.00
   4  -3  -8   14.72    1.11
   4  -3  -8   16.63    0.88
   4  -3  -8   17.22    1.25
   4  -3  -8   18.23    1.22
   4  -3  -8   17.31    1.00
  -4   3   8   16.27    0.97
  -4   3   8   16.45    0.79
   3  -3  -8    0.43    0.07
   3  -3  -8    0.49    0.07
   3  -3  -8    0.41    0.07
   3  -3  -8    0.57    0.11
  -3   3   8    0.61    0.06
   2  -3  -8    2.94    0.22
   2  -3  -8    3.38    0.23
   2  -3  -8    3.20    0.20
   2  -3  -8    3.46    0.21
   2  -3  -8    3.18    0.22
  -2   3   8    3.27    0.21
  -2   3   8    2.65    0.21
  -2   3   8    3.28    0.17
   1  -3  -8   54.30    3.09
   1  -3  -8   57.09    2.72
  -1   3   8   45.08    2.72
  -1   3   8   49.71    2.95
  -1   3   8   56.55    2.97
   0  -3  -8    2.45    0.21
   0   3   8    2.46    0.16
   0   3   8    2.69    0.14
   0   3   8    2.76    0.20
   1   3   8    1.27    0.13
   1   3   8    1.56    0.10
   1   3   8    1.43    0.12
   1   3   8    1.42    0.12
   1   3   8    1.35    0.13
   2   3   8    5.22    0.49
   2   3   8    6.05    0.36
   2   3   8    6.00    0.37
   2   3   8    5.72    0.33
   2   3   8    6.53    0.37
   3   3   8    3.37    0.32
   3   3   8    3.85    0.28
   3   3   8    3.88    0.30
   3   3   8    3.02    0.35
   3   3   8    3.84    0.24
   3   3   8    3.83    0.22
   3   3   8    4.22    0.24
   4   3   8    0.08    0.04
   4   3   8    0.01    0.04
   4   3   8    0.08    0.03
   4   3   8    0.10    0.03
   4   3   8    0.10    0.06
   4   3   8    0.12    0.03
   5   3   8    0.00    0.02
   5   3   8    0.01    0.02
   5   3   8    0.01    0.02
   5   3   8    0.01    0.03
   5  -4  -8    3.93    0.33
   4  -4  -8   11.63    0.61
   4  -4  -8   12.04    0.70
   4  -4  -8   10.65    0.93
   4  -4  -8   11.14    0.85
   4  -4  -8   12.31    0.69
  -4   4   8   11.65    0.68
  -4   4   8   11.10    0.55
   3  -4  -8    9.71    0.62
   3  -4  -8   10.01    0.61
   3  -4  -8   10.49    0.75
   3  -4  -8   10.04    0.54
  -3   4   8    9.85    0.48
  -3   4   8   10.04    0.60
   2  -4  -8   26.06    1.34
   2  -4  -8   24.98    1.53
   2  -4  -8   26.23    1.51
  -2   4   8   24.51    1.46
  -2   4   8   26.62    1.49
  -2   4   8   26.21    1.35
  -2   4   8   25.16    1.20
   1  -4  -8   22.58    1.36
   1  -4  -8   23.91    1.20
   1  -4  -8   23.47    1.35
  -1   4   8   22.56    1.31
  -1   4   8   19.54    1.30
  -1   4   8   23.52    1.07
  -1   4   8   24.26    1.33
  -1   4   8   22.89    1.20
   0  -4  -8    0.52    0.08
   0  -4  -8    0.47    0.08
   0   4   8    0.44    0.05
   0   4   8    0.43    0.07
   0   4   8    0.52    0.07
   1   4   8    0.64    0.08
   1   4   8    0.65    0.11
   1   4   8    0.72    0.10
   1   4   8    0.69    0.10
   1   4   8    0.64    0.08
   1   4   8    0.76    0.09
   1   4   8    0.64    0.09
   2   4   8   62.13    5.26
   2   4   8   66.98    3.90
   2   4   8   69.05    4.00
   2   4   8   73.68    4.05
   2   4   8   66.08    3.87
   2   4   8   75.61    3.57
   3   4   8    0.84    0.09
   3   4   8    0.81    0.08
   3   4   8    0.87    0.10
   4   4   8    1.83    0.16
   4   4   8    2.10    0.13
   4   4   8    2.02    0.15
   4   4   8    1.89    0.18
   4   4   8    2.02    0.12
   4   4   8    2.01    0.13
   4  -5  -8    0.16    0.04
   4  -5  -8    0.12    0.05
   4  -5  -8    0.07    0.03
   4  -5  -8    0.08    0.05
  -4   5   8    0.07    0.04
  -4   5   8    0.11    0.03
   3  -5  -8    0.49    0.06
   3  -5  -8    0.66    0.10
   3  -5  -8    0.57    0.08
   3  -5  -8    0.46    0.07
  -3   5   8    0.53    0.05
   2  -5  -8   24.69    1.28
   2  -5  -8   24.49    1.46
   2  -5  -8   25.75    1.44
  -2   5   8   22.66    1.28
  -2   5   8   25.09    1.42
  -2   5   8   24.20    1.15
   1  -5  -8   31.03    1.93
   1  -5  -8   33.68    1.72
   1  -5  -8   32.47    1.95
   1  -5  -8   33.88    1.93
  -1   5   8   34.84    1.87
  -1   5   8   33.29    1.91
  -1   5   8   33.04    1.54
  -1   5   8   31.91    1.72
   0  -5  -8    3.39    0.22
   0   5   8    3.69    0.23
   0   5   8    3.28    0.22
   0   5   8    3.26    0.20
   0   5   8    3.28    0.22
  -1  -5  -8    0.56    0.07
   1   5   8    0.53    0.07
   1   5   8    0.59    0.07
   1   5   8    0.53    0.07
   1   5   8    0.51    0.07
   1   5   8    0.52    0.06
   2   5   8    0.43    0.07
   2   5   8    0.44    0.05
   2   5   8    0.44    0.06
   3   5   8    1.48    0.14
   3   5   8    1.27    0.14
   3   5   8    1.35    0.10
   3   5   8    1.36    0.12
   3   5   8    1.49    0.11
   3   5   8    1.44    0.10
   4   5   8    0.02    0.04
   4   5   8    0.03    0.02
   4   5   8    0.00    0.04
   4   5   8    0.02    0.02
   4  -6  -8    1.95    0.12
   4  -6  -8    2.04    0.11
   4  -6  -8    1.84    0.13
   4  -6  -8    1.74    0.17
  -4   6   8    1.52    0.12
  -4   6   8    1.61    0.11
  -4   6   8    1.98    0.10
   3  -6  -8    4.22    0.23
   3  -6  -8    3.56    0.35
   3  -6  -8    4.25    0.26
   3  -6  -8    4.24    0.26
  -3   6   8    4.07    0.21
  -3   6   8    4.03    0.24
  -3   6   8    4.07    0.25
   2  -6  -8    5.44    0.33
   2  -6  -8    5.29    0.29
   2  -6  -8    5.39    0.35
  -2   6   8    4.98    0.32
  -2   6   8    5.17    0.31
  -2   6   8    4.85    0.32
  -2   6   8    5.05    0.26
   1  -6  -8    0.07    0.03
   1  -6  -8   -0.06    0.05
  -1   6   8    0.06    0.05
  -1   6   8    0.05    0.02
  -1   6   8    0.02    0.03
  -1   6   8    0.02    0.05
   0  -6  -8    4.03    0.26
   0   6   8    3.93    0.26
   0   6   8    3.89    0.23
  -1  -6  -8    3.66    0.28
   1   6   8    4.24    0.23
   1   6   8    4.09    0.25
  -2  -6  -8    2.57    0.17
   2   6   8    2.63    0.17
   2   6   8    2.14    0.22
   2   6   8    2.47    0.20
   2   6   8    2.30    0.19
   2   6   8    2.74    0.17
   2   6   8    2.56    0.19
   2   6   8    2.40    0.17
   2   6   8    2.59    0.15
   2   6   8    2.62    0.15
  -3  -6  -8    0.08    0.04
   3   6   8    0.13    0.03
   3   6   8    0.06    0.04
   3   6   8    0.06    0.03
   3   6   8    0.07    0.05
   3   6   8    0.11    0.04
   3  -7  -8    2.86    0.18
   3  -7  -8    2.51    0.24
   3  -7  -8    2.55    0.17
   3  -7  -8    2.69    0.15
  -3   7   8    2.51    0.16
  -3   7   8    2.68    0.16
  -3   7   8    2.60    0.13
   2  -7  -8    0.03    0.05
   2  -7  -8   -0.08    0.06
   2  -7  -8   -0.03    0.05
   2  -7  -8   -0.03    0.02
  -2   7   8   -0.05    0.04
  -2   7   8    0.02    0.04
  -2   7   8    0.01    0.02
   1  -7  -8    2.10    0.15
   1  -7  -8    2.19    0.15
  -1   7   8    1.97    0.15
  -1   7   8    2.00    0.13
  -1   7   8    1.90    0.15
  -1   7   8    2.06    0.14
  -1   7   8    2.04    0.12
   0  -7  -8    0.10    0.07
   0  -7  -8    0.17    0.04
   0   7   8    0.21    0.04
   0   7   8    0.22    0.04
   0   7   8    0.15    0.05
  -1  -7  -8    5.61    0.34
   1   7   8    5.70    0.33
   1   7   8    5.12    0.40
   1   7   8    5.59    0.30
   1   7   8    5.18    0.33
  -2  -7  -8    0.45    0.06
   2   7   8    0.33    0.06
   2   7   8    0.46    0.05
   2   7   8    0.28    0.04
   2   7   8    0.42    0.06
   2   7   8    0.39    0.06
   2   7   8    0.26    0.05
   2   7   8    0.48    0.05
   2  -8  -8    0.00    0.03
   2  -8  -8    0.01    0.03
  -2   8   8    0.04    0.04
  -2   8   8    0.01    0.02
   1  -8  -8    0.20    0.04
   1  -8  -8    0.08    0.05
  -1   8   8    0.09    0.05
  -1   8   8    0.17    0.04
   0  -8  -8    1.99    0.12
   0  -8  -8    2.30    0.14
   0   8   8    2.11    0.13
   0   8   8    2.10    0.14
   0   8   8    2.05    0.17
   0   8   8    1.89    0.13
  -1  -8  -8    0.93    0.07
  -1  -8  -8    0.87    0.07
   1   8   8    0.75    0.08
   1   8   8    0.79    0.07
   1   8   8    0.84    0.08
   1   8   8    0.96    0.06
   1   8   8    0.95    0.07
   1  11  -9    0.02    0.02
   1  11  -9    0.06    0.04
   1  11  -9    0.04    0.03
   1  11  -9    0.02    0.03
  -1 -11   9   -0.03    0.02
  -1 -11   9   -0.01    0.01
  -1 -11   9   -0.01    0.04
   0  11  -9    0.50    0.05
   0  11  -9    0.49    0.06
   0  11  -9    0.57    0.06
   0 -11   9    0.63    0.05
   0 -11   9    0.54    0.04
   0 -11   9    0.46    0.05
  -1  11  -9    0.05    0.04
  -1  11  -9    0.03    0.04
   1 -11   9    0.03    0.02
   1 -11   9    0.02    0.03
   1 -11   9    0.04    0.02
  -2  11  -9    0.00    0.03
  -2  11  -9    0.04    0.03
   2 -11   9    0.03    0.02
   2 -11   9    0.02    0.03
   2 -11   9    0.00    0.01
  -3 -10   9    1.28    0.08
   2  10  -9    2.23    0.14
   2  10  -9    1.88    0.20
   2  10  -9    2.48    0.13
   2  10  -9    2.16    0.19
   2  10  -9    2.44    0.15
  -2 -10   9    2.33    0.12
  -2 -10   9    2.37    0.13
   1  10  -9    6.73    0.40
   1  10  -9    7.03    0.36
   1  10  -9    6.81    0.39
  -1 -10   9    6.91    0.32
  -1 -10   9    6.32    0.37
  -1 -10   9    6.67    0.37
   0  10  -9    0.75    0.07
   0  10  -9    0.84    0.08
   0  10  -9    0.81    0.08
   0  10  -9    0.67    0.09
   0  10  -9    0.88    0.07
   0 -10   9    0.80    0.07
   0 -10   9    0.92    0.07
   0 -10   9    0.89    0.06
  -1  10  -9    6.18    0.29
  -1  10  -9    6.08    0.35
  -1  10  -9    6.24    0.35
   1 -10   9    6.23    0.33
   1 -10   9    6.22    0.34
   1 -10   9    6.14    0.33
   1 -10   9    5.49    0.38
  -2  10  -9    0.41    0.06
  -2  10  -9    0.40    0.04
  -2  10  -9    0.34    0.05
   2 -10   9    0.32    0.06
   2 -10   9    0.39    0.05
   2 -10   9    0.40    0.04
  -3  10  -9    0.41    0.04
  -3  10  -9    0.44    0.05
  -3  10  -9    0.33    0.05
   3 -10   9    0.43    0.05
   3 -10   9    0.50    0.05
   3 -10   9    0.34    0.05
   3   9  -9    4.82    0.26
   3   9  -9    4.16    0.33
   3   9  -9    3.72    0.35
   3   9  -9    4.51    0.24
  -3  -9   9    4.40    0.24
  -3  -9   9    4.60    0.21
   2   9  -9    1.07    0.12
   2   9  -9    0.87    0.08
   2   9  -9    0.79    0.10
   2   9  -9    0.83    0.08
   2   9  -9    0.95    0.08
  -2  -9   9    0.90    0.06
  -2  -9   9    0.96    0.08
   1   9  -9    7.55    0.40
   1   9  -9    7.35    0.42
  -1  -9   9    7.20    0.40
  -1  -9   9    7.45    0.36
   0   9  -9    5.55    0.31
   0   9  -9    5.80    0.28
   0   9  -9    5.62    0.33
   0  -9   9    5.64    0.31
   0  -9   9    5.98    0.32
   0  -9   9    5.40    0.30
   0  -9   9    5.29    0.34
   0  -9   9    5.62    0.27
  -1   9  -9    0.08    0.04
   1  -9   9    0.04    0.03
   1  -9   9    0.04    0.03
  -2   9  -9   -0.06    0.04
  -2   9  -9    0.00    0.04
  -2   9  -9    0.04    0.03
   2  -9   9    0.02    0.06
   2  -9   9    0.00    0.03
   2  -9   9    0.03    0.03
   2  -9   9    0.03    0.03
  -3   9  -9   -0.02    0.03
  -3   9  -9    0.02    0.02
   3  -9   9    0.03    0.04
   3  -9   9   -0.02    0.03
   3  -9   9    0.01    0.02
   4  -9   9    0.21    0.03
   4  -9   9    0.18    0.03
   4   8  -9    0.16    0.06
   4   8  -9    0.35    0.06
   4   8  -9    0.27    0.05
   4   8  -9    0.27    0.05
  -4  -8   9    0.33    0.04
   3   8  -9    5.05    0.35
   3   8  -9    4.42    0.40
   3   8  -9    5.40    0.28
   3   8  -9    5.47    0.30
   3   8  -9    5.36    0.37
   3   8  -9    4.39    0.39
  -3  -8   9    5.13    0.28
  -3  -8   9    5.24    0.25
   2   8  -9   16.27    0.96
   2   8  -9   17.24    0.88
  -2  -8   9   16.60    0.78
   1   8  -9    4.62    0.26
   1   8  -9    4.82    0.28
   1   8  -9    4.45    0.29
  -1  -8   9    4.78    0.27
  -1  -8   9    4.63    0.23
   0   8  -9    0.58    0.07
   0   8  -9    0.51    0.07
   0   8  -9    0.50    0.06
   0   8  -9    0.49    0.06
   0  -8   9    0.45    0.04
   0  -8   9    0.57    0.07
   0  -8   9    0.48    0.06
   0  -8   9    0.57    0.07
  -1   8  -9    0.13    0.03
  -1   8  -9    0.04    0.06
  -1   8  -9    0.15    0.04
   1  -8   9    0.10    0.05
   1  -8   9    0.19    0.04
   1  -8   9    0.09    0.03
  -2   8  -9    0.73    0.06
  -2   8  -9    0.80    0.09
   2  -8   9    0.86    0.07
   2  -8   9    0.64    0.10
   2  -8   9    0.66    0.09
   2  -8   9    0.81    0.06
  -3   8  -9    1.96    0.11
  -3   8  -9    1.70    0.13
   3  -8   9    2.05    0.12
   3  -8   9    1.91    0.12
   3  -8   9    1.82    0.15
  -4   8  -9    5.06    0.26
   4  -8   9    5.78    0.29
   4  -8   9    5.44    0.29
   4  -8   9    5.81    0.28
   4  -8   9    5.24    0.32
   4  -8   9    4.51    0.32
   4   7  -9    1.73    0.12
   4   7  -9    1.30    0.13
   4   7  -9    1.47    0.12
   4   7  -9    1.37    0.15
   3   7  -9    3.39    0.29
   3   7  -9    3.85    0.32
   3   7  -9    4.13    0.22
   3   7  -9    3.83    0.28
  -3  -7   9    4.02    0.22
   2   7  -9    9.32    0.81
   2   7  -9   11.02    0.61
   2   7  -9   10.85    0.63
   2   7  -9   11.55    0.58
  -2  -7   9   11.18    0.51
   1   7  -9    2.41    0.13
   1   7  -9    2.79    0.23
   1   7  -9    2.30    0.16
   1   7  -9    2.35    0.15
  -1  -7   9    2.16    0.16
  -1  -7   9    2.25    0.15
  -1  -7   9    2.17    0.13
   0   7  -9    3.20    0.17
   0   7  -9    3.10    0.21
   0   7  -9    3.06    0.18
   0  -7   9    3.13    0.19
   0  -7   9    2.90    0.20
   0  -7   9    3.22    0.16
   0  -7   9    3.21    0.19
  -1   7  -9    0.80    0.08
   1  -7   9    0.89    0.08
   1  -7   9    0.86    0.09
   1  -7   9    0.88    0.13
   1  -7   9    0.87    0.06
   1  -7   9    0.87    0.08
   1  -7   9    0.85    0.08
  -2   7  -9    0.86    0.08
   2  -7   9    1.00    0.08
   2  -7   9    0.92    0.08
   2  -7   9    0.99    0.11
   2  -7   9    1.05    0.09
   2  -7   9    1.10    0.12
  -3   7  -9    2.11    0.13
   3  -7   9    2.10    0.13
   3  -7   9    2.03    0.14
   4  -7   9    0.90    0.09
   4  -7   9    0.88    0.08
   4  -7   9    0.91    0.09
   4  -7   9    0.89    0.10
   4  -7   9    0.95    0.11
   4  -7   9    1.10    0.08
   5   6  -9    5.87    0.42
   5   6  -9    6.01    0.44
   4   6  -9    1.76    0.12
   4   6  -9    1.93    0.15
   4   6  -9    1.71    0.14
   4   6  -9    1.63    0.14
   4   6  -9    1.50    0.17
   4   6  -9    1.52    0.15
   3   6  -9   24.59    1.98
   3   6  -9   31.05    1.77
   3   6  -9   25.16    1.49
   3   6  -9   25.82    1.41
   3   6  -9   28.96    2.09
   2   6  -9   66.11    4.44
   2   6  -9   56.52    3.27
   2   6  -9   57.42    3.16
   2   6  -9   55.84    3.00
   2   6  -9   55.98    3.17
  -2  -6   9   56.56    3.08
   1   6  -9   11.32    0.64
   1   6  -9   11.66    0.60
   1   6  -9   11.25    0.64
  -1  -6   9   11.78    0.62
  -1  -6   9   11.37    0.54
  -1  -6   9   10.76    0.60
   0   6  -9   14.24    0.81
   0   6  -9   14.45    0.77
   0   6  -9   13.37    0.84
   0  -6   9   15.42    0.77
   0  -6   9   15.33    0.69
  -1   6  -9   12.59    0.72
  -1   6  -9   12.54    0.61
  -1   6  -9   11.40    0.68
   1  -6   9   13.11    0.61
   1  -6   9   12.44    0.68
   1  -6   9   14.10    0.74
   1  -6   9   13.61    0.70
   1  -6   9   13.23    0.68
  -2   6  -9   21.18    1.23
  -2   6  -9   22.49    1.05
   2  -6   9   23.22    1.16
   2  -6   9   22.38    1.17
   2  -6   9   22.16    1.31
   2  -6   9   22.32    1.78
  -3   6  -9   60.87    2.87
   3  -6   9   65.04    3.20
   3  -6   9   61.15    3.21
   3  -6   9   60.23    4.56
  -4   6  -9   -0.04    0.06
   4  -6   9    0.02    0.05
   4  -6   9    0.03    0.03
   4  -6   9   -0.01    0.06
   4  -6   9   -0.04    0.04
   4  -6   9    0.03    0.03
   4  -6   9    0.00    0.05
   4  -6   9    0.01    0.04
   5  -6   9   -0.02    0.02
   5  -6   9    0.04    0.03
   5  -6   9   -0.04    0.02
   5  -6   9    0.00    0.02
   5   5  -9    4.80    0.33
   5   5  -9    5.33    0.35
   5   5  -9    4.63    0.38
   4   5  -9    0.27    0.06
   4   5  -9    0.23    0.05
   4   5  -9    0.05    0.08
   4   5  -9    0.22    0.04
   4   5  -9    0.28    0.05
   4   5  -9    0.23    0.05
   4   5  -9    0.21    0.06
  -4  -5   9    0.38    0.04
  -4  -5   9    0.23    0.05
   3   5  -9   30.99    1.70
   3   5  -9   30.66    2.16
   3   5  -9   35.84    2.02
   3   5  -9   28.10    2.05
   3   5  -9   34.27    2.38
   3   5  -9   30.02    1.70
   3   5  -9   26.28    2.26
  -3  -5   9   31.44    1.44
   2   5  -9   17.35    0.99
   2   5  -9   16.69    0.96
   2   5  -9   17.31    0.96
   2   5  -9   17.54    0.90
   1   5  -9   16.95    0.97
   1   5  -9   17.25    0.91
   1   5  -9   18.05    0.82
  -1  -5   9   17.48    0.91
  -1  -5   9   17.44    0.93
  -1  -5   9   17.21    0.82
   0   5  -9    0.07    0.10
  -1   5  -9    1.98    0.13
  -1   5  -9    1.92    0.12
  -1   5  -9    1.90    0.17
   1  -5   9    2.33    0.15
   1  -5   9    1.94    0.12
   1  -5   9    1.82    0.25
   1  -5   9    1.90    0.20
   1  -5   9    2.02    0.11
  -2   5  -9   10.13    0.49
  -2   5  -9    9.07    0.57
   2  -5   9   10.31    0.54
   2  -5   9   10.60    0.53
   2  -5   9   10.40    0.82
   2  -5   9    9.45    0.61
  -3   5  -9    0.07    0.05
   3  -5   9    0.02    0.05
   3  -5   9    0.00    0.04
   3  -5   9    0.03    0.05
   3  -5   9    0.04    0.05
   3  -5   9    0.02    0.04
   3  -5   9    0.05    0.07
   3  -5   9    0.05    0.05
  -4   5  -9    0.14    0.05
   4  -5   9   -0.01    0.04
   4  -5   9   -0.01    0.03
   4  -5   9    0.00    0.03
   4  -5   9    0.00    0.05
   4  -5   9    0.04    0.06
   4  -5   9    0.15    0.04
   5  -5   9    0.11    0.04
   5  -5   9    0.12    0.03
   5  -5   9    0.12    0.05
   5  -5   9    0.09    0.03
   5   4  -9    3.61    0.24
   5   4  -9    3.06    0.26
   5   4  -9    2.94    0.22
   5   4  -9    3.14    0.25
   4   4  -9    9.64    0.51
   4   4  -9   11.17    0.76
   4   4  -9    8.25    0.74
  -4  -4   9    9.39    0.56
   3   4  -9   36.13    1.75
   3   4  -9   28.62    2.31
   3   4  -9   29.54    2.09
   3   4  -9   32.17    1.65
   3   4  -9   33.12    2.21
   3   4  -9   27.27    2.35
   3   4  -9   33.02    1.74
  -3  -4   9   33.67    1.48
   2   4  -9    0.90    0.12
   2   4  -9    0.96    0.08
   2   4  -9    0.83    0.11
   2   4  -9    0.98    0.11
   2   4  -9    0.92    0.15
   2   4  -9    0.84    0.11
  -2  -4   9    0.96    0.09
   1   4  -9    5.81    0.34
   1   4  -9    4.71    0.43
   1   4  -9    5.83    0.37
   1   4  -9    5.54    0.32
  -1  -4   9    4.69    0.54
  -1  -4   9    6.28    0.31
   0   4  -9   25.08    1.42
   0   4  -9   25.56    1.07
   0  -4   9   25.28    1.13
   0  -4   9   26.91    1.35
  -1   4  -9    0.73    0.09
  -1   4  -9    0.69    0.09
  -1   4  -9    0.63    0.08
  -1   4  -9    0.65    0.07
   1  -4   9    0.64    0.11
   1  -4   9    0.70    0.11
   1  -4   9    0.65    0.07
   1  -4   9    0.59    0.08
   2  -4   9    3.57    0.21
   2  -4   9    3.37    0.30
   2  -4   9    3.99    0.26
   2  -4   9    3.89    0.22
   3  -4   9    0.10    0.05
   3  -4   9    0.10    0.03
   3  -4   9    0.30    0.06
   3  -4   9    0.03    0.05
   3  -4   9    0.06    0.06
   4  -4   9    0.65    0.11
   4  -4   9    0.49    0.07
   4  -4   9    0.60    0.09
   4  -4   9    0.45    0.07
   5  -4   9    8.67    0.52
   5  -4   9    8.13    0.52
   5  -4   9    9.42    0.70
   5  -4   9    8.32    0.46
   5   3  -9    6.39    0.45
   5   3  -9    5.69    0.48
   5   3  -9    6.63    0.42
   5   3  -9    6.12    0.47
   4   3  -9    1.14    0.12
   4   3  -9    1.40    0.11
   4   3  -9    1.27    0.11
   4   3  -9    1.08    0.12
   4   3  -9    1.35    0.11
   4   3  -9    0.95    0.14
   3   3  -9    5.44    0.29
   3   3  -9    5.22    0.31
   3   3  -9    4.91    0.41
   3   3  -9    4.98    0.37
   3   3  -9    5.20    0.37
   3   3  -9    4.87    0.41
   3   3  -9    5.54    0.31
   2   3  -9   13.45    0.76
   2   3  -9   13.67    0.82
   2   3  -9   13.67    0.72
   1   3  -9   16.44    1.11
  -1  -3   9   16.19    0.83
  -1  -3   9   14.57    0.70
   0   3  -9    7.18    0.31
   0   3  -9    6.73    0.31
   0   3  -9    7.03    0.32
   0  -3   9    6.79    0.31
   0  -3   9    6.01    0.60
   0  -3   9    6.71    0.59
   0  -3   9    7.68    0.71
   0  -3   9    6.85    0.37
  -1   3  -9    0.29    0.06
   1  -3   9    0.21    0.10
   1  -3   9    0.32    0.05
  -2   3  -9    0.10    0.06
   2  -3   9    0.01    0.03
   2  -3   9   -0.02    0.05
  -3   3  -9    1.13    0.12
   3  -3   9    1.10    0.09
   3  -3   9    1.13    0.10
   3  -3   9    1.07    0.12
   3  -3   9    1.21    0.15
   3  -3   9    1.04    0.10
   3  -3   9    1.05    0.11
   4  -3   9    1.42    0.12
   4  -3   9    1.43    0.16
   4  -3   9    1.48    0.15
   4  -3   9    1.39    0.10
   4  -3   9    1.34    0.11
   5  -3   9    6.55    0.43
   5  -3   9    7.16    0.39
   5  -3   9    7.91    0.59
   5  -3   9    6.95    0.43
   5   2  -9    5.96    0.39
   5   2  -9    4.69    0.42
   5   2  -9    5.78    0.37
   5   2  -9    5.23    0.41
  -5  -2   9    5.31    0.32
   4   2  -9    5.79    0.39
   4   2  -9    5.18    0.44
   4   2  -9    5.70    0.31
   4   2  -9    5.58    0.33
   4   2  -9    5.55    0.43
   4   2  -9    5.99    0.41
   3   2  -9    2.06    0.13
   3   2  -9    1.99    0.16
   3   2  -9    2.02    0.14
   3   2  -9    2.23    0.18
   3   2  -9    2.06    0.18
   3   2  -9    1.79    0.18
   2   2  -9    3.79    0.34
   2   2  -9    4.23    0.25
   1   2  -9    0.48    0.07
   1   2  -9    0.40    0.06
  -1  -2   9    0.40    0.06
  -1  -2   9    0.27    0.10
  -1  -2   9    0.44    0.06
  -1  -2   9    0.40    0.05
  -1  -2   9    0.38    0.06
   0   2  -9   11.92    0.59
   0   2  -9    9.80    0.45
   0   2  -9   10.25    0.46
   0   2  -9    9.94    0.46
   0  -2   9   10.24    0.46
   0  -2   9    8.71    0.88
   0  -2   9   11.36    1.04
   0  -2   9   10.40    0.44
   0  -2   9   10.02    0.46
  -1   2  -9   29.82    1.38
  -1   2  -9   32.21    1.72
  -1   2  -9   31.25    1.35
   1  -2   9   33.46    1.63
   1  -2   9   32.57    1.46
   1  -2   9   28.66    1.85
  -2   2  -9    3.76    0.27
   2  -2   9    4.34    0.28
   2  -2   9    4.78    0.29
   2  -2   9    4.20    0.24
   2  -2   9    4.49    0.27
   3  -2   9    6.24    0.42
   3  -2   9    6.49    0.51
   3  -2   9    5.65    0.38
   3  -2   9    5.75    0.38
   3  -2   9    5.92    0.33
   4  -2   9    7.53    0.55
   4  -2   9    9.06    0.66
   4  -2   9    7.89    0.49
   4  -2   9    7.53    0.49
   4  -2   9    7.94    0.44
   5  -2   9    2.85    0.17
   5  -2   9    2.84    0.19
   5  -2   9    2.88    0.19
   5  -2   9    3.02    0.25
   5   1  -9    0.93    0.09
   5   1  -9    0.90    0.08
   5   1  -9    0.75    0.09
   5   1  -9    0.76    0.09
   4   1  -9    7.19    0.59
   4   1  -9    8.46    0.55
   4   1  -9    7.67    0.57
   4   1  -9    7.63    0.52
   4   1  -9    7.69    0.44
   4   1  -9    6.47    0.48
   3   1  -9    0.24    0.05
   3   1  -9    0.33    0.07
   3   1  -9    0.36    0.07
   2   1  -9    0.00    0.13
   2   1  -9   -0.07    0.05
   2   1  -9    0.00    0.10
   1   1  -9    5.82    0.38
  -1  -1   9    6.47    0.36
  -1  -1   9    6.74    0.31
  -1  -1   9    6.60    0.30
  -1  -1   9    6.65    0.29
   0   1  -9    4.44    0.21
   0   1  -9    5.01    0.27
   0   1  -9    4.65    0.26
   0   1  -9    4.02    0.23
   0   1  -9    4.11    0.21
   0  -1   9    4.11    0.20
   0  -1   9    4.59    0.21
   0  -1   9    4.34    0.21
   0  -1   9    4.06    0.24
   0  -1   9    5.17    0.41
  -1   1  -9    0.04    0.03
   1  -1   9    0.00    0.05
   1  -1   9    0.04    0.05
   1  -1   9   -0.09    0.10
   1  -1   9   -0.03    0.06
   2  -1   9    3.11    0.19
   2  -1   9    3.14    0.21
   3  -1   9   37.54    3.27
   3  -1   9   43.24    2.23
   3  -1   9   43.06    2.21
   3  -1   9   40.82    2.49
   3  -1   9   47.19    3.39
   3  -1   9   45.59    2.27
   3  -1   9   41.15    2.78
   3  -1   9   42.62    2.51
   4  -1   9    2.66    0.19
   4  -1   9    2.39    0.20
   4  -1   9    3.01    0.24
   4  -1   9    2.52    0.19
   4  -1   9    2.53    0.16
   5  -1   9    0.98    0.10
   5  -1   9    1.24    0.09
   5  -1   9    1.25    0.09
   5  -1   9    1.25    0.12
   5  -1   9    1.24    0.08
   5   0  -9    0.02    0.08
   5   0  -9   -0.02    0.04
   5   0  -9    0.02    0.03
   5   0  -9    0.00    0.02
   5   0  -9   -0.01    0.03
   4   0  -9    0.49    0.06
   4   0  -9    0.56    0.07
   4   0  -9    0.64    0.07
   4   0  -9    0.54    0.08
   4   0  -9    0.48    0.08
  -4   0   9    0.53    0.06
   3   0  -9    4.99    0.28
   3   0  -9    4.82    0.30
   3   0  -9    5.00    0.33
   3   0  -9    4.50    0.40
   3   0  -9    5.86    0.37
  -3   0   9    4.95    0.25
   2   0  -9    6.82    0.36
   2   0  -9    7.79    0.49
   2   0  -9    5.81    0.53
   2   0  -9    6.62    0.40
  -2   0   9    6.70    0.40
   1   0  -9    0.01    0.07
   1   0  -9    0.07    0.05
  -1   0   9    0.00    0.06
  -1   0   9    0.04    0.05
  -1   0   9   -0.06    0.04
  -1   0   9    0.06    0.06
   0   0  -9   20.80    1.09
   0   0  -9   18.95    0.86
   0   0   9   18.33    1.17
   0   0   9   19.64    0.99
   0   0   9   19.26    0.87
   0   0   9   19.35    0.82
   0   0   9   21.44    1.13
  -1   0  -9    7.13    0.34
  -1   0  -9    6.89    0.43
   1   0   9    7.03    0.38
   1   0   9    7.06    0.43
   2   0   9    0.20    0.05
   2   0   9    0.06    0.07
   3   0   9    4.49    0.30
   3   0   9    5.14    0.28
   3   0   9    4.53    0.34
   3   0   9    4.43    0.27
   3   0   9    4.96    0.40
   3   0   9    4.79    0.41
   3   0   9    4.83    0.30
   3   0   9    4.51    0.30
   4   0   9    8.02    0.44
   4   0   9    7.99    0.49
   4   0   9    7.94    0.49
   4   0   9    8.07    0.55
   5   0   9    1.84    0.16
   5   0   9    1.51    0.13
   5   0   9    1.72    0.12
   5   0   9    1.78    0.12
   5   0   9    1.61    0.10
   5  -1  -9    1.51    0.13
   5  -1  -9    1.37    0.15
   5  -1  -9    1.42    0.13
   5  -1  -9    1.44    0.12
   4  -1  -9    2.19    0.16
   4  -1  -9    1.95    0.17
   4  -1  -9    1.97    0.14
   3  -1  -9    6.97    0.51
   3  -1  -9    6.18    0.42
   3  -1  -9    6.11    0.39
   3  -1  -9    6.34    0.36
   3  -1  -9    7.84    0.46
   3  -1  -9    7.16    0.49
  -3   1   9    6.37    0.33
   2  -1  -9   91.06    4.86
   2  -1  -9   87.81    5.52
  -2   1   9  103.58    5.31
  -2   1   9   94.25    4.35
   1  -1  -9    3.19    0.25
  -1   1   9    3.21    0.22
  -1   1   9    3.22    0.19
   0  -1  -9    0.22    0.07
   0  -1  -9    0.37    0.09
   0   1   9    0.40    0.08
   0   1   9    0.37    0.07
   0   1   9    0.49    0.07
   1   1   9    2.69    0.18
   1   1   9    2.93    0.19
   2   1   9    0.16    0.06
   2   1   9    0.29    0.05
   2   1   9    0.28    0.05
   2   1   9    0.27    0.04
   2   1   9    0.25    0.06
   3   1   9    1.65    0.13
   3   1   9    1.52    0.16
   3   1   9    1.73    0.12
   3   1   9    1.69    0.15
   3   1   9    1.51    0.17
   3   1   9    1.98    0.19
   3   1   9    1.59    0.13
   4   1   9    1.76    0.13
   4   1   9    1.59    0.14
   4   1   9    1.62    0.11
   4   1   9    1.51    0.16
   4   1   9    1.61    0.12
   5   1   9   12.39    0.84
   5   1   9   12.54    0.67
   5   1   9   13.55    0.76
   5  -2  -9    1.54    0.15
   5  -2  -9    1.33    0.11
   5  -2  -9    1.70    0.14
   5  -2  -9    1.70    0.14
  -5   2   9    1.48    0.10
   4  -2  -9    0.97    0.14
   4  -2  -9    1.19    0.10
   4  -2  -9    0.93    0.10
   4  -2  -9    1.03    0.11
   4  -2  -9    1.17    0.14
   4  -2  -9    1.30    0.11
   4  -2  -9    1.16    0.16
  -4   2   9    0.99    0.08
   3  -2  -9    0.40    0.06
   3  -2  -9    0.29    0.07
   3  -2  -9    0.62    0.09
   2  -2  -9   17.19    0.96
   2  -2  -9   16.80    1.02
   2  -2  -9   16.85    1.03
   2  -2  -9   17.11    1.03
  -2   2   9   18.12    0.99
   1  -2  -9    0.75    0.11
   1  -2  -9    0.81    0.11
  -1   2   9    0.89    0.10
  -1   2   9    0.60    0.09
   0  -2  -9    7.25    0.44
   0   2   9    7.34    0.43
   0   2   9    7.33    0.35
   0   2   9    6.81    0.44
   0   2   9    6.98    0.39
   0   2   9    6.61    0.42
   1   2   9    0.00    0.04
   1   2   9   -0.01    0.04
   1   2   9    0.02    0.05
   1   2   9    0.03    0.05
   1   2   9    0.04    0.04
   1   2   9   -0.01    0.05
   2   2   9    3.76    0.28
   2   2   9    3.74    0.25
   2   2   9    3.66    0.25
   2   2   9    3.77    0.22
   2   2   9    4.06    0.26
   3   2   9   24.31    1.77
   3   2   9   26.02    1.44
   3   2   9   28.12    1.50
   3   2   9   23.20    1.95
   3   2   9   23.99    1.66
   3   2   9   25.40    1.33
   3   2   9   26.27    1.49
   4   2   9   13.71    0.82
   4   2   9   13.85    0.81
   4   2   9   13.32    0.91
   4   2   9   14.47    1.10
   4   2   9   13.92    0.73
   4   2   9   13.09    1.07
   5   2   9    0.11    0.02
   5   2   9    0.09    0.02
   5   2   9    0.10    0.03
   5   2   9    0.11    0.04
   5  -3  -9    0.03    0.04
   5  -3  -9   -0.01    0.03
  -5   3   9   -0.01    0.03
   4  -3  -9    0.20    0.08
   4  -3  -9    0.18    0.06
   4  -3  -9    0.13    0.07
   4  -3  -9    0.28    0.05
   4  -3  -9    0.24    0.07
   4  -3  -9    0.18    0.04
   4  -3  -9    0.24    0.06
  -4   3   9    0.22    0.04
  -4   3   9    0.22    0.03
   3  -3  -9    3.29    0.24
   3  -3  -9    3.31    0.23
   3  -3  -9    3.28    0.23
   3  -3  -9    3.49    0.20
  -3   3   9    3.13    0.18
  -3   3   9    3.23    0.21
  -3   3   9    3.38    0.21
   2  -3  -9   17.60    1.01
   2  -3  -9   18.71    0.96
   2  -3  -9   17.36    1.09
  -2   3   9   19.14    1.06
  -2   3   9   18.53    0.86
  -2   3   9   17.58    1.04
   1  -3  -9    0.38    0.08
   1  -3  -9    0.41    0.06
   1  -3  -9    0.32    0.06
  -1   3   9    0.25    0.06
  -1   3   9    0.30    0.06
  -1   3   9    0.31    0.06
  -1   3   9    0.37    0.05
   0  -3  -9   14.23    0.76
   0  -3  -9   14.32    0.86
   0   3   9   15.18    0.84
   0   3   9   13.88    0.82
   0   3   9   14.12    0.83
   0   3   9   13.87    0.76
  -1  -3  -9    1.84    0.15
   1   3   9    1.71    0.14
   1   3   9    1.52    0.15
   1   3   9    1.68    0.12
   1   3   9    1.86    0.16
   1   3   9    1.90    0.14
   1   3   9    1.75    0.13
   1   3   9    1.82    0.14
   2   3   9    0.15    0.06
   2   3   9    0.15    0.07
   2   3   9    0.10    0.04
   2   3   9    0.19    0.04
   2   3   9    0.09    0.06
   2   3   9    0.20    0.04
   2   3   9    0.16    0.04
   2   3   9    0.18    0.06
  -3  -3  -9   10.62    0.66
   3   3   9   12.04    0.66
   3   3   9   10.71    0.78
   3   3   9    9.96    0.64
   3   3   9    9.68    0.86
   3   3   9   12.09    0.66
   4   3   9    4.54    0.28
   4   3   9    4.25    0.37
   4   3   9    4.50    0.31
   4   3   9    4.47    0.25
   4   3   9    4.83    0.28
   4  -4  -9    0.83    0.13
   4  -4  -9    0.93    0.10
   4  -4  -9    1.13    0.09
   4  -4  -9    1.01    0.07
   4  -4  -9    1.15    0.10
   4  -4  -9    1.00    0.10
  -4   4   9    0.97    0.07
  -4   4   9    0.95    0.09
   3  -4  -9    0.11    0.05
  -3   4   9    0.10    0.03
  -3   4   9    0.02    0.06
  -3   4   9    0.09    0.04
   2  -4  -9    2.50    0.20
   2  -4  -9    2.90    0.19
   2  -4  -9    2.44    0.18
   2  -4  -9    2.66    0.16
  -2   4   9    2.52    0.14
  -2   4   9    2.53    0.17
  -2   4   9    2.45    0.17
   1  -4  -9    0.86    0.11
   1  -4  -9    0.92    0.08
   1  -4  -9    0.80    0.11
  -1   4   9    0.72    0.08
  -1   4   9    0.76    0.08
  -1   4   9    0.83    0.08
  -1   4   9    0.81    0.07
   0  -4  -9    6.98    0.45
   0   4   9    7.35    0.35
   0   4   9    7.35    0.44
   0   4   9    7.69    0.44
   0   4   9    6.94    0.39
   0   4   9    7.11    0.43
   0   4   9    6.85    0.43
   1   4   9   13.51    0.78
   1   4   9   13.66    0.79
   1   4   9   14.50    0.72
   1   4   9   12.50    1.06
   2   4   9   21.55    1.26
   2   4   9   22.31    1.24
   2   4   9   21.19    1.23
   2   4   9   22.87    1.28
   2   4   9   19.25    1.66
   2   4   9   21.94    1.13
   3   4   9    4.11    0.25
   3   4   9    3.94    0.22
   3   4   9    4.22    0.25
   3   4   9    4.35    0.26
   3   4   9    3.95    0.30
   3   4   9    3.67    0.28
   3   4   9    3.55    0.33
   4   4   9    0.01    0.03
   4   4   9   -0.01    0.03
   4   4   9    0.01    0.02
   4   4   9    0.01    0.02
   4   4   9    0.01    0.02
   4  -5  -9    0.00    0.03
   4  -5  -9    0.02    0.02
   4  -5  -9    0.09    0.05
  -4   5   9   -0.01    0.03
  -4   5   9    0.02    0.02
   3  -5  -9    4.88    0.31
   3  -5  -9    5.00    0.30
   3  -5  -9    4.55    0.26
  -3   5   9    4.69    0.24
  -3   5   9    4.59    0.29
   2  -5  -9    2.73    0.16
  -2   5   9    2.47    0.17
  -2   5   9    2.71    0.14
   1  -5  -9    5.87    0.32
   1  -5  -9    6.03    0.37
   1  -5  -9    5.91    0.37
  -1   5   9    5.91    0.36
  -1   5   9    5.41    0.35
  -1   5   9    5.93    0.29
  -1   5   9    5.63    0.32
   0  -5  -9    7.76    0.46
   0  -5  -9    7.44    0.46
   0   5   9    7.26    0.45
   0   5   9    7.75    0.45
   0   5   9    7.64    0.41
   0   5   9    6.92    0.60
   1   5   9    2.33    0.16
   1   5   9    2.39    0.15
   2   5   9    6.05    0.35
   2   5   9    5.94    0.31
   2   5   9    5.32    0.38
   2   5   9    5.99    0.35
   2   5   9    5.63    0.31
   2   5   9    5.04    0.46
   2   5   9    5.64    0.42
   2   5   9    5.54    0.34
  -3  -5  -9    0.12    0.04
   3   5   9    0.08    0.02
   3   5   9    0.12    0.03
   3   5   9    0.13    0.04
   3   5   9    0.10    0.04
   3   5   9    0.10    0.04
   3   5   9    0.11    0.03
   3  -6  -9    0.05    0.08
   3  -6  -9    0.03    0.02
   3  -6  -9    0.04    0.04
   3  -6  -9    0.06    0.03
  -3   6   9    0.03    0.03
  -3   6   9    0.05    0.02
  -3   6   9    0.01    0.02
   2  -6  -9    0.29    0.05
   2  -6  -9    0.35    0.05
   2  -6  -9    0.15    0.06
   2  -6  -9    0.27    0.05
  -2   6   9    0.19    0.06
  -2   6   9    0.18    0.03
  -2   6   9    0.26    0.04
  -2   6   9    0.23    0.05
   1  -6  -9    2.87    0.20
   1  -6  -9    2.73    0.19
   1  -6  -9    2.66    0.16
  -1   6   9    2.74    0.14
  -1   6   9    2.55    0.18
  -1   6   9    2.58    0.16
  -1   6   9    2.57    0.17
  -1   6   9    2.63    0.18
   0  -6  -9    0.52    0.08
   0  -6  -9    0.52    0.07
   0   6   9    0.60    0.06
   0   6   9    0.51    0.06
   0   6   9    0.57    0.08
  -1  -6  -9    2.98    0.19
  -1  -6  -9    3.01    0.20
   1   6   9    3.03    0.19
   1   6   9    2.94    0.17
   1   6   9    2.49    0.24
   1   6   9    2.88    0.19
  -2  -6  -9    0.79    0.07
   2   6   9    0.71    0.09
   2   6   9    0.93    0.07
   2   6   9    0.83    0.07
   2   6   9    0.86    0.07
   2   6   9    0.76    0.10
   2   6   9    0.75    0.07
   3   6   9    0.24    0.03
   3   6   9    0.31    0.05
   3   6   9    0.29    0.03
   3   6   9    0.32    0.04
   3  -7  -9    4.57    0.26
  -3   7   9    3.61    0.25
  -3   7   9    4.71    0.25
   2  -7  -9    2.31    0.15
   2  -7  -9    2.54    0.15
  -2   7   9    2.02    0.14
  -2   7   9    2.22    0.15
   1  -7  -9    6.37    0.37
   1  -7  -9    6.31    0.37
  -1   7   9    5.91    0.32
  -1   7   9    6.05    0.36
  -1   7   9    5.55    0.35
   0  -7  -9    0.02    0.04
   0  -7  -9    0.05    0.03
   0  -7  -9    0.03    0.03
   0   7   9    0.02    0.03
   0   7   9   -0.01    0.03
   0   7   9    0.03    0.04
  -1  -7  -9    0.10    0.04
   1   7   9    0.09    0.03
   1   7   9    0.09    0.03
   1   7   9    0.07    0.04
   1   7   9    0.05    0.02
  -2  -7  -9   -0.02    0.03
   2   7   9    0.00    0.02
   2   7   9    0.02    0.02
   1  -8  -9    0.17    0.03
   1  -8  -9    0.15    0.05
  -1   8   9    0.12    0.03
  -1   8   9    0.09    0.02
   0  -8  -9    4.07    0.23
   0   8   9    3.69    0.22
   0   8   9    3.53    0.20
   0   8   9    4.06    0.22
   0   8   9    3.14    0.27
   1  11 -10    1.08    0.07
   1  11 -10    0.76    0.09
   1  11 -10    0.99    0.06
   1  11 -10    0.87    0.07
  -1 -11  10    1.08    0.05
  -1 -11  10    0.92    0.06
   0  11 -10    2.35    0.16
   0  11 -10    2.72    0.16
   0 -11  10    2.93    0.16
  -1  11 -10    1.39    0.09
  -1  11 -10    1.33    0.09
   1 -11  10    1.15    0.08
   1 -11  10    1.24    0.08
  -2  11 -10    0.93    0.07
   2 -11  10    0.78    0.06
   2  10 -10    0.44    0.06
   2  10 -10    0.46    0.05
   2  10 -10    0.41    0.06
  -2 -10  10    0.45    0.04
  -2 -10  10    0.52    0.04
  -2 -10  10    0.56    0.05
   1  10 -10    0.74    0.10
   1  10 -10    0.86    0.06
   1  10 -10    0.92    0.08
   1  10 -10    0.77    0.07
  -1 -10  10    0.81    0.06
  -1 -10  10    0.91    0.05
  -1 -10  10    0.84    0.08
   0  10 -10    0.66    0.05
   0  10 -10    0.74    0.06
   0  10 -10    0.68    0.07
   0  10 -10    0.67    0.08
   0 -10  10    0.62    0.05
   0 -10  10    0.58    0.08
   0 -10  10    0.62    0.07
   0 -10  10    0.62    0.07
  -1  10 -10    4.49    0.27
  -1  10 -10    4.84    0.23
  -1  10 -10    4.67    0.28
   1 -10  10    4.75    0.25
   1 -10  10    4.71    0.27
   1 -10  10    4.69    0.26
  -2  10 -10   12.43    0.58
  -2  10 -10   12.18    0.69
  -2  10 -10   12.55    0.68
   2 -10  10   11.00    0.66
   2 -10  10   12.73    0.65
   2 -10  10   12.60    0.73
   2 -10  10   12.95    0.65
  -3  10 -10    0.04    0.02
  -3  10 -10    0.05    0.04
  -3  10 -10    0.01    0.02
   3 -10  10    0.01    0.01
   3 -10  10   -0.02    0.03
   3 -10  10    0.04    0.02
   3 -10  10    0.01    0.02
   3   9 -10    5.51    0.43
   3   9 -10    5.95    0.33
   3   9 -10    6.13    0.31
   3   9 -10    4.81    0.44
  -3  -9  10    6.54    0.33
  -3  -9  10    5.89    0.27
  -3  -9  10    5.31    0.31
   2   9 -10    4.11    0.24
   2   9 -10    4.01    0.25
   2   9 -10    4.05    0.22
   2   9 -10    3.43    0.31
  -2  -9  10    3.97    0.20
  -2  -9  10    4.15    0.23
   1   9 -10    4.56    0.28
   1   9 -10    4.89    0.26
   1   9 -10    4.58    0.29
  -1  -9  10    4.75    0.23
  -1  -9  10    4.74    0.27
   0   9 -10    4.50    0.24
   0   9 -10    3.49    0.21
   0   9 -10    4.20    0.27
   0   9 -10    3.83    0.26
   0  -9  10    4.42    0.21
   0  -9  10    4.70    0.26
   0  -9  10    4.46    0.24
  -1   9 -10    0.01    0.04
   1  -9  10    0.03    0.02
   1  -9  10    0.03    0.06
   1  -9  10   -0.02    0.03
  -2   9 -10    0.05    0.04
  -2   9 -10   -0.01    0.02
  -2   9 -10    0.09    0.04
   2  -9  10    0.00    0.02
   2  -9  10    0.00    0.04
   2  -9  10    0.04    0.03
   2  -9  10   -0.03    0.03
  -3   9 -10    4.41    0.21
  -3   9 -10    4.16    0.25
  -3   9 -10    4.66    0.26
   3  -9  10    4.33    0.24
   3  -9  10    4.18    0.24
   3  -9  10    4.20    0.27
   3  -9  10    4.58    0.24
   4   8 -10    0.41    0.05
   3   8 -10   -0.01    0.04
   3   8 -10   -0.02    0.06
   3   8 -10    0.05    0.05
   3   8 -10   -0.01    0.04
   3   8 -10   -0.03    0.02
   3   8 -10    0.00    0.05
  -3  -8  10    0.04    0.02
  -3  -8  10    0.04    0.03
   2   8 -10   55.29    3.99
   2   8 -10   53.52    2.70
   2   8 -10   50.17    2.86
   2   8 -10   49.84    2.84
  -2  -8  10   52.16    2.42
   1   8 -10   16.94    1.01
   1   8 -10   17.73    0.98
   1   8 -10   17.95    0.93
   1   8 -10   17.51    0.99
  -1  -8  10   17.98    0.95
  -1  -8  10   17.97    0.83
   0   8 -10    8.37    0.39
   0   8 -10    7.48    0.47
   0   8 -10    7.64    0.46
   0   8 -10    8.06    0.43
   0   8 -10    7.93    0.47
   0  -8  10    8.12    0.39
   0  -8  10    8.50    0.47
   0  -8  10    8.32    0.45
  -1   8 -10    0.50    0.07
  -1   8 -10    0.59    0.07
  -1   8 -10    0.69    0.06
  -1   8 -10    0.59    0.08
   1  -8  10    0.65    0.06
   1  -8  10    0.66    0.08
  -2   8 -10    1.49    0.12
  -2   8 -10    1.60    0.10
   2  -8  10    1.73    0.10
   2  -8  10    1.58    0.11
  -3   8 -10    0.24    0.03
  -3   8 -10    0.19    0.05
   3  -8  10    0.15    0.05
   3  -8  10    0.15    0.03
   3  -8  10    0.19    0.03
  -4   8 -10   24.52    1.35
  -4   8 -10   24.32    1.15
   4  -8  10   25.77    1.29
   4   7 -10    2.50    0.17
   4   7 -10    2.00    0.16
   4   7 -10    2.22    0.18
   4   7 -10    2.15    0.20
  -4  -7  10    2.48    0.14
   3   7 -10    1.20    0.09
   3   7 -10    0.99    0.12
   3   7 -10    1.34    0.13
   3   7 -10    1.20    0.12
   3   7 -10    1.19    0.12
   3   7 -10    1.05    0.12
   3   7 -10    1.04    0.13
   3   7 -10    1.09    0.09
  -3  -7  10    1.02    0.07
  -3  -7  10    1.05    0.11
   2   7 -10    7.95    0.46
   2   7 -10    8.35    0.43
   2   7 -10    6.82    0.60
   2   7 -10    8.46    0.47
  -2  -7  10    7.90    0.44
  -2  -7  10    8.01    0.38
   1   7 -10   48.17    2.77
   1   7 -10   49.70    2.55
   1   7 -10   49.47    2.68
   1   7 -10   48.15    2.70
  -1  -7  10   49.80    2.61
  -1  -7  10   50.25    2.28
   0   7 -10    1.79    0.14
   0   7 -10    1.76    0.11
   0   7 -10    1.71    0.12
   0   7 -10    1.70    0.14
   0  -7  10    1.84    0.13
   0  -7  10    1.75    0.10
   0  -7  10    1.72    0.12
  -1   7 -10    7.15    0.42
  -1   7 -10    7.04    0.38
  -1   7 -10    7.04    0.41
  -1   7 -10    7.06    0.35
   1  -7  10    7.32    0.34
   1  -7  10    6.98    0.39
   1  -7  10    7.04    0.38
   1  -7  10    7.12    0.40
  -2   7 -10    2.53    0.17
  -2   7 -10    2.59    0.14
   2  -7  10    2.57    0.17
   2  -7  10    2.67    0.16
   2  -7  10    2.65    0.15
  -3   7 -10    5.56    0.27
   3  -7  10    5.55    0.46
   3  -7  10    5.04    0.30
   3  -7  10    5.34    0.31
   3  -7  10    5.54    0.31
  -4   7 -10    0.69    0.07
   4  -7  10    0.72    0.09
   4  -7  10    0.72    0.06
   4  -7  10    0.64    0.07
   4  -7  10    0.63    0.06
   4  -7  10    0.72    0.06
   4   6 -10    0.39    0.06
   4   6 -10    0.49    0.07
   4   6 -10    0.50    0.05
   4   6 -10    0.54    0.07
   4   6 -10    0.39    0.06
   4   6 -10    0.45    0.07
  -4  -6  10    0.35    0.04
  -4  -6  10    0.52    0.05
   3   6 -10    3.16    0.31
   3   6 -10    3.66    0.22
   3   6 -10    3.68    0.21
  -3  -6  10    3.86    0.19
   2   6 -10   13.27    0.74
   2   6 -10   13.53    0.70
   2   6 -10   11.88    0.98
   2   6 -10   12.94    0.76
   2   6 -10   13.58    0.74
  -2  -6  10   13.62    0.62
  -2  -6  10   13.29    0.71
   1   6 -10   18.75    0.98
   1   6 -10   18.78    1.04
  -1  -6  10   18.70    0.88
  -1  -6  10   18.41    0.98
  -1  -6  10   19.37    1.01
   0   6 -10   16.71    0.88
   0   6 -10   16.89    0.79
   0   6 -10   15.74    0.97
   0   6 -10   16.17    0.93
   0  -6  10   17.38    0.95
   0  -6  10   16.92    0.89
   0  -6  10   17.22    0.78
   0  -6  10   16.64    0.88
   0  -6  10   16.85    0.90
  -1   6 -10    2.65    0.15
  -1   6 -10    2.65    0.17
  -1   6 -10    2.57    0.17
  -1   6 -10    2.62    0.17
   1  -6  10    2.52    0.17
   1  -6  10    2.59    0.17
   1  -6  10    2.17    0.22
   1  -6  10    2.65    0.16
  -2   6 -10   21.33    1.02
   2  -6  10   21.78    1.14
   2  -6  10   20.71    1.27
   2  -6  10   22.31    1.13
   2  -6  10   22.06    1.16
  -3   6 -10   16.05    0.75
   3  -6  10   15.50    0.84
   3  -6  10   15.45    0.84
   3  -6  10   16.80    0.83
   3  -6  10   15.23    0.94
  -4   6 -10    0.05    0.06
   4  -6  10    0.04    0.04
   4  -6  10    0.04    0.04
   4  -6  10   -0.03    0.03
   4  -6  10    0.03    0.03
   4  -6  10    0.04    0.03
   4  -6  10    0.03    0.04
   5  -6  10    0.12    0.02
   5  -6  10    0.10    0.03
   5  -6  10    0.10    0.03
   5   5 -10    1.75    0.14
   5   5 -10    1.86    0.14
   5   5 -10    1.60    0.14
   4   5 -10    0.11    0.03
   4   5 -10    0.07    0.06
   4   5 -10    0.07    0.03
   4   5 -10    0.15    0.05
   4   5 -10    0.14    0.05
   4   5 -10    0.06    0.04
   4   5 -10   -0.05    0.07
  -4  -5  10   -0.01    0.04
  -4  -5  10    0.05    0.04
   3   5 -10    0.07    0.03
   3   5 -10    0.15    0.08
   3   5 -10    0.07    0.06
   3   5 -10    0.09    0.04
   3   5 -10    0.14    0.06
   2   5 -10   29.69    1.65
   2   5 -10   33.63    2.10
   2   5 -10   29.19    1.56
   2   5 -10   29.06    1.65
  -2  -5  10   29.89    1.40
  -2  -5  10   28.68    1.60
   1   5 -10   46.19    2.36
   1   5 -10   45.03    2.37
   1   5 -10   43.70    2.52
   1   5 -10   45.49    2.24
   1   5 -10   36.77    3.15
  -1  -5  10   39.10    2.24
  -1  -5  10   46.44    2.01
   0   5 -10    1.61    0.12
   0  -5  10    1.93    0.12
   0  -5  10    1.89    0.12
  -1   5 -10   14.37    0.78
  -1   5 -10   13.22    0.79
  -1   5 -10   14.02    0.74
  -1   5 -10   14.15    0.66
   1  -5  10   14.85    0.81
   1  -5  10   13.67    1.14
   1  -5  10   13.35    0.66
   1  -5  10   14.72    0.74
  -2   5 -10    9.17    0.42
   2  -5  10    7.58    0.52
   2  -5  10    9.52    0.52
   2  -5  10    8.52    0.47
   2  -5  10    8.11    0.47
   2  -5  10    8.34    0.46
   2  -5  10    8.40    0.70
  -3   5 -10   -0.04    0.05
   3  -5  10    0.08    0.05
   3  -5  10   -0.01    0.05
   3  -5  10    0.00    0.03
   3  -5  10    0.00    0.04
   3  -5  10   -0.03    0.04
  -4   5 -10    0.41    0.07
   4  -5  10    0.38    0.08
   4  -5  10    0.39    0.06
   4  -5  10    0.26    0.06
   4  -5  10    0.40    0.06
   5  -5  10    0.46    0.05
   5  -5  10    0.52    0.05
   5  -5  10    0.46    0.05
   5  -5  10    0.53    0.07
   5   4 -10    1.40    0.12
   5   4 -10    1.70    0.12
   5   4 -10    1.31    0.13
   5   4 -10    1.54    0.12
   4   4 -10    5.35    0.37
   4   4 -10    5.23    0.32
   4   4 -10    5.17    0.39
   4   4 -10    6.28    0.43
   4   4 -10    5.05    0.41
   4   4 -10    5.52    0.29
   4   4 -10    5.12    0.42
  -4  -4  10    5.23    0.32
   3   4 -10    0.44    0.07
   3   4 -10    0.60    0.09
   3   4 -10    0.37    0.06
   3   4 -10    0.47    0.06
   3   4 -10    0.54    0.09
   3   4 -10    0.42    0.08
  -3  -4  10    0.54    0.06
  -3  -4  10    0.43    0.06
   2   4 -10    9.78    0.63
   2   4 -10    8.86    0.47
   2   4 -10    8.82    0.51
   2   4 -10    7.53    0.66
   2   4 -10    7.90    0.60
   2   4 -10    8.24    0.54
  -2  -4  10    9.40    0.42
  -2  -4  10   10.13    0.52
  -2  -4  10    8.26    0.49
   1   4 -10   60.35    3.94
  -1  -4  10   53.16    2.63
  -1  -4  10   59.68    2.94
  -1  -4  10   53.94    3.19
   0   4 -10   31.76    1.73
   0  -4  10   30.09    1.65
   0  -4  10   29.25    2.51
   0  -4  10   35.26    1.78
  -1   4 -10    0.40    0.08
  -1   4 -10    0.32    0.04
   1  -4  10    0.26    0.04
   1  -4  10    0.35    0.05
  -2   4 -10    4.09    0.22
   2  -4  10    4.23    0.24
   2  -4  10    4.33    0.25
   2  -4  10    4.10    0.28
   2  -4  10    4.30    0.25
   2  -4  10    3.82    0.28
   3  -4  10    1.18    0.10
   3  -4  10    1.30    0.14
   3  -4  10    1.15    0.10
   3  -4  10    1.21    0.10
  -4   4 -10    2.08    0.20
   4  -4  10    2.97    0.24
   4  -4  10    2.73    0.18
   4  -4  10    2.42    0.21
   4  -4  10    2.59    0.18
   4  -4  10    2.41    0.17
   4  -4  10    2.81    0.16
   5  -4  10    3.08    0.20
   5  -4  10    3.01    0.20
   5  -4  10    3.10    0.18
   5  -4  10    3.68    0.28
   5   3 -10    0.01    0.04
   5   3 -10    0.00    0.04
   5   3 -10   -0.03    0.03
   5   3 -10    0.01    0.02
  -5  -3  10   -0.01    0.02
   4   3 -10    0.03    0.05
   4   3 -10    0.08    0.05
   4   3 -10   -0.01    0.03
   4   3 -10    0.03    0.04
   3   3 -10    0.05    0.06
   3   3 -10    0.01    0.04
   3   3 -10    0.12    0.05
   3   3 -10    0.11    0.06
   3   3 -10    0.02    0.05
   3   3 -10    0.13    0.05
   3   3 -10   -0.02    0.04
   3   3 -10    0.07    0.05
  -3  -3  10    0.03    0.02
   2   3 -10    0.07    0.06
   2   3 -10    0.24    0.07
   2   3 -10    0.07    0.05
   2   3 -10    0.10    0.04
   2   3 -10    0.04    0.04
  -2  -3  10    0.15    0.03
   1   3 -10   21.98    1.54
   0   3 -10    0.35    0.10
   0   3 -10    0.23    0.10
  -1   3 -10    0.13    0.09
  -1   3 -10   -0.03    0.07
   1  -3  10   -0.04    0.08
   1  -3  10   -0.01    0.04
  -2   3 -10   13.62    0.73
   2  -3  10   13.42    0.71
   2  -3  10   12.52    0.70
   2  -3  10   13.49    0.69
   2  -3  10   12.37    0.78
   2  -3  10   13.05    0.70
   3  -3  10    2.72    0.19
   3  -3  10    2.67    0.23
   3  -3  10    3.22    0.27
   3  -3  10    2.90    0.19
   3  -3  10    2.87    0.18
   4  -3  10    1.37    0.12
   4  -3  10    1.18    0.11
   4  -3  10    1.38    0.10
   4  -3  10    1.20    0.14
   4  -3  10    1.42    0.15
   5  -3  10    2.19    0.15
   5  -3  10    2.45    0.20
   5  -3  10    2.32    0.15
   5  -3  10    2.06    0.13
   5   2 -10    5.00    0.32
   5   2 -10    3.87    0.36
   5   2 -10    5.15    0.33
   5   2 -10    4.50    0.35
   4   2 -10    1.04    0.08
   4   2 -10    0.87    0.13
   3   2 -10    2.88    0.20
   3   2 -10    2.88    0.20
   3   2 -10    2.72    0.25
   3   2 -10    3.27    0.24
   3   2 -10    3.13    0.18
   3   2 -10    2.87    0.25
  -3  -2  10    3.08    0.16
   2   2 -10    0.12    0.08
   2   2 -10    0.13    0.04
  -2  -2  10    0.14    0.03
  -1  -2  10   12.78    0.68
  -1  -2  10   12.90    0.70
  -1  -2  10   12.60    0.58
   0   2 -10    2.24    0.14
   0   2 -10    2.21    0.18
   0  -2  10    2.32    0.20
   0  -2  10    2.32    0.22
   1  -2  10   14.67    0.67
   1  -2  10   13.44    0.76
   1  -2  10   14.55    0.83
  -2   2 -10    1.73    0.17
   2  -2  10    1.65    0.13
   2  -2  10    1.84    0.12
   2  -2  10    1.73    0.19
   3  -2  10    4.29    0.26
   3  -2  10    4.66    0.29
   3  -2  10    4.36    0.29
   3  -2  10    4.56    0.34
   3  -2  10    4.83    0.39
   3  -2  10    4.67    0.27
   4  -2  10   10.00    0.60
   4  -2  10    9.18    0.67
   4  -2  10   10.81    0.81
   4  -2  10    9.92    0.54
   5  -2  10    0.40    0.05
   5  -2  10    0.50    0.05
   5  -2  10    0.45    0.06
   5  -2  10    0.55    0.07
   5   1 -10    0.61    0.07
   5   1 -10    0.65    0.06
   5   1 -10    0.48    0.08
   5   1 -10    0.63    0.07
   4   1 -10    0.10    0.04
   4   1 -10    0.04    0.07
   4   1 -10    0.12    0.05
   4   1 -10    0.06    0.05
  -4  -1  10    0.04    0.03
   3   1 -10    0.28    0.07
   3   1 -10    0.24    0.07
   3   1 -10    0.18    0.08
   3   1 -10    0.23    0.05
   3   1 -10    0.21    0.06
   3   1 -10    0.23    0.05
  -3  -1  10    0.21    0.04
   2   1 -10    0.47    0.08
   2   1 -10    0.28    0.04
   2   1 -10    0.20    0.10
   2   1 -10    0.33    0.06
   2   1 -10    0.28    0.05
   2   1 -10    0.30    0.05
   2   1 -10    0.39    0.09
  -2  -1  10    0.26    0.04
   1   1 -10    2.12    0.14
   1   1 -10    2.06    0.16
   1   1 -10    2.16    0.18
  -1  -1  10    2.13    0.14
   0   1 -10    0.31    0.06
   0   1 -10    0.13    0.07
   0   1 -10    0.14    0.10
   0  -1  10    0.42    0.07
   1  -1  10    0.24    0.05
   1  -1  10    0.26    0.07
   1  -1  10    0.18    0.06
   1  -1  10    0.15    0.05
   2  -1  10    3.63    0.23
   2  -1  10    3.43    0.23
   2  -1  10    3.34    0.22
   3  -1  10    0.64    0.08
   3  -1  10    0.68    0.12
   3  -1  10    0.71    0.09
   3  -1  10    0.68    0.08
   3  -1  10    0.68    0.10
   3  -1  10    0.71    0.09
   3  -1  10    0.66    0.09
   3  -1  10    0.67    0.07
   3  -1  10    0.69    0.08
   4  -1  10    4.00    0.26
   4  -1  10    4.12    0.24
   4  -1  10    3.71    0.29
   4  -1  10    4.57    0.36
   4  -1  10    4.22    0.27
   5  -1  10    4.09    0.22
   5  -1  10    4.16    0.24
   5  -1  10    4.05    0.33
   5  -1  10    3.87    0.24
   5  -1  10    3.50    0.27
   5   0 -10    3.95    0.38
   5   0 -10    4.68    0.33
   5   0 -10    4.85    0.30
   5   0 -10    4.13    0.34
   4   0 -10    1.93    0.20
   4   0 -10    2.30    0.19
   4   0 -10    2.11    0.15
   4   0 -10    2.34    0.18
   4   0 -10    1.97    0.24
  -4   0  10    2.01    0.12
  -4   0  10    2.23    0.14
   3   0 -10    5.60    0.36
   3   0 -10    4.75    0.32
   3   0 -10    4.27    0.39
   3   0 -10    4.74    0.27
   3   0 -10    4.62    0.30
  -3   0  10    5.08    0.24
   2   0 -10    0.12    0.06
   2   0 -10    0.13    0.04
   2   0 -10    0.12    0.03
   2   0 -10    0.05    0.09
  -2   0  10    0.12    0.08
  -2   0  10    0.12    0.03
  -2   0  10    0.15    0.03
   0   0 -10    7.72    0.47
   0   0  10    8.72    0.40
   1   0  10    9.63    0.49
   1   0  10    8.68    0.51
   1   0  10    8.00    0.53
   1   0  10    9.05    0.51
   1   0  10    7.91    0.47
   2   0  10    2.29    0.16
   2   0  10    2.32    0.17
   2   0  10    2.21    0.16
   2   0  10    2.62    0.22
   2   0  10    2.24    0.17
   2   0  10    2.26    0.15
   3   0  10   10.73    0.78
   3   0  10    9.70    0.53
   3   0  10    9.15    0.51
   3   0  10    9.40    0.58
   3   0  10    9.53    0.56
   3   0  10    8.97    0.64
   3   0  10    8.90    0.76
   3   0  10    9.49    0.58
   4   0  10    2.62    0.17
   4   0  10    2.26    0.15
   4   0  10    2.84    0.24
   4   0  10    2.45    0.17
   4   0  10    2.27    0.23
   4   0  10    2.41    0.19
   5   0  10    5.60    0.33
   5   0  10    5.84    0.44
   5   0  10    5.28    0.33
   5   0  10    5.15    0.36
   5   0  10    5.26    0.29
   5  -1 -10    0.04    0.03
   5  -1 -10    0.04    0.05
  -5   1  10    0.05    0.03
   4  -1 -10    6.58    0.36
   4  -1 -10    5.85    0.56
   4  -1 -10    6.78    0.41
   4  -1 -10    7.10    0.50
   4  -1 -10    6.06    0.51
   4  -1 -10    7.53    0.46
  -4   1  10    6.48    0.32
  -4   1  10    6.67    0.39
   3  -1 -10   24.79    1.39
   3  -1 -10   24.15    1.31
   3  -1 -10   24.98    1.49
   3  -1 -10   24.62    1.50
   3  -1 -10   27.45    1.67
  -3   1  10   25.27    1.18
   2  -1 -10   29.40    1.59
   2  -1 -10   28.37    1.51
   2  -1 -10   28.88    1.70
  -2   1  10   30.01    1.35
  -2   1  10   31.65    1.65
  -2   1  10   25.44    1.64
   1  -1 -10    0.72    0.07
   1  -1 -10    0.92    0.10
   0   1  10   13.80    0.80
   1   1  10    0.06    0.05
   1   1  10    0.08    0.04
   1   1  10    0.14    0.06
   1   1  10    0.06    0.05
   1   1  10   -0.02    0.07
   1   1  10    0.08    0.05
   1   1  10    0.09    0.04
   1   1  10    0.09    0.04
   2   1  10    1.00    0.11
   2   1  10    1.00    0.10
   2   1  10    0.79    0.10
   2   1  10    0.91    0.09
   2   1  10    0.94    0.10
   2   1  10    0.87    0.08
   2   1  10    1.15    0.14
   3   1  10   17.34    1.45
   3   1  10   18.27    1.23
   3   1  10   18.95    1.10
   3   1  10   18.58    1.06
   3   1  10   19.99    1.11
   3   1  10   18.45    0.98
   4   1  10    5.51    0.49
   4   1  10    6.12    0.37
   4   1  10    6.53    0.38
   4   1  10    6.78    0.51
   4   1  10    5.86    0.42
   4   1  10    5.95    0.33
   5   1  10    0.53    0.04
   5   1  10    0.62    0.06
   5  -2 -10    0.08    0.04
  -5   2  10    0.00    0.03
   4  -2 -10    3.09    0.22
   4  -2 -10    3.29    0.21
   4  -2 -10    3.36    0.25
   4  -2 -10    2.57    0.29
   4  -2 -10    3.07    0.18
   4  -2 -10    2.79    0.25
  -4   2  10    3.12    0.19
  -4   2  10    3.05    0.16
   3  -2 -10    9.89    0.66
   3  -2 -10    9.67    0.60
   3  -2 -10    9.86    0.55
   3  -2 -10    9.83    0.52
   3  -2 -10    9.82    0.60
  -3   2  10    9.57    0.47
  -3   2  10    9.52    0.57
   2  -2 -10    7.68    0.49
   2  -2 -10    8.08    0.43
   2  -2 -10    7.67    0.49
   2  -2 -10    8.21    0.53
   2  -2 -10    7.74    0.45
  -2   2  10    7.62    0.38
  -2   2  10    7.95    0.47
   1  -2 -10    4.14    0.29
   1  -2 -10    4.51    0.25
  -1   2  10    4.02    0.24
  -1   2  10    4.26    0.22
  -1   2  10    4.22    0.26
  -1   2  10    4.60    0.27
   0  -2 -10    2.73    0.19
   0  -2 -10    2.48    0.22
   0   2  10    2.71    0.17
   0   2  10    2.80    0.18
   1   2  10    1.67    0.16
   1   2  10    1.99    0.15
   1   2  10    1.99    0.15
   1   2  10    1.97    0.13
   1   2  10    2.11    0.15
   1   2  10    2.17    0.15
   2   2  10    0.38    0.06
   2   2  10    0.42    0.06
   2   2  10    0.49    0.07
   2   2  10    0.37    0.07
   2   2  10    0.45    0.06
   2   2  10    0.39    0.05
   2   2  10    0.35    0.06
   2   2  10    0.27    0.09
   3   2  10   28.91    1.55
   3   2  10   25.11    1.83
   3   2  10   24.72    2.02
   3   2  10   26.72    1.49
   3   2  10   24.97    1.71
   3   2  10   26.56    1.49
   4   2  10    0.98    0.08
   4   2  10    0.96    0.08
   4   2  10    0.97    0.09
   4   2  10    1.21    0.09
   4   2  10    0.96    0.11
   4  -3 -10    0.99    0.10
   4  -3 -10    1.01    0.11
   4  -3 -10    0.87    0.08
   4  -3 -10    0.79    0.11
  -4   3  10    0.94    0.08
  -4   3  10    0.86    0.07
   3  -3 -10    1.91    0.12
  -3   3  10    1.77    0.10
  -3   3  10    1.71    0.12
   2  -3 -10    1.68    0.14
   2  -3 -10    1.81    0.12
  -2   3  10    1.84    0.13
  -2   3  10    1.73    0.13
  -2   3  10    1.66    0.10
   1  -3 -10    2.12    0.17
   1  -3 -10    2.44    0.15
  -1   3  10    2.44    0.16
  -1   3  10    2.37    0.16
  -1   3  10    2.44    0.13
  -1   3  10    2.36    0.17
   0  -3 -10   15.64    0.92
   0   3  10   15.77    0.91
   0   3  10   15.59    0.89
   0   3  10   15.32    0.81
   0   3  10   14.70    0.88
   1   3  10    2.17    0.17
   1   3  10    2.23    0.16
   1   3  10    2.00    0.16
   1   3  10    2.07    0.14
   1   3  10    2.18    0.15
   1   3  10    2.22    0.16
  -2  -3 -10    0.78    0.10
   2   3  10    0.62    0.07
   2   3  10    0.70    0.10
   2   3  10    0.70    0.07
   2   3  10    0.67    0.07
   2   3  10    0.68    0.12
   2   3  10    0.58    0.09
   2   3  10    0.82    0.10
  -3  -3 -10    1.69    0.13
   3   3  10    1.48    0.14
   3   3  10    1.67    0.12
   3   3  10    1.78    0.12
   3   3  10    1.41    0.15
   3   3  10    1.52    0.10
   3   3  10    1.67    0.11
   3   3  10    1.42    0.14
   4   3  10    2.16    0.20
   4   3  10    2.37    0.18
   4   3  10    2.64    0.16
   4   3  10    2.50    0.14
   4  -4 -10    0.42    0.05
   4  -4 -10    0.27    0.06
   4  -4 -10    0.27    0.07
   4  -4 -10    0.46    0.06
  -4   4  10    0.45    0.05
  -4   4  10    0.45    0.06
   3  -4 -10    0.04    0.03
   3  -4 -10   -0.01    0.06
   3  -4 -10    0.09    0.05
  -3   4  10    0.02    0.04
  -3   4  10    0.01    0.03
  -3   4  10   -0.05    0.05
   2  -4 -10    9.73    0.51
   2  -4 -10    9.68    0.58
  -2   4  10    8.38    0.51
  -2   4  10    9.66    0.56
  -2   4  10    9.75    0.45
   1  -4 -10   -0.04    0.04
   1  -4 -10    0.03    0.05
   1  -4 -10   -0.07    0.06
  -1   4  10    0.01    0.03
  -1   4  10    0.01    0.05
  -1   4  10    0.04    0.04
  -1   4  10    0.03    0.04
   0  -4 -10   10.57    0.64
   0   4  10   10.61    0.62
   0   4  10   10.26    0.56
   0   4  10   10.20    0.61
  -1  -4 -10    7.68    0.47
   1   4  10    7.50    0.45
   1   4  10    7.50    0.46
   1   4  10    8.62    0.47
   1   4  10    6.83    0.61
   1   4  10    7.90    0.42
  -2  -4 -10    0.22    0.07
   2   4  10    0.18    0.05
   2   4  10    0.28    0.07
   2   4  10    0.20    0.05
   2   4  10    0.20    0.04
   2   4  10    0.22    0.04
   3   4  10    0.53    0.06
   3   4  10    0.48    0.07
   3   4  10    0.48    0.05
   3   4  10    0.42    0.07
   3   4  10    0.42    0.07
   3   4  10    0.43    0.06
   4   4  10    0.05    0.02
   4   4  10    0.05    0.02
   4   4  10    0.05    0.03
   4  -5 -10    2.95    0.18
  -4   5  10    2.64    0.17
   3  -5 -10    3.93    0.24
   3  -5 -10    3.26    0.31
   3  -5 -10    3.51    0.23
   3  -5 -10    3.59    0.20
  -3   5  10    3.59    0.21
  -3   5  10    3.69    0.18
  -3   5  10    3.37    0.22
   2  -5 -10    0.92    0.11
   2  -5 -10    0.81    0.08
   2  -5 -10    0.90    0.12
   2  -5 -10    0.74    0.09
  -2   5  10    0.76    0.09
  -2   5  10    0.83    0.07
  -2   5  10    0.74    0.09
  -2   5  10    0.75    0.08
   1  -5 -10    1.84    0.17
   1  -5 -10    2.18    0.14
  -1   5  10    2.05    0.14
  -1   5  10    1.65    0.12
  -1   5  10    2.11    0.11
   0  -5 -10    1.33    0.11
   0   5  10    1.35    0.09
   0   5  10    1.06    0.16
   0   5  10    1.15    0.10
  -1  -5 -10    0.03    0.03
  -1  -5 -10   -0.02    0.04
   1   5  10   -0.01    0.03
   1   5  10    0.01    0.04
   1   5  10    0.03    0.03
   1   5  10    0.03    0.05
   1   5  10    0.01    0.03
  -2  -5 -10   -0.04    0.04
   2   5  10    0.12    0.03
   2   5  10    0.02    0.06
   2   5  10    0.04    0.05
   2   5  10    0.12    0.04
   2   5  10    0.10    0.04
   2   5  10    0.06    0.03
   2   5  10    0.08    0.04
   3   5  10    2.11    0.12
   3   5  10    1.94    0.14
   3   5  10    1.75    0.16
   3   5  10    1.64    0.11
   3  -6 -10    0.37    0.04
   3  -6 -10    0.44    0.05
  -3   6  10    0.48    0.05
  -3   6  10    0.54    0.04
  -3   6  10    0.44    0.06
   2  -6 -10    7.46    0.45
   2  -6 -10    7.81    0.44
   2  -6 -10    7.09    0.39
  -2   6  10    7.32    0.44
  -2   6  10    7.02    0.35
   1  -6 -10    3.81    0.24
   1  -6 -10    4.01    0.24
  -1   6  10    3.46    0.23
  -1   6  10    3.64    0.21
  -1   6  10    3.37    0.18
  -1   6  10    3.77    0.23
   0  -6 -10    0.86    0.08
   0  -6 -10    0.92    0.10
   0   6  10    0.85    0.08
   0   6  10    0.94    0.08
   0   6  10    0.81    0.08
  -1  -6 -10   10.04    0.59
  -1  -6 -10    9.58    0.60
   1   6  10    9.97    0.59
   1   6  10    9.74    0.58
   1   6  10   10.36    0.53
  -2  -6 -10    1.02    0.08
   2   6  10    1.22    0.08
   2   6  10    1.09    0.10
   2   6  10    1.06    0.12
   2   6  10    1.24    0.09
   2  -7 -10    2.25    0.14
  -2   7  10    2.15    0.14
   1  -7 -10    2.38    0.15
   1  -7 -10    2.50    0.15
  -1   7  10    2.21    0.15
  -1   7  10    2.09    0.14
   0  -7 -10    1.80    0.11
   0  -7 -10    1.71    0.13
   0  -7 -10    2.06    0.12
   0   7  10    1.67    0.12
   0   7  10    1.81    0.11
   0   7  10    1.89    0.12
  -1  -7 -10    0.96    0.08
   1   7  10    1.03    0.08
   1   7  10    1.04    0.09
   1   7  10    1.08    0.07
   1   7  10    1.16    0.08
   1  11 -11    0.02    0.04
   1  11 -11    0.08    0.02
  -1 -11  11    0.12    0.04
  -1 -11  11    0.10    0.02
   0  11 -11    2.84    0.16
   0  11 -11    2.16    0.21
   0 -11  11    2.78    0.15
  -1  11 -11    1.36    0.09
  -1  11 -11    1.43    0.10
   1 -11  11    1.45    0.09
   2  10 -11    0.31    0.04
   2  10 -11    0.36    0.05
   2  10 -11    0.30    0.06
   2  10 -11    0.37    0.07
  -2 -10  11    0.35    0.04
  -2 -10  11    0.41    0.05
  -2 -10  11    0.40    0.03
   1  10 -11    1.75    0.12
   1  10 -11    1.49    0.16
   1  10 -11    1.67    0.13
   1  10 -11    1.76    0.10
  -1 -10  11    1.82    0.11
  -1 -10  11    1.80    0.09
  -1 -10  11    1.75    0.11
   0  10 -11    0.09    0.04
   0  10 -11    0.02    0.02
   0  10 -11   -0.02    0.05
   0  10 -11    0.03    0.03
   0 -10  11    0.01    0.02
   0 -10  11    0.01    0.04
   0 -10  11    0.03    0.01
   0 -10  11    0.04    0.03
  -1  10 -11    2.96    0.17
  -1  10 -11    2.78    0.17
  -1  10 -11    2.76    0.14
   1 -10  11    2.93    0.16
   1 -10  11    2.87    0.17
   1 -10  11    2.78    0.16
  -2  10 -11    2.54    0.12
  -2  10 -11    2.56    0.15
  -2  10 -11    2.37    0.14
   2 -10  11    2.27    0.14
   2 -10  11    2.03    0.13
   3   9 -11    0.10    0.03
   3   9 -11    0.05    0.04
   3   9 -11    0.09    0.03
   3   9 -11    0.07    0.02
  -3  -9  11    0.05    0.02
  -3  -9  11    0.08    0.02
   2   9 -11    3.25    0.28
   2   9 -11    3.59    0.20
   2   9 -11    3.61    0.21
  -2  -9  11    3.89    0.21
  -2  -9  11    3.47    0.18
  -2  -9  11    3.50    0.20
   1   9 -11    6.85    0.42
   1   9 -11    7.27    0.41
   1   9 -11    7.32    0.38
   1   9 -11    6.26    0.54
   1   9 -11    7.17    0.41
  -1  -9  11    7.27    0.34
  -1  -9  11    7.48    0.42
  -1  -9  11    7.29    0.39
   0   9 -11    0.78    0.08
   0   9 -11    0.75    0.09
   0   9 -11    0.85    0.08
   0   9 -11    0.86    0.08
   0   9 -11    0.76    0.07
   0  -9  11    0.76    0.09
   0  -9  11    0.84    0.05
   0  -9  11    0.81    0.07
   0  -9  11    0.84    0.08
   0  -9  11    0.85    0.09
  -1   9 -11    0.26    0.05
  -1   9 -11    0.29    0.05
  -1   9 -11    0.20    0.04
   1  -9  11    0.19    0.04
   1  -9  11    0.21    0.04
   1  -9  11    0.31    0.05
  -2   9 -11    0.22    0.04
  -2   9 -11    0.12    0.03
  -2   9 -11    0.20    0.05
   2  -9  11    0.18    0.06
   2  -9  11    0.17    0.03
   2  -9  11    0.18    0.03
   2  -9  11    0.23    0.03
  -3   9 -11    7.28    0.40
  -3   9 -11    7.52    0.34
   3  -9  11    6.92    0.38
   3  -9  11    7.47    0.38
   3  -9  11    6.75    0.43
   3  -9  11    7.12    0.38
   3   8 -11    0.02    0.03
   3   8 -11    0.05    0.02
   3   8 -11    0.01    0.05
   3   8 -11    0.02    0.03
  -3  -8  11    0.06    0.03
  -3  -8  11    0.04    0.02
   2   8 -11   34.23    1.94
   2   8 -11   36.89    1.84
   2   8 -11   36.07    1.93
   2   8 -11   31.10    2.58
  -2  -8  11   36.10    1.64
  -2  -8  11   34.91    1.88
  -2  -8  11   38.37    1.99
   1   8 -11    8.58    0.47
  -1  -8  11    8.64    0.42
  -1  -8  11    9.07    0.51
   0   8 -11    0.16    0.04
   0   8 -11    0.24    0.04
   0   8 -11    0.26    0.06
   0  -8  11    0.16    0.04
   0  -8  11    0.34    0.04
   0  -8  11    0.20    0.03
   0  -8  11    0.14    0.03
  -1   8 -11    1.40    0.11
  -1   8 -11    1.28    0.08
  -1   8 -11    1.27    0.10
   1  -8  11    1.28    0.10
   1  -8  11    1.23    0.09
  -2   8 -11    0.08    0.06
  -2   8 -11    0.07    0.04
  -2   8 -11   -0.03    0.05
   2  -8  11    0.07    0.03
   2  -8  11   -0.02    0.06
   2  -8  11    0.04    0.03
   2  -8  11    0.07    0.03
  -3   8 -11   10.01    0.54
  -3   8 -11    9.80    0.46
   3  -8  11    9.27    0.58
   3  -8  11    9.64    0.53
   3  -8  11    9.80    0.52
   3  -8  11    9.37    0.52
   3  -8  11   10.13    0.51
   4  -8  11   15.16    0.79
   4  -8  11   15.25    0.89
   4   7 -11    4.13    0.32
  -4  -7  11    4.25    0.24
   3   7 -11    0.94    0.08
   3   7 -11    0.98    0.11
   3   7 -11    1.00    0.08
   3   7 -11    0.79    0.10
   3   7 -11    0.99    0.10
   3   7 -11    1.01    0.10
  -3  -7  11    0.94    0.06
  -3  -7  11    1.03    0.07
   2   7 -11    3.19    0.18
  -2  -7  11    3.23    0.16
   1   7 -11    8.90    0.52
   1   7 -11    8.83    0.48
   1   7 -11    8.93    0.51
  -1  -7  11    9.63    0.52
  -1  -7  11    8.84    0.43
   0   7 -11    0.35    0.06
   0   7 -11    0.47    0.06
   0   7 -11    0.39    0.07
   0   7 -11    0.55    0.07
   0  -7  11    0.40    0.04
   0  -7  11    0.48    0.05
   0  -7  11    0.39    0.05
   0  -7  11    0.47    0.06
   0  -7  11    0.39    0.06
  -1   7 -11    0.04    0.03
  -1   7 -11    0.07    0.04
   1  -7  11    0.05    0.05
   1  -7  11    0.08    0.03
   1  -7  11    0.04    0.02
  -2   7 -11    0.38    0.04
  -2   7 -11    0.38    0.05
   2  -7  11    0.43    0.06
   2  -7  11    0.55    0.06
   2  -7  11    0.48    0.05
  -3   7 -11   10.11    0.56
  -3   7 -11    9.57    0.48
   3  -7  11   10.13    0.54
   3  -7  11   10.28    0.55
   3  -7  11   10.16    0.54
   3  -7  11    9.98    0.82
   3  -7  11    9.67    0.60
   3  -7  11   10.50    0.53
  -4   7 -11    0.36    0.04
   4  -7  11    0.36    0.07
   4  -7  11    0.45    0.05
   4  -7  11    0.31    0.05
   4   6 -11    1.48    0.14
   4   6 -11    1.74    0.12
   4   6 -11    1.44    0.13
   4   6 -11    1.50    0.09
  -4  -6  11    1.43    0.10
   3   6 -11    0.09    0.06
   3   6 -11    0.10    0.05
   3   6 -11    0.15    0.05
   3   6 -11    0.04    0.05
   3   6 -11    0.10    0.04
  -3  -6  11    0.09    0.03
   2   6 -11   15.64    0.84
   2   6 -11   16.14    0.89
   2   6 -11   16.83    0.89
   2   6 -11   14.38    1.18
  -2  -6  11   17.33    0.92
  -2  -6  11   15.67    0.86
  -2  -6  11   16.13    0.75
   1   6 -11    0.86    0.11
   1   6 -11    0.80    0.11
   1   6 -11    0.89    0.10
   1   6 -11    0.91    0.11
   1   6 -11    0.97    0.09
  -1  -6  11    0.94    0.07
  -1  -6  11    0.89    0.08
  -1  -6  11    1.00    0.09
  -1  -6  11    0.81    0.09
   0   6 -11   27.71    1.57
   0   6 -11   27.70    1.56
   0   6 -11   29.44    1.33
   0  -6  11   28.29    1.48
   0  -6  11   28.03    1.52
   0  -6  11   27.16    1.49
   0  -6  11   30.95    1.61
   0  -6  11   28.78    1.33
  -1   6 -11   10.15    0.49
  -1   6 -11    9.84    0.58
  -1   6 -11    9.78    0.58
   1  -6  11   10.35    0.55
   1  -6  11   10.45    0.48
   1  -6  11   10.40    0.56
   1  -6  11   10.68    0.59
  -2   6 -11    2.66    0.17
   2  -6  11    2.40    0.19
   2  -6  11    2.58    0.15
   2  -6  11    2.65    0.17
   2  -6  11    2.62    0.16
  -3   6 -11    0.56    0.06
   3  -6  11    0.72    0.08
   3  -6  11    0.76    0.07
   3  -6  11    0.66    0.06
   3  -6  11    0.60    0.08
   3  -6  11    0.81    0.07
  -4   6 -11    0.30    0.05
   4  -6  11    0.24    0.04
   4  -6  11    0.25    0.04
   4  -6  11    0.26    0.05
   4  -6  11    0.22    0.04
   4   5 -11    3.22    0.27
   4   5 -11    3.32    0.26
   4   5 -11    3.02    0.23
   4   5 -11    3.03    0.21
   4   5 -11    3.36    0.18
   4   5 -11    3.65    0.25
  -4  -5  11    3.27    0.20
   3   5 -11    0.06    0.06
   3   5 -11    0.08    0.03
   3   5 -11    0.09    0.07
  -3  -5  11    0.10    0.02
  -3  -5  11    0.16    0.05
   2   5 -11    9.48    0.50
   2   5 -11    9.17    0.53
   2   5 -11    8.32    0.70
   2   5 -11    9.66    0.53
  -2  -5  11    9.50    0.45
  -2  -5  11   10.00    0.54
   1   5 -11   18.18    0.98
   1   5 -11   18.77    1.04
   1   5 -11   18.20    1.11
   1   5 -11   18.66    1.04
  -1  -5  11   18.66    0.88
  -1  -5  11   19.67    1.06
   0   5 -11   33.24    1.51
   0   5 -11   30.61    1.78
   0   5 -11   31.22    1.77
   0  -5  11   31.95    1.69
   0  -5  11   32.93    1.51
   0  -5  11   34.28    1.83
   0  -5  11   32.65    1.73
  -1   5 -11    0.45    0.05
  -1   5 -11    0.53    0.07
   1  -5  11    0.58    0.07
   1  -5  11    0.52    0.07
   1  -5  11    0.53    0.05
   1  -5  11    0.73    0.12
  -2   5 -11    0.95    0.12
   2  -5  11    0.79    0.12
   2  -5  11    1.08    0.09
   2  -5  11    1.01    0.10
   2  -5  11    1.04    0.09
   2  -5  11    1.04    0.13
   2  -5  11    1.25    0.14
   3  -5  11    0.08    0.03
   3  -5  11    0.01    0.04
   3  -5  11    0.02    0.04
   3  -5  11    0.03    0.03
  -4   5 -11    0.02    0.05
   4  -5  11    0.05    0.03
   4  -5  11    0.04    0.06
   4  -5  11    0.08    0.03
   4  -5  11    0.06    0.03
   4  -5  11    0.03    0.04
   5  -5  11    0.31    0.04
   5  -5  11    0.28    0.04
   5  -5  11    0.22    0.05
   5   4 -11    1.12    0.08
   5   4 -11    0.81    0.09
   4   4 -11    1.24    0.11
   4   4 -11    1.21    0.13
   4   4 -11    1.47    0.12
   4   4 -11    1.29    0.10
   4   4 -11    1.48    0.12
   4   4 -11    1.30    0.14
   3   4 -11    0.74    0.07
   3   4 -11    0.65    0.08
   3   4 -11    0.65    0.12
   3   4 -11    0.70    0.08
   3   4 -11    0.73    0.08
   3   4 -11    0.73    0.10
  -3  -4  11    0.64    0.06
   2   4 -11   41.04    2.15
   2   4 -11   39.23    2.27
   2   4 -11   42.29    2.26
  -2  -4  11   42.04    1.93
  -2  -4  11   42.84    2.33
   1   4 -11    0.89    0.09
   1   4 -11    0.77    0.11
   1   4 -11    0.90    0.07
   1   4 -11    0.84    0.10
  -1  -4  11    0.81    0.08
  -1  -4  11    0.84    0.08
  -1  -4  11    0.93    0.06
  -1  -4  11    0.83    0.09
   0   4 -11   47.26    2.57
   0   4 -11   44.23    2.58
   0  -4  11   43.86    2.45
   0  -4  11   50.63    2.65
   0  -4  11   48.52    2.45
   0  -4  11   49.84    2.19
   0  -4  11   45.95    2.51
  -1   4 -11    2.86    0.20
  -1   4 -11    2.97    0.16
   1  -4  11    2.97    0.28
   1  -4  11    2.97    0.18
   1  -4  11    2.90    0.18
   1  -4  11    3.05    0.19
  -2   4 -11    1.73    0.10
   2  -4  11    1.60    0.12
   2  -4  11    1.47    0.15
   2  -4  11    1.81    0.11
   2  -4  11    1.45    0.13
   2  -4  11    1.68    0.15
   2  -4  11    1.58    0.12
   2  -4  11    1.68    0.13
   3  -4  11    0.15    0.05
   3  -4  11    0.20    0.04
   3  -4  11    0.18    0.05
   3  -4  11    0.17    0.04
   3  -4  11    0.23    0.05
   3  -4  11    0.13    0.04
   4  -4  11    0.17    0.06
   4  -4  11    0.26    0.05
   4  -4  11    0.25    0.05
   4  -4  11    0.21    0.05
   4  -4  11    0.23    0.04
   4  -4  11    0.23    0.04
   5  -4  11    2.37    0.16
   5  -4  11    2.88    0.21
   5  -4  11    2.21    0.14
   5   3 -11    1.03    0.09
   5   3 -11    0.95    0.08
   5   3 -11    1.05    0.08
   4   3 -11    0.45    0.05
   4   3 -11    0.42    0.07
   4   3 -11    0.45    0.06
   4   3 -11    0.45    0.06
   4   3 -11    0.39    0.07
   4   3 -11    0.45    0.06
   3   3 -11   19.90    0.99
   3   3 -11   17.39    1.41
   3   3 -11   18.85    1.05
   3   3 -11   19.36    1.05
   2   3 -11   11.83    0.65
   2   3 -11   11.51    0.70
   2   3 -11   13.83    0.88
  -2  -3  11   12.41    0.71
  -2  -3  11   12.31    0.59
   1   3 -11   21.20    1.13
   1   3 -11   21.53    1.19
   1   3 -11   19.54    1.20
   1   3 -11   21.71    1.28
  -1  -3  11   22.86    1.02
  -1  -3  11   23.33    1.23
   0   3 -11    0.12    0.07
   0  -3  11    0.07    0.03
   0  -3  11    0.07    0.03
   0  -3  11    0.09    0.03
   0  -3  11    0.15    0.06
   0  -3  11    0.07    0.04
   1  -3  11    6.72    0.43
   1  -3  11    6.99    0.36
   1  -3  11    5.99    0.37
   1  -3  11    6.44    0.38
   1  -3  11    7.19    0.40
  -2   3 -11    2.87    0.20
   2  -3  11    2.66    0.17
   2  -3  11    2.83    0.17
   2  -3  11    2.90    0.18
   2  -3  11    2.20    0.21
   2  -3  11    2.92    0.19
   3  -3  11    0.09    0.05
   3  -3  11    0.06    0.04
   3  -3  11    0.07    0.06
   3  -3  11    0.02    0.05
   3  -3  11    0.14    0.04
   3  -3  11    0.09    0.06
   4  -3  11    4.02    0.26
   4  -3  11    3.94    0.26
   4  -3  11    4.02    0.23
   4  -3  11    4.32    0.35
   4  -3  11    3.82    0.29
   5  -3  11    0.02    0.02
   5  -3  11    0.03    0.02
   5  -3  11    0.01    0.02
   5  -3  11    0.01    0.03
   5   2 -11    0.97    0.09
   5   2 -11    1.02    0.10
   5   2 -11    1.12    0.11
   4   2 -11    2.08    0.15
   4   2 -11    1.63    0.17
   4   2 -11    1.93    0.17
   4   2 -11    1.78    0.13
   4   2 -11    1.69    0.11
   4   2 -11    1.83    0.16
   4   2 -11    1.90    0.15
  -4  -2  11    1.75    0.11
   3   2 -11    0.44    0.07
   3   2 -11    0.51    0.08
   3   2 -11    0.40    0.09
   3   2 -11    0.54    0.06
  -3  -2  11    0.55    0.05
   2   2 -11    0.22    0.06
   2   2 -11    0.15    0.04
   2   2 -11    0.16    0.05
   2   2 -11    0.15    0.05
   2   2 -11    0.06    0.09
   2   2 -11    0.10    0.06
  -2  -2  11    0.11    0.03
  -2  -2  11    0.24    0.06
   1   2 -11   32.22    1.75
   1   2 -11   32.84    1.66
   1   2 -11   31.87    1.87
   1   2 -11   30.21    1.75
  -1  -2  11   30.34    1.71
  -1  -2  11   33.95    1.80
   0  -2  11    9.52    0.51
  -1   2 -11   11.23    0.69
   1  -2  11   12.39    0.71
   1  -2  11   11.24    0.66
   1  -2  11   12.63    0.58
   1  -2  11   13.46    0.72
   1  -2  11   12.66    0.65
   1  -2  11   12.17    0.67
   2  -2  11    2.86    0.27
   2  -2  11    2.87    0.18
   2  -2  11    2.71    0.17
   2  -2  11    2.88    0.20
   3  -2  11    0.38    0.06
   3  -2  11    0.48    0.10
   3  -2  11    0.41    0.08
   3  -2  11    0.58    0.06
   3  -2  11    0.42    0.08
   3  -2  11    0.40    0.06
   3  -2  11    0.46    0.06
   3  -2  11    0.39    0.06
   4  -2  11    0.22    0.04
   4  -2  11    0.19    0.05
   4  -2  11    0.20    0.04
   4  -2  11    0.24    0.05
   5  -2  11    0.04    0.02
   5  -2  11    0.03    0.02
   5  -2  11    0.08    0.03
   5  -2  11    0.02    0.02
   5  -2  11    0.03    0.03
   5   1 -11    4.74    0.35
   5   1 -11    4.36    0.25
   4   1 -11    0.57    0.12
   4   1 -11    0.84    0.09
   4   1 -11    0.76    0.11
   4   1 -11    0.62    0.10
   4   1 -11    0.83    0.11
   4   1 -11    0.83    0.10
   4   1 -11    0.89    0.08
   4   1 -11    0.91    0.08
  -4  -1  11    0.79    0.06
  -4  -1  11    0.87    0.08
   3   1 -11    1.24    0.12
   3   1 -11    1.22    0.16
   3   1 -11    1.35    0.12
   3   1 -11    1.30    0.10
  -3  -1  11    1.21    0.08
   2   1 -11   -0.05    0.10
   2   1 -11    0.06    0.06
   2   1 -11    0.11    0.07
   2   1 -11   -0.02    0.08
   2   1 -11    0.02    0.05
   2   1 -11    0.02    0.04
  -2  -1  11    0.06    0.03
   1   1 -11   12.20    0.76
   1   1 -11   12.19    0.76
   1   1 -11   11.90    0.67
  -1  -1  11   14.10    0.73
   0  -1  11    6.23    0.35
   0  -1  11    5.21    0.37
   0  -1  11    5.63    0.34
   0  -1  11    6.05    0.32
   1  -1  11    0.79    0.09
   1  -1  11    0.95    0.11
   1  -1  11    0.80    0.07
   1  -1  11    0.79    0.09
   1  -1  11    0.65    0.08
   2  -1  11    0.23    0.04
   2  -1  11    0.10    0.06
   2  -1  11    0.17    0.07
   2  -1  11    0.15    0.04
   3  -1  11    5.66    0.44
   3  -1  11    4.62    0.42
   3  -1  11    5.13    0.32
   3  -1  11    5.18    0.29
   3  -1  11    5.09    0.36
   3  -1  11    4.89    0.32
   3  -1  11    5.39    0.30
   4  -1  11    3.40    0.21
   4  -1  11    3.16    0.21
   4  -1  11    3.22    0.19
   4  -1  11    2.80    0.28
   4  -1  11    3.07    0.24
   4  -1  11    3.68    0.29
   5  -1  11    1.31    0.09
   5  -1  11    1.41    0.11
   5  -1  11    1.52    0.13
   5  -1  11    1.25    0.08
   5   0 -11    3.64    0.25
  -5   0  11    3.55    0.22
   4   0 -11    3.60    0.30
   4   0 -11    3.87    0.25
   4   0 -11    3.40    0.33
   4   0 -11    3.15    0.26
   4   0 -11    3.90    0.23
   4   0 -11    4.09    0.22
   4   0 -11    4.02    0.30
  -4   0  11    3.95    0.23
  -4   0  11    3.79    0.19
   3   0 -11    6.54    0.44
   3   0 -11    5.95    0.36
   3   0 -11    5.59    0.33
   3   0 -11    6.02    0.38
   3   0 -11    5.18    0.46
  -3   0  11    6.73    0.36
  -3   0  11    6.09    0.30
   2   0 -11    1.52    0.15
   2   0 -11    1.44    0.10
   2   0 -11    1.48    0.12
   2   0 -11    1.31    0.15
  -2   0  11    1.64    0.11
  -2   0  11    1.51    0.14
  -2   0  11    1.36    0.09
   1   0 -11    5.71    0.32
   1   0 -11    5.88    0.35
   1   0 -11    5.75    0.38
  -1   0  11    6.10    0.35
  -1   0  11    5.93    0.35
   0   0 -11    5.37    0.30
   0   0  11    5.06    0.30
   0   0  11    5.12    0.30
   0   0  11    5.55    0.26
  -1   0 -11    2.95    0.21
   1   0  11    3.13    0.21
   1   0  11    2.79    0.18
   1   0  11    2.86    0.19
   1   0  11    3.08    0.18
   1   0  11    3.07    0.19
   1   0  11    2.86    0.23
   1   0  11    2.54    0.20
  -2   0 -11    3.45    0.23
   2   0  11    3.41    0.22
   2   0  11    3.28    0.20
   2   0  11    3.31    0.25
   2   0  11    3.37    0.20
   2   0  11    3.25    0.22
   2   0  11    3.76    0.30
   2   0  11    3.17    0.20
   2   0  11    3.22    0.22
   3   0  11    0.36    0.09
   3   0  11    0.39    0.08
   3   0  11    0.34    0.06
   3   0  11    0.30    0.05
   3   0  11    0.36    0.06
   4   0  11    0.79    0.06
   4   0  11    0.75    0.08
   4   0  11    0.74    0.08
   4   0  11    0.92    0.08
   4   0  11    0.90    0.10
   4   0  11    0.76    0.12
   5  -1 -11   -0.02    0.04
  -5   1  11    0.07    0.03
   4  -1 -11    3.16    0.30
   4  -1 -11    3.36    0.20
   4  -1 -11    3.58    0.24
   4  -1 -11    3.54    0.24
   4  -1 -11    3.39    0.27
  -4   1  11    3.32    0.18
   3  -1 -11    8.38    0.51
  -3   1  11    8.30    0.40
   2  -1 -11    9.62    0.55
   2  -1 -11   10.16    0.63
   2  -1 -11    9.92    0.58
   2  -1 -11   11.06    0.70
   2  -1 -11    9.89    0.63
  -2   1  11   10.99    0.60
  -2   1  11   10.36    0.49
   1  -1 -11   12.53    0.75
   1  -1 -11   11.94    0.69
   1  -1 -11   12.06    0.65
   1  -1 -11   12.31    0.74
  -1   1  11   12.03    0.71
  -1   1  11   12.57    0.58
  -1   1  11   12.72    0.71
   0  -1 -11   13.03    0.78
   0   1  11   11.94    0.87
   0   1  11   13.76    0.62
   0   1  11   13.42    0.76
   0   1  11   13.26    0.69
  -1  -1 -11    8.23    0.51
   1   1  11    8.78    0.51
   1   1  11    8.08    0.56
   1   1  11    8.04    0.49
   1   1  11    8.35    0.45
   1   1  11    8.26    0.46
   2   1  11    1.17    0.15
   2   1  11    1.01    0.09
   2   1  11    1.09    0.09
   2   1  11    0.93    0.10
   2   1  11    1.00    0.08
   3   1  11    0.76    0.10
   3   1  11    0.86    0.08
   3   1  11    0.82    0.07
   3   1  11    0.62    0.10
   3   1  11    0.74    0.08
  -4  -1 -11    6.30    0.40
   4   1  11    7.33    0.41
   4   1  11    6.67    0.40
   4   1  11    6.46    0.45
   4   1  11    6.63    0.53
   4   1  11    6.59    0.36
   4  -2 -11    0.15    0.07
   4  -2 -11    0.14    0.04
   4  -2 -11    0.16    0.03
  -4   2  11    0.25    0.03
  -4   2  11    0.20    0.03
   3  -2 -11    7.71    0.41
   3  -2 -11    7.69    0.47
   3  -2 -11    7.65    0.47
  -3   2  11    7.44    0.45
  -3   2  11    7.51    0.37
  -3   2  11    7.73    0.46
   2  -2 -11    2.07    0.16
   2  -2 -11    1.80    0.16
   2  -2 -11    1.99    0.13
   2  -2 -11    2.06    0.17
  -2   2  11    1.99    0.14
  -2   2  11    1.96    0.11
  -2   2  11    1.86    0.13
   1  -2 -11    1.52    0.13
   1  -2 -11    1.50    0.11
   1  -2 -11    1.34    0.12
  -1   2  11    1.21    0.11
  -1   2  11    1.44    0.09
  -1   2  11    1.41    0.11
  -1   2  11    1.38    0.11
   0  -2 -11    6.66    0.42
   0  -2 -11    7.15    0.43
   0   2  11    6.91    0.37
   0   2  11    6.92    0.41
   0   2  11    6.51    0.40
  -1  -2 -11    5.71    0.36
   1   2  11    5.46    0.31
   1   2  11    5.89    0.35
   1   2  11    5.56    0.35
   1   2  11    5.54    0.34
   2   2  11   11.01    0.59
   2   2  11   10.36    0.73
   2   2  11   10.24    0.87
   2   2  11   12.10    0.67
   2   2  11   11.12    0.64
  -3  -2 -11   29.84    1.72
   3   2  11   30.11    1.70
   3   2  11   32.07    1.72
   3   2  11   29.17    1.65
   3   2  11   27.34    1.90
   3   2  11   27.31    2.24
   3   2  11   28.19    1.52
   4   2  11    2.65    0.17
   4   2  11    2.66    0.19
   4   2  11    2.65    0.17
   4   2  11    2.68    0.15
   4   2  11    2.60    0.23
   4  -3 -11    0.82    0.08
   4  -3 -11    0.93    0.09
   4  -3 -11    0.86    0.11
   4  -3 -11    0.95    0.07
  -4   3  11    0.97    0.06
  -4   3  11    0.95    0.07
   3  -3 -11    1.08    0.09
   3  -3 -11    0.94    0.10
   3  -3 -11    1.18    0.10
  -3   3  11    1.10    0.08
  -3   3  11    1.01    0.08
  -3   3  11    0.97    0.08
   2  -3 -11    7.13    0.45
   2  -3 -11    7.35    0.39
  -2   3  11    7.19    0.35
  -2   3  11    7.12    0.43
   1  -3 -11   14.46    0.73
   1  -3 -11   13.59    0.83
   1  -3 -11   14.23    0.83
  -1   3  11   13.56    0.73
  -1   3  11   13.59    0.66
  -1   3  11   13.39    0.80
  -1   3  11   14.20    0.81
   0  -3 -11    8.59    0.53
   0   3  11    8.58    0.51
   0   3  11    8.67    0.47
   0   3  11    8.38    0.51
  -1  -3 -11    1.15    0.10
   1   3  11    1.13    0.09
   1   3  11    1.08    0.11
   1   3  11    0.90    0.11
   1   3  11    1.23    0.11
   2   3  11    0.09    0.04
   2   3  11    0.03    0.03
   2   3  11    0.01    0.04
   2   3  11    0.04    0.03
   2   3  11   -0.02    0.03
   2   3  11    0.03    0.04
   2   3  11    0.05    0.03
  -3  -3 -11    2.00    0.15
   3   3  11    1.88    0.19
   3   3  11    2.03    0.15
   3   3  11    2.12    0.13
   3   3  11    2.09    0.14
   3   3  11    1.94    0.17
   3   3  11    2.37    0.14
  -4  -3 -11    1.11    0.09
   4   3  11    1.54    0.09
   4   3  11    1.48    0.08
   4   3  11    1.14    0.12
   4   3  11    1.33    0.10
   4  -4 -11    0.86    0.10
   4  -4 -11    0.92    0.10
   3  -4 -11   12.80    0.69
   3  -4 -11   13.53    0.79
   3  -4 -11   13.47    0.78
  -3   4  11   12.91    0.62
  -3   4  11   12.92    0.77
   2  -4 -11    2.67    0.18
   2  -4 -11    2.74    0.16
   2  -4 -11    2.57    0.18
   2  -4 -11    2.71    0.20
  -2   4  11    2.77    0.17
  -2   4  11    2.27    0.17
  -2   4  11    2.70    0.14
  -2   4  11    2.43    0.17
   1  -4 -11    0.72    0.10
   1  -4 -11    0.76    0.09
  -1   4  11    0.72    0.07
  -1   4  11    0.71    0.07
  -1   4  11    0.42    0.10
   0  -4 -11    3.01    0.19
   0   4  11    2.69    0.17
   0   4  11    2.66    0.18
  -1  -4 -11    1.58    0.12
   1   4  11    1.24    0.12
   1   4  11    1.65    0.12
   1   4  11    1.35    0.10
   1   4  11    1.85    0.13
  -2  -4 -11    1.13    0.12
   2   4  11    1.40    0.10
   2   4  11    1.28    0.10
   2   4  11    1.15    0.11
   2   4  11    1.29    0.10
   2   4  11    1.21    0.13
   2   4  11    1.21    0.12
   3   4  11    0.48    0.06
   3   4  11    0.52    0.06
   3   4  11    0.53    0.07
   3   4  11    0.52    0.05
   3   4  11    0.58    0.05
   3  -5 -11    0.64    0.09
   3  -5 -11    0.78    0.08
  -3   5  11    0.70    0.06
  -3   5  11    0.74    0.05
  -3   5  11    0.72    0.06
   2  -5 -11    5.29    0.33
   2  -5 -11    5.21    0.33
   2  -5 -11    5.16    0.28
   2  -5 -11    5.63    0.32
  -2   5  11    5.08    0.25
  -2   5  11    5.40    0.32
  -2   5  11    4.75    0.31
   1  -5 -11    5.91    0.35
   1  -5 -11    5.68    0.35
  -1   5  11    5.52    0.34
  -1   5  11    5.75    0.31
  -1   5  11    5.07    0.27
  -1   5  11    5.58    0.33
   0  -5 -11    0.21    0.04
   0  -5 -11    0.19    0.06
   0   5  11    0.16    0.04
   0   5  11    0.12    0.05
   0   5  11    0.14    0.04
   0   5  11    0.19    0.08
  -1  -5 -11   -0.01    0.04
  -1  -5 -11    0.04    0.04
   1   5  11    0.02    0.06
   1   5  11    0.04    0.03
   1   5  11    0.03    0.04
   1   5  11    0.03    0.03
  -2  -5 -11    0.07    0.04
   2   5  11    0.15    0.03
   2   5  11    0.10    0.03
   2   5  11    0.12    0.03
   2   5  11    0.11    0.04
   2  -6 -11    0.04    0.05
   2  -6 -11    0.01    0.04
   2  -6 -11    0.00    0.03
  -2   6  11    0.03    0.02
  -2   6  11    0.03    0.02
   1  -6 -11   -0.02    0.03
   1  -6 -11   -0.05    0.03
  -1   6  11    0.03    0.02
  -1   6  11    0.01    0.03
  -1   6  11    0.01    0.02
   0  -6 -11    0.32    0.06
   0  -6 -11    0.50    0.07
   0  -6 -11    0.55    0.06
   0   6  11    0.44    0.05
   0   6  11    0.52    0.05
   0   6  11    0.49    0.06
  -1  -6 -11    2.15    0.13
   1   6  11    2.07    0.12
   1   6  11    1.82    0.12
   1   6  11    1.81    0.12
   1   6  11    1.74    0.15
  -2  -6 -11    0.91    0.07
   2   6  11    0.95    0.08
   0  11 -12    4.77    0.27
   0 -11  12    4.77    0.26
   2  10 -12    0.21    0.04
   2  10 -12    0.29    0.04
   2  10 -12    0.30    0.05
  -2 -10  12    0.26    0.03
   1  10 -12   11.38    0.58
   1  10 -12    9.43    0.62
   1  10 -12   11.60    0.62
  -1 -10  12   11.52    0.52
  -1 -10  12   11.79    0.63
   0  10 -12    0.77    0.05
   0  10 -12    0.64    0.06
   0  10 -12    0.67    0.07
   0 -10  12    0.64    0.06
  -1  10 -12    2.36    0.14
  -1  10 -12    2.33    0.14
   1 -10  12    2.07    0.12
   1 -10  12    2.13    0.13
   1 -10  12    2.13    0.13
  -2  10 -12    0.77    0.06
  -2  10 -12    0.74    0.05
   2 -10  12    0.58    0.06
   2 -10  12    0.74    0.05
   2 -10  12    0.84    0.07
   3   9 -12    0.00    0.02
   3   9 -12   -0.02    0.02
   3   9 -12   -0.04    0.03
   3   9 -12   -0.01    0.03
  -3  -9  12    0.01    0.02
   2   9 -12    0.26    0.08
   2   9 -12    0.39    0.07
   2   9 -12    0.38    0.05
   2   9 -12    0.43    0.04
  -2  -9  12    0.39    0.03
  -2  -9  12    0.42    0.04
  -2  -9  12    0.41    0.06
   1   9 -12    4.26    0.23
   1   9 -12    4.30    0.25
   1   9 -12    3.62    0.33
   1   9 -12    4.45    0.26
  -1  -9  12    4.15    0.20
  -1  -9  12    4.42    0.25
  -1  -9  12    4.17    0.24
   0   9 -12    7.75    0.40
   0   9 -12    7.67    0.43
   0   9 -12    7.65    0.44
   0  -9  12    7.53    0.42
   0  -9  12    7.60    0.41
   0  -9  12    8.03    0.44
   0  -9  12    7.05    0.40
   0  -9  12    7.66    0.36
  -1   9 -12    0.04    0.03
  -1   9 -12    0.06    0.05
  -1   9 -12    0.16    0.06
  -1   9 -12    0.13    0.04
   1  -9  12    0.06    0.03
   1  -9  12    0.12    0.03
   1  -9  12    0.07    0.04
  -2   9 -12    1.04    0.07
  -2   9 -12    0.90    0.08
  -2   9 -12    0.86    0.08
   2  -9  12    0.90    0.07
   2  -9  12    0.99    0.07
   2  -9  12    0.92    0.07
  -3   9 -12    0.04    0.02
  -3   9 -12    0.02    0.02
   3  -9  12    0.04    0.02
   3  -9  12    0.06    0.02
   3  -9  12    0.03    0.02
   3   8 -12    0.01    0.04
   3   8 -12    0.03    0.04
   3   8 -12    0.03    0.03
   3   8 -12    0.02    0.02
  -3  -8  12    0.03    0.02
  -3  -8  12    0.05    0.02
   2   8 -12   13.86    0.77
   2   8 -12   13.92    0.76
   2   8 -12   12.36    1.01
   2   8 -12   14.44    0.72
  -2  -8  12   13.21    0.74
  -2  -8  12   14.10    0.65
  -2  -8  12   14.63    0.79
   1   8 -12    1.83    0.13
   1   8 -12    1.48    0.17
   1   8 -12    1.90    0.11
  -1  -8  12    1.98    0.13
  -1  -8  12    1.78    0.10
  -1  -8  12    1.81    0.12
   0   8 -12    1.38    0.11
   0   8 -12    1.49    0.13
   0   8 -12    1.27    0.10
   0  -8  12    1.05    0.09
   0  -8  12    1.32    0.07
   0  -8  12    1.35    0.10
   0  -8  12    1.27    0.10
   0  -8  12    1.29    0.09
  -1   8 -12    0.51    0.07
  -1   8 -12    0.47    0.07
  -1   8 -12    0.50    0.07
  -1   8 -12    0.47    0.06
   1  -8  12    0.46    0.07
   1  -8  12    0.51    0.06
   1  -8  12    0.57    0.06
   1  -8  12    0.59    0.06
   1  -8  12    0.61    0.09
  -2   8 -12    2.43    0.15
  -2   8 -12    2.37    0.13
  -2   8 -12    2.18    0.15
   2  -8  12    2.30    0.14
   2  -8  12    2.51    0.15
   2  -8  12    2.40    0.14
   2  -8  12    2.16    0.18
  -3   8 -12   14.40    0.80
  -3   8 -12   15.51    0.68
   3  -8  12   14.84    0.77
   3  -8  12   13.40    0.85
   3  -8  12   14.98    0.77
   3  -8  12   14.97    0.76
   3  -8  12   13.67    0.78
   4   7 -12    4.27    0.33
   4   7 -12    4.50    0.23
   3   7 -12    1.76    0.17
   3   7 -12    2.17    0.12
   3   7 -12    2.15    0.13
   3   7 -12    1.72    0.17
   3   7 -12    2.02    0.14
  -3  -7  12    2.19    0.11
  -3  -7  12    2.11    0.13
   2   7 -12    5.35    0.31
   2   7 -12    4.91    0.41
   2   7 -12    5.21    0.29
  -2  -7  12    5.52    0.31
  -2  -7  12    5.04    0.29
  -2  -7  12    5.42    0.26
   1   7 -12    3.04    0.20
   1   7 -12    2.96    0.18
  -1  -7  12    3.29    0.19
  -1  -7  12    2.95    0.16
   0   7 -12    0.25    0.06
   0   7 -12    0.20    0.06
   0   7 -12    0.22    0.04
   0   7 -12    0.28    0.04
   0  -7  12    0.20    0.04
   0  -7  12    0.23    0.04
   0  -7  12    0.25    0.03
   0  -7  12    0.24    0.05
  -1   7 -12    0.83    0.10
  -1   7 -12    0.84    0.06
   1  -7  12    0.86    0.08
   1  -7  12    0.83    0.07
   1  -7  12    0.85    0.09
   1  -7  12    0.83    0.08
  -2   7 -12    1.11    0.08
   2  -7  12    1.13    0.09
   2  -7  12    0.97    0.13
   2  -7  12    1.21    0.08
  -3   7 -12    0.15    0.03
  -3   7 -12    0.11    0.04
   3  -7  12    0.11    0.07
   3  -7  12    0.04    0.05
   3  -7  12    0.04    0.04
   3  -7  12    0.10    0.02
   3  -7  12    0.04    0.03
   3  -7  12    0.14    0.03
   3  -7  12    0.17    0.04
   4  -7  12    0.88    0.06
   4  -7  12    0.81    0.08
   4   6 -12    6.36    0.46
   4   6 -12    5.94    0.47
   4   6 -12    6.28    0.44
   3   6 -12    6.39    0.57
   3   6 -12    7.59    0.42
   3   6 -12    6.67    0.55
   3   6 -12    8.18    0.53
   3   6 -12    7.64    0.40
   3   6 -12    7.30    0.42
  -3  -6  12    7.50    0.35
  -3  -6  12    7.67    0.43
   2   6 -12    2.44    0.14
   2   6 -12    1.88    0.16
  -2  -6  12    2.40    0.12
  -2  -6  12    2.20    0.15
   1   6 -12    0.04    0.04
   1   6 -12    0.03    0.03
   1   6 -12    0.05    0.04
  -1  -6  12   -0.02    0.02
  -1  -6  12    0.01    0.04
  -1  -6  12    0.05    0.04
  -1  -6  12    0.02    0.04
   0   6 -12    1.57    0.10
   0   6 -12    1.68    0.13
   0  -6  12    1.55    0.10
   0  -6  12    1.50    0.09
   0  -6  12    1.45    0.11
   0  -6  12    1.53    0.11
  -1   6 -12   11.24    0.65
  -1   6 -12   11.89    0.55
   1  -6  12   12.04    0.67
   1  -6  12   11.50    0.62
   1  -6  12   11.40    0.64
  -2   6 -12   -0.07    0.04
  -2   6 -12   -0.01    0.04
   2  -6  12    0.02    0.03
   2  -6  12    0.05    0.05
   2  -6  12    0.00    0.03
  -3   6 -12    2.20    0.11
  -3   6 -12    1.96    0.14
   3  -6  12    1.87    0.14
   3  -6  12    2.08    0.14
   3  -6  12    1.98    0.13
   3  -6  12    2.02    0.13
   3  -6  12    2.10    0.13
   3  -6  12    2.18    0.20
   3  -6  12    1.75    0.17
  -4   6 -12    0.13    0.04
   4  -6  12    0.15    0.04
   4  -6  12    0.10    0.04
   4  -6  12    0.08    0.03
   4   5 -12    1.85    0.14
   4   5 -12    1.64    0.11
   4   5 -12    1.94    0.15
   4   5 -12    2.05    0.14
   4   5 -12    1.77    0.16
   4   5 -12    1.53    0.15
   3   5 -12    1.61    0.10
   3   5 -12    1.58    0.13
   3   5 -12    1.36    0.15
   3   5 -12    1.76    0.13
   3   5 -12    1.33    0.14
  -3  -5  12    1.63    0.09
  -3  -5  12    1.62    0.11
   2   5 -12    2.03    0.12
   2   5 -12    1.92    0.15
  -2  -5  12    1.84    0.13
  -2  -5  12    2.07    0.11
   1   5 -12   10.95    0.59
   1   5 -12   10.34    0.55
   1   5 -12   10.13    0.59
  -1  -5  12   10.64    0.60
  -1  -5  12   10.34    0.49
  -1  -5  12   10.19    0.56
  -1  -5  12   10.08    0.57
   0   5 -12    7.40    0.39
   0   5 -12    7.18    0.44
   0   5 -12    6.78    0.41
   0   5 -12    7.02    0.42
   0  -5  12    7.42    0.42
   0  -5  12    6.66    0.40
   0  -5  12    7.27    0.39
   0  -5  12    7.36    0.34
  -1   5 -12   21.90    1.22
  -1   5 -12   22.33    1.04
   1  -5  12   21.94    1.16
   1  -5  12   21.77    1.19
   1  -5  12   21.64    1.16
   1  -5  12   21.56    1.77
   1  -5  12   23.82    1.26
  -2   5 -12    0.04    0.03
   2  -5  12    0.04    0.03
   2  -5  12   -0.03    0.04
   2  -5  12    0.01    0.05
   2  -5  12    0.01    0.04
  -3   5 -12    0.48    0.07
   3  -5  12    0.42    0.07
   3  -5  12    0.42    0.07
   3  -5  12    0.59    0.07
   3  -5  12    0.36    0.05
   3  -5  12    0.62    0.11
   3  -5  12    0.26    0.05
   3  -5  12    0.49    0.08
   4  -5  12    0.23    0.04
   4  -5  12    0.19    0.03
   4  -5  12    0.16    0.03
   4  -5  12    0.22    0.05
   4   4 -12    0.03    0.04
   4   4 -12    0.14    0.05
   4   4 -12   -0.01    0.05
   4   4 -12    0.01    0.05
   4   4 -12    0.05    0.04
  -4  -4  12    0.02    0.03
   3   4 -12    4.28    0.32
   3   4 -12    4.35    0.32
   3   4 -12    4.46    0.24
   3   4 -12    4.34    0.26
   2   4 -12    1.14    0.09
   2   4 -12    1.15    0.11
   2   4 -12    1.15    0.12
   2   4 -12    0.96    0.09
   2   4 -12    1.04    0.12
  -2  -4  12    1.10    0.09
  -2  -4  12    1.08    0.08
   1   4 -12    3.84    0.22
   1   4 -12    3.77    0.24
   1   4 -12    3.94    0.27
   1   4 -12    3.92    0.24
  -1  -4  12    3.90    0.24
  -1  -4  12    3.87    0.23
  -1  -4  12    3.87    0.20
   0   4 -12   50.78    2.99
   0   4 -12   51.11    2.66
   0   4 -12   49.03    2.80
   0  -4  12   49.78    2.66
   0  -4  12   50.68    2.38
   0  -4  12   51.74    2.89
   0  -4  12   49.01    2.73
   0  -4  12   59.13    2.91
   1  -4  12   10.95    0.62
   1  -4  12   10.45    0.58
   1  -4  12   10.56    0.57
   1  -4  12   11.10    0.50
   1  -4  12   10.65    0.57
   1  -4  12   10.99    0.87
   1  -4  12    9.57    0.57
  -2   4 -12    9.85    0.56
   2  -4  12    9.70    0.54
   2  -4  12   10.01    0.53
   2  -4  12   10.14    0.81
   2  -4  12    9.94    0.54
   2  -4  12   10.28    0.58
   2  -4  12    9.90    0.55
  -3   4 -12   -0.06    0.07
   3  -4  12    0.03    0.04
   3  -4  12    0.03    0.03
   3  -4  12    0.17    0.06
   4  -4  12    0.18    0.04
   4  -4  12    0.21    0.04
   4  -4  12    0.23    0.05
   4  -4  12    0.16    0.03
   4  -4  12    0.27    0.05
   4   3 -12    0.80    0.10
   4   3 -12    0.82    0.10
   4   3 -12    0.80    0.08
   4   3 -12    0.91    0.08
   4   3 -12    1.00    0.09
   4   3 -12    0.93    0.08
  -4  -3  12    0.90    0.06
   3   3 -12    5.01    0.31
   3   3 -12    5.19    0.28
  -3  -3  12    5.29    0.25
   2   3 -12    0.00    0.04
   2   3 -12   -0.01    0.04
   2   3 -12   -0.02    0.04
   2   3 -12    0.05    0.06
  -2  -3  12   -0.03    0.03
  -2  -3  12    0.00    0.03
   1   3 -12   49.59    2.89
   1   3 -12   50.81    2.57
   1   3 -12   43.48    2.71
   1   3 -12   49.46    2.70
  -1  -3  12   50.19    2.57
  -1  -3  12   51.59    2.30
  -1  -3  12   52.01    2.79
   0   3 -12   16.74    0.89
   0   3 -12   16.51    1.00
   0  -3  12   16.52    0.89
   0  -3  12   16.13    0.91
   0  -3  12   16.88    0.79
   0  -3  12   16.70    0.97
   0  -3  12   18.96    0.98
   1  -3  12    1.54    0.12
   1  -3  12    1.50    0.11
   1  -3  12    1.47    0.11
   1  -3  12    1.53    0.12
   1  -3  12    1.49    0.10
   1  -3  12    1.57    0.11
   2  -3  12    0.06    0.06
   2  -3  12   -0.01    0.05
   2  -3  12    0.07    0.04
   2  -3  12    0.05    0.04
   2  -3  12    0.05    0.03
   3  -3  12    1.17    0.11
   3  -3  12    1.29    0.09
   3  -3  12    1.18    0.11
  -4   3 -12    0.89    0.10
   4  -3  12    0.81    0.10
   4  -3  12    0.79    0.08
   4  -3  12    0.78    0.07
   4  -3  12    0.87    0.10
   4  -3  12    0.77    0.07
   4   2 -12    0.14    0.05
   4   2 -12    0.13    0.03
   4   2 -12    0.10    0.04
   4   2 -12    0.15    0.04
   4   2 -12    0.11    0.05
   4   2 -12    0.05    0.05
   4   2 -12    0.10    0.04
  -4  -2  12    0.13    0.03
  -4  -2  12    0.11    0.03
   3   2 -12    1.75    0.12
   3   2 -12    1.64    0.18
   3   2 -12    1.68    0.14
  -3  -2  12    1.77    0.10
   2   2 -12   29.85    1.85
   2   2 -12   31.01    1.64
   2   2 -12   29.89    1.73
   2   2 -12   36.27    2.20
  -2  -2  12   31.23    1.47
  -2  -2  12   31.16    1.78
   1   2 -12    1.77    0.14
   1   2 -12    1.51    0.13
   1   2 -12    1.56    0.11
  -1  -2  12    1.35    0.14
  -1  -2  12    1.94    0.12
  -1  -2  12    1.60    0.12
  -1  -2  12    1.60    0.10
   0   2 -12    0.79    0.09
   0   2 -12    0.86    0.09
   0   2 -12    0.75    0.09
   0  -2  12    1.01    0.08
   0  -2  12    0.71    0.08
   0  -2  12    0.80    0.06
   0  -2  12    0.97    0.08
   0  -2  12    0.67    0.09
  -1   2 -12    7.37    0.44
  -1   2 -12    7.10    0.42
   1  -2  12    6.98    0.45
   1  -2  12    7.00    0.42
   1  -2  12    7.11    0.40
   1  -2  12    7.34    0.39
   1  -2  12    7.46    0.42
   1  -2  12    6.58    0.39
   2  -2  12    1.17    0.10
   2  -2  12    1.32    0.10
   2  -2  12    1.13    0.10
   2  -2  12    0.98    0.10
   2  -2  12    1.21    0.15
   3  -2  12    2.25    0.16
   3  -2  12    2.29    0.15
   3  -2  12    2.39    0.21
   3  -2  12    2.34    0.15
   3  -2  12    2.03    0.18
   4  -2  12    2.46    0.15
   4  -2  12    2.52    0.16
   4  -2  12    2.23    0.18
   4  -2  12    2.83    0.23
   4  -2  12    2.26    0.16
   4   1 -12    0.88    0.16
   4   1 -12    0.90    0.12
   4   1 -12    1.05    0.09
   4   1 -12    0.92    0.10
   4   1 -12    0.90    0.08
  -4  -1  12    1.08    0.09
  -4  -1  12    1.02    0.07
   3   1 -12    2.79    0.17
  -3  -1  12    2.93    0.15
   2   1 -12   29.66    1.85
   2   1 -12   30.04    1.84
   2   1 -12   30.06    1.71
   2   1 -12   30.83    1.63
  -2  -1  12   31.03    1.77
  -2  -1  12   31.86    1.46
  -2  -1  12   35.57    1.78
   1   1 -12   34.63    2.08
   1   1 -12   34.64    1.94
   1   1 -12   35.05    1.85
  -1  -1  12   38.86    2.02
  -1  -1  12   34.53    1.85
  -1  -1  12   35.82    1.65
  -1  -1  12   35.45    2.01
   0   1 -12    3.46    0.25
   0   1 -12    3.39    0.24
   0  -1  12    3.54    0.21
   0  -1  12    3.45    0.23
   0  -1  12    3.47    0.21
   0  -1  12    3.58    0.18
   0  -1  12    3.73    0.22
   1  -1  12    0.10    0.04
   1  -1  12    0.17    0.04
   1  -1  12    0.15    0.07
   1  -1  12    0.03    0.05
   1  -1  12    0.16    0.04
   2  -1  12    0.98    0.10
   2  -1  12    1.03    0.08
   2  -1  12    1.15    0.08
   2  -1  12    1.01    0.09
   2  -1  12    1.01    0.14
   2  -1  12    0.95    0.12
   2  -1  12    1.03    0.09
  -3   1 -12    1.50    0.15
   3  -1  12    1.40    0.10
   3  -1  12    1.36    0.11
   3  -1  12    1.44    0.12
   3  -1  12    1.73    0.16
   3  -1  12    1.44    0.14
   4  -1  12    3.51    0.23
   4  -1  12    3.53    0.20
   4  -1  12    3.74    0.23
   4  -1  12    4.07    0.31
   4  -1  12    3.33    0.25
   4   0 -12    0.60    0.08
   4   0 -12    0.58    0.10
   4   0 -12    0.64    0.07
   4   0 -12    0.57    0.10
   4   0 -12    0.74    0.07
  -4   0  12    0.70    0.07
  -4   0  12    0.64    0.05
   3   0 -12    0.38    0.05
   3   0 -12    0.26    0.06
  -3   0  12    0.34    0.04
   2   0 -12    3.99    0.27
   2   0 -12    3.87    0.28
   2   0 -12    4.04    0.24
   2   0 -12    4.04    0.25
  -2   0  12    4.41    0.26
  -2   0  12    4.39    0.21
   1   0 -12   15.58    0.93
   1   0 -12   15.33    0.82
   1   0 -12   15.44    0.86
   1   0 -12   14.80    0.92
  -1   0  12   14.89    0.89
  -1   0  12   16.33    0.89
  -1   0  12   16.11    0.73
  -1   0  12   15.70    0.82
   0   0 -12    3.59    0.24
   0   0  12    3.54    0.22
   0   0  12    3.71    0.23
   0   0  12    3.76    0.19
   0   0  12    3.79    0.25
   0   0  12    3.56    0.23
   1   0  12    0.92    0.12
   1   0  12    0.92    0.08
   1   0  12    1.14    0.11
   1   0  12    1.04    0.08
   1   0  12    0.89    0.10
   1   0  12    1.06    0.09
  -2   0 -12    1.91    0.15
   2   0  12    1.58    0.12
   2   0  12    1.84    0.17
   2   0  12    1.49    0.14
   2   0  12    1.67    0.11
   2   0  12    1.70    0.12
   3   0  12    0.25    0.05
   3   0  12    0.31    0.06
   3   0  12    0.24    0.05
   3   0  12    0.30    0.08
   3   0  12    0.28    0.04
   3   0  12    0.28    0.04
   3   0  12    0.37    0.06
   3   0  12    0.18    0.06
   4   0  12   30.63    1.60
   4   0  12   28.16    1.58
   4   0  12   27.06    1.42
   4   0  12   25.40    1.77
   4   0  12   24.57    2.08
   4  -1 -12    3.30    0.21
   4  -1 -12    3.33    0.18
   4  -1 -12    3.15    0.28
  -4   1  12    3.13    0.16
  -4   1  12    3.45    0.20
  -4   1  12    2.87    0.19
   3  -1 -12    1.86    0.14
   3  -1 -12    1.86    0.14
   3  -1 -12    1.61    0.17
   3  -1 -12    1.77    0.12
  -3   1  12    1.85    0.11
  -3   1  12    1.81    0.12
   2  -1 -12    0.86    0.13
   2  -1 -12    0.93    0.10
  -2   1  12    0.99    0.07
  -2   1  12    0.96    0.08
   1  -1 -12   26.36    1.31
   1  -1 -12   25.45    1.49
   1  -1 -12   23.81    1.48
  -1   1  12   24.37    1.31
  -1   1  12   24.27    1.42
  -1   1  12   24.97    1.43
  -1   1  12   26.78    1.46
  -1   1  12   24.81    1.17
   0  -1 -12    4.94    0.31
   0  -1 -12    4.97    0.31
   0   1  12    4.79    0.27
   0   1  12    4.46    0.35
   0   1  12    4.82    0.30
   0   1  12    4.55    0.29
   0   1  12    4.59    0.28
   0   1  12    4.98    0.30
   1   1  12    5.83    0.33
   1   1  12    5.93    0.36
   1   1  12    5.61    0.35
   1   1  12    5.56    0.41
   1   1  12    6.10    0.32
   2   1  12    5.61    0.34
   2   1  12    5.90    0.35
   2   1  12    5.64    0.31
   2   1  12    5.20    0.39
   3   1  12    2.14    0.14
   3   1  12    1.89    0.12
   3   1  12    1.86    0.15
   3   1  12    1.94    0.13
   3   1  12    2.01    0.14
   3   1  12    2.30    0.14
   3   1  12    1.83    0.18
   4   1  12    0.41    0.07
   4   1  12    0.50    0.04
   4   1  12    0.55    0.05
   4   1  12    0.65    0.06
   4   1  12    0.60    0.06
   4  -2 -12    0.37    0.08
   4  -2 -12    0.55    0.07
   4  -2 -12    0.48    0.04
  -4   2  12    0.41    0.04
  -4   2  12    0.36    0.04
   3  -2 -12    2.17    0.18
   3  -2 -12    2.27    0.16
   3  -2 -12    2.25    0.14
  -3   2  12    2.31    0.15
  -3   2  12    2.33    0.12
  -3   2  12    2.13    0.15
   2  -2 -12    0.05    0.03
  -2   2  12   -0.01    0.04
  -2   2  12    0.01    0.02
   1  -2 -12    8.72    0.55
   1  -2 -12    9.13    0.55
   1  -2 -12    8.91    0.54
   1  -2 -12    9.30    0.48
  -1   2  12    8.43    0.48
  -1   2  12    8.96    0.43
  -1   2  12    8.48    0.52
  -1   2  12    9.12    0.53
   0  -2 -12    2.01    0.16
   0   2  12    2.33    0.14
   0   2  12    1.92    0.15
   0   2  12    2.04    0.15
  -1  -2 -12    4.36    0.28
   1   2  12    4.29    0.24
   1   2  12    4.09    0.26
   1   2  12    4.13    0.26
  -2  -2 -12    4.64    0.33
   2   2  12    4.24    0.31
   2   2  12    5.80    0.29
   2   2  12    5.66    0.32
   2   2  12    5.67    0.32
   2   2  12    4.88    0.32
   2   2  12    5.71    0.29
   2   2  12    5.28    0.36
  -3  -2 -12   14.15    0.83
   3   2  12   14.81    0.82
   3   2  12   12.95    0.91
   3   2  12   13.76    0.73
   3   2  12   15.03    0.83
   3   2  12   12.80    1.08
   4   2  12    0.41    0.04
   4   2  12    0.42    0.04
   4  -3 -12    1.92    0.18
  -4   3  12    2.01    0.12
  -4   3  12    1.93    0.10
   3  -3 -12    4.02    0.24
   3  -3 -12    3.69    0.21
   3  -3 -12    3.81    0.25
  -3   3  12    3.68    0.23
  -3   3  12    3.62    0.19
  -3   3  12    3.36    0.23
   2  -3 -12    2.37    0.14
   2  -3 -12    2.37    0.18
   2  -3 -12    2.46    0.17
  -2   3  12    2.28    0.16
  -2   3  12    2.21    0.16
  -2   3  12    2.44    0.13
   1  -3 -12    6.16    0.32
   1  -3 -12    6.12    0.37
   1  -3 -12    5.00    0.36
  -1   3  12    6.09    0.28
  -1   3  12    5.25    0.35
  -1   3  12    5.92    0.35
  -1   3  12    5.79    0.32
   0   3  12    1.02    0.09
   0   3  12    0.83    0.08
   0   3  12    0.83    0.08
   0   3  12    0.82    0.08
   1   3  12    2.14    0.15
   1   3  12    2.52    0.15
   1   3  12    2.77    0.16
   1   3  12    2.31    0.20
   1   3  12    1.93    0.16
  -2  -3 -12    0.06    0.04
   2   3  12    0.07    0.03
   2   3  12    0.09    0.04
   2   3  12    0.10    0.04
   2   3  12    0.12    0.04
   2   3  12    0.08    0.05
   2   3  12    0.12    0.05
   2   3  12    0.15    0.06
   3   3  12    0.06    0.02
   3   3  12    0.04    0.02
   3   3  12    0.03    0.03
   3   3  12    0.04    0.03
   3  -4 -12    1.43    0.15
   3  -4 -12    1.44    0.11
   3  -4 -12    1.42    0.09
   3  -4 -12    1.53    0.11
  -3   4  12    1.42    0.08
  -3   4  12    1.33    0.10
  -3   4  12    1.54    0.10
   2  -4 -12    0.62    0.09
   2  -4 -12    0.72    0.09
   2  -4 -12    0.60    0.08
   2  -4 -12    0.65    0.07
  -2   4  12    0.63    0.05
  -2   4  12    0.53    0.07
  -2   4  12    0.68    0.06
   1  -4 -12    2.62    0.18
   1  -4 -12    2.62    0.18
   1  -4 -12    2.46    0.18
  -1   4  12    2.44    0.16
  -1   4  12    2.58    0.13
  -1   4  12    2.53    0.15
  -1   4  12    2.61    0.17
   0  -4 -12    0.21    0.04
   0  -4 -12    0.21    0.06
   0   4  12    0.19    0.07
   0   4  12    0.23    0.06
   0   4  12    0.25    0.04
   0   4  12    0.27    0.05
   0   4  12    0.27    0.04
  -1  -4 -12    0.34    0.05
   1   4  12    0.33    0.06
   1   4  12    0.28    0.04
   1   4  12    0.35    0.05
   1   4  12    0.26    0.04
  -2  -4 -12    4.98    0.33
   2   4  12    5.86    0.32
   2   4  12    5.73    0.32
   2   4  12    4.87    0.42
   2   4  12    5.09    0.38
  -3  -4 -12    0.10    0.02
   3   4  12    0.08    0.03
   2  -5 -12    0.70    0.08
  -2   5  12    0.67    0.06
  -2   5  12    0.68    0.04
  -2   5  12    0.58    0.07
   1  -5 -12    1.37    0.11
   1  -5 -12    1.37    0.11
  -1   5  12    1.25    0.09
  -1   5  12    1.29    0.10
   0  -5 -12    1.10    0.09
   0  -5 -12    0.95    0.08
   0   5  12    0.86    0.08
   0   5  12    1.00    0.08
   0   5  12    0.94    0.07
  -1  -5 -12    0.80    0.07
  -1  -5 -12    0.70    0.09
   1   5  12    0.69    0.06
   1   5  12    0.57    0.08
   1   5  12    0.79    0.07
   2   5  12    0.79    0.07
   2   5  12    1.13    0.08
   1  -6 -12    0.34    0.05
  -1   6  12    0.44    0.04
  -1   6  12    0.37    0.04
   0  -6 -12    0.64    0.06
   0  -6 -12    0.48    0.06
   0   6  12    0.62    0.05
   0   6  12    0.66    0.05
   0   6  12    0.62    0.05
   1  10 -13   14.96    0.77
   1  10 -13   13.10    0.76
  -1 -10  13   13.67    0.74
   0  10 -13   10.28    0.53
   0  10 -13    9.61    0.53
   0 -10  13    8.39    0.54
   0 -10  13    9.87    0.51
  -1  10 -13   -0.01    0.02
  -1  10 -13    0.02    0.04
   1 -10  13   -0.01    0.02
   1 -10  13    0.00    0.02
  -2  10 -13    0.71    0.06
   2 -10  13    0.62    0.05
   2   9 -13    0.11    0.02
   2   9 -13    0.19    0.06
   2   9 -13    0.09    0.04
  -2  -9  13    0.09    0.02
  -2  -9  13    0.13    0.02
   1   9 -13    4.11    0.24
   1   9 -13    4.29    0.24
   1   9 -13    4.45    0.23
  -1  -9  13    3.88    0.20
  -1  -9  13    4.21    0.25
  -1  -9  13    3.90    0.23
   0   9 -13    4.94    0.28
   0   9 -13    4.95    0.28
   0  -9  13    5.18    0.29
   0  -9  13    4.52    0.27
   0  -9  13    4.68    0.23
  -1   9 -13    0.24    0.05
  -1   9 -13    0.22    0.05
  -1   9 -13    0.23    0.05
   1  -9  13    0.16    0.03
   1  -9  13    0.31    0.04
   1  -9  13    0.20    0.03
  -2   9 -13    0.91    0.07
  -2   9 -13    1.06    0.08
   2  -9  13    1.00    0.06
   2  -9  13    0.89    0.08
   2  -9  13    0.77    0.07
   2  -9  13    0.96    0.07
   3   8 -13    0.56    0.05
   3   8 -13    0.44    0.07
   3   8 -13    0.52    0.04
  -3  -8  13    0.52    0.05
  -3  -8  13    0.64    0.04
   2   8 -13    6.58    0.33
   2   8 -13    6.30    0.36
   2   8 -13    6.40    0.35
  -2  -8  13    6.08    0.36
  -2  -8  13    5.20    0.34
  -2  -8  13    6.45    0.30
   1   8 -13    1.39    0.09
   1   8 -13    1.36    0.12
   1   8 -13    1.45    0.10
  -1  -8  13    1.39    0.10
  -1  -8  13    1.29    0.08
  -1  -8  13    1.35    0.10
   0   8 -13    0.69    0.07
   0   8 -13    0.51    0.09
   0   8 -13    0.71    0.09
   0  -8  13    0.63    0.07
   0  -8  13    0.68    0.05
   0  -8  13    0.58    0.06
  -1   8 -13    0.09    0.04
  -1   8 -13    0.11    0.04
  -1   8 -13    0.07    0.05
   1  -8  13    0.12    0.03
   1  -8  13    0.11    0.03
   1  -8  13    0.10    0.03
  -2   8 -13    0.05    0.03
  -2   8 -13    0.05    0.02
   2  -8  13    0.05    0.02
   2  -8  13    0.01    0.03
   2  -8  13    0.10    0.03
   2  -8  13    0.09    0.03
  -3   8 -13    4.20    0.24
   3  -8  13    3.50    0.23
   3  -8  13    4.61    0.23
   3  -8  13    4.14    0.23
   3   7 -13    3.90    0.22
   3   7 -13    3.52    0.28
   3   7 -13    3.58    0.22
   3   7 -13    3.47    0.29
   3   7 -13    4.18    0.20
  -3  -7  13    3.92    0.18
  -3  -7  13    3.37    0.22
   2   7 -13    0.81    0.07
   2   7 -13    0.73    0.11
   2   7 -13    0.91    0.08
   2   7 -13    0.82    0.10
  -2  -7  13    0.91    0.06
  -2  -7  13    0.92    0.08
  -2  -7  13    0.76    0.07
   1   7 -13    6.00    0.33
   1   7 -13    6.09    0.35
  -1  -7  13    5.76    0.29
  -1  -7  13    6.20    0.35
   0   7 -13    0.22    0.04
   0   7 -13    0.24    0.05
   0  -7  13    0.22    0.04
   0  -7  13    0.26    0.07
   0  -7  13    0.18    0.03
   0  -7  13    0.21    0.03
   0  -7  13    0.24    0.03
  -1   7 -13    2.07    0.16
  -1   7 -13    2.14    0.12
   1  -7  13    1.90    0.14
   1  -7  13    2.17    0.14
   1  -7  13    2.12    0.14
   1  -7  13    2.05    0.13
  -2   7 -13    2.30    0.15
  -2   7 -13    2.31    0.12
   2  -7  13    2.25    0.13
   2  -7  13    2.28    0.15
   2  -7  13    2.24    0.15
   2  -7  13    2.32    0.15
  -3   7 -13    7.98    0.43
   3  -7  13    7.65    0.41
   3  -7  13    7.82    0.42
   3  -7  13    7.22    0.46
   3  -7  13    8.38    0.41
   3  -7  13    7.19    0.41
   4   6 -13    0.04    0.02
   4   6 -13   -0.02    0.03
  -4  -6  13   -0.01    0.02
   3   6 -13    3.18    0.29
   3   6 -13    3.37    0.29
   3   6 -13    3.69    0.27
   3   6 -13    3.67    0.21
   3   6 -13    3.71    0.22
   3   6 -13    3.62    0.20
  -3  -6  13    3.69    0.22
  -3  -6  13    3.87    0.18
   2   6 -13    0.37    0.05
   2   6 -13    0.46    0.06
  -2  -6  13    0.57    0.05
  -2  -6  13    0.28    0.06
  -2  -6  13    0.44    0.05
   1   6 -13    2.33    0.15
   1   6 -13    2.26    0.14
  -1  -6  13    2.23    0.12
  -1  -6  13    2.14    0.15
  -1  -6  13    2.35    0.15
   0   6 -13    3.71    0.21
   0   6 -13    3.58    0.22
   0  -6  13    3.49    0.22
   0  -6  13    3.43    0.21
   0  -6  13    3.77    0.23
   0  -6  13    3.76    0.18
  -1   6 -13   12.28    0.68
   1  -6  13   11.88    0.65
   1  -6  13   12.31    0.67
   1  -6  13   12.41    0.70
   1  -6  13   12.31    0.65
   2  -6  13    2.13    0.14
   2  -6  13    2.07    0.13
   2  -6  13    2.07    0.15
   2  -6  13    2.20    0.20
  -3   6 -13    0.60    0.09
   3  -6  13    0.68    0.10
   3  -6  13    0.79    0.07
   3  -6  13    0.62    0.08
   3  -6  13    0.61    0.06
   3  -6  13    0.71    0.06
   3  -6  13    0.63    0.09
   4  -6  13    3.63    0.23
   4  -6  13    3.62    0.20
   4   5 -13    0.14    0.03
   4   5 -13    0.18    0.03
   4   5 -13    0.13    0.03
  -4  -5  13    0.06    0.02
   3   5 -13    0.63    0.06
   3   5 -13    0.58    0.10
   3   5 -13    0.70    0.07
   3   5 -13    0.65    0.07
   3   5 -13    0.63    0.09
  -3  -5  13    0.65    0.05
  -3  -5  13    0.62    0.07
   2   5 -13    3.46    0.20
   2   5 -13    3.47    0.21
  -2  -5  13    3.30    0.21
  -2  -5  13    3.30    0.22
  -2  -5  13    3.63    0.18
   1   5 -13    7.59    0.44
   1   5 -13    7.91    0.41
  -1  -5  13    7.57    0.37
  -1  -5  13    7.83    0.45
  -1  -5  13    7.19    0.41
   0   5 -13    5.48    0.33
   0   5 -13    5.54    0.36
   0  -5  13    5.57    0.31
   0  -5  13    5.79    0.27
   0  -5  13    5.73    0.34
   1  -5  13    5.69    0.32
   1  -5  13    5.53    0.31
   1  -5  13    5.07    0.30
   1  -5  13    5.10    0.31
   1  -5  13    5.57    0.31
   2  -5  13    0.19    0.04
   2  -5  13    0.14    0.04
  -3   5 -13    0.58    0.08
   3  -5  13    0.63    0.08
   3  -5  13    0.69    0.11
   3  -5  13    0.66    0.06
   3  -5  13    0.50    0.07
   3  -5  13    0.55    0.09
   3  -5  13    0.68    0.08
   4  -5  13    1.33    0.09
   4  -5  13    1.39    0.10
   4  -5  13    1.59    0.13
   4  -5  13    1.08    0.09
   4   4 -13    1.31    0.12
   4   4 -13    1.14    0.10
   4   4 -13    1.06    0.08
   4   4 -13    1.40    0.09
  -4  -4  13    1.49    0.09
  -4  -4  13    1.36    0.08
   3   4 -13    1.59    0.18
   3   4 -13    1.72    0.16
   3   4 -13    1.78    0.13
   3   4 -13    1.78    0.11
   3   4 -13    2.02    0.15
  -3  -4  13    1.73    0.13
  -3  -4  13    1.68    0.10
   2   4 -13    0.05    0.04
   2   4 -13   -0.02    0.04
   2   4 -13   -0.02    0.04
  -2  -4  13    0.03    0.03
  -2  -4  13   -0.01    0.04
   1   4 -13    0.04    0.03
   1   4 -13    0.04    0.04
  -1  -4  13    0.05    0.03
  -1  -4  13    0.00    0.02
   0   4 -13    0.28    0.06
   0   4 -13    0.58    0.06
   0   4 -13    0.39    0.06
   0  -4  13    0.36    0.05
   0  -4  13    0.35    0.04
   0  -4  13    0.43    0.05
   0  -4  13    0.33    0.05
  -1   4 -13    0.18    0.06
   1  -4  13    0.18    0.03
   1  -4  13    0.25    0.04
   1  -4  13    0.17    0.04
   1  -4  13    0.23    0.06
   1  -4  13    0.08    0.05
   2  -4  13    0.97    0.08
   2  -4  13    0.97    0.09
   2  -4  13    0.95    0.11
   2  -4  13    0.94    0.07
   2  -4  13    0.80    0.09
   3  -4  13    0.94    0.12
   3  -4  13    0.84    0.07
   3  -4  13    0.85    0.08
   3  -4  13    0.87    0.09
   3  -4  13    0.88    0.07
   3  -4  13    0.80    0.09
   3  -4  13    0.93    0.09
  -4   4 -13    1.84    0.14
   4  -4  13    2.02    0.12
   4  -4  13    2.01    0.14
   4  -4  13    2.31    0.18
   4  -4  13    1.99    0.14
   4   3 -13    0.99    0.07
   4   3 -13    1.14    0.09
   4   3 -13    0.86    0.10
  -4  -3  13    0.94    0.06
  -4  -3  13    0.93    0.07
   3   3 -13    0.04    0.05
   3   3 -13    0.06    0.05
   3   3 -13    0.07    0.04
   3   3 -13    0.09    0.09
   3   3 -13    0.01    0.03
  -3  -3  13    0.05    0.04
  -3  -3  13    0.02    0.02
   2   3 -13    2.50    0.20
   2   3 -13    2.49    0.17
   2   3 -13    2.54    0.16
  -2  -3  13    2.53    0.17
  -2  -3  13    2.78    0.14
   1   3 -13    7.52    0.40
   1   3 -13    7.52    0.43
   1   3 -13    7.21    0.46
   1   3 -13    6.87    0.48
  -1  -3  13    7.35    0.36
  -1  -3  13    8.41    0.44
  -1  -3  13    7.19    0.41
  -1  -3  13    7.56    0.44
   0   3 -13    5.76    0.31
   0   3 -13    5.35    0.34
   0   3 -13    5.63    0.36
   0  -3  13    5.63    0.31
   0  -3  13    5.91    0.34
   0  -3  13    5.52    0.32
   0  -3  13    5.58    0.28
   0  -3  13    5.56    0.34
  -1   3 -13   25.72    1.41
  -1   3 -13   27.10    1.51
   1  -3  13   25.50    1.38
   1  -3  13   25.98    1.46
   1  -3  13   26.06    2.05
   1  -3  13   23.67    1.35
   1  -3  13   26.11    1.34
   2  -3  13    1.43    0.11
   2  -3  13    1.51    0.10
   2  -3  13    1.50    0.16
   2  -3  13    1.39    0.11
   2  -3  13    1.55    0.11
  -3   3 -13    0.60    0.08
   3  -3  13    0.58    0.09
   3  -3  13    0.50    0.09
   3  -3  13    0.69    0.07
   3  -3  13    0.59    0.07
   3  -3  13    0.56    0.08
   3  -3  13    0.54    0.08
   3  -3  13    0.67    0.09
  -4   3 -13    1.75    0.12
   4  -3  13    1.75    0.12
   4  -3  13    1.74    0.11
   4  -3  13    1.56    0.11
   4  -3  13    1.41    0.13
   4  -3  13    1.76    0.15
   4   2 -13    0.04    0.05
   4   2 -13    0.07    0.05
   4   2 -13    0.03    0.04
   4   2 -13    0.02    0.05
  -4  -2  13    0.05    0.02
  -4  -2  13    0.05    0.03
   3   2 -13    0.46    0.05
   3   2 -13    0.29    0.05
   3   2 -13    0.36    0.08
   3   2 -13    0.41    0.09
  -3  -2  13    0.41    0.04
  -3  -2  13    0.51    0.06
   2   2 -13    0.93    0.09
   2   2 -13    1.14    0.08
   2   2 -13    0.88    0.13
  -2  -2  13    1.09    0.08
  -2  -2  13    1.07    0.07
   1   2 -13    0.65    0.09
   1   2 -13    0.55    0.06
   1   2 -13    0.64    0.08
   1   2 -13    0.66    0.08
  -1  -2  13    0.62    0.07
  -1  -2  13    0.76    0.09
  -1  -2  13    0.57    0.06
  -1  -2  13    0.65    0.07
   0   2 -13   29.13    1.51
   0   2 -13   28.83    1.70
   0   2 -13   28.43    1.58
   0  -2  13   28.88    1.51
   0  -2  13   29.19    1.64
   0  -2  13   29.84    1.65
   0  -2  13   28.28    1.55
  -1   2 -13   19.37    1.13
   1  -2  13   19.07    1.03
   1  -2  13   19.83    1.00
   1  -2  13   18.67    1.09
   1  -2  13   18.36    1.09
  -2   2 -13    7.23    0.43
   2  -2  13    7.45    0.59
   2  -2  13    6.93    0.42
   2  -2  13    7.09    0.38
   2  -2  13    6.69    0.40
  -3   2 -13    0.41    0.06
   3  -2  13    0.36    0.05
   3  -2  13    0.31    0.07
   3  -2  13    0.31    0.05
   3  -2  13    0.46    0.09
   3  -2  13    0.29    0.05
   3  -2  13    0.32    0.06
   3  -2  13    0.31    0.06
   3  -2  13    0.29    0.04
   3  -2  13    0.29    0.05
   4  -2  13    0.31    0.05
   4  -2  13    0.43    0.05
   4  -2  13    0.44    0.07
   4  -2  13    0.44    0.05
   4  -2  13    0.38    0.05
   4   1 -13    0.17    0.04
   4   1 -13    0.08    0.04
   4   1 -13    0.02    0.03
   4   1 -13    0.11    0.08
   4   1 -13    0.07    0.06
  -4  -1  13    0.12    0.04
  -4  -1  13    0.11    0.02
   3   1 -13    4.37    0.25
   3   1 -13    4.68    0.30
   3   1 -13    4.64    0.27
   3   1 -13    3.98    0.35
  -3  -1  13    4.60    0.27
  -3  -1  13    4.51    0.22
   2   1 -13   16.16    0.87
   2   1 -13   16.16    0.99
   2   1 -13   16.09    0.92
  -2  -1  13   16.96    0.78
  -2  -1  13   17.95    0.96
   1   1 -13   68.31    3.82
   1   1 -13   70.31    3.64
   1   1 -13   71.83    4.14
   1   1 -13   68.44    4.10
  -1  -1  13   69.77    3.95
  -1  -1  13   72.46    3.26
  -1  -1  13   69.53    3.65
  -1  -1  13   73.30    3.98
   0   1 -13   14.84    0.88
   0   1 -13   14.55    0.78
   0  -1  13   14.95    0.85
   0  -1  13   14.66    0.80
   0  -1  13   14.68    0.85
   0  -1  13   14.78    0.69
   0  -1  13   14.85    0.78
  -1   1 -13   15.61    0.91
   1  -1  13   15.58    0.81
   1  -1  13   14.78    0.88
   2  -1  13    1.76    0.11
   2  -1  13    1.71    0.12
   2  -1  13    1.78    0.15
   2  -1  13    1.75    0.13
   2  -1  13    1.84    0.19
  -3   1 -13    0.06    0.07
   3  -1  13    0.05    0.03
   3  -1  13    0.01    0.07
   3  -1  13    0.04    0.03
   3  -1  13    0.01    0.05
   3  -1  13    0.02    0.03
   3  -1  13    0.12    0.06
   3  -1  13    0.09    0.04
   3  -1  13    0.14    0.04
   4  -1  13    0.37    0.05
   4  -1  13    0.29    0.04
   4  -1  13    0.31    0.05
   4  -1  13    0.36    0.04
   4   0 -13    1.47    0.10
   4   0 -13    1.35    0.14
   4   0 -13    1.42    0.08
  -4   0  13    1.21    0.07
  -4   0  13    1.37    0.09
  -4   0  13    1.05    0.09
   3   0 -13    1.20    0.10
   3   0 -13    1.44    0.10
   3   0 -13    1.34    0.12
  -3   0  13    1.23    0.08
  -3   0  13    1.23    0.10
   2   0 -13    1.62    0.11
   2   0 -13    1.62    0.14
  -2   0  13    1.60    0.09
  -2   0  13    1.78    0.12
   1   0 -13    0.21    0.07
   1   0 -13    0.15    0.05
   1   0 -13    0.14    0.05
   1   0 -13    0.17    0.05
  -1   0  13    0.17    0.05
  -1   0  13    0.13    0.03
  -1   0  13    0.12    0.04
   0   0 -13    5.99    0.37
   0   0  13    5.70    0.35
   0   0  13    5.69    0.35
   0   0  13    5.82    0.32
   1   0  13    2.77    0.18
   1   0  13    2.76    0.18
   1   0  13    2.90    0.17
   1   0  13    2.82    0.18
   2   0  13    5.29    0.33
   2   0  13    5.16    0.31
   2   0  13    4.35    0.29
   2   0  13    5.46    0.32
   2   0  13    5.22    0.29
   3   0  13    6.51    0.41
   3   0  13    7.12    0.41
   3   0  13    6.96    0.37
   3   0  13    7.07    0.37
   3   0  13    6.34    0.46
   3   0  13    6.42    0.55
   3   0  13    7.81    0.42
   4   0  13   11.84    0.69
   4   0  13   12.04    0.62
   4   0  13   11.63    0.78
   4  -1 -13    0.48    0.06
   4  -1 -13    0.50    0.08
   4  -1 -13    0.44    0.05
  -4   1  13    0.61    0.05
  -4   1  13    0.51    0.05
   3  -1 -13    0.70    0.06
   3  -1 -13    0.84    0.11
  -3   1  13    0.66    0.06
  -3   1  13    0.70    0.05
  -3   1  13    0.72    0.06
   2  -1 -13    4.05    0.26
   2  -1 -13    3.92    0.23
   2  -1 -13    3.59    0.26
   2  -1 -13    3.99    0.22
  -2   1  13    3.72    0.20
  -2   1  13    3.79    0.24
   1  -1 -13    4.19    0.23
   1  -1 -13    4.05    0.27
  -1   1  13    4.06    0.25
  -1   1  13    4.22    0.20
  -1   1  13    3.57    0.25
  -1   1  13    3.93    0.23
  -1   1  13    4.20    0.26
   0  -1 -13    0.91    0.12
   0  -1 -13    0.96    0.09
   0   1  13    0.79    0.07
   0   1  13    0.84    0.08
   0   1  13    0.83    0.08
  -1  -1 -13    4.40    0.26
   1   1  13    3.44    0.26
   1   1  13    4.15    0.23
   1   1  13    4.03    0.25
   1   1  13    4.06    0.25
   2   1  13    1.48    0.10
   2   1  13    1.34    0.13
   2   1  13    1.38    0.12
   2   1  13    1.39    0.10
   2   1  13    1.41    0.10
   2   1  13    1.27    0.14
   2   1  13    1.16    0.11
   2   1  13    1.48    0.11
  -3  -1 -13    3.65    0.22
   3   1  13    3.67    0.22
   3   1  13    3.41    0.19
   3   1  13    3.11    0.24
   3   1  13    3.54    0.21
   3   1  13    3.21    0.28
   3   1  13    3.56    0.21
   3  -2 -13    0.04    0.04
   3  -2 -13    0.11    0.03
   3  -2 -13    0.10    0.05
  -3   2  13    0.12    0.02
  -3   2  13    0.13    0.03
  -3   2  13    0.11    0.03
   2  -2 -13    3.39    0.19
   2  -2 -13    3.27    0.23
   2  -2 -13    3.45    0.23
  -2   2  13    3.22    0.21
  -2   2  13    3.34    0.17
  -2   2  13    3.35    0.21
   1  -2 -13    0.45    0.06
   1  -2 -13    0.64    0.08
   1  -2 -13    0.65    0.09
  -1   2  13    0.62    0.06
  -1   2  13    0.71    0.08
  -1   2  13    0.60    0.07
  -1   2  13    0.41    0.06
  -1   2  13    0.49    0.06
   0   2  13    0.47    0.07
   0   2  13    0.42    0.05
   0   2  13    0.48    0.07
  -1  -2 -13    0.14    0.04
   1   2  13    0.08    0.03
   1   2  13    0.14    0.04
   1   2  13    0.20    0.05
   1   2  13    0.11    0.04
  -2  -2 -13   13.43    0.75
   2   2  13   12.12    0.72
   2   2  13   11.88    0.83
   2   2  13   13.39    0.74
   2   2  13   12.89    0.66
   2   2  13   11.65    0.98
   2   2  13   12.48    0.72
  -3  -2 -13    0.15    0.04
   3   2  13    0.12    0.04
   3   2  13    0.09    0.03
   3   2  13    0.19    0.03
   3  -3 -13    0.16    0.05
   3  -3 -13    0.21    0.04
   3  -3 -13    0.20    0.03
  -3   3  13    0.23    0.05
  -3   3  13    0.18    0.02
  -3   3  13    0.22    0.03
   2  -3 -13    0.80    0.08
   2  -3 -13    0.87    0.09
   2  -3 -13    0.72    0.06
  -2   3  13    0.81    0.08
  -2   3  13    0.75    0.07
  -2   3  13    0.80    0.06
   1  -3 -13    0.11    0.05
   1  -3 -13    0.07    0.05
   1  -3 -13    0.11    0.05
   1  -3 -13    0.14    0.05
  -1   3  13    0.07    0.06
  -1   3  13    0.05    0.04
  -1   3  13    0.02    0.04
  -1   3  13    0.03    0.02
  -1   3  13    0.05    0.03
   0  -3 -13    4.61    0.29
   0  -3 -13    4.36    0.30
   0  -3 -13    4.83    0.30
   0   3  13    4.50    0.28
   0   3  13    4.59    0.28
   0   3  13    4.70    0.26
   0   3  13    4.52    0.28
  -1  -3 -13    4.56    0.28
   1   3  13    4.30    0.26
   1   3  13    4.36    0.24
   1   3  13    3.85    0.35
   1   3  13    4.20    0.26
  -2  -3 -13    0.40    0.06
   2   3  13    0.34    0.06
   2   3  13    0.43    0.06
   2   3  13    0.38    0.06
   2   3  13    0.37    0.05
   3   3  13    0.83    0.06
   3   3  13    0.69    0.07
   2  -4 -13   -0.01    0.05
   2  -4 -13    0.04    0.03
  -2   4  13    0.07    0.02
  -2   4  13    0.02    0.04
   1  -4 -13    0.12    0.06
   1  -4 -13    0.13    0.04
  -1   4  13    0.12    0.03
  -1   4  13    0.09    0.03
  -1   4  13    0.09    0.03
   0  -4 -13    0.48    0.06
   0  -4 -13    0.55    0.06
   0   4  13    0.58    0.06
   0   4  13    0.52    0.06
   0   4  13    0.51    0.09
  -1  -4 -13    0.02    0.02
  -1  -4 -13    0.05    0.03
   1   4  13   -0.03    0.03
   1   4  13    0.00    0.02
   1   4  13    0.01    0.03
  -2  -4 -13    0.98    0.07
   2   4  13    0.77    0.07
   2   4  13    0.70    0.08
   2   4  13    0.77    0.06
   1  -5 -13    1.86    0.13
  -1   5  13    1.75    0.12
  -1   5  13    1.86    0.12
   0  -5 -13    3.14    0.20
   0  -5 -13    3.26    0.20
   0   5  13    3.15    0.19
  -1  -5 -13    0.01    0.02
  -1  -5 -13    0.05    0.04
   1   5  13    0.04    0.02
   1   5  13    0.01    0.02
   1   5  13    0.06    0.03
   0  10 -14    0.17    0.03
   0  10 -14    0.12    0.03
  -1  10 -14    0.09    0.02
   1 -10  14    0.14    0.02
   1 -10  14    0.19    0.03
  -2  -9  14    0.71    0.05
   1   9 -14    1.23    0.08
   1   9 -14    1.13    0.09
   1   9 -14    1.18    0.08
  -1  -9  14    1.19    0.08
  -1  -9  14    1.25    0.08
  -1  -9  14    1.12    0.06
   0   9 -14    0.13    0.03
   0   9 -14    0.16    0.03
   0  -9  14    0.13    0.03
   0  -9  14    0.15    0.04
  -1   9 -14   -0.07    0.04
  -1   9 -14    0.04    0.04
  -1   9 -14    0.01    0.04
   1  -9  14   -0.01    0.03
   1  -9  14    0.01    0.02
   1  -9  14    0.02    0.03
   1  -9  14    0.01    0.02
  -2   9 -14    0.90    0.07
   2  -9  14    0.80    0.06
   2  -9  14    0.84    0.07
   2  -9  14    0.87    0.06
   2  -9  14    0.82    0.06
   2   8 -14    1.58    0.09
   2   8 -14    1.58    0.10
   2   8 -14    1.59    0.12
  -2  -8  14    1.53    0.10
  -2  -8  14    1.54    0.08
   1   8 -14    3.38    0.20
   1   8 -14    3.34    0.19
   1   8 -14    3.32    0.21
  -1  -8  14    3.59    0.21
  -1  -8  14    3.38    0.17
  -1  -8  14    3.24    0.20
   0   8 -14    0.11    0.05
   0   8 -14    0.16    0.05
   0   8 -14    0.11    0.03
   0  -8  14    0.11    0.04
   0  -8  14    0.13    0.02
   0  -8  14    0.13    0.03
   0  -8  14    0.11    0.03
  -1   8 -14    0.32    0.06
  -1   8 -14    0.35    0.05
  -1   8 -14    0.40    0.06
   1  -8  14    0.42    0.04
   1  -8  14    0.44    0.06
   1  -8  14    0.39    0.04
   1  -8  14    0.36    0.05
  -2   8 -14    3.72    0.22
  -2   8 -14    4.11    0.23
   2  -8  14    3.48    0.21
   2  -8  14    3.59    0.21
   2  -8  14    3.62    0.20
   2  -8  14    3.78    0.21
  -3   8 -14    0.06    0.03
  -3   8 -14    0.01    0.03
   3  -8  14    0.01    0.02
   3  -8  14    0.04    0.02
   3   7 -14    0.54    0.07
   3   7 -14    0.58    0.06
   3   7 -14    0.61    0.04
  -3  -7  14    0.40    0.04
  -3  -7  14    0.56    0.04
   2   7 -14    0.03    0.03
   2   7 -14    0.05    0.05
   2   7 -14    0.03    0.02
  -2  -7  14    0.06    0.03
  -2  -7  14    0.06    0.02
  -2  -7  14    0.04    0.02
   1   7 -14    1.67    0.17
   1   7 -14    1.79    0.13
   1   7 -14    1.93    0.11
   1   7 -14    1.92    0.14
  -1  -7  14    1.86    0.10
  -1  -7  14    1.72    0.12
  -1  -7  14    1.97    0.12
   0   7 -14    1.92    0.14
   0   7 -14    1.88    0.14
   0   7 -14    1.79    0.13
   0  -7  14    1.82    0.10
   0  -7  14    1.76    0.12
   0  -7  14    1.89    0.12
   0  -7  14    1.70    0.12
  -1   7 -14    3.92    0.23
  -1   7 -14    4.02    0.25
   1  -7  14    3.87    0.22
   1  -7  14    3.73    0.22
   1  -7  14    3.91    0.24
   1  -7  14    3.81    0.22
   1  -7  14    3.89    0.23
  -2   7 -14    1.26    0.09
   2  -7  14    1.11    0.08
   2  -7  14    1.11    0.08
   2  -7  14    1.10    0.08
   2  -7  14    1.16    0.08
  -3   7 -14    0.41    0.05
  -3   7 -14    0.27    0.05
   3  -7  14    0.47    0.04
   3  -7  14    0.51    0.06
   3  -7  14    0.39    0.06
   3  -7  14    0.47    0.04
   3   6 -14    0.20    0.03
   3   6 -14    0.23    0.04
   3   6 -14    0.17    0.06
  -3  -6  14    0.27    0.04
  -3  -6  14    0.21    0.02
   2   6 -14    0.04    0.03
   2   6 -14    0.02    0.02
   2   6 -14    0.06    0.08
   2   6 -14    0.02    0.03
  -2  -6  14    0.05    0.03
  -2  -6  14    0.04    0.02
   1   6 -14    3.58    0.20
   1   6 -14    3.47    0.18
   1   6 -14    2.84    0.21
   1   6 -14    3.28    0.22
  -1  -6  14    3.04    0.16
  -1  -6  14    2.89    0.20
  -1  -6  14    3.52    0.19
   0   6 -14    6.43    0.39
   0   6 -14    6.14    0.36
   0  -6  14    6.96    0.37
   0  -6  14    7.19    0.33
   0  -6  14    7.18    0.40
  -1   6 -14    1.31    0.13
   1  -6  14    1.55    0.10
   1  -6  14    1.45    0.11
   1  -6  14    1.45    0.10
   1  -6  14    1.43    0.10
   1  -6  14    1.43    0.11
  -2   6 -14    1.57    0.11
   2  -6  14    1.47    0.10
   2  -6  14    1.49    0.10
   2  -6  14    1.37    0.10
   2  -6  14    1.50    0.10
  -3   6 -14    1.17    0.09
   3  -6  14    1.23    0.09
   3  -6  14    1.45    0.09
   3  -6  14    1.06    0.10
   3  -6  14    1.34    0.08
   3  -6  14    1.26    0.12
   3   5 -14    0.32    0.05
   3   5 -14    0.26    0.04
   3   5 -14    0.25    0.05
  -3  -5  14    0.39    0.04
  -3  -5  14    0.40    0.06
   2   5 -14   10.47    0.55
   2   5 -14   10.64    0.59
   2   5 -14    9.82    0.63
   2   5 -14   10.54    0.59
  -2  -5  14   10.48    0.60
  -2  -5  14   10.57    0.49
   1   5 -14    0.05    0.03
   1   5 -14    0.06    0.04
  -1  -5  14    0.09    0.03
  -1  -5  14    0.05    0.03
   0   5 -14    0.59    0.06
   0   5 -14    0.66    0.08
   0   5 -14    0.34    0.06
   0  -5  14    0.54    0.05
   0  -5  14    0.55    0.05
   0  -5  14    0.54    0.06
   1  -5  14    0.62    0.06
   1  -5  14    0.57    0.06
   1  -5  14    0.62    0.07
  -2   5 -14    1.07    0.11
   2  -5  14    1.12    0.08
   2  -5  14    1.04    0.10
   2  -5  14    1.06    0.09
   2  -5  14    1.07    0.14
   2  -5  14    0.96    0.08
  -3   5 -14    1.38    0.10
   3  -5  14    0.96    0.12
   3  -5  14    1.19    0.10
   3  -5  14    1.19    0.08
   3  -5  14    1.31    0.13
   3  -5  14    1.16    0.09
   3  -5  14    1.26    0.09
  -4   5 -14   -0.01    0.03
   4  -5  14   -0.02    0.02
   4   4 -14    0.54    0.06
  -4  -4  14    0.50    0.04
   3   4 -14    0.04    0.06
   3   4 -14   -0.01    0.06
   3   4 -14   -0.01    0.02
   3   4 -14    0.01    0.03
  -3  -4  14    0.00    0.03
  -3  -4  14    0.00    0.02
   2   4 -14    1.72    0.14
   2   4 -14    2.02    0.12
   2   4 -14    2.20    0.14
   2   4 -14    2.12    0.16
   2   4 -14    1.87    0.18
  -2  -4  14    2.43    0.14
  -2  -4  14    1.88    0.14
  -2  -4  14    1.96    0.11
   1   4 -14    6.40    0.39
   1   4 -14    6.12    0.41
   1   4 -14    6.64    0.36
  -1  -4  14    6.52    0.39
  -1  -4  14    7.38    0.40
  -1  -4  14    6.72    0.32
   0   4 -14    5.54    0.31
   0   4 -14    5.61    0.32
   0   4 -14    5.26    0.35
   0  -4  14    5.60    0.27
   0  -4  14    5.62    0.33
   0  -4  14    5.38    0.30
   0  -4  14    5.52    0.33
   0  -4  14    5.50    0.31
  -1   4 -14    0.49    0.07
   1  -4  14    0.66    0.08
   1  -4  14    0.67    0.06
   1  -4  14    0.57    0.08
  -2   4 -14   21.84    1.16
   2  -4  14   19.88    1.11
   2  -4  14   20.45    1.20
   2  -4  14   22.58    1.11
   2  -4  14   20.66    1.14
   2  -4  14   21.90    1.69
  -3   4 -14    2.13    0.14
   3  -4  14    2.07    0.18
   3  -4  14    1.77    0.15
   3  -4  14    2.03    0.12
   3  -4  14    1.88    0.12
   3  -4  14    1.65    0.14
   3  -4  14    2.09    0.13
   4  -4  14    2.66    0.16
   4  -4  14    2.91    0.23
   4   3 -14    0.05    0.04
   4   3 -14    0.03    0.03
  -4  -3  14    0.08    0.02
  -4  -3  14    0.11    0.02
   3   3 -14    0.04    0.03
   3   3 -14    0.02    0.03
   3   3 -14   -0.01    0.04
   3   3 -14    0.02    0.05
  -3  -3  14    0.02    0.02
  -3  -3  14    0.01    0.05
  -3  -3  14    0.06    0.03
   2   3 -14    0.14    0.05
   2   3 -14    0.06    0.03
  -2  -3  14    0.06    0.04
  -2  -3  14    0.13    0.04
  -2  -3  14    0.11    0.02
   1   3 -14    5.67    0.30
   1   3 -14    5.44    0.33
   1   3 -14    5.47    0.35
  -1  -3  14    5.96    0.33
  -1  -3  14    5.39    0.27
  -1  -3  14    5.22    0.31
  -1  -3  14    5.41    0.33
   0   3 -14   13.28    0.80
   0  -3  14   12.94    0.71
   0  -3  14   14.42    0.74
   0  -3  14   13.05    0.77
  -1   3 -14    3.46    0.22
   1  -3  14    3.24    0.19
   1  -3  14    3.41    0.20
   1  -3  14    3.26    0.21
   2  -3  14    0.05    0.03
   2  -3  14    0.06    0.04
   2  -3  14    0.09    0.05
   2  -3  14    0.11    0.04
  -3   3 -14    0.13    0.05
   3  -3  14    0.19    0.03
   3  -3  14    0.11    0.05
   3  -3  14    0.07    0.03
   3  -3  14    0.07    0.03
   3  -3  14    0.12    0.03
   3  -3  14    0.08    0.05
   3  -3  14    0.10    0.06
   3  -3  14    0.10    0.03
   4  -3  14    0.46    0.04
   4  -3  14    0.53    0.07
   4  -3  14    0.43    0.05
   4   2 -14    0.04    0.03
   4   2 -14    0.00    0.04
   4   2 -14   -0.01    0.05
  -4  -2  14   -0.01    0.02
  -4  -2  14    0.03    0.02
   3   2 -14    1.53    0.09
   3   2 -14    1.45    0.11
   3   2 -14    1.40    0.12
   3   2 -14    1.31    0.14
  -3  -2  14    1.62    0.08
  -3  -2  14    1.50    0.11
   2   2 -14    2.81    0.20
   2   2 -14    2.81    0.17
   2   2 -14    2.61    0.26
  -2  -2  14    3.08    0.18
  -2  -2  14    3.01    0.18
  -2  -2  14    2.75    0.15
   1   2 -14    2.80    0.17
   1   2 -14    2.76    0.19
   1   2 -14    2.76    0.20
  -1  -2  14    2.83    0.15
  -1  -2  14    2.82    0.18
  -1  -2  14    3.14    0.18
   0   2 -14    3.58    0.21
   0   2 -14    3.55    0.24
   0  -2  14    3.66    0.21
   0  -2  14    3.46    0.22
   0  -2  14    3.74    0.23
   1  -2  14    1.11    0.09
   1  -2  14    1.11    0.10
   1  -2  14    1.16    0.09
  -2   2 -14    3.61    0.23
   2  -2  14    3.63    0.22
   2  -2  14    3.25    0.20
   2  -2  14    3.59    0.20
   2  -2  14    3.28    0.25
   2  -2  14    3.24    0.20
  -3   2 -14   -0.01    0.06
   3  -2  14    0.03    0.03
   3  -2  14    0.04    0.03
   3  -2  14    0.01    0.04
   3  -2  14    0.11    0.05
   3  -2  14    0.09    0.05
   3  -2  14    0.01    0.03
   3  -2  14    0.05    0.04
   3  -2  14    0.08    0.04
   3  -2  14    0.06    0.03
   4  -2  14    0.54    0.06
   4  -2  14    0.40    0.05
   4   1 -14    0.61    0.07
  -4  -1  14    0.55    0.05
   3   1 -14    0.21    0.04
   3   1 -14    0.24    0.05
  -3  -1  14    0.29    0.04
  -3  -1  14    0.29    0.03
   2   1 -14   11.91    0.69
   2   1 -14   11.21    0.60
   2   1 -14   11.13    0.69
   2   1 -14   12.27    0.64
  -2  -1  14   11.76    0.66
  -2  -1  14   10.10    0.54
  -2  -1  14   11.37    0.66
   1   1 -14    0.90    0.10
   1   1 -14    0.92    0.07
  -1  -1  14    0.89    0.09
  -1  -1  14    0.97    0.08
  -1  -1  14    0.90    0.06
  -1  -1  14    0.88    0.09
   0   1 -14    7.56    0.47
   0   1 -14    8.02    0.47
   0  -1  14    7.46    0.41
   0  -1  14    7.36    0.44
   0  -1  14    7.32    0.44
   1  -1  14   19.80    1.01
   1  -1  14   18.59    1.09
  -2   1 -14    0.55    0.08
   2  -1  14    0.52    0.07
   2  -1  14    0.44    0.05
   2  -1  14    0.61    0.07
   2  -1  14    0.54    0.06
   2  -1  14    0.30    0.06
   2  -1  14    0.52    0.08
   3  -1  14    3.64    0.21
   3  -1  14    3.30    0.20
   3  -1  14    2.75    0.20
   3  -1  14    3.20    0.23
   3  -1  14    3.25    0.28
   3  -1  14    3.56    0.18
   3  -1  14    3.25    0.18
  -4   0  14    1.98    0.12
  -4   0  14    1.85    0.12
   3   0 -14    1.68    0.13
   3   0 -14    1.66    0.10
   3   0 -14    1.67    0.11
  -3   0  14    1.65    0.12
  -3   0  14    1.62    0.09
  -3   0  14    1.68    0.12
   2   0 -14   16.19    0.88
   2   0 -14   15.72    0.96
   2   0 -14   17.04    0.84
   2   0 -14   16.17    0.95
  -2   0  14   15.89    0.93
  -2   0  14   16.09    0.92
  -2   0  14   14.67    0.91
  -2   0  14   16.16    0.75
   1   0 -14    4.32    0.23
  -1   0  14    3.93    0.25
  -1   0  14    3.81    0.23
  -1   0  14    3.96    0.25
  -1   0  14    4.09    0.20
   0   0 -14   17.17    1.00
   0   0  14   16.25    0.95
   0   0  14   16.72    0.88
   0   0  14   16.44    0.95
  -1   0 -14   12.69    0.72
   1   0  14   11.61    0.80
   1   0  14   11.98    0.70
   1   0  14   12.20    0.70
   1   0  14   12.02    0.64
  -2   0 -14    0.06    0.06
   2   0  14    0.13    0.06
   2   0  14    0.04    0.04
   2   0  14    0.17    0.04
   2   0  14    0.14    0.04
   2   0  14    0.15    0.04
   3   0  14    3.86    0.23
   3   0  14    3.50    0.23
   3   0  14    3.94    0.31
   3   0  14    3.87    0.26
   3   0  14    3.86    0.21
   3  -1 -14    0.02    0.02
   3  -1 -14    0.01    0.04
  -3   1  14    0.01    0.02
  -3   1  14    0.00    0.02
  -3   1  14    0.01    0.02
   2  -1 -14    0.12    0.05
   2  -1 -14    0.17    0.04
   2  -1 -14    0.09    0.04
   2  -1 -14    0.18    0.05
  -2   1  14    0.19    0.03
  -2   1  14    0.23    0.04
  -2   1  14    0.20    0.04
   1  -1 -14    0.76    0.10
   1  -1 -14    0.58    0.09
  -1   1  14    0.71    0.05
  -1   1  14    0.70    0.07
  -1   1  14    0.57    0.07
  -1   1  14    0.73    0.07
   0  -1 -14   21.21    1.26
   0  -1 -14   21.78    1.27
   0   1  14   22.19    1.12
   0   1  14   20.62    1.21
   0   1  14   20.92    1.22
  -1  -1 -14   14.88    0.87
  -1  -1 -14   15.93    0.88
   1   1  14   14.67    0.85
   1   1  14   13.07    0.97
   1   1  14   15.27    0.78
   1   1  14   14.52    0.84
  -2  -1 -14    0.13    0.04
   2   1  14    0.18    0.04
   2   1  14    0.18    0.04
   2   1  14    0.18    0.04
   2   1  14    0.21    0.05
  -3  -1 -14    0.03    0.04
   3   1  14    0.00    0.03
   3   1  14    0.02    0.03
   3  -2 -14    3.29    0.19
   3  -2 -14    3.47    0.21
  -3   2  14    3.61    0.17
  -3   2  14    3.12    0.21
   2  -2 -14    3.32    0.21
   2  -2 -14    3.34    0.19
   2  -2 -14    3.46    0.21
  -2   2  14    3.33    0.16
  -2   2  14    2.98    0.20
  -2   2  14    3.11    0.20
   1  -2 -14    4.80    0.27
   1  -2 -14    5.31    0.31
   1  -2 -14    5.34    0.32
  -1   2  14    4.89    0.30
  -1   2  14    4.57    0.24
  -1   2  14    4.67    0.29
  -1   2  14    4.89    0.27
  -1   2  14    4.79    0.30
   0  -2 -14    1.52    0.12
   0  -2 -14    1.49    0.13
   0  -2 -14    1.57    0.11
   0   2  14    1.54    0.10
   0   2  14    1.44    0.12
   0   2  14    1.44    0.11
  -1  -2 -14    0.07    0.05
   1   2  14    0.10    0.03
   1   2  14    0.07    0.03
   1   2  14    0.09    0.04
   1   2  14    0.09    0.04
  -2  -2 -14    0.81    0.08
   2   2  14    0.71    0.07
   2   2  14    0.74    0.06
   2   2  14    0.63    0.09
   2   2  14    0.57    0.07
   2   2  14    0.70    0.05
   2  -3 -14    0.40    0.06
   2  -3 -14    0.33    0.05
  -2   3  14    0.34    0.04
  -2   3  14    0.32    0.04
  -2   3  14    0.36    0.03
   1  -3 -14    3.98    0.24
   1  -3 -14    3.79    0.24
   1  -3 -14    4.02    0.24
  -1   3  14    3.95    0.23
  -1   3  14    3.72    0.23
  -1   3  14    3.34    0.31
   0  -3 -14    0.01    0.03
   0  -3 -14    0.02    0.03
   0   3  14    0.02    0.05
   0   3  14    0.04    0.04
   0   3  14    0.02    0.02
   0   3  14   -0.03    0.03
   0   3  14    0.05    0.02
  -1  -3 -14    0.15    0.04
  -1  -3 -14    0.08    0.03
   1   3  14    0.11    0.03
   1   3  14    0.12    0.05
   1   3  14    0.16    0.03
   1   3  14    0.04    0.04
  -2  -3 -14    0.29    0.04
  -2  -3 -14    0.20    0.04
   2   3  14    0.16    0.03
   2   3  14    0.18    0.04
   1  -4 -14    2.63    0.21
   1  -4 -14    3.72    0.20
  -1   4  14    3.45    0.19
  -1   4  14    2.78    0.19
   0  -4 -14    0.07    0.03
   0  -4 -14    0.13    0.03
   0   4  14    0.07    0.04
   0   4  14    0.09    0.02
   0   4  14    0.06    0.03
  -1  -4 -14    0.13    0.04
  -1  -4 -14    0.10    0.03
   1   4  14    0.12    0.02
   1   4  14    0.13    0.02
  -1  -9  15    6.51    0.37
  -1  -9  15    6.52    0.35
   0   9 -15    1.02    0.09
   0  -9  15    1.00    0.08
   0  -9  15    1.23    0.07
   1  -9  15    0.44    0.05
   1  -9  15    0.64    0.05
   2   8 -15    3.64    0.19
   2   8 -15    2.97    0.26
   2   8 -15    3.46    0.19
  -2  -8  15    2.98    0.16
  -2  -8  15    3.55    0.20
   1   8 -15    6.61    0.35
   1   8 -15    7.02    0.37
   1   8 -15    6.60    0.37
  -1  -8  15    6.27    0.31
  -1  -8  15    6.07    0.36
  -1  -8  15    6.75    0.38
   0   8 -15    0.59    0.08
   0   8 -15    0.71    0.07
   0  -8  15    0.63    0.07
   0  -8  15    0.66    0.06
   0  -8  15    0.65    0.06
  -1   8 -15    3.74    0.23
  -1   8 -15    3.86    0.22
   1  -8  15    3.67    0.20
   1  -8  15    3.59    0.21
   1  -8  15    3.41    0.20
  -2   8 -15    5.67    0.32
   2  -8  15    6.01    0.30
   2  -8  15    5.31    0.31
   2   7 -15    2.61    0.14
   2   7 -15    2.42    0.15
   2   7 -15    2.51    0.15
   2   7 -15    2.11    0.20
  -2  -7  15    2.41    0.15
  -2  -7  15    2.58    0.12
  -2  -7  15    2.31    0.15
   1   7 -15    0.16    0.03
   1   7 -15    0.14    0.04
   1   7 -15    0.17    0.04
   1   7 -15    0.25    0.06
  -1  -7  15    0.19    0.03
  -1  -7  15    0.21    0.04
  -1  -7  15    0.11    0.04
  -1  -7  15    0.15    0.03
   0   7 -15    2.54    0.16
   0   7 -15    2.26    0.17
   0   7 -15    2.55    0.17
   0  -7  15    2.60    0.16
   0  -7  15    2.47    0.15
   0  -7  15    2.61    0.15
   0  -7  15    2.64    0.13
  -1   7 -15    2.86    0.18
  -1   7 -15    2.68    0.17
   1  -7  15    2.54    0.16
   1  -7  15    2.71    0.17
   1  -7  15    2.69    0.16
   1  -7  15    2.87    0.17
  -2   7 -15    0.38    0.05
  -2   7 -15    0.24    0.05
   2  -7  15    0.37    0.04
   2  -7  15    0.50    0.05
   2  -7  15    0.40    0.04
  -3   7 -15    0.04    0.02
   3  -7  15    0.06    0.03
   3  -7  15    0.05    0.03
   3   6 -15    4.58    0.22
   3   6 -15    3.66    0.32
  -3  -6  15    4.23    0.20
  -3  -6  15    4.03    0.24
   2   6 -15    4.75    0.25
   2   6 -15    4.73    0.27
   2   6 -15    4.87    0.27
   2   6 -15    4.25    0.37
  -2  -6  15    5.15    0.28
  -2  -6  15    4.50    0.23
  -2  -6  15    4.69    0.28
   1   6 -15    0.64    0.07
   1   6 -15    0.60    0.05
   1   6 -15    0.48    0.07
   1   6 -15    0.57    0.07
  -1  -6  15    0.62    0.05
  -1  -6  15    0.58    0.06
  -1  -6  15    0.60    0.07
  -1  -6  15    0.60    0.06
   0   6 -15    1.89    0.15
   0   6 -15    2.09    0.14
   0  -6  15    1.88    0.12
   0  -6  15    1.89    0.10
   0  -6  15    1.79    0.13
   0  -6  15    1.85    0.12
  -1   6 -15    0.18    0.05
  -1   6 -15    0.20    0.06
   1  -6  15    0.22    0.04
   1  -6  15    0.22    0.04
   1  -6  15    0.20    0.06
   1  -6  15    0.30    0.04
  -2   6 -15    0.47    0.06
  -2   6 -15    0.57    0.06
   2  -6  15    0.59    0.05
   2  -6  15    0.55    0.06
   2  -6  15    0.54    0.05
  -3   6 -15    3.98    0.22
   3  -6  15    3.87    0.20
   3  -6  15    3.24    0.20
   3  -6  15    3.35    0.25
   3   5 -15    1.98    0.17
   3   5 -15    2.27    0.12
   3   5 -15    2.14    0.13
  -3  -5  15    2.25    0.14
  -3  -5  15    2.11    0.11
  -3  -5  15    2.03    0.13
   2   5 -15    1.99    0.11
   2   5 -15    1.71    0.17
   2   5 -15    1.85    0.16
   2   5 -15    1.96    0.13
  -2  -5  15    1.97    0.13
  -2  -5  15    1.92    0.13
  -2  -5  15    2.00    0.10
   1   5 -15    0.51    0.06
   1   5 -15    0.63    0.08
   1   5 -15    0.60    0.09
   1   5 -15    0.42    0.08
  -1  -5  15    0.59    0.08
  -1  -5  15    0.56    0.06
  -1  -5  15    0.49    0.06
  -1  -5  15    0.54    0.05
   0   5 -15    0.02    0.05
   0   5 -15    0.07    0.05
   0   5 -15    0.12    0.06
   0  -5  15    0.07    0.02
   0  -5  15    0.07    0.03
   0  -5  15   -0.03    0.06
   0  -5  15    0.03    0.03
   0  -5  15    0.04    0.03
  -1   5 -15    0.23    0.04
  -1   5 -15    0.14    0.06
   1  -5  15    0.13    0.03
   1  -5  15    0.25    0.05
   1  -5  15    0.19    0.03
   1  -5  15    0.15    0.06
  -2   5 -15    0.14    0.04
  -2   5 -15    0.23    0.04
   2  -5  15    0.17    0.04
   2  -5  15    0.18    0.03
   2  -5  15    0.16    0.03
   2  -5  15    0.16    0.05
  -3   5 -15    0.01    0.03
   3  -5  15    0.02    0.03
   3  -5  15    0.00    0.02
   3  -5  15    0.04    0.04
   3  -5  15    0.00    0.02
   3   4 -15    0.08    0.02
   3   4 -15    0.07    0.08
   3   4 -15    0.04    0.03
   3   4 -15    0.08    0.04
  -3  -4  15    0.10    0.02
  -3  -4  15    0.09    0.04
  -3  -4  15    0.09    0.02
   2   4 -15    0.30    0.05
   2   4 -15    0.21    0.04
   2   4 -15    0.21    0.05
   2   4 -15    0.14    0.07
  -2  -4  15    0.20    0.04
  -2  -4  15    0.21    0.03
  -2  -4  15    0.20    0.03
   1   4 -15    3.72    0.25
   1   4 -15    3.66    0.21
   1   4 -15    3.72    0.23
  -1  -4  15    3.36    0.22
  -1  -4  15    3.65    0.23
  -1  -4  15    4.11    0.22
  -1  -4  15    3.77    0.23
  -1  -4  15    3.56    0.18
   0   4 -15    3.00    0.17
   0   4 -15    3.13    0.22
   0  -4  15    3.04    0.19
   0  -4  15    2.70    0.17
   0  -4  15    2.97    0.19
   0  -4  15    3.08    0.15
  -1   4 -15    0.92    0.11
  -1   4 -15    1.11    0.11
   1  -4  15    0.96    0.08
   1  -4  15    0.89    0.08
   1  -4  15    0.88    0.09
  -2   4 -15    3.10    0.20
   2  -4  15    3.11    0.17
   2  -4  15    2.92    0.18
   2  -4  15    2.78    0.19
  -3   4 -15    1.35    0.11
   3  -4  15    1.27    0.08
   3  -4  15    1.38    0.08
   3  -4  15    1.41    0.10
   3  -4  15    1.28    0.11
   3   3 -15    1.29    0.10
   3   3 -15    1.30    0.08
   3   3 -15    1.28    0.11
  -3  -3  15    1.23    0.09
  -3  -3  15    1.25    0.07
   2   3 -15    2.24    0.14
   2   3 -15    1.94    0.19
   2   3 -15    2.19    0.16
   2   3 -15    2.11    0.13
  -2  -3  15    2.08    0.14
  -2  -3  15    2.11    0.11
  -2  -3  15    2.23    0.14
   1   3 -15   13.07    0.71
   1   3 -15   13.30    0.67
  -1  -3  15   12.68    0.73
  -1  -3  15   12.16    0.67
  -1  -3  15   12.87    0.60
  -1  -3  15   11.57    0.69
  -1  -3  15   13.15    0.73
   0   3 -15   35.90    2.02
   0   3 -15   34.38    2.00
   0   3 -15   34.20    1.78
   0  -3  15   33.58    1.93
   0  -3  15   34.29    1.94
   0  -3  15   34.11    1.59
   0  -3  15   34.30    1.78
   0  -3  15   33.40    1.83
  -1   3 -15    2.44    0.17
  -1   3 -15    2.32    0.16
   1  -3  15    2.37    0.15
   1  -3  15    2.42    0.15
   1  -3  15    2.37    0.16
  -2   3 -15    1.60    0.11
   2  -3  15    1.38    0.09
   2  -3  15    1.40    0.11
   2  -3  15    1.30    0.12
   2  -3  15    1.45    0.10
   2  -3  15    1.33    0.10
  -3   3 -15    0.22    0.04
   3  -3  15    0.38    0.05
   3  -3  15    0.34    0.04
   3  -3  15    0.34    0.05
   3   2 -15    1.00    0.09
   3   2 -15    0.90    0.08
  -3  -2  15    1.04    0.07
  -3  -2  15    1.05    0.06
   2   2 -15    0.35    0.06
   2   2 -15    0.31    0.04
   2   2 -15    0.25    0.04
  -2  -2  15    0.34    0.04
  -2  -2  15    0.24    0.04
  -2  -2  15    0.36    0.04
   1   2 -15    0.25    0.05
   1   2 -15    0.25    0.06
   1   2 -15    0.21    0.06
   1   2 -15    0.10    0.05
  -1  -2  15    0.22    0.04
  -1  -2  15    0.25    0.04
  -1  -2  15    0.24    0.03
  -1  -2  15    0.17    0.05
   0   2 -15   14.10    0.74
   0   2 -15   13.83    0.80
   0  -2  15   12.77    0.62
   0  -2  15   13.14    0.77
   0  -2  15   13.07    0.72
   0  -2  15   13.01    0.76
   0  -2  15   13.28    0.70
  -1   2 -15    0.05    0.04
   1  -2  15    0.07    0.04
   1  -2  15   -0.01    0.06
   1  -2  15   -0.02    0.03
   1  -2  15    0.04    0.04
  -2   2 -15   12.32    0.69
   2  -2  15   11.06    0.77
   2  -2  15   11.37    0.63
   2  -2  15   12.49    0.62
   2  -2  15   11.27    0.67
   2  -2  15   11.72    0.70
   3  -2  15    0.25    0.04
   3  -2  15    0.29    0.05
   3  -2  15    0.43    0.05
   3  -2  15    0.32    0.05
   3  -2  15    0.34    0.04
   3   1 -15    0.66    0.05
   3   1 -15    0.64    0.08
   3   1 -15    0.44    0.06
  -3  -1  15    0.55    0.04
  -3  -1  15    0.54    0.05
  -3  -1  15    0.63    0.05
   2   1 -15    0.07    0.05
   2   1 -15    0.19    0.05
  -2  -1  15    0.17    0.03
  -2  -1  15    0.22    0.04
  -2  -1  15    0.18    0.03
   1   1 -15    1.13    0.12
   1   1 -15    1.18    0.10
   1   1 -15    1.12    0.11
   1   1 -15    1.24    0.10
  -1  -1  15    1.11    0.08
  -1  -1  15    0.99    0.10
  -1  -1  15    1.25    0.09
   0   1 -15   13.54    0.77
   0   1 -15   14.38    0.77
   0  -1  15   12.79    0.73
   0  -1  15   11.40    0.84
   0  -1  15   12.97    0.68
   0  -1  15   11.80    0.69
   0  -1  15   12.54    0.74
  -1   1 -15    8.32    0.48
   1  -1  15    8.32    0.43
   1  -1  15    7.99    0.44
   1  -1  15    8.12    0.47
   1  -1  15    7.59    0.53
   1  -1  15    7.56    0.47
  -2   1 -15    7.11    0.43
   2  -1  15    7.02    0.42
   2  -1  15    6.68    0.47
   2  -1  15    6.47    0.55
   2  -1  15    7.64    0.38
   2  -1  15    6.93    0.41
   3  -1  15    1.80    0.17
   3  -1  15    2.06    0.12
   3  -1  15    1.88    0.14
   3   0 -15   -0.01    0.02
   3   0 -15    0.00    0.03
  -3   0  15    0.00    0.02
  -3   0  15    0.01    0.03
  -3   0  15    0.00    0.01
   2   0 -15    0.83    0.09
   2   0 -15    0.81    0.06
   2   0 -15    0.80    0.09
   2   0 -15    0.78    0.08
  -2   0  15    0.80    0.05
  -2   0  15    0.65    0.06
  -2   0  15    0.87    0.07
   1   0 -15    0.52    0.07
   1   0 -15    0.42    0.06
  -1   0  15    0.44    0.04
  -1   0  15    0.44    0.05
  -1   0  15    0.50    0.06
   0   0 -15    2.03    0.15
   0   0 -15    2.22    0.16
   0   0  15    1.95    0.14
   0   0  15    2.02    0.14
   0   0  15    2.09    0.13
  -1   0 -15    0.06    0.06
  -1   0 -15    0.02    0.03
   1   0  15    0.04    0.03
   1   0  15   -0.01    0.04
   1   0  15    0.00    0.02
   1   0  15   -0.01    0.03
  -2   0 -15    1.28    0.09
   2   0  15    1.20    0.08
   2   0  15    1.15    0.12
   2   0  15    1.35    0.09
   2   0  15    1.08    0.10
   3   0  15   10.81    0.71
   3   0  15   10.89    0.84
   3  -1 -15    1.28    0.09
  -3   1  15    1.12    0.08
   2  -1 -15    0.75    0.09
   2  -1 -15    0.67    0.10
   2  -1 -15    0.80    0.06
  -2   1  15    0.64    0.07
  -2   1  15    0.66    0.05
  -2   1  15    0.71    0.07
   1  -1 -15    0.62    0.07
   1  -1 -15    0.75    0.08
  -1   1  15    0.65    0.07
  -1   1  15    0.66    0.07
  -1   1  15    0.57    0.08
  -1   1  15    0.66    0.05
   0  -1 -15    0.26    0.06
   0  -1 -15    0.38    0.06
   0  -1 -15    0.36    0.07
   0   1  15    0.25    0.04
   0   1  15    0.25    0.04
   0   1  15    0.17    0.04
  -1  -1 -15    3.36    0.21
   1   1  15    3.21    0.19
   1   1  15    3.07    0.18
   1   1  15    3.18    0.19
   1   1  15    2.66    0.23
  -2  -1 -15    5.89    0.38
   2   1  15    6.89    0.34
   2   1  15    6.04    0.49
   2  -2 -15    1.07    0.08
   2  -2 -15    1.03    0.08
  -2   2  15    0.97    0.07
  -2   2  15    0.78    0.07
   1  -2 -15   -0.01    0.03
   1  -2 -15    0.03    0.04
  -1   2  15    0.01    0.03
  -1   2  15   -0.02    0.02
  -1   2  15    0.03    0.03
   0  -2 -15    0.15    0.08
   0  -2 -15    0.01    0.03
   0  -2 -15    0.06    0.03
   0   2  15    0.03    0.02
   0   2  15    0.02    0.03
   0   2  15    0.01    0.04
  -1  -2 -15    0.93    0.07
  -1  -2 -15    0.76    0.07
   1   2  15    0.66    0.06
   1   2  15    0.68    0.08
   1   2  15    0.69    0.07
   1   2  15    0.66    0.08
   1   2  15    0.86    0.06
   2   2  15    1.18    0.11
  -1   3  15    3.18    0.21
  -1   3  15    3.83    0.21
   0  -3 -15    0.55    0.05
   0  -3 -15    0.40    0.06
   0   3  15    0.38    0.04
   0   3  15    0.46    0.04
   0   3  15    0.37    0.06
  -1  -3 -15    7.07    0.37
   1   3  15    5.16    0.32
   1   8 -16    0.02    0.03
  -1  -8  16    0.00    0.02
  -1  -8  16    0.00    0.02
   0   8 -16    1.68    0.10
   0  -8  16    1.43    0.10
  -1   8 -16   12.12    0.73
   1  -8  16   12.82    0.67
   2   7 -16    0.02    0.02
   2   7 -16    0.02    0.03
  -2  -7  16    0.01    0.02
  -2  -7  16   -0.01    0.02
   1   7 -16    0.55    0.10
   1   7 -16    0.81    0.07
  -1  -7  16    0.71    0.04
  -1  -7  16    0.81    0.06
  -1  -7  16    0.74    0.06
   0   7 -16    0.16    0.04
   0   7 -16    0.14    0.04
   0  -7  16    0.12    0.03
   0  -7  16    0.12    0.04
   0  -7  16    0.13    0.03
  -1   7 -16    1.42    0.11
  -1   7 -16    1.33    0.09
   1  -7  16    1.30    0.08
   1  -7  16    1.11    0.09
   1  -7  16    1.22    0.08
  -2   7 -16    0.10    0.03
  -2   7 -16    0.07    0.03
   2  -7  16    0.10    0.02
   2  -7  16    0.07    0.03
   2  -7  16    0.11    0.02
   2  -7  16    0.04    0.03
   2   6 -16    0.01    0.03
   2   6 -16    0.02    0.02
  -2  -6  16    0.02    0.02
  -2  -6  16    0.02    0.03
  -2  -6  16    0.04    0.01
   1   6 -16    1.23    0.08
   1   6 -16    1.12    0.09
   1   6 -16    1.11    0.10
  -1  -6  16    1.03    0.08
  -1  -6  16    1.33    0.09
  -1  -6  16    1.17    0.06
  -1  -6  16    0.99    0.08
   0   6 -16    0.00    0.05
   0   6 -16   -0.02    0.03
   0  -6  16    0.00    0.02
   0  -6  16    0.03    0.02
   0  -6  16    0.00    0.02
  -1   6 -16    3.43    0.22
  -1   6 -16    3.41    0.21
   1  -6  16    3.33    0.20
   1  -6  16    3.34    0.19
   1  -6  16    3.43    0.20
  -2   6 -16    0.06    0.05
  -2   6 -16    0.12    0.03
   2  -6  16    0.09    0.03
   2  -6  16    0.11    0.03
   2  -6  16    0.06    0.03
   2  -6  16    0.08    0.03
   2   5 -16    1.54    0.14
   2   5 -16    1.69    0.11
   2   5 -16    1.50    0.09
   2   5 -16    1.36    0.15
  -2  -5  16    1.60    0.08
  -2  -5  16    1.60    0.10
  -2  -5  16    1.59    0.11
   1   5 -16    1.88    0.11
   1   5 -16    2.03    0.14
   1   5 -16    1.97    0.14
   1   5 -16    1.72    0.17
  -1  -5  16    1.94    0.10
  -1  -5  16    1.83    0.12
  -1  -5  16    1.77    0.12
  -1  -5  16    1.72    0.13
   0   5 -16    0.89    0.09
   0   5 -16    0.89    0.08
   0  -5  16    0.87    0.07
   0  -5  16    0.87    0.07
   0  -5  16    0.83    0.07
  -1   5 -16    2.24    0.15
  -1   5 -16    2.31    0.14
   1  -5  16    2.21    0.15
   1  -5  16    1.98    0.13
   1  -5  16    2.20    0.14
  -2   5 -16    1.22    0.10
   2  -5  16    1.18    0.11
   2  -5  16    1.28    0.09
   2  -5  16    1.35    0.08
   3   4 -16    9.47    0.50
   3   4 -16    9.78    0.53
  -3  -4  16    9.65    0.45
  -3  -4  16    9.49    0.55
   2   4 -16    0.75    0.09
   2   4 -16    0.88    0.06
   2   4 -16    0.92    0.07
   2   4 -16    0.64    0.12
  -2  -4  16    0.76    0.07
  -2  -4  16    0.90    0.05
  -2  -4  16    0.89    0.06
   1   4 -16    2.00    0.14
   1   4 -16    1.97    0.12
   1   4 -16    1.97    0.13
  -1  -4  16    1.90    0.10
  -1  -4  16    2.00    0.13
  -1  -4  16    1.95    0.13
   0   4 -16    0.33    0.05
   0   4 -16    0.25    0.04
   0  -4  16    0.26    0.05
   0  -4  16    0.42    0.06
   0  -4  16    0.24    0.04
  -1   4 -16    0.05    0.04
  -1   4 -16    0.01    0.03
   1  -4  16    0.07    0.03
   1  -4  16    0.04    0.02
   1  -4  16    0.04    0.03
  -2   4 -16    3.64    0.22
   2  -4  16    3.35    0.20
   2  -4  16    3.37    0.24
   2  -4  16    3.77    0.19
   2  -4  16    3.38    0.21
  -3   4 -16    0.77    0.07
   3   3 -16    0.08    0.03
   3   3 -16    0.08    0.04
  -3  -3  16    0.09    0.02
  -3  -3  16    0.07    0.02
  -3  -3  16    0.08    0.02
   2   3 -16    3.54    0.21
   2   3 -16    3.57    0.19
   2   3 -16    3.54    0.23
  -2  -3  16    3.58    0.21
  -2  -3  16    3.12    0.21
  -2  -3  16    3.47    0.17
   1   3 -16   20.60    1.05
   1   3 -16   20.33    1.11
   1   3 -16   21.14    1.19
  -1  -3  16   19.41    0.94
  -1  -3  16   19.63    1.15
  -1  -3  16   20.03    1.14
   0   3 -16    3.97    0.25
   0   3 -16    3.86    0.25
   0   3 -16    4.11    0.24
   0  -3  16    3.48    0.23
   0  -3  16    3.71    0.23
   0  -3  16    3.60    0.22
   0  -3  16    3.65    0.21
  -1   3 -16    3.36    0.22
   1  -3  16    3.22    0.20
   1  -3  16    3.21    0.19
   1  -3  16    3.36    0.19
  -2   3 -16    5.26    0.30
   2  -3  16    5.11    0.27
   2  -3  16    4.51    0.29
   2  -3  16    4.62    0.33
   2  -3  16    4.96    0.27
   3  -3  16    1.50    0.11
   3   2 -16    0.09    0.02
   3   2 -16    0.22    0.03
   3   2 -16    0.20    0.04
  -3  -2  16    0.11    0.02
  -3  -2  16    0.12    0.02
  -3  -2  16    0.13    0.02
   2   2 -16    2.37    0.14
   2   2 -16    2.46    0.16
  -2  -2  16    2.21    0.14
  -2  -2  16    1.99    0.14
  -2  -2  16    2.29    0.11
  -2  -2  16    1.87    0.14
   1   2 -16   10.83    0.68
   1   2 -16   13.66    0.77
   1   2 -16   13.81    0.72
   1   2 -16   12.08    0.77
  -1  -2  16   12.72    0.74
  -1  -2  16   13.68    0.74
  -1  -2  16   13.55    0.61
   0   2 -16    2.90    0.20
   0   2 -16    2.74    0.19
   0   2 -16    3.16    0.20
   0  -2  16    2.75    0.18
   0  -2  16    2.84    0.17
   0  -2  16    2.91    0.16
   0  -2  16    2.79    0.18
   0  -2  16    2.52    0.20
  -1   2 -16    5.25    0.32
  -1   2 -16    5.37    0.32
   1  -2  16    5.22    0.29
   1  -2  16    5.21    0.28
   1  -2  16    4.90    0.36
   1  -2  16    5.22    0.31
  -2   2 -16   -0.06    0.05
   2  -2  16   -0.02    0.02
   2  -2  16   -0.03    0.04
   2  -2  16   -0.01    0.03
   2  -2  16    0.01    0.03
  -3  -1  16    0.25    0.03
  -3  -1  16    0.26    0.03
   2   1 -16    0.07    0.03
   2   1 -16    0.07    0.05
   2   1 -16    0.02    0.05
  -2  -1  16    0.05    0.02
  -2  -1  16    0.06    0.04
  -2  -1  16    0.07    0.02
   1   1 -16    0.20    0.05
   1   1 -16   -0.02    0.06
   1   1 -16    0.24    0.06
  -1  -1  16    0.22    0.03
  -1  -1  16    0.19    0.04
  -1  -1  16    0.17    0.03
   0   1 -16    0.31    0.06
   0   1 -16    0.37    0.05
   0  -1  16    0.34    0.05
   0  -1  16    0.36    0.04
   0  -1  16    0.35    0.05
  -1   1 -16    0.14    0.05
  -1   1 -16    0.15    0.04
   1  -1  16    0.12    0.04
   1  -1  16    0.17    0.03
   1  -1  16    0.16    0.03
   1  -1  16    0.14    0.05
  -2   1 -16    6.09    0.35
   2  -1  16    5.56    0.30
   2  -1  16    5.32    0.38
   2  -1  16    5.63    0.33
   2   0 -16    0.13    0.04
   2   0 -16    0.03    0.02
   2   0 -16    0.06    0.05
  -2   0  16    0.10    0.03
  -2   0  16    0.09    0.02
  -2   0  16    0.08    0.02
   1   0 -16    0.15    0.04
   1   0 -16    0.16    0.04
  -1   0  16    0.14    0.03
  -1   0  16    0.14    0.03
  -1   0  16    0.12    0.03
   0   0 -16    3.91    0.24
   0   0 -16    4.03    0.25
   0   0  16    3.64    0.21
   0   0  16    3.64    0.23
   0   0  16    3.59    0.23
  -1   0 -16    0.08    0.05
  -1   0 -16    0.03    0.04
   1   0  16    0.03    0.03
   1   0  16    0.03    0.03
   1   0  16    0.02    0.03
  -2   0 -16    3.50    0.22
   2   0  16    3.29    0.21
   2   0  16    3.77    0.19
   2   0  16    3.30    0.28
  -2   1  16    1.35    0.09
   1  -1 -16    2.61    0.18
   1  -1 -16    3.13    0.19
  -1   1  16    2.35    0.17
  -1   1  16    2.95    0.17
   0  -1 -16    0.23    0.05
   0  -1 -16    0.15    0.05
   0   1  16    0.11    0.03
   0   1  16    0.12    0.03
   0   1  16    0.15    0.02
  -1  -1 -16    0.62    0.06
  -1  -1 -16    0.84    0.07
   1   1  16    0.74    0.05
   1   1  16    0.73    0.08
   1   1  16    0.80    0.06
   1   1  16    0.62    0.06
   1  -2 -16    0.04    0.03
  -1   2  16    0.06    0.02
   0   2  16    4.58    0.29
   0   2  16    5.37    0.39
  -1  -7  17    3.69    0.18
   0   7 -17    3.24    0.19
   0  -7  17    2.75    0.18
  -1   7 -17    0.94    0.08
   1  -7  17    1.10    0.08
   1  -7  17    1.04    0.06
   1   6 -17    0.66    0.08
   1   6 -17    0.85    0.07
  -1  -6  17    0.92    0.07
   0   6 -17    0.11    0.03
   0  -6  17    0.21    0.03
   0  -6  17    0.07    0.02
  -1   6 -17    5.77    0.38
   1  -6  17    6.55    0.34
   1  -6  17    6.33    0.33
   1  -6  17    6.42    0.36
   2   5 -17    1.32    0.12
  -2  -5  17    1.75    0.08
  -2  -5  17    1.63    0.10
   1   5 -17    0.57    0.06
   1   5 -17    0.39    0.05
  -1  -5  17    0.52    0.05
  -1  -5  17    0.44    0.05
   0   5 -17    2.74    0.18
   0   5 -17    2.72    0.16
   0  -5  17    2.63    0.16
   0  -5  17    2.38    0.16
  -1   5 -17    3.29    0.22
  -1   5 -17    3.36    0.22
   1  -5  17    3.70    0.21
   1  -5  17    3.17    0.20
   1  -5  17    3.72    0.19
  -2   5 -17    1.58    0.12
  -2   5 -17    2.04    0.12
   2  -5  17    1.87    0.13
   2   4 -17    2.51    0.17
  -2  -4  17    2.61    0.15
  -2  -4  17    2.47    0.15
   1   4 -17    1.60    0.11
   1   4 -17    1.54    0.10
  -1  -4  17    1.34    0.09
  -1  -4  17    1.28    0.09
  -1  -4  17    1.32    0.07
   0   4 -17    1.97    0.13
   0   4 -17    1.83    0.13
   0  -4  17    1.64    0.11
   0  -4  17    1.60    0.10
   0  -4  17    1.86    0.12
  -1   4 -17    3.49    0.21
  -1   4 -17    3.67    0.22
   1  -4  17    3.14    0.19
   1  -4  17    3.21    0.18
   1  -4  17    3.21    0.23
   1  -4  17    3.24    0.20
  -2   4 -17    1.16    0.08
  -2   4 -17    0.96    0.08
   2  -4  17    0.77    0.06
   2  -4  17    0.95    0.06
   2   3 -17    0.93    0.08
   2   3 -17    1.04    0.07
  -2  -3  17    0.77    0.08
  -2  -3  17    0.79    0.06
   1   3 -17    1.42    0.11
   1   3 -17    1.45    0.10
  -1  -3  17    1.35    0.09
  -1  -3  17    1.30    0.10
   0   3 -17    1.83    0.13
   0   3 -17    1.48    0.13
   0   3 -17    1.64    0.11
   0  -3  17    1.43    0.10
   0  -3  17    1.56    0.09
   0  -3  17    1.34    0.10
   0  -3  17    1.63    0.10
   0  -3  17    1.48    0.13
  -1   3 -17    9.51    0.57
  -1   3 -17    9.84    0.58
   1  -3  17   10.26    0.51
   1  -3  17    8.64    0.52
   1  -3  17    9.42    0.63
   1  -3  17   10.14    0.55
  -2   3 -17    0.22    0.03
  -2   3 -17    0.25    0.04
   2  -3  17    0.29    0.04
   2  -3  17    0.17    0.02
   2  -3  17    0.25    0.04
   2  -3  17    0.16    0.05
   2   2 -17    0.69    0.06
   2   2 -17    0.71    0.07
  -2  -2  17    0.66    0.05
  -2  -2  17    0.68    0.04
   1   2 -17    7.21    0.40
   1   2 -17    6.67    0.37
  -1  -2  17    5.58    0.38
  -1  -2  17    6.69    0.38
   0   2 -17    0.07    0.04
   0   2 -17    0.06    0.03
   0  -2  17    0.05    0.02
   0  -2  17    0.07    0.03
   0  -2  17    0.06    0.03
   0  -2  17    0.06    0.05
  -1   2 -17    0.08    0.04
  -1   2 -17    0.13    0.03
   1  -2  17    0.06    0.02
   1  -2  17    0.14    0.02
  -2   2 -17    2.28    0.16
   2  -2  17    2.41    0.17
   2  -2  17    2.79    0.14
   2   1 -17    1.08    0.08
  -2  -1  17    0.87    0.07
   1   1 -17    0.01    0.04
   1   1 -17    0.00    0.05
  -1  -1  17    0.02    0.02
   0   1 -17    2.07    0.13
   0   1 -17    2.15    0.13
   0  -1  17    1.69    0.12
   0  -1  17    1.97    0.13
   0  -1  17    1.79    0.11
  -1   1 -17    8.03    0.47
  -1   1 -17    7.98    0.46
   1  -1  17    7.17    0.44
   1   0 -17    5.69    0.34
   0   0 -17    2.56    0.16
   0   0  17    2.44    0.15
  -1   0 -17    0.04    0.03
   1   0  17    0.04    0.03
   1   0  17    0.00    0.02
   1   0  17    0.01    0.02
   0   5 -18   10.83    0.57
   0  -5  18    9.98    0.59
   1   4 -18    0.65    0.06
   1   4 -18    0.67    0.07
  -1  -4  18    0.59    0.05
   0   4 -18    3.45    0.20
   0  -4  18    3.05    0.19
   1  -4  18    4.28    0.29
   1   3 -18   -0.02    0.03
  -1  -3  18    0.00    0.02
  -1  -3  18    0.02    0.02
   0   3 -18    0.40    0.05
   0   2 -18    0.05    0.04
   0   2 -18    0.06    0.04
   0   0   0    0.00    0.00
;
_shelx_hkl_checksum              86259
#END Tags that were not found in dictionaries
loop_
_space_group_symop_operation_xyz
'x, y, z'
'-x, -y, -z'
loop_
_atom_site_label
_atom_site_type_symbol
_atom_site_fract_x
_atom_site_fract_y
_atom_site_fract_z
_atom_site_U_iso_or_equiv
_atom_site_adp_type
_atom_site_occupancy
_atom_site_site_symmetry_order
_atom_site_calc_flag
_atom_site_refinement_flags_posn
_atom_site_refinement_flags_adp
C1 C 0.7606(2) 1.02482(11) 0.60577(7) 0.0192(2) Uani 1 1 d . .
C2 C 0.8969(2) 0.96525(11) 0.51293(7) 0.0182(2) Uani 1 1 d . .
C3 C 0.75566(19) 0.82741(11) 0.46533(8) 0.0187(2) Uani 1 1 d . .
C4 C 0.5514(2) 0.81400(11) 0.52393(7) 0.0187(2) Uani 1 1 d . .
C5 C 0.7813(2) 0.71562(12) 0.38177(8) 0.0215(2) Uani 1 1 d . .
H5 H 0.9173 0.7201 0.3414 0.026 Uiso 1 1 calc R U
C6 C 0.6078(2) 0.59784(12) 0.35768(8) 0.0224(2) Uani 1 1 d . .
H6 H 0.6266 0.5218 0.3009 0.027 Uiso 1 1 calc R U
C7 C 0.4060(2) 0.59014(11) 0.41608(8) 0.0208(2) Uani 1 1 d . .
C8 C 0.3756(2) 0.69883(12) 0.50127(8) 0.0208(2) Uani 1 1 d . .
H8 H 0.2399 0.6934 0.5416 0.025 Uiso 1 1 calc R U
C9 C 0.2252(2) 0.46817(12) 0.38786(8) 0.0227(3) Uani 1 1 d . .
C10 C 0.3885(2) 0.95230(12) 0.68496(8) 0.0212(2) Uani 1 1 d . .
H10A H 0.2176 0.9097 0.6609 0.025 Uiso 1 1 calc R U
H10B H 0.3744 1.0563 0.7161 0.025 Uiso 1 1 calc R U
C11 C 0.4823(2) 0.88333(13) 0.75768(8) 0.0250(3) Uani 1 1 d . .
H11A H 0.6479 0.9307 0.7850 0.030 Uiso 1 1 calc R U
H11B H 0.5083 0.7808 0.7255 0.030 Uiso 1 1 calc R U
C12 C 0.2984(2) 0.89416(12) 0.83789(8) 0.0232(3) Uani 1 1 d . .
H12A H 0.2851 0.9965 0.8742 0.028 Uiso 1 1 calc R U
H12B H 0.1285 0.8549 0.8105 0.028 Uiso 1 1 calc R U
C13 C 0.3837(2) 0.81227(13) 0.90494(8) 0.0255(3) Uani 1 1 d . .
H13A H 0.5445 0.8591 0.9374 0.031 Uiso 1 1 calc R U
H13B H 0.4180 0.7133 0.8669 0.031 Uiso 1 1 calc R U
C14 C 0.1927(2) 0.80417(12) 0.97991(8) 0.0249(3) Uani 1 1 d . .
H14A H 0.1728 0.9021 1.0230 0.030 Uiso 1 1 calc R U
H14B H 0.0264 0.7668 0.9482 0.030 Uiso 1 1 calc R U
C15 C 0.2727(2) 0.70803(13) 1.03827(8) 0.0267(3) Uani 1 1 d . .
H15A H 0.3231 0.6160 0.9945 0.032 Uiso 1 1 calc R U
H15B H 0.4233 0.7548 1.0783 0.032 Uiso 1 1 calc R U
C16 C 0.0685(2) 0.67599(13) 1.10190(8) 0.0280(3) Uani 1 1 d . .
H16A H -0.0859 0.6340 1.0628 0.034 Uiso 1 1 calc R U
H16B H 0.0256 0.7670 1.1489 0.034 Uiso 1 1 calc R U
C17 C 0.1525(3) 0.57246(14) 1.15403(9) 0.0356(3) Uani 1 1 d . .
H17A H 0.2064 0.4848 1.1080 0.053 Uiso 1 1 calc R U
H17B H 0.0110 0.5481 1.1895 0.053 Uiso 1 1 calc R U
H17C H 0.2940 0.6179 1.1981 0.053 Uiso 1 1 calc R U
N1 N 0.55737(17) 0.93258(10) 0.60493(6) 0.0199(2) Uani 1 1 d . .
N2 N 0.08344(19) 0.37065(11) 0.36399(7) 0.0280(2) Uani 1 1 d . .
O1 O 0.81290(15) 1.13267(8) 0.67172(6) 0.0263(2) Uani 1 1 d . .
loop_
_atom_site_aniso_label
_atom_site_aniso_U_11
_atom_site_aniso_U_22
_atom_site_aniso_U_33
_atom_site_aniso_U_23
_atom_site_aniso_U_13
_atom_site_aniso_U_12
C1 0.0172(5) 0.0219(5) 0.0210(5) 0.0098(4) 0.0025(4) 0.0017(4)
C2 0.0171(5) 0.0206(5) 0.0191(5) 0.0090(4) 0.0016(4) 0.0028(4)
C3 0.0155(5) 0.0213(5) 0.0222(5) 0.0108(4) 0.0016(4) 0.0021(4)
C4 0.0175(5) 0.0203(5) 0.0209(5) 0.0097(4) 0.0019(4) 0.0034(4)
C5 0.0180(5) 0.0234(6) 0.0239(5) 0.0083(4) 0.0041(4) 0.0010(4)
C6 0.0209(6) 0.0223(5) 0.0241(5) 0.0071(4) 0.0027(4) 0.0017(4)
C7 0.0183(5) 0.0203(5) 0.0265(6) 0.0112(4) 0.0003(4) 0.0009(4)
C8 0.0174(5) 0.0231(5) 0.0250(5) 0.0118(4) 0.0029(4) 0.0014(4)
C9 0.0203(5) 0.0235(6) 0.0261(6) 0.0096(4) 0.0047(4) 0.0036(4)
C10 0.0185(5) 0.0246(5) 0.0222(5) 0.0094(4) 0.0073(4) 0.0023(4)
C11 0.0219(6) 0.0318(6) 0.0254(6) 0.0141(5) 0.0065(4) 0.0057(4)
C12 0.0226(6) 0.0265(6) 0.0233(5) 0.0112(4) 0.0061(4) 0.0033(4)
C13 0.0241(6) 0.0301(6) 0.0266(6) 0.0141(5) 0.0063(4) 0.0039(5)
C14 0.0252(6) 0.0278(6) 0.0250(6) 0.0126(5) 0.0050(4) 0.0018(4)
C15 0.0272(6) 0.0295(6) 0.0272(6) 0.0142(5) 0.0026(5) 0.0008(5)
C16 0.0344(7) 0.0291(6) 0.0224(5) 0.0108(5) 0.0049(5) -0.0002(5)
C17 0.0561(9) 0.0293(6) 0.0242(6) 0.0121(5) 0.0056(5) 0.0012(6)
N1 0.0189(5) 0.0217(5) 0.0203(5) 0.0083(4) 0.0048(3) 0.0007(3)
N2 0.0233(5) 0.0262(5) 0.0335(6) 0.0076(4) 0.0063(4) -0.0016(4)
O1 0.0260(4) 0.0269(4) 0.0234(4) 0.0044(3) 0.0071(3) -0.0042(3)
loop_
_atom_type_symbol
_atom_type_description
_atom_type_scat_dispersion_real
_atom_type_scat_dispersion_imag
_atom_type_scat_source
C C 0.0181 0.0091 'International Tables Vol C Tables 4.2.6.8 and 6.1.1.4'
H H 0.0000 0.0000 'International Tables Vol C Tables 4.2.6.8 and 6.1.1.4'
N N 0.0311 0.0180 'International Tables Vol C Tables 4.2.6.8 and 6.1.1.4'
O O 0.0492 0.0322 'International Tables Vol C Tables 4.2.6.8 and 6.1.1.4'
loop_
_geom_angle_atom_site_label_1
_geom_angle_atom_site_label_2
_geom_angle_atom_site_label_3
_geom_angle
_geom_angle_site_symmetry_1
O1 C1 N1 122.99(10) .
O1 C1 C2 129.48(10) .
N1 C1 C2 107.53(9) .
C2 C2 C3 132.19(13) 2_776
C2 C2 C1 123.62(13) 2_776
C3 C2 C1 104.19(8) .
C5 C3 C4 117.66(10) .
C5 C3 C2 135.29(10) .
C4 C3 C2 107.05(9) .
C8 C4 N1 126.39(10) .
C8 C4 C3 123.46(10) .
N1 C4 C3 110.16(9) .
C6 C5 C3 120.00(10) .
C5 C6 C7 120.64(10) .
C6 C7 C8 121.21(10) .
C6 C7 C9 119.32(10) .
C8 C7 C9 119.47(10) .
C4 C8 C7 117.01(10) .
N2 C9 C7 178.85(12) .
N1 C10 C11 112.25(9) .
C10 C11 C12 112.66(9) .
C13 C12 C11 111.82(9) .
C12 C13 C14 114.36(9) .
C15 C14 C13 112.56(10) .
C16 C15 C14 114.30(10) .
C15 C16 C17 112.16(11) .
C1 N1 C4 110.95(9) .
C1 N1 C10 122.73(9) .
C4 N1 C10 126.01(9) .
loop_
_geom_bond_atom_site_label_1
_geom_bond_atom_site_label_2
_geom_bond_distance
_geom_bond_site_symmetry_2
C1 O1 1.2177(13) .
C1 N1 1.3641(14) .
C1 C2 1.5288(14) .
C2 C2 1.375(2) 2_776
C2 C3 1.4760(15) .
C3 C5 1.3958(15) .
C3 C4 1.4204(14) .
C4 C8 1.3784(15) .
C4 N1 1.3929(14) .
C5 C6 1.3887(15) .
C6 C7 1.3963(15) .
C7 C8 1.4004(16) .
C7 C9 1.4426(15) .
C9 N2 1.1450(15) .
C10 N1 1.4657(13) .
C10 C11 1.5210(14) .
C11 C12 1.5281(14) .
C12 C13 1.5266(14) .
C13 C14 1.5277(15) .
C14 C15 1.5254(15) .
C15 C16 1.5238(16) .
C16 C17 1.5242(16) .
loop_
_geom_torsion_atom_site_label_1
_geom_torsion_atom_site_label_2
_geom_torsion_atom_site_label_3
_geom_torsion_atom_site_label_4
_geom_torsion
_geom_torsion_site_symmetry_1
_geom_torsion_site_symmetry_4
O1 C1 C2 C2 -4.3(2) . 2_776
N1 C1 C2 C2 176.31(12) . 2_776
O1 C1 C2 C3 175.91(11) . .
N1 C1 C2 C3 -3.51(11) . .
C2 C2 C3 C5 3.6(2) 2_776 .
C1 C2 C3 C5 -176.64(11) . .
C2 C2 C3 C4 -177.29(14) 2_776 .
C1 C2 C3 C4 2.50(10) . .
C5 C3 C4 C8 -1.68(15) . .
C2 C3 C4 C8 179.01(9) . .
C5 C3 C4 N1 178.60(9) . .
C2 C3 C4 N1 -0.71(11) . .
C4 C3 C5 C6 1.10(15) . .
C2 C3 C5 C6 -179.84(11) . .
C3 C5 C6 C7 0.37(16) . .
C5 C6 C7 C8 -1.39(16) . .
C5 C6 C7 C9 178.37(10) . .
N1 C4 C8 C7 -179.62(9) . .
C3 C4 C8 C7 0.70(16) . .
C6 C7 C8 C4 0.84(16) . .
C9 C7 C8 C4 -178.92(9) . .
N1 C10 C11 C12 -175.99(9) . .
C10 C11 C12 C13 174.64(10) . .
C11 C12 C13 C14 -173.22(10) . .
C12 C13 C14 C15 173.78(10) . .
C13 C14 C15 C16 -169.96(10) . .
C14 C15 C16 C17 176.55(10) . .
O1 C1 N1 C4 -176.22(10) . .
C2 C1 N1 C4 3.24(11) . .
O1 C1 N1 C10 -2.24(16) . .
C2 C1 N1 C10 177.22(9) . .
C8 C4 N1 C1 178.61(10) . .
C3 C4 N1 C1 -1.67(12) . .
C8 C4 N1 C10 4.88(17) . .
C3 C4 N1 C10 -175.41(9) . .
C11 C10 N1 C1 -87.40(12) . .
C11 C10 N1 C4 85.65(13) . .
