#------------------------------------------------------------------------------
#$Date: 2016-03-26 12:50:16 +0200 (Sat, 26 Mar 2016) $
#$Revision: 180216 $
#$URL: svn://www.crystallography.net/cod/cif/7/11/02/7110225.cif $
#------------------------------------------------------------------------------
#
# This file is available in the Crystallography Open Database (COD),
# http://www.crystallography.net/
#
# All data on this site have been placed in the public domain by the
# contributors.
#
data_7110225
loop_
_publ_author_name
'Anne Miersch'
'Klaus Harms'
'Gerhard Hilt'
_publ_section_title
;
 Zinc-mediated addition of diethyl bromomalonate to alkynes for the
 cascade reaction towards polysubstituted pyranones and tetracarbonyl
 derivatives
;
_journal_name_full               Chem.Commun.
_journal_page_first              542
_journal_paper_doi               10.1039/c3cc46788k
_journal_volume                  50
_journal_year                    2014
_chemical_formula_sum            'C16 H16 O4'
_chemical_formula_weight         272.29
_chemical_name_systematic
; 
 ? 
;
_space_group_crystal_system      triclinic
_space_group_IT_number           2
_space_group_name_Hall           '-P 1'
_space_group_name_H-M_alt        'P -1'
_symmetry_space_group_name_Hall  '-P 1'
_symmetry_space_group_name_H-M   'P -1'
_atom_sites_solution_hydrogens   geom
_atom_sites_solution_primary     direct
_atom_sites_solution_secondary   difmap
_audit_creation_method           SHELXL-2013
_cell_angle_alpha                95.471(2)
_cell_angle_beta                 104.231(2)
_cell_angle_gamma                111.323(2)
_cell_formula_units_Z            2
_cell_length_a                   8.0560(3)
_cell_length_b                   9.6155(3)
_cell_length_c                   9.8824(3)
_cell_measurement_reflns_used    5635
_cell_measurement_temperature    100(2)
_cell_measurement_theta_max      27.5534
_cell_measurement_theta_min      2.8476
_cell_volume                     676.61(4)
_computing_cell_refinement       'SAINT V8.30C (Bruker AXS Inc., 2013)'
_computing_data_collection       'BRUKER APEX II'
_computing_data_reduction        'SAINT V8.30C (Bruker AXS Inc., 2013)'
_computing_molecular_graphics    'DIAMOND (Crystal Impact)'
_computing_structure_refinement  'SHELXL-2013 (Sheldrick, 2013)'
_computing_structure_solution    'SHELXS-97 (Sheldrick, 2008)'
_diffrn_ambient_temperature      100(2)
_diffrn_detector_area_resol_mean 10.4167
_diffrn_measured_fraction_theta_full 0.998
_diffrn_measured_fraction_theta_max 0.999
_diffrn_measurement_device_type  'Bruker D8 QUEST area detector'
_diffrn_measurement_method       '\w and \f scans'
_diffrn_radiation_type           MoK\a
_diffrn_radiation_wavelength     0.71073
_diffrn_reflns_av_R_equivalents  0.0317
_diffrn_reflns_av_unetI/netI     0.0292
_diffrn_reflns_Laue_measured_fraction_full 0.998
_diffrn_reflns_Laue_measured_fraction_max 0.999
_diffrn_reflns_limit_h_max       9
_diffrn_reflns_limit_h_min       -9
_diffrn_reflns_limit_k_max       11
_diffrn_reflns_limit_k_min       -11
_diffrn_reflns_limit_l_max       11
_diffrn_reflns_limit_l_min       -11
_diffrn_reflns_number            8740
_diffrn_reflns_point_group_measured_fraction_full 0.998
_diffrn_reflns_point_group_measured_fraction_max 0.999
_diffrn_reflns_theta_full        25.242
_diffrn_reflns_theta_max         25.496
_diffrn_reflns_theta_min         2.323
_diffrn_source                   'microfocus sealed X-ray tube'
_exptl_absorpt_coefficient_mu    0.096
_exptl_absorpt_correction_T_max  0.98
_exptl_absorpt_correction_T_min  0.84
_exptl_absorpt_correction_type   multi-scan
_exptl_absorpt_process_details   'SADABS V2012/1 (Bruker AXS Inc.)'
_exptl_crystal_colour            colourless
_exptl_crystal_density_diffrn    1.337
_exptl_crystal_density_method    'not measured'
_exptl_crystal_description       block
_exptl_crystal_F_000             288
_exptl_crystal_size_max          0.380
_exptl_crystal_size_mid          0.300
_exptl_crystal_size_min          0.190
_refine_diff_density_max         0.227
_refine_diff_density_min         -0.211
_refine_diff_density_rms         0.052
_refine_ls_extinction_method     none
_refine_ls_goodness_of_fit_ref   1.108
_refine_ls_hydrogen_treatment    constr
_refine_ls_matrix_type           full
_refine_ls_number_parameters     183
_refine_ls_number_reflns         2514
_refine_ls_number_restraints     0
_refine_ls_restrained_S_all      1.108
_refine_ls_R_factor_all          0.0386
_refine_ls_R_factor_gt           0.0332
_refine_ls_shift/su_max          0.000
_refine_ls_shift/su_mean         0.000
_refine_ls_structure_factor_coef Fsqd
_refine_ls_weighting_details
'w=1/[\s^2^(Fo^2^)+(0.0521P)^2^+0.2231P] where P=(Fo^2^+2Fc^2^)/3'
_refine_ls_weighting_scheme      calc
_refine_ls_wR_factor_gt          0.0885
_refine_ls_wR_factor_ref         0.1023
_reflns_Friedel_coverage         0.000
_reflns_number_gt                2253
_reflns_number_total             2514
_reflns_threshold_expression     'I > 2\s(I)'
_cod_data_source_file            c3cc46788k.txt
_cod_data_source_block           AXM690_0m
_cod_database_code               7110225
#BEGIN Tags that were not found in dictionaries:
_shelx_space_group_comment
; 
The symmetry employed for this shelxl refinement is uniquely defined 
by the following loop, which should always be used as a source of 
symmetry information in preference to the above space-group names. 
They are only intended as comments. 
;
_shelx_estimated_absorpt_t_min   0.965
_shelx_estimated_absorpt_t_max   0.982
_shelxl_version_number           2013-3
_shelx_res_file
; 
TITL AXM690_0m in P-1 
CELL 0.71073 8.0560 9.6155 9.8824 95.471 104.231 111.323 
ZERR 2.00 0.0003 0.0003 0.0003 0.002 0.002 0.002 
LATT 1 
SFAC C H O 
UNIT 32 32 8 
LIST 4 ! automatically inserted. Change 6 to 4 for CHECKCIF!! 
TEMP -173.150 
SIZE 0.19 0.30 0.38 
ACTA 
L.S. 12 
FMAP 2 
PLAN -4 0 0.00 
HTAB 
BOND $H 
CONF 
omit -2 51 
WGHT    0.052100    0.223100 
FVAR       0.98233 
O1    3    0.940514    0.833462   -0.230970    11.00000    0.02101    0.02633 = 
         0.01814    0.00687    0.01045    0.01016 
O2    3    0.681275    0.866315   -0.239246    11.00000    0.01812    0.01920 = 
         0.01381    0.00465    0.00560    0.00815 
O3    3    1.144734    0.825277    0.055738    11.00000    0.01360    0.02490 = 
         0.02328    0.00571    0.00543    0.00392 
O4    3    0.920110    0.627979    0.097330    11.00000    0.01398    0.01606 = 
         0.01729    0.00413    0.00317    0.00595 
C1    1    0.827939    0.831173   -0.168927    11.00000    0.01530    0.01193 = 
         0.01542    0.00126    0.00400    0.00341 
C2    1    0.824705    0.790511   -0.031885    11.00000    0.01429    0.01199 = 
         0.01375    0.00071    0.00375    0.00259 
C3    1    0.680551    0.784545    0.021024    11.00000    0.01446    0.00957 = 
         0.01435    0.00004    0.00362    0.00195 
C4    1    0.535046    0.822244   -0.059200    11.00000    0.01423    0.01501 = 
         0.01573    0.00119    0.00472    0.00488 
AFIX  43 
H4    2    0.433674    0.817305   -0.024210    11.00000   -1.20000 
AFIX   0 
C5    1    0.541494    0.864653   -0.184023    11.00000    0.01481    0.01368 = 
         0.01675    0.00002    0.00393    0.00415 
C6    1    0.982527    0.753298    0.043538    11.00000    0.01623    0.01483 = 
         0.01143   -0.00006    0.00572    0.00436 
C7    1    1.061533    0.596355    0.196094    11.00000    0.01673    0.02353 = 
         0.01748    0.00389    0.00163    0.01037 
AFIX  23 
H7A   2    1.152522    0.690809    0.265210    11.00000   -1.20000 
H7B   2    1.129754    0.555604    0.143817    11.00000   -1.20000 
AFIX   0 
C8    1    0.961969    0.480605    0.272367    11.00000    0.02647    0.02381 = 
         0.02745    0.01032    0.00643    0.01228 
AFIX 137 
H8A   2    0.892273    0.521233    0.321445    11.00000   -1.50000 
H8B   2    1.053636    0.458377    0.342274    11.00000   -1.50000 
H8C   2    0.875070    0.386718    0.203121    11.00000   -1.50000 
AFIX   0 
C9    1    0.670303    0.744434    0.161204    11.00000    0.01526    0.01514 = 
         0.01569    0.00372    0.00644    0.00881 
C10   1    0.814279    0.826213    0.286340    11.00000    0.01673    0.01542 = 
         0.01772    0.00294    0.00587    0.00538 
AFIX  43 
H10   2    0.922649    0.907962    0.282794    11.00000   -1.20000 
AFIX   0 
C11   1    0.799645    0.788473    0.416043    11.00000    0.02065    0.02012 = 
         0.01421    0.00160    0.00247    0.00841 
AFIX  43 
H11   2    0.896984    0.845645    0.501483    11.00000   -1.20000 
AFIX   0 
C12   1    0.643013    0.667271    0.421402    11.00000    0.02496    0.02458 = 
         0.01591    0.00887    0.00969    0.01213 
AFIX  43 
H12   2    0.633696    0.640719    0.510224    11.00000   -1.20000 
AFIX   0 
C13   1    0.500613    0.585339    0.296974    11.00000    0.01749    0.02226 = 
         0.02279    0.00853    0.00922    0.00582 
AFIX  43 
H13   2    0.394109    0.501692    0.300508    11.00000   -1.20000 
REM ##### 
REM ##### 
AFIX   0 
C14   1    0.512266    0.624537    0.166829    11.00000    0.01428    0.01910 = 
         0.01631    0.00338    0.00425    0.00592 
AFIX  43 
H14   2    0.412601    0.569602    0.082012    11.00000   -1.20000 
AFIX   0 
C15   1    0.410767    0.919538   -0.274342    11.00000    0.02167    0.02131 = 
         0.01864    0.00554    0.00508    0.01088 
AFIX  23 
H15A  2    0.477244    1.029947   -0.269419    11.00000   -1.20000 
H15B  2    0.305698    0.906398   -0.234741    11.00000   -1.20000 
AFIX   0 
C16   1    0.331653    0.837023   -0.430628    11.00000    0.02549    0.03099 = 
         0.01810    0.00557    0.00144    0.01242 
AFIX 137 
H16A  2    0.260752    0.728180   -0.437041    11.00000   -1.50000 
H16B  2    0.434538    0.850039   -0.471157    11.00000   -1.50000 
H16C  2    0.248938    0.879939   -0.483902    11.00000   -1.50000 
AFIX   0 
HKLF 4 1 1 0 0 0 1 0 0 0 1 
  
REM  AXM690_0m in P-1 
REM R1 =  0.0332 for    2253 Fo > 4sig(Fo)  and  0.0386 for all    2514 data 
REM    183 parameters refined using      0 restraints 
  
END 
  
WGHT      0.0521      0.2231 
  
REM Instructions for potential hydrogen bonds 
EQIV $1 x-1, y, z 
HTAB C4 O3_$1 
  
REM Highest difference peak  0.227,  deepest hole -0.211,  1-sigma level  0.052 
Q1    1   0.7651  0.7552  0.2149  11.00000  0.05    0.23 
Q2    1   0.8913  0.7708  0.0035  11.00000  0.05    0.23 
Q3    1   0.8096  0.7875 -0.1013  11.00000  0.05    0.21 
Q4    1   0.5447  0.6558  0.3612  11.00000  0.05    0.20 
;
_shelx_res_checksum              84522
_shelx_hkl_file
; 
   1   0   0 25.5644 1.14261   1 
   2   0   0 659.849 23.8343   1 
   2   0   0 554.465 30.8411   3 
  -3   0   0 17.7268 1.07621   1 
   3   0   0 18.1475 1.07531   1 
   3   0   0 16.2339 1.09254   1 
  -4   0   0 33.3193 1.82005   1 
   4   0   0 36.8770 1.86098   1 
   4   0   0 33.4274 1.81463   1 
  -5   0   0 126.740 5.38652   1 
   5   0   0 128.561 5.52027   1 
   5   0   0 118.868 5.43144   1 
  -6   0   0 501.766 19.7690   1 
   6   0   0 508.105 19.9247   1 
   6   0   0 464.748 19.8511   1 
   7   0   0 102.311 5.21220   1 
   7   0   0 101.730 4.89716   1 
   8   0   0 224.016 10.0137   1 
   8   0   0 217.423 9.68299   1 
   9   0   0 16.7872 2.78430   1 
   9   0   0 19.2481 2.68581   1 
   9  -1   0 1.82085 1.96358   1 
   9  -1   0 -4.5092 1.69715   1 
  -9   1   0 2.50946 1.54524   1 
   8  -1   0 271.277 12.0929   1 
   8  -1   0 290.904 12.2812   1 
  -8   1   0 291.132 11.8872   1 
   7  -1   0 1097.16 44.4693   1 
   7  -1   0 1137.49 44.5359   1 
  -7   1   0 1132.98 44.3214   1 
   6  -1   0 124.531 5.65550   1 
   6  -1   0 131.219 5.75263   1 
  -6   1   0 126.948 5.56613   1 
   5  -1   0 127.868 5.66768   1 
  -5   1   0 134.149 5.57126   1 
   4  -1   0 2.34929 0.50767   1 
  -4   1   0 1.04272 0.38576   1 
   3  -1   0 3.92166 0.48917   1 
  -3   1   0 3.90332 0.41079   1 
   2  -1   0 984.138 41.4930   1 
  -2   1   0 1006.58 41.5598   1 
  -2   1   0 1197.83 54.1909   3 
   1  -1   0 1321.36 56.0308   1 
  -1   1   0 1361.18 65.2049   2 
  -1   1   0 1607.78 73.1987   3 
  -1   1   0 1422.15 55.9654   1 
   0  -1   0 -5.4915 0.04967   1 
  -1  -1   0 4664.24 190.753   1 
  -1  -1   0 4821.21 190.746   1 
   1   1   0 4773.69 190.769   1 
   1   1   0 5477.53 248.702   3 
   1   1   0 4644.49 190.731   1 
  -2  -1   0 858.825 34.3577   1 
   2   1   0 944.729 44.6909   3 
   2   1   0 870.971 34.3749   1 
   2   1   0 829.353 34.3754   1 
  -3  -1   0 110.915 4.64049   1 
   3   1   0 109.033 5.75179   3 
   3   1   0 112.364 4.69925   1 
   3   1   0 102.178 4.66902   1 
  -4  -1   0 167.402 6.72711   1 
   4   1   0 166.706 6.80876   1 
   4   1   0 161.654 6.77276   1 
   4   1   0 145.038 8.28731   3 
  -5  -1   0 12.3853 1.31539   1 
   5   1   0 10.6148 1.10413   1 
   5   1   0 12.1617 1.24860   1 
  -6  -1   0 0.20873 0.67850   1 
   6   1   0 0.49450 0.65357   1 
   6   1   0 1.08582 0.97001   1 
  -7  -1   0 103.432 4.96820   1 
   7   1   0 95.8855 5.03245   1 
   7   1   0 95.1701 4.96455   1 
  -8  -1   0 3.89636 1.67966   1 
   8   1   0 6.18975 2.12156   1 
   8   1   0 3.75776 1.46850   1 
   9  -2   0 70.0481 4.52952   1 
   9  -2   0 65.5368 4.16666   1 
  -9   2   0 70.2281 3.88063   1 
   8  -2   0 64.0181 3.65055   1 
   8  -2   0 62.0467 3.85549   1 
  -8   2   0 71.2558 3.52568   1 
   7  -2   0 322.578 13.1779   1 
   7  -2   0 305.821 13.1262   1 
  -7   2   0 326.144 12.9863   1 
   6  -2   0 282.258 11.8437   1 
  -6   2   0 295.017 11.7194   1 
   5  -2   0 52.2316 2.54711   1 
  -5   2   0 50.8067 2.40766   1 
   4  -2   0 20.6341 1.26598   1 
  -4   2   0 24.1325 1.33929   3 
  -4   2   0 21.7243 1.18184   1 
   3  -2   0 20.1040 1.06438   1 
  -3   2   0 19.9458 1.01062   1 
  -3   2   0 22.2993 1.28427   3 
   2  -2   0 2395.70 101.668   1 
  -2   2   0 2887.77 132.840   3 
  -2   2   0 2577.81 118.316   2 
  -2   2   0 2527.27 101.606   1 
   1  -2   0 74.5606 3.10314   1 
   1  -2   0 73.4649 3.10205   1 
  -1   2   0 74.6974 3.09074   1 
  -1   2   0 88.0152 4.18651   3 
  -1   2   0 73.1333 3.09820   1 
   0  -2   0 3729.11 144.204   1 
   0  -2   0 3514.90 143.768   1 
   0   2   0 3463.76 143.991   1 
   0   2   0 4010.77 188.119   3 
  -1  -2   0 427.969 17.0354   1 
  -1  -2   0 415.474 17.0559   1 
   1   2   0 424.784 17.0381   1 
   1   2   0 475.314 22.2088   3 
   1   2   0 412.912 17.0429   1 
  -2  -2   0 121.567 5.10366   1 
  -2  -2   0 115.409 5.13458   1 
   2   2   0 117.362 5.10560   1 
   2   2   0 116.737 5.11867   1 
   2   2   0 134.721 6.52184   3 
  -3  -2   0 55.2455 2.68674   1 
   3   2   0 60.4434 3.31102   3 
   3   2   0 56.2170 2.78244   1 
   3   2   0 56.7303 2.77602   1 
  -4  -2   0 60.5760 2.97811   1 
   4   2   0 59.8810 3.09825   1 
   4   2   0 63.1569 3.03467   1 
   4   2   0 60.4742 3.49512   3 
  -5  -2   0 92.9601 4.14467   1 
   5   2   0 78.3825 4.74054   3 
   5   2   0 85.7296 4.14922   1 
   5   2   0 90.2153 4.19517   1 
  -6  -2   0 297.830 12.0497   1 
   6   2   0 272.900 12.0246   1 
   6   2   0 286.193 12.1555   1 
  -7  -2   0 236.856 10.0780   1 
   7   2   0 224.229 10.1201   1 
   7   2   0 233.989 10.4339   1 
  -8  -2   0 27.4174 2.90072   1 
   8   2   0 42.7111 4.46091   1 
   8   2   0 43.0981 3.30892   1 
   9  -3   0 9.99520 1.56046   1 
   9  -3   0 9.96344 1.86771   1 
  -9   3   0 9.53761 1.39704   1 
   8  -3   0 76.6106 4.14055   1 
   8  -3   0 74.8498 3.93600   1 
  -8   3   0 80.9545 3.77485   1 
   7  -3   0 208.219 8.91534   1 
  -7   3   0 211.046 8.66017   1 
   6  -3   0 792.897 31.7476   1 
  -6   3   0 810.853 31.5758   1 
   5  -3   0 6.11175 0.67268   1 
  -5   3   0 5.78673 0.63419   1 
  -5   3   0 6.73555 0.83437   3 
   4  -3   0 11.0481 0.80336   1 
  -4   3   0 9.69163 0.95248   2 
  -4   3   0 11.2490 0.73113   1 
  -4   3   0 11.9940 0.98428   3 
   3  -3   0 164.573 6.89890   1 
  -3   3   0 169.538 6.84109   1 
  -3   3   0 192.059 9.10328   3 
  -3   3   0 162.651 8.01875   2 
   2  -3   0 254.647 10.8602   1 
  -2   3   0 307.098 14.3705   3 
  -2   3   0 262.725 10.8415   1 
  -2   3   0 285.132 12.6932   2 
  -2   3   0 269.405 10.8235   1 
   1  -3   0 1348.62 54.8260   1 
   1  -3   0 1370.63 54.9237   1 
  -1   3   0 1351.35 54.8306   1 
  -1   3   0 1329.67 54.9044   1 
  -1   3   0 1594.67 71.4529   3 
   0  -3   0 4804.48 193.375   1 
   0  -3   0 4834.79 193.188   1 
   0   3   0 5328.14 252.083   3 
   0   3   0 4774.33 192.766   1 
  -1  -3   0 26.1638 1.47342   1 
  -1  -3   0 26.6691 1.44598   1 
   1   3   0 27.3438 1.38570   1 
   1   3   0 26.6470 1.83922   3 
   1   3   0 25.2806 1.38406   1 
  -2  -3   0 39.7087 2.04628   1 
  -2  -3   0 37.8594 2.03538   1 
   2   3   0 38.2781 2.03331   1 
   2   3   0 37.1212 1.98372   1 
   2   3   0 42.0348 2.52833   3 
  -3  -3   0 95.2202 4.25351   1 
   3   3   0 93.2350 4.31563   1 
   3   3   0 94.8037 4.32661   1 
   3   3   0 95.2251 5.34197   3 
  -4  -3   0 -0.0545 0.77913   1 
   4   3   0 0.31429 0.80863   1 
   4   3   0 1.26957 0.73827   1 
   4   3   0 1.48849 0.76240   3 
  -5  -3   0 33.4309 2.44593   1 
   5   3   0 32.6835 2.45930   3 
   5   3   0 32.0890 2.47772   1 
   5   3   0 32.9941 2.45804   1 
  -6  -3   0 24.8053 2.57454   1 
   6   3   0 21.5547 1.96277   3 
   6   3   0 25.7727 2.17194   1 
   6   3   0 23.0306 2.25120   1 
  -7  -3   0 -0.6427 1.21176   1 
   7   3   0 0.49093 1.40583   1 
   7   3   0 2.20082 2.06660   1 
   8   3   0 216.010 10.1625   1 
   8   3   0 222.572 10.9001   1 
  10  -4   0 43.2654 4.11812   1 
 -10   4   0 44.1077 3.19565   1 
 -10   4   0 48.7548 3.99123   2 
   9  -4   0 210.595 9.44327   1 
   9  -4   0 215.442 9.37705   1 
  -9   4   0 216.882 9.02017   1 
  -9   4   0 223.036 10.9558   2 
   8  -4   0 10.7960 1.42463   1 
  -8   4   0 10.7815 1.67103   2 
  -8   4   0 11.5372 1.06995   1 
   7  -4   0 1.11223 0.83547   1 
  -7   4   0 1.62900 0.54005   1 
  -7   4   0 1.55212 1.03122   2 
  -7   4   0 0.92454 0.54375   3 
   6  -4   0 5.42057 0.77287   1 
  -6   4   0 6.69682 0.87701   3 
  -6   4   0 7.20286 1.04163   2 
  -6   4   0 5.90468 0.58462   1 
   5  -4   0 138.914 6.08888   1 
  -5   4   0 152.936 7.89743   3 
  -5   4   0 146.948 5.93684   1 
  -5   4   0 148.058 7.06377   2 
   4  -4   0 592.291 24.4317   1 
  -4   4   0 618.072 24.3229   1 
  -4   4   0 605.970 28.4550   2 
  -4   4   0 669.493 32.0113   3 
   3  -4   0 348.514 14.1486   1 
  -3   4   0 373.586 16.5094   2 
  -3   4   0 337.747 14.0523   1 
  -3   4   0 384.235 18.6835   3 
  -3   4   0 350.362 14.0803   1 
   2  -4   0 572.949 22.2709   1 
  -2   4   0 550.346 22.2429   1 
  -2   4   0 564.859 22.2221   1 
  -2   4   0 583.119 29.2959   3 
   1  -4   0 2.41678 0.37358   1 
   1  -4   0 1.80351 0.33124   1 
  -1   4   0 2.50982 0.32475   1 
  -1   4   0 2.83747 0.71319   3 
  -1   4   0 2.65840 0.31148   1 
   0  -4   0 1232.09 49.8205   1 
   0  -4   0 1256.42 49.8032   1 
   0   4   0 1346.71 65.1301   3 
   0   4   0 1253.40 49.7839   1 
  -1  -4   0 652.491 25.8307   1 
  -1  -4   0 636.933 25.8676   1 
   1   4   0 696.126 33.7496   3 
   1   4   0 649.229 25.8241   1 
   1   4   0 630.590 25.8196   1 
  -2  -4   0 53.2657 2.74398   1 
  -2  -4   0 55.8148 2.87815   1 
   2   4   0 54.2246 2.68867   1 
   2   4   0 60.1148 3.55324   3 
   2   4   0 54.1890 2.76069   1 
  -3  -4   0 50.0222 2.70959   1 
   3   4   0 47.7169 3.25466   3 
   3   4   0 50.1215 2.61091   1 
   3   4   0 50.3046 2.72752   1 
  -4  -4   0 70.5577 3.52373   1 
   4   4   0 66.1142 3.50974   1 
   4   4   0 67.0302 4.30748   3 
   4   4   0 70.8017 3.53530   1 
  -5  -4   0 251.754 10.4312   1 
   5   4   0 247.256 10.4915   1 
   5   4   0 231.431 13.0350   3 
   5   4   0 243.120 10.4475   1 
  -6  -4   0 22.7897 2.04325   1 
   6   4   0 22.0928 2.35326   1 
   6   4   0 15.6937 2.08566   3 
   6   4   0 18.8853 2.31476   1 
  -7  -4   0 201.735 9.51181   1 
   7   4   0 206.157 9.33082   1 
   7   4   0 193.630 9.76458   1 
  10  -5   0 146.281 7.28152   1 
   9  -5   0 28.2893 2.62479   1 
  -9   5   0 26.9817 2.63182   2 
  -9   5   0 24.6394 1.65452   1 
   8  -5   0 5.57731 1.12528   1 
  -8   5   0 7.42672 1.36887   2 
  -8   5   0 6.61045 0.77798   1 
   7  -5   0 179.039 7.44260   1 
  -7   5   0 176.653 8.51140   2 
  -7   5   0 170.585 7.06146   1 
  -7   5   0 172.428 9.39053   3 
   6  -5   0 50.0290 2.58626   1 
  -6   5   0 53.0082 3.37085   3 
  -6   5   0 52.5569 2.29034   1 
  -6   5   0 56.9282 2.94785   2 
   5  -5   0 482.857 19.6105   1 
  -5   5   0 521.636 25.7208   3 
  -5   5   0 485.178 19.3998   1 
  -5   5   0 491.777 22.7801   2 
   4  -5   0 8.13633 0.66480   1 
  -4   5   0 8.61186 0.50725   1 
  -4   5   0 9.71061 1.26202   3 
  -4   5   0 8.75166 0.87841   2 
  -4   5   0 7.65837 0.46719   1 
   3  -5   0 2212.16 89.8887   1 
  -3   5   0 2159.39 89.9575   1 
  -3   5   0 2524.38 117.427   3 
  -3   5   0 2304.38 89.7312   1 
   2  -5   0 0.88149 0.27605   1 
   2  -5   0 0.95138 0.27768   1 
  -2   5   0 0.27949 0.63947   3 
  -2   5   0 0.90629 0.22787   1 
  -2   5   0 0.72450 0.26141   1 
   1  -5   0 10.7794 0.82317   1 
   1  -5   0 10.8395 0.83250   1 
  -1   5   0 12.6870 1.25609   3 
  -1   5   0 10.4046 0.79590   1 
  -1   5   0 10.2704 0.70445   1 
   0  -5   0 1129.69 44.3939   1 
   0  -5   0 1137.24 44.3676   1 
   0   5   0 1091.28 44.3206   1 
   0   5   0 1161.07 58.0340   3 
  -1  -5   0 310.086 12.3412   1 
  -1  -5   0 306.037 12.4084   1 
   1   5   0 297.047 12.3144   1 
   1   5   0 297.505 12.3049   1 
   1   5   0 306.950 16.1340   3 
  -2  -5   0 8.94059 0.98226   1 
  -2  -5   0 9.05034 1.16909   1 
   2   5   0 11.6131 1.13578   1 
   2   5   0 10.9793 1.38656   3 
   2   5   0 8.73852 1.04763   1 
  -3  -5   0 34.7984 2.22619   1 
   3   5   0 35.4538 2.67504   3 
   3   5   0 36.8746 2.36425   1 
   3   5   0 36.1069 2.21857   1 
  -4  -5   0 -0.1587 1.06740   1 
   4   5   0 -0.5023 1.09095   3 
   4   5   0 0.88609 1.12968   1 
   4   5   0 0.47512 1.16803   1 
  -5  -5   0 24.4899 2.35284   1 
   5   5   0 22.1847 2.51749   3 
   5   5   0 22.7366 2.31429   1 
   5   5   0 23.3190 2.22086   1 
  -6  -5   0 73.1853 4.70534   1 
   6   5   0 62.4639 4.42344   3 
   6   5   0 62.3806 4.58766   1 
   6   5   0 64.7115 4.02763   1 
  10  -6   0 191.332 8.81512   1 
   9  -6   0 32.7583 2.78173   1 
  -9   6   0 33.0655 2.94883   2 
   8  -6   0 53.2143 3.01782   1 
  -8   6   0 53.3889 3.60453   3 
   7  -6   0 3.58331 0.87997   1 
  -7   6   0 5.71005 1.04003   2 
  -7   6   0 5.58947 1.25241   3 
  -7   6   0 3.73085 0.40565   1 
   6  -6   0 200.902 8.32844   1 
  -6   6   0 200.175 9.56678   2 
  -6   6   0 206.377 11.0315   3 
   5  -6   0 9.51644 0.83182   1 
  -5   6   0 9.43914 1.37730   3 
   4  -6   0 212.215 8.46322   1 
  -4   6   0 207.581 8.28654   1 
  -4   6   0 204.392 8.26312   1 
  -4   6   0 216.468 11.3785   3 
   3  -6   0 82.5243 3.50526   1 
  -3   6   0 79.4053 3.36048   1 
  -3   6   0 80.6151 3.41179   1 
  -3   6   0 84.8622 4.88016   3 
   2  -6   0 39.8687 1.95260   1 
   2  -6   0 39.8872 1.95294   1 
  -2   6   0 41.0691 1.86231   1 
  -2   6   0 39.7969 1.88661   1 
  -2   6   0 41.9193 2.80634   3 
   1  -6   0 284.525 11.1788   1 
   1  -6   0 274.113 11.1819   1 
  -1   6   0 266.338 11.0967   1 
  -1   6   0 272.150 11.1135   1 
  -1   6   0 283.812 14.7963   3 
   0  -6   0 272.590 11.2411   1 
   0  -6   0 278.728 11.1898   1 
   0   6   0 280.899 14.7595   3 
   0   6   0 264.266 11.1164   1 
  -1  -6   0 3.66444 0.89546   1 
  -1  -6   0 2.58804 0.75541   1 
   1   6   0 2.41054 0.55856   1 
   1   6   0 4.13324 0.73546   1 
   1   6   0 1.89979 0.76074   3 
  -2  -6   0 187.960 7.79908   1 
  -2  -6   0 181.567 7.88422   1 
   2   6   0 177.937 10.0737   3 
   2   6   0 176.376 7.77208   1 
   2   6   0 178.253 7.79459   1 
  -3  -6   0 62.1492 3.40314   1 
   3   6   0 66.4679 3.65620   1 
   3   6   0 64.2353 4.50010   3 
   3   6   0 62.7604 3.53543   1 
  -4  -6   0 21.0764 2.02446   1 
   4   6   0 16.5670 2.00662   1 
   4   6   0 18.7731 2.19835   3 
   4   6   0 15.9461 1.71209   1 
  -5  -6   0 0.16925 1.33627   1 
   5   6   0 -0.9672 1.72656   1 
   5   6   0 1.05212 1.28493   1 
   5   6   0 -1.0016 1.43576   3 
  -6  -6   0 -0.5867 1.73623   1 
   6   6   0 -0.0049 1.63846   3 
   6   6   0 3.01986 2.41671   1 
   6   6   0 -1.5790 2.40696   1 
   9  -7   0 1.05117 1.26007   1 
  -9   7   0 2.75927 1.51982   3 
   8  -7   0 0.04446 1.11215   1 
  -8   7   0 -0.1589 1.24739   3 
  -8   7   0 0.20715 1.00774   2 
   7  -7   0 2.47332 0.75667   1 
  -7   7   0 2.85288 0.96792   3 
  -7   7   0 3.88868 0.93418   2 
   6  -7   0 153.625 6.44662   1 
  -6   7   0 154.638 8.69168   3 
   5  -7   0 15.2109 1.02601   1 
  -5   7   0 15.0544 1.72458   3 
   4  -7   0 64.1127 2.78060   1 
  -4   7   0 59.7637 2.54112   1 
  -4   7   0 62.4134 4.12560   3 
  -4   7   0 61.7680 2.57801   1 
   3  -7   0 2.74996 0.51078   1 
  -3   7   0 2.06107 0.45344   1 
  -3   7   0 1.88617 0.36741   1 
  -3   7   0 3.97559 0.94609   3 
   2  -7   0 32.4175 1.74459   1 
   2  -7   0 30.3599 1.69285   1 
  -2   7   0 30.1145 1.60801   1 
  -2   7   0 30.1174 1.56505   1 
  -2   7   0 30.9187 2.45869   3 
   1  -7   0 28.4245 1.63495   1 
   1  -7   0 28.6610 1.78739   1 
  -1   7   0 28.2949 2.51405   3 
  -1   7   0 27.6202 1.66565   1 
  -1   7   0 27.3032 1.50403   1 
   0  -7   0 16.3682 1.45037   1 
   0  -7   0 11.4057 1.28678   1 
   0   7   0 16.0486 2.01988   3 
   0   7   0 13.5250 1.22193   1 
  -1  -7   0 24.2967 1.75781   1 
  -1  -7   0 26.8027 2.15873   1 
   1   7   0 18.9141 1.57829   1 
   1   7   0 23.8750 1.66766   1 
   1   7   0 29.1277 2.43471   3 
  -2  -7   0 0.76082 1.26908   1 
  -2  -7   0 1.77379 1.09783   1 
   2   7   0 2.32442 1.08748   3 
   2   7   0 1.23817 1.00628   1 
   2   7   0 0.38628 0.89873   1 
  -3  -7   0 0.09747 1.30971   1 
   3   7   0 1.36992 1.46538   3 
   3   7   0 2.53692 1.39507   1 
   3   7   0 -0.9935 1.16741   1 
  -4  -7   0 86.8299 4.91546   1 
   4   7   0 97.9988 5.28602   1 
   4   7   0 89.2775 6.13572   3 
   4   7   0 90.9970 4.82225   1 
  -5  -7   0 43.7983 3.68072   1 
   5   7   0 39.7598 4.05974   1 
   5   7   0 36.8979 3.52066   1 
   5   7   0 37.2508 3.82878   3 
   9  -8   0 55.7232 3.25985   1 
  -9   8   0 50.2555 4.00511   3 
   8  -8   0 13.8412 1.37041   1 
  -8   8   0 14.2812 2.14957   3 
   7  -8   0 4.35213 0.78614   1 
  -7   8   0 4.40966 1.59779   3 
   6  -8   0 7.10619 0.78574   1 
  -6   8   0 6.13315 1.33360   3 
   5  -8   0 1.78246 0.52065   1 
  -5   8   0 1.85258 1.27984   3 
   4  -8   0 9.34202 0.86817   1 
  -4   8   0 12.5324 1.83943   3 
  -4   8   0 9.77460 0.64537   1 
  -4   8   0 10.0465 0.75800   1 
   3  -8   0 388.127 15.4638   1 
  -3   8   0 376.526 15.2781   1 
  -3   8   0 389.165 15.3339   1 
  -3   8   0 387.171 20.5935   3 
   2  -8   0 52.0459 2.59733   1 
   2  -8   0 43.0319 2.43645   1 
  -2   8   0 49.0962 2.33432   1 
  -2   8   0 50.6156 2.41875   1 
  -2   8   0 47.9530 3.53665   3 
   1  -8   0 21.8055 1.77665   1 
   1  -8   0 23.9303 1.50560   1 
  -1   8   0 22.8827 2.51458   3 
  -1   8   0 20.3228 1.56657   1 
  -1   8   0 17.9980 1.26839   1 
   0  -8   0 8.12894 1.05363   1 
   0   8   0 7.04687 0.86660   1 
   0   8   0 6.46308 0.92473   1 
  -1  -8   0 19.1322 1.95412   1 
  -1  -8   0 20.6578 2.07641   1 
   1   8   0 19.6636 1.92992   1 
   1   8   0 22.2860 2.70756   3 
   1   8   0 15.4803 1.54384   1 
  -2  -8   0 45.3015 3.19804   1 
  -2  -8   0 51.9301 3.06028   1 
   2   8   0 46.2866 2.86559   1 
   2   8   0 52.2704 3.31498   1 
   2   8   0 46.5107 4.11154   3 
  -3  -8   0 59.5731 3.75606   1 
   3   8   0 60.3607 4.85305   3 
   3   8   0 56.6283 3.82276   1 
   3   8   0 61.1176 4.00538   1 
  -4  -8   0 50.0905 4.75732   1 
   4   8   0 55.0558 4.79865   3 
   4   8   0 54.1869 3.74554   1 
   4   8   0 50.8803 3.71371   1 
   9  -9   0 30.9691 2.76429   1 
  -9   9   0 26.7361 3.45275   3 
   8  -9   0 0.40997 0.88670   1 
  -8   9   0 2.06277 1.78329   3 
   7  -9   0 8.07808 1.09677   1 
  -7   9   0 9.48786 1.98600   3 
   6  -9   0 13.8391 1.20945   1 
  -6   9   0 11.3776 2.08963   3 
   5  -9   0 49.4682 2.39052   1 
  -5   9   0 42.0380 3.53573   3 
   4  -9   0 65.5935 3.19728   1 
  -4   9   0 65.6461 2.85598   1 
  -4   9   0 67.1900 4.73072   3 
  -4   9   0 63.9947 2.77929   1 
   3  -9   0 282.950 11.4309   1 
  -3   9   0 273.410 15.3209   3 
  -3   9   0 286.861 11.2628   1 
  -3   9   0 269.482 11.1760   1 
   2  -9   0 194.304 8.17917   1 
   2  -9   0 198.428 8.13780   1 
  -2   9   0 190.756 11.0402   3 
  -2   9   0 180.818 7.89511   1 
   1  -9   0 4.71223 1.14318   1 
   1  -9   0 4.14042 1.00609   1 
  -1   9   0 3.25585 1.24993   3 
  -1   9   0 2.79018 0.96204   1 
  -1   9   0 2.27487 0.67355   1 
   0  -9   0 122.299 5.55015   1 
   0  -9   0 117.798 5.66261   1 
   0   9   0 113.521 5.36229   1 
   0   9   0 115.405 7.21036   3 
   0   9   0 106.616 5.23265   1 
  -1  -9   0 82.5684 4.46089   1 
  -1  -9   0 77.7512 4.58167   1 
   1   9   0 73.6049 4.14141   1 
   1   9   0 73.9053 3.89398   1 
   1   9   0 77.0208 5.60580   3 
  -2  -9   0 7.91732 1.69805   1 
  -2  -9   0 7.62721 1.89318   1 
   2   9   0 7.94004 1.63064   1 
   2   9   0 6.58169 1.41373   1 
   2   9   0 7.76789 2.17821   3 
  -3  -9   0 2.21776 2.42454   1 
   3   9   0 0.65958 1.98873   3 
   3   9   0 0.65542 1.83292   1 
   3   9   0 1.29363 2.05593   1 
   8 -10   0 8.83632 1.37153   1 
  -8  10   0 12.2588 2.46996   3 
   7 -10   0 0.86475 0.72637   1 
  -7  10   0 0.66233 1.81164   3 
   6 -10   0 24.5993 1.77246   1 
  -6  10   0 25.9854 2.78901   3 
   5 -10   0 25.4962 1.80535   1 
  -5  10   0 27.0114 2.74506   3 
   4 -10   0 7.54516 1.04963   1 
  -4  10   0 5.65356 0.59616   1 
  -4  10   0 6.88059 1.79358   3 
   3 -10   0 108.452 4.96818   1 
  -3  10   0 98.3024 4.56833   1 
  -3  10   0 110.318 7.01151   3 
  -3  10   0 109.734 4.74348   1 
   2 -10   0 94.2226 4.59753   1 
   2 -10   0 96.1410 4.51457   1 
  -2  10   0 87.2096 4.26600   1 
  -2  10   0 103.115 6.59658   3 
  -2  10   0 101.233 4.44358   1 
   1 -10   0 30.0754 2.42975   1 
   1 -10   0 33.2151 2.65829   1 
  -1  10   0 28.5230 2.26329   1 
  -1  10   0 28.6448 3.27065   3 
  -1  10   0 24.7198 1.93281   1 
   0 -10   0 7.19483 1.33127   1 
   0 -10   0 7.63347 1.63895   1 
   0  10   0 7.30584 1.99098   3 
   0  10   0 4.33030 1.20311   1 
   0  10   0 6.80037 1.45600   1 
  -1 -10   0 12.7067 2.45946   1 
  -1 -10   0 13.5047 2.19261   1 
   1  10   0 13.5441 1.72981   1 
   1  10   0 8.58501 1.96912   3 
  -2 -10   0 41.2539 3.59727   1 
   2  10   0 29.4309 2.76701   1 
   2  10   0 36.1998 4.32672   3 
   7 -11   0 7.05073 1.11251   1 
  -7  11   0 5.31291 1.79345   3 
   6 -11   0 79.3163 3.92856   1 
  -6  11   0 84.2867 5.95349   3 
   5 -11   0 2.88585 0.93640   1 
  -5  11   0 2.41381 1.51614   3 
   4 -11   0 70.9118 3.81448   1 
  -4  11   0 72.1077 3.21430   1 
  -4  11   0 73.8655 5.47675   3 
   3 -11   0 90.6938 4.62079   1 
  -3  11   0 89.0855 6.34239   3 
  -3  11   0 87.8059 4.13711   1 
   2 -11   0 0.58611 1.25256   1 
   2 -11   0 -0.1070 1.34562   1 
  -2  11   0 -0.0414 1.03954   1 
  -2  11   0 0.36931 1.19111   3 
  -2  11   0 -1.4358 0.70689   1 
   1 -11   0 16.4489 2.06871   1 
   1 -11   0 17.8854 2.00017   1 
  -1  11   0 15.7249 2.63253   3 
  -1  11   0 16.4213 1.76516   1 
  -1  11   0 19.6178 1.95876   1 
   0 -11   0 3.89645 2.19291   1 
   0 -11   0 4.97728 1.97666   1 
   0  11   0 -3.4331 1.59333   1 
   0  11   0 2.56964 1.34292   1 
   0  11   0 4.77612 2.28070   3 
   6 -12   0 45.8766 3.07245   1 
  -6  12   0 60.2520 5.10451   3 
   5 -12   0 65.0460 3.81532   1 
  -5  12   0 69.6146 5.29545   3 
   4 -12   0 -0.4741 1.43550   1 
  -4  12   0 0.63281 0.71471   1 
  -4  12   0 1.71871 2.07906   3 
  -4  12   0 1.10805 0.79163   1 
   3 -12   0 27.2019 2.43872   1 
  -3  12   0 20.7439 3.31797   3 
  -3  12   0 25.5422 1.97809   1 
  -3  12   0 25.0731 2.10539   1 
   2 -12   0 22.5300 2.53229   1 
  -2  12   0 20.5173 1.86036   1 
  -2  12   0 23.9870 3.32158   3 
  -2  12   0 23.2632 2.43780   1 
  -2  12  -1 36.4753 2.46090   1 
  -2  12  -1 41.1569 4.65794   3 
  -2  12  -1 42.0914 3.12282   1 
   2 -12   1 38.6371 3.72954   1 
  -3  12  -1 12.1656 2.78946   3 
  -3  12  -1 15.8430 1.92220   1 
  -3  12  -1 16.6913 1.51529   1 
   3 -12   1 15.5194 2.11401   1 
  -4  12  -1 1.91386 1.52500   3 
  -4  12  -1 5.14592 1.23342   1 
  -4  12  -1 4.32078 0.83142   1 
   4 -12   1 2.82986 1.51998   1 
  -5  12  -1 6.36108 2.10834   3 
   5 -12   1 4.89375 1.41160   1 
  -6  12  -1 11.1312 2.25305   3 
   6 -12   1 11.4431 1.69983   1 
   1  11  -1 20.2212 3.28085   3 
   1  11  -1 20.2902 1.97045   1 
  -1 -11   1 20.5974 3.17087   1 
  -1 -11   1 23.8867 2.93863   1 
   0  11  -1 7.86263 1.45456   1 
   0  11  -1 5.26685 1.71143   3 
   0  11  -1 -1.6076 1.62216   1 
   0 -11   1 4.82000 2.04859   1 
   0 -11   1 9.30769 2.24681   1 
  -1  11  -1 23.9870 2.86756   3 
  -1  11  -1 20.4868 1.96744   1 
  -1  11  -1 21.2463 2.16869   1 
   1 -11   1 29.0982 2.48643   1 
   1 -11   1 26.8356 2.53880   1 
  -2  11  -1 1.54630 0.78757   1 
  -2  11  -1 3.71908 1.37862   3 
  -2  11  -1 1.72565 1.19316   1 
   2 -11   1 1.09951 1.41717   1 
  -3  11  -1 7.73124 1.18578   1 
  -3  11  -1 4.95860 1.54812   3 
  -3  11  -1 5.31890 0.77841   1 
   3 -11   1 7.42866 1.42175   1 
  -4  11  -1 0.50803 0.61432   1 
  -4  11  -1 1.71978 0.99529   1 
  -4  11  -1 1.57858 1.16276   3 
   4 -11   1 1.66529 1.10476   1 
  -5  11  -1 3.00690 1.89007   3 
  -5  11  -1 3.55979 0.47635   1 
  -5  11  -1 3.67503 0.58587   1 
   5 -11   1 3.05039 1.15527   1 
  -6  11  -1 1.47398 1.34578   3 
   6 -11   1 1.09246 1.04848   1 
  -7  11  -1 -0.0255 1.96352   3 
   7 -11   1 1.73337 1.13584   1 
   2  10  -1 47.3914 3.70129   1 
   2  10  -1 46.6952 4.62501   3 
  -2 -10   1 59.6225 5.02712   1 
  -2 -10   1 53.6200 4.65870   1 
   1  10  -1 17.0158 2.05665   1 
   1  10  -1 11.5327 1.45381   1 
   1  10  -1 15.6672 2.34912   3 
  -1 -10   1 20.3322 2.36818   1 
  -1 -10   1 15.3736 2.41013   1 
   0  10  -1 3.12309 1.28973   1 
   0  10  -1 3.23762 1.11448   1 
   0  10  -1 4.95618 1.76240   3 
   0 -10   1 4.15128 1.41697   1 
   0 -10   1 4.17651 1.19776   1 
  -1  10  -1 22.1803 2.91241   3 
  -1  10  -1 20.5673 1.70471   1 
  -1  10  -1 20.7158 2.10250   1 
   1 -10   1 23.5207 2.04115   1 
   1 -10   1 21.3983 2.06261   1 
  -2  10  -1 29.2363 2.07960   1 
  -2  10  -1 29.3092 1.81477   1 
  -2  10  -1 29.0862 3.20772   3 
   2 -10   1 27.1883 2.34863   1 
  -3  10  -1 37.9297 2.03909   1 
  -3  10  -1 39.3871 3.65455   3 
  -3  10  -1 41.5859 2.33908   1 
   3 -10   1 41.9914 2.55296   1 
  -4  10  -1 88.9161 6.01794   3 
  -4  10  -1 91.0065 3.98517   1 
  -4  10  -1 86.4495 3.81973   1 
   4 -10   1 90.1822 4.24995   1 
  -5  10  -1 94.9857 6.31204   3 
   5 -10   1 102.234 4.60546   1 
  -6  10  -1 -0.5750 0.98623   3 
   6 -10   1 0.59667 1.06304   1 
  -7  10  -1 -1.8770 1.59491   3 
   7 -10   1 1.26071 0.99922   1 
  -8  10  -1 23.2877 2.84343   3 
   8 -10   1 24.4826 2.28404   1 
   3   9  -1 -1.0602 1.71676   1 
   3   9  -1 -2.8949 1.98355   1 
   3   9  -1 1.49365 1.87126   3 
  -3  -9   1 -0.3592 1.53118   1 
  -3  -9   1 2.95029 1.61637   1 
   2   9  -1 54.6733 3.37105   1 
   2   9  -1 59.4828 3.86060   1 
   2   9  -1 58.7409 4.52383   3 
  -2  -9   1 61.8095 4.35506   1 
  -2  -9   1 62.8404 3.74342   1 
   1   9  -1 11.9483 1.44542   1 
   1   9  -1 8.81063 1.28863   1 
   1   9  -1 11.4880 2.15117   3 
  -1  -9   1 9.65489 1.37764   1 
  -1  -9   1 8.62586 1.81402   1 
   0   9  -1 -0.7299 0.97168   3 
   0   9  -1 0.06324 0.77721   1 
   0   9  -1 0.33115 0.73684   1 
   0  -9   1 0.13828 0.79814   1 
   0  -9   1 0.66870 1.03440   1 
  -1   9  -1 12.6467 1.27699   1 
  -1   9  -1 11.4870 1.67411   3 
  -1   9  -1 10.6240 1.08372   1 
   1  -9   1 10.5690 1.35266   1 
   1  -9   1 13.2663 1.36383   1 
  -2   9  -1 9.40004 1.63501   3 
  -2   9  -1 9.94873 1.04222   1 
  -2   9  -1 9.97330 1.00317   1 
   2  -9   1 11.6334 1.22434   1 
  -3   9  -1 173.215 9.50201   3 
  -3   9  -1 154.580 6.74332   1 
  -3   9  -1 162.126 6.86984   1 
   3  -9   1 164.181 7.00539   1 
  -4   9  -1 131.548 7.55175   3 
  -4   9  -1 123.626 5.29194   1 
  -4   9  -1 118.742 5.17842   1 
   4  -9   1 129.101 5.50726   1 
  -5   9  -1 1.75860 1.02546   3 
  -5   9  -1 2.66891 0.38395   1 
  -5   9  -1 1.59980 0.45508   1 
   5  -9   1 3.10246 0.80310   1 
  -6   9  -1 123.832 7.63139   3 
   6  -9   1 125.694 5.50359   1 
  -7   9  -1 8.07547 1.83684   3 
   7  -9   1 7.30611 1.02490   1 
  -8   9  -1 27.2553 2.84275   3 
   8  -9   1 31.1357 2.37303   1 
  -9   9  -1 13.7239 2.48936   3 
   9  -9   1 15.8870 1.95655   1 
   4   8  -1 1.08894 1.29380   1 
   4   8  -1 -0.4049 1.78203   3 
   4   8  -1 2.49289 2.15593   1 
  -4  -8   1 2.70400 2.28892   1 
   3   8  -1 32.8907 2.73271   1 
   3   8  -1 27.0093 2.53359   1 
   3   8  -1 25.5089 2.80936   3 
  -3  -8   1 27.8348 2.79186   1 
  -3  -8   1 30.7149 3.22568   1 
   2   8  -1 4.82840 1.11234   1 
   2   8  -1 4.94813 1.24966   1 
   2   8  -1 6.18123 1.70156   3 
  -2  -8   1 7.91284 1.28635   1 
  -2  -8   1 4.96773 1.25421   1 
   1   8  -1 7.95225 1.15953   1 
   1   8  -1 4.97732 1.19014   1 
   1   8  -1 8.20826 1.76331   3 
  -1  -8   1 8.52829 1.39595   1 
  -1  -8   1 4.67223 1.04823   1 
   0   8  -1 24.2123 2.30475   3 
   0   8  -1 21.8876 1.65904   1 
   0  -8   1 28.1157 2.12098   1 
   0  -8   1 24.6902 2.00382   1 
  -1   8  -1 3.19247 0.99495   3 
  -1   8  -1 0.42408 0.51678   1 
  -1   8  -1 1.39601 0.75184   1 
   1  -8   1 -0.7671 0.76212   1 
   1  -8   1 0.47502 0.55367   1 
  -2   8  -1 8.29186 0.87601   1 
  -2   8  -1 9.36983 1.61720   3 
  -2   8  -1 7.04487 0.87668   1 
   2  -8   1 6.23129 0.92617   1 
  -3   8  -1 277.746 10.7862   1 
  -3   8  -1 268.644 14.5018   3 
  -3   8  -1 249.764 10.6431   1 
   3  -8   1 264.774 10.8319   1 
  -4   8  -1 14.6121 0.97242   1 
  -4   8  -1 16.1116 1.81261   3 
  -4   8  -1 13.1632 1.16178   1 
   4  -8   1 17.5881 1.29695   1 
  -5   8  -1 -0.1887 0.38133   1 
  -5   8  -1 -0.1676 0.76313   3 
  -5   8  -1 0.43695 0.32070   1 
   5  -8   1 -0.7133 0.54732   1 
  -6   8  -1 21.1620 1.05692   1 
  -6   8  -1 23.3208 2.52133   3 
  -6   8  -1 22.3204 1.09374   1 
   6  -8   1 24.9092 1.68816   1 
  -7   8  -1 32.9832 3.05997   3 
   7  -8   1 29.0436 2.31434   1 
  -8   8  -1 72.5173 4.99822   3 
   8  -8   1 75.4119 3.86804   1 
  -9   8  -1 167.080 9.75369   3 
   9  -8   1 176.752 7.83737   1 
   5   7  -1 0.29272 1.97292   1 
   5   7  -1 2.29972 1.85860   3 
   5   7  -1 1.75337 1.39449   1 
  -5  -7   1 0.59470 2.22186   1 
   4   7  -1 74.6654 4.30728   1 
   4   7  -1 85.0881 4.76458   1 
   4   7  -1 84.4642 5.66116   3 
  -4  -7   1 84.7656 4.54198   1 
   3   7  -1 112.937 5.39012   1 
   3   7  -1 116.586 6.88641   3 
   3   7  -1 96.7285 5.12348   1 
  -3  -7   1 104.463 5.62584   1 
  -3  -7   1 113.083 5.32564   1 
   2   7  -1 147.037 8.38371   3 
   2   7  -1 146.226 6.52585   1 
   2   7  -1 136.041 6.37357   1 
  -2  -7   1 150.535 6.61337   1 
  -2  -7   1 139.816 6.55157   1 
   1   7  -1 372.828 15.3676   1 
   1   7  -1 383.988 20.1430   3 
   1   7  -1 366.126 15.3352   1 
  -1  -7   1 390.284 15.4701   1 
  -1  -7   1 373.464 15.4961   1 
   0   7  -1 35.8366 2.00836   1 
   0   7  -1 33.9143 2.79224   3 
   0  -7   1 35.4105 2.17194   1 
   0  -7   1 33.7852 2.16720   1 
  -1   7  -1 135.763 5.99662   1 
  -1   7  -1 137.715 6.06882   1 
  -1   7  -1 145.711 8.21251   3 
   1  -7   1 157.954 6.21012   1 
   1  -7   1 140.745 6.14633   1 
  -2   7  -1 109.118 6.20155   3 
  -2   7  -1 105.099 4.52288   1 
  -2   7  -1 102.611 4.45722   1 
   2  -7   1 103.376 4.54271   1 
  -3   7  -1 173.527 7.10272   1 
  -3   7  -1 178.742 9.59619   3 
  -3   7  -1 163.663 6.99519   1 
   3  -7   1 174.368 7.14530   1 
  -4   7  -1 3.59861 0.60222   1 
  -4   7  -1 5.55049 1.18144   3 
  -4   7  -1 4.31064 0.47020   1 
   4  -7   1 4.32407 0.60462   1 
  -5   7  -1 12.2584 1.64036   3 
  -5   7  -1 10.0682 0.73311   1 
  -5   7  -1 10.5992 0.87345   1 
   5  -7   1 11.6943 1.08633   1 
  -6   7  -1 18.4213 1.04390   1 
  -6   7  -1 20.4685 1.92237   3 
  -6   7  -1 19.2266 1.07297   1 
   6  -7   1 19.0897 1.48624   1 
  -7   7  -1 117.963 5.07834   1 
  -7   7  -1 132.400 7.18541   3 
   7  -7   1 123.988 5.56633   1 
  -8   7  -1 2.67308 0.50810   1 
  -8   7  -1 5.31639 1.41317   3 
   8  -7   1 1.82011 1.19369   1 
  -9   7  -1 11.5101 1.11293   1 
   9  -7   1 11.6069 1.81887   1 
   6   6  -1 33.7611 3.27360   1 
   6   6  -1 28.4770 3.30474   3 
   6   6  -1 41.9180 4.28159   1 
  -6  -6   1 36.5711 3.41108   1 
   5   6  -1 8.27275 1.52023   1 
   5   6  -1 8.45257 1.99123   1 
   5   6  -1 8.25478 1.81087   3 
  -5  -6   1 9.82330 1.68926   1 
   4   6  -1 67.6599 4.02144   1 
   4   6  -1 70.8784 4.74366   3 
   4   6  -1 68.8376 3.70814   1 
  -4  -6   1 65.4515 3.77376   1 
   3   6  -1 227.882 9.88795   1 
   3   6  -1 237.577 12.6741   3 
   3   6  -1 229.852 9.87292   1 
  -3  -6   1 228.853 9.94875   1 
  -3  -6   1 229.599 9.85325   1 
   2   6  -1 43.5445 2.59687   1 
   2   6  -1 41.9209 2.54158   1 
   2   6  -1 50.0431 3.40117   3 
  -2  -6   1 43.6867 2.69294   1 
  -2  -6   1 46.5174 2.81187   1 
   1   6  -1 15.8697 1.20479   1 
   1   6  -1 15.5981 1.60210   3 
   1   6  -1 14.8966 1.36757   1 
  -1  -6   1 15.1491 1.44587   1 
  -1  -6   1 15.2461 1.31303   1 
   0   6  -1 595.204 30.8434   3 
   0   6  -1 584.634 23.5322   1 
   0   6  -1 581.116 23.5033   1 
   0  -6   1 605.789 23.5807   1 
   0  -6   1 595.405 23.5963   1 
  -1   6  -1 11.0820 1.47422   3 
  -1   6  -1 9.15464 0.75378   1 
  -1   6  -1 11.5867 0.96346   1 
   1  -6   1 10.1583 0.98160   1 
  -2   6  -1 9.32116 0.79796   1 
  -2   6  -1 6.83785 0.67570   1 
  -2   6  -1 9.85471 1.17655   3 
   2  -6   1 7.18853 0.78701   1 
  -3   6  -1 716.826 35.4797   3 
  -3   6  -1 670.316 26.9596   1 
  -3   6  -1 665.860 26.8967   1 
   3  -6   1 687.692 26.9986   1 
  -4   6  -1 9.92931 0.77958   1 
  -4   6  -1 10.0801 0.71772   1 
  -4   6  -1 9.74634 1.26378   3 
   4  -6   1 11.4369 0.92235   1 
  -5   6  -1 39.2559 1.84389   1 
  -5   6  -1 42.4886 2.79577   3 
  -5   6  -1 41.7532 1.93338   1 
   5  -6   1 38.9963 2.08006   1 
  -6   6  -1 15.4398 1.74352   3 
   6  -6   1 13.9028 1.36005   1 
  -7   6  -1 107.810 5.92725   3 
  -7   6  -1 97.8145 4.89798   2 
  -7   6  -1 99.5203 4.29629   1 
   7  -6   1 101.520 4.73012   1 
  -8   6  -1 8.78786 1.20845   2 
  -8   6  -1 8.77696 1.33124   3 
  -8   6  -1 8.61312 0.93825   1 
   8  -6   1 9.78044 1.45846   1 
  -9   6  -1 38.7327 2.28916   1 
   9  -6   1 36.2358 3.19252   1 
   7   5  -1 0.20235 2.49439   1 
   7   5  -1 -1.4967 2.42638   1 
  -7  -5   1 0.88093 2.58223   1 
   6   5  -1 0.15300 1.48873   3 
   6   5  -1 -0.3116 1.81584   1 
   6   5  -1 1.52887 1.86126   1 
  -6  -5   1 2.60940 1.88411   1 
   5   5  -1 124.386 5.95371   1 
   5   5  -1 121.152 5.77104   1 
   5   5  -1 115.972 7.04481   3 
  -5  -5   1 118.487 5.75764   1 
   4   5  -1 26.2171 2.00845   1 
   4   5  -1 30.9082 2.56699   3 
   4   5  -1 25.0387 2.32432   1 
  -4  -5   1 22.6262 2.43001   1 
  -4  -5   1 26.0200 2.35800   1 
   3   5  -1 9.81976 1.17710   1 
   3   5  -1 5.36516 1.02234   1 
   3   5  -1 5.81549 1.21677   3 
  -3  -5   1 5.20210 1.14934   1 
  -3  -5   1 4.68988 1.00510   1 
   2   5  -1 84.0599 5.04267   3 
   2   5  -1 79.1847 3.83903   1 
   2   5  -1 84.5495 3.95388   1 
  -2  -5   1 86.1304 3.91439   1 
  -2  -5   1 86.8111 4.04453   1 
   1   5  -1 36.5858 1.88332   1 
   1   5  -1 35.7650 1.89717   1 
   1   5  -1 36.1334 2.46668   3 
  -1  -5   1 35.9415 1.94957   1 
  -1  -5   1 33.0742 1.98033   1 
   0   5  -1 80.8610 4.61782   3 
   0   5  -1 74.5049 3.40827   1 
   0   5  -1 77.0191 3.42476   1 
   0  -5   1 77.2901 3.49923   1 
   0  -5   1 78.1419 3.49052   1 
  -1   5  -1 212.043 10.9721   3 
  -1   5  -1 194.174 8.23870   1 
  -1   5  -1 200.560 8.27021   1 
   1  -5   1 200.805 8.29701   1 
   1  -5   1 213.492 8.30628   1 
  -2   5  -1 1.96152 0.57806   3 
  -2   5  -1 0.91968 0.36885   1 
  -2   5  -1 0.09084 0.25236   1 
   2  -5   1 1.41588 0.30311   1 
  -3   5  -1 1005.93 48.3219   3 
  -3   5  -1 921.677 36.8530   1 
  -3   5  -1 912.565 36.8006   1 
   3  -5   1 921.619 36.8790   1 
  -4   5  -1 167.823 6.88701   1 
  -4   5  -1 181.581 9.18822   3 
   4  -5   1 158.915 6.94686   1 
  -5   5  -1 168.298 8.53126   3 
  -5   5  -1 154.650 6.42168   1 
  -5   5  -1 153.576 7.30445   2 
   5  -5   1 151.451 6.56539   1 
  -6   5  -1 71.7820 3.20248   1 
  -6   5  -1 75.4342 4.23265   3 
  -6   5  -1 70.2979 3.57866   2 
   6  -5   1 67.4212 3.39431   1 
  -7   5  -1 8.80405 0.99815   2 
  -7   5  -1 8.67381 1.22653   3 
  -7   5  -1 7.36643 0.80321   1 
   7  -5   1 5.17397 1.03916   1 
  -8   5  -1 14.2713 1.35340   1 
  -8   5  -1 15.6296 1.68756   2 
   8  -5   1 12.4950 1.61567   1 
  -9   5  -1 35.1508 2.31549   1 
   9  -5   1 33.8548 3.23067   1 
   7   4  -1 1.12562 1.56367   1 
   7   4  -1 0.30620 1.42266   1 
  -7  -4   1 1.02686 2.07212   1 
   6   4  -1 36.8300 3.11460   1 
   6   4  -1 33.8122 3.04380   1 
   6   4  -1 31.4813 2.58281   3 
  -6  -4   1 36.3952 3.05063   1 
   5   4  -1 10.9082 1.52096   1 
   5   4  -1 11.4410 1.50324   3 
   5   4  -1 10.6499 1.31640   1 
  -5  -4   1 9.67499 1.25052   1 
   4   4  -1 20.0780 1.92260   3 
   4   4  -1 17.6627 1.81380   1 
   4   4  -1 19.8242 1.55780   1 
  -4  -4   1 18.7686 1.84065   1 
   3   4  -1 18.4307 1.57427   3 
   3   4  -1 17.5910 1.55702   1 
   3   4  -1 18.1630 1.48509   1 
  -3  -4   1 16.0196 1.63506   1 
  -3  -4   1 21.3799 1.59415   1 
   2   4  -1 533.142 26.5103   3 
   2   4  -1 496.315 20.3854   1 
   2   4  -1 499.344 20.3717   1 
  -2  -4   1 512.137 20.4413   1 
  -2  -4   1 512.950 20.3901   1 
   1   4  -1 423.359 17.0383   1 
   1   4  -1 412.636 17.0490   1 
   1   4  -1 451.525 22.2530   3 
  -1  -4   1 419.222 17.0911   1 
  -1  -4   1 432.719 17.0723   1 
   0   4  -1 12.6224 0.83484   1 
   0   4  -1 13.5224 1.15050   3 
   0   4  -1 13.1396 0.89197   1 
   0  -4   1 12.0326 0.95479   1 
   0  -4   1 12.4110 0.93316   1 
  -1   4  -1 46.3762 2.21954   1 
  -1   4  -1 50.5595 2.21744   1 
  -1   4  -1 54.3784 3.07810   3 
   1  -4   1 48.5469 2.22045   1 
   1  -4   1 50.2491 2.24810   1 
  -2   4  -1 4.42983 0.77304   3 
  -2   4  -1 4.74462 0.45416   1 
  -2   4  -1 3.96607 0.44223   1 
   2  -4   1 4.27408 0.45504   1 
  -3   4  -1 80.7961 3.44292   1 
  -3   4  -1 88.4257 4.58069   3 
   3  -4   1 74.3860 3.45274   1 
  -4   4  -1 55.5950 2.54759   1 
  -4   4  -1 55.6680 2.76010   2 
  -4   4  -1 61.7328 3.34827   3 
   4  -4   1 56.6361 2.63160   1 
  -5   4  -1 226.908 9.33387   1 
  -5   4  -1 248.424 12.1478   3 
  -5   4  -1 230.681 10.7602   2 
   5  -4   1 216.578 9.44694   1 
  -6   4  -1 91.6572 4.08239   1 
  -6   4  -1 100.982 5.15087   3 
  -6   4  -1 92.1941 4.71728   2 
   6  -4   1 86.9892 4.21307   1 
  -7   4  -1 106.052 4.50449   1 
  -7   4  -1 95.5652 5.33889   3 
  -7   4  -1 104.145 5.26570   2 
   7  -4   1 97.6855 4.68805   1 
  -8   4  -1 94.4371 5.13416   2 
  -8   4  -1 92.4601 4.28013   1 
   8  -4   1 87.1682 4.72541   1 
  -9   4  -1 7.91582 1.63793   1 
  -9   4  -1 9.02468 1.78778   2 
   9  -4   1 6.71294 1.88336   1 
   9  -4   1 6.54972 1.55475   1 
   8   3  -1 -8.4992 2.28600   1 
   8   3  -1 -0.3854 2.35651   1 
  -8  -3   1 0.13546 1.59668   1 
   7   3  -1 10.5730 2.07520   1 
   7   3  -1 9.38594 1.46804   1 
  -7  -3   1 7.54418 1.89093   1 
   6   3  -1 1.90299 1.30046   1 
   6   3  -1 1.11345 1.32277   1 
   6   3  -1 2.54105 0.96139   3 
  -6  -3   1 2.44811 1.20408   1 
   5   3  -1 1.45643 0.71112   1 
   5   3  -1 0.13680 0.61334   1 
   5   3  -1 -0.0945 0.73013   3 
  -5  -3   1 -1.3525 0.84506   1 
   4   3  -1 0.33766 0.67347   3 
   4   3  -1 -1.3227 0.67972   1 
   4   3  -1 0.57544 0.70005   1 
  -4  -3   1 0.43164 0.50654   1 
   3   3  -1 55.2628 2.90111   1 
   3   3  -1 57.9874 2.87587   1 
   3   3  -1 63.6323 3.53320   3 
  -3  -3   1 59.6664 2.98475   1 
  -3  -3   1 58.8080 2.88542   1 
   2   3  -1 292.061 11.9940   1 
   2   3  -1 293.400 12.0199   1 
   2   3  -1 314.445 15.5409   3 
  -2  -3   1 296.679 12.0023   1 
  -2  -3   1 291.214 12.0414   1 
   1   3  -1 60.0705 3.33698   3 
   1   3  -1 54.9784 2.55679   1 
   1   3  -1 56.4754 2.54964   1 
  -1  -3   1 57.3096 2.61930   1 
  -1  -3   1 58.4546 2.60547   1 
   0   3  -1 77.2366 3.98604   3 
   0   3  -1 67.8446 2.98035   1 
   0   3  -1 67.1163 2.99825   1 
   0  -3   1 70.4303 3.00491   1 
   0  -3   1 71.0676 3.02376   1 
  -1   3  -1 102.851 4.59487   1 
  -1   3  -1 112.678 4.57565   1 
  -1   3  -1 124.145 6.07754   3 
   1  -3   1 110.271 4.58361   1 
  -2   3  -1 212.791 8.69815   1 
  -2   3  -1 234.618 11.4055   3 
   2  -3   1 207.153 8.70225   1 
  -3   3  -1 2711.32 129.503   3 
  -3   3  -1 2488.79 99.3469   1 
  -3   3  -1 2473.68 115.341   2 
   3  -3   1 2469.62 99.4544   1 
  -4   3  -1 3.52419 0.56132   3 
  -4   3  -1 3.21096 0.48276   1 
   4  -3   1 2.02662 0.51964   1 
  -5   3  -1 188.173 7.84029   1 
  -5   3  -1 206.647 9.98607   3 
   5  -3   1 176.767 7.91438   1 
  -6   3  -1 197.137 7.94270   1 
  -6   3  -1 193.460 9.83543   3 
   6  -3   1 180.553 8.04605   1 
  -7   3  -1 -0.4982 0.72157   1 
   7  -3   1 -0.1046 0.93992   1 
  -9   3  -1 86.1290 4.49037   1 
   9  -3   1 75.7946 4.65687   1 
   9  -3   1 89.8803 4.76691   1 
   8   2  -1 35.2221 2.88938   1 
   8   2  -1 29.1456 2.98694   1 
  -8  -2   1 27.6078 2.67334   1 
   7   2  -1 380.335 15.8701   1 
   7   2  -1 371.512 15.7209   1 
  -7  -2   1 379.681 15.6696   1 
   6   2  -1 41.1247 2.71202   1 
   6   2  -1 34.5488 2.21645   3 
   6   2  -1 36.6017 2.36583   1 
  -6  -2   1 41.4106 2.59466   1 
   5   2  -1 266.330 13.7951   3 
   5   2  -1 256.417 11.0561   1 
   5   2  -1 267.166 11.0463   1 
  -5  -2   1 270.188 11.0152   1 
   4   2  -1 16.7543 1.26161   3 
   4   2  -1 14.8571 1.18930   1 
   4   2  -1 15.5093 1.20401   1 
  -4  -2   1 14.1195 1.15884   1 
   3   2  -1 8.52038 0.81494   1 
   3   2  -1 8.36806 0.88710   3 
   3   2  -1 7.87366 0.76997   1 
  -3  -2   1 7.66718 0.79811   1 
  -3  -2   1 8.94952 0.88678   1 
   2   2  -1 1283.51 51.5420   1 
   2   2  -1 1269.26 51.5593   1 
   2   2  -1 1420.79 67.1654   3 
  -2  -2   1 1318.51 51.5493   1 
  -2  -2   1 1291.26 51.5812   1 
   1   2  -1 1181.12 47.3558   1 
   1   2  -1 1192.23 47.3442   1 
   1   2  -1 1289.58 61.7755   3 
  -1  -2   1 1174.69 47.3645   1 
  -1  -2   1 1217.32 47.3556   1 
   0   2  -1 1740.35 70.7157   1 
   0   2  -1 1933.95 92.0606   3 
   0   2  -1 1777.20 70.7138   1 
   0  -2   1 1794.17 70.7345   1 
   0  -2   1 1771.72 70.8254   1 
  -1   2  -1 658.166 33.2025   3 
   1  -2   1 639.934 25.4217   1 
  -2   2  -1 0.33746 0.13907   2 
  -2   2  -1 0.79912 0.21537   1 
  -2   2  -1 0.05583 0.28320   3 
   2  -2   1 0.14965 0.17790   1 
  -3   2  -1 406.641 16.0302   1 
  -3   2  -1 415.783 20.7554   3 
   3  -2   1 391.494 16.0598   1 
  -4   2  -1 0.94299 0.32573   3 
  -4   2  -1 0.99855 0.40773   1 
   4  -2   1 1.00801 0.51384   1 
  -5   2  -1 85.7578 4.25636   3 
  -5   2  -1 77.0551 3.62328   1 
   5  -2   1 80.7887 3.79266   1 
  -6   2  -1 68.5029 3.31905   1 
   6  -2   1 69.4045 3.53402   1 
  -7   2  -1 71.9009 3.57698   1 
   7  -2   1 71.2946 3.73799   1 
  -8   2  -1 1.19122 1.21349   1 
   8  -2   1 -0.5307 1.02548   1 
   8  -2   1 -0.2105 1.22207   1 
  -9   2  -1 1.64171 1.63632   1 
   9  -2   1 -1.0082 1.43904   1 
   9  -2   1 -2.6106 1.05868   1 
   9   1  -1 37.1677 3.73388   1 
   9   1  -1 36.5961 3.33968   1 
   8   1  -1 5.27336 1.30987   1 
   8   1  -1 4.98572 1.45392   1 
  -8  -1   1 4.68613 1.58538   1 
   7   1  -1 35.8708 2.48670   1 
   7   1  -1 38.6104 2.57192   1 
  -7  -1   1 34.9674 2.30283   1 
   6   1  -1 6.40482 1.19142   1 
   6   1  -1 4.07458 0.89452   1 
  -6  -1   1 4.14591 0.93114   1 
   5   1  -1 0.79223 0.48644   1 
   5   1  -1 1.97513 0.57071   1 
   5   1  -1 1.42868 0.37046   3 
  -5  -1   1 1.29252 0.65737   1 
   4   1  -1 8.23149 0.73008   3 
   4   1  -1 7.55379 0.79040   1 
   4   1  -1 7.63714 0.78580   1 
  -4  -1   1 6.58334 0.77413   1 
   3   1  -1 26.3850 1.47511   1 
   3   1  -1 29.6963 1.60200   3 
   3   1  -1 27.0711 1.50439   1 
  -3  -1   1 26.3209 1.46406   1 
  -3  -1   1 24.9223 1.47856   1 
   2   1  -1 446.472 17.7463   1 
   2   1  -1 465.279 22.9768   3 
   2   1  -1 450.859 17.7265   1 
  -2  -1   1 435.653 17.7106   1 
  -2  -1   1 437.152 17.7430   1 
   1   1  -1 448.888 17.5522   1 
   1   1  -1 445.827 17.5388   1 
   1   1  -1 446.220 22.8456   3 
  -1  -1   1 447.319 17.5407   1 
  -1  -1   1 444.970 17.5533   1 
   0   1  -1 0.46617 0.26885   3 
   0   1  -1 0.34110 0.12110   1 
   0  -1   1 0.36917 0.12972   1 
  -1   1  -1 41.4869 2.28771   3 
   1  -1   1 42.4609 1.81590   1 
  -2   1  -1 374.333 19.8360   3 
   2  -1   1 399.630 15.3445   1 
  -3   1  -1 16.3254 1.01721   3 
   3  -1   1 18.0740 1.15240   1 
  -4   1  -1 -0.1349 0.20305   3 
   4  -1   1 -0.6402 0.46646   1 
   5  -1   1 52.4495 2.76245   1 
   6  -1   1 2.50068 1.01091   1 
   7  -1   1 192.875 8.59476   1 
   7  -1   1 199.617 8.74780   1 
  -8   1  -1 12.0963 1.41910   1 
   8  -1   1 10.2996 2.00767   1 
   8  -1   1 10.2288 1.44429   1 
   9  -1   1 25.2815 3.07464   1 
   9  -1   1 22.7860 2.26629   1 
   9   0  -1 -0.1200 1.82309   1 
   9   0  -1 -0.0252 2.10773   1 
  -9   0   1 0.52669 1.65025   1 
   8   0  -1 5.00160 1.66547   1 
   8   0  -1 7.10745 1.30961   1 
  -8   0   1 8.34254 1.37671   1 
   7   0  -1 118.727 5.55155   1 
   7   0  -1 112.093 5.46868   1 
  -7   0   1 117.295 5.33355   1 
   6   0  -1 0.55863 0.72671   1 
   6   0  -1 1.13367 0.79386   1 
  -6   0   1 -0.3013 0.35923   1 
   5   0  -1 41.9366 2.19127   1 
   5   0  -1 38.8800 2.16810   1 
   4   0  -1 8.69795 0.84436   1 
   4   0  -1 8.54914 0.74765   1 
   3   0  -1 131.056 5.64422   1 
   3   0  -1 142.788 7.05643   3 
   2   0  -1 1344.77 51.8933   1 
   2   0  -1 1289.66 67.5858   3 
   2   0  -1 1365.56 52.1402   1 
  -2   0   1 1298.38 51.9700   1 
   1   0  -1 263.399 10.3672   1 
   1   0  -1 261.553 10.3626   1 
  -1   0   1 265.974 10.3682   1 
  -1   0  -1 683.561 26.9445   1 
   1   0   1 690.034 26.9514   1 
  -2   0  -1 58.4632 2.56838   1 
   2   0   1 57.6797 2.59001   1 
  -3   0  -1 323.612 12.9418   1 
   3   0   1 321.768 12.9836   1 
  -4   0  -1 13.6383 0.93243   3 
  -4   0  -1 17.1249 1.21720   1 
   4   0   1 14.2008 1.15988   1 
  -5   0  -1 124.715 5.38579   1 
   5   0   1 126.481 5.58383   1 
   5   0   1 117.466 5.42761   1 
  -6   0  -1 168.322 6.90198   1 
   6   0   1 144.453 6.89505   1 
   6   0   1 154.423 7.05994   1 
  -7   0  -1 3.58872 0.94836   1 
   7   0   1 2.21924 1.22675   1 
   7   0   1 3.77700 1.10941   1 
  -8   0  -1 27.7791 2.49779   1 
   8   0   1 29.5422 3.04646   1 
   8   0   1 33.7604 3.47820   1 
   9   0   1 12.1746 2.99399   1 
   9   0   1 15.7843 2.21702   1 
   9  -1  -1 -0.5949 1.62055   1 
   9  -1  -1 0.90870 1.83905   1 
  -9   1   1 0.32429 1.39688   1 
   8  -1  -1 -0.0553 0.74680   1 
   8  -1  -1 2.44115 1.37042   1 
  -8   1   1 0.47398 0.99302   1 
   7  -1  -1 326.792 13.5079   1 
   7  -1  -1 333.780 13.5568   1 
  -7   1   1 320.949 13.2933   1 
   6  -1  -1 16.1989 1.44859   1 
   6  -1  -1 15.5694 1.38191   1 
  -6   1   1 17.5388 1.32371   1 
   5  -1  -1 175.752 7.49877   1 
   5  -1  -1 180.804 7.52386   1 
  -5   1   1 186.211 7.43349   1 
   4  -1  -1 528.430 21.3097   1 
   4  -1  -1 550.157 21.3086   1 
  -4   1   1 538.220 21.2385   1 
   3  -1  -1 37.9423 1.77372   1 
  -3   1   1 41.4304 1.73854   1 
   2  -1  -1 119.881 4.52074   1 
  -2   1   1 113.757 4.49478   1 
  -2   1   1 105.811 5.92699   3 
  -1   1   1 465.807 21.5274   2 
  -1   1   1 466.087 24.0961   3 
   0  -1  -1 77.8613 3.40432   1 
   0   1   1 78.4953 3.41252   1 
   0   1   1 76.6531 4.49664   3 
  -1  -1  -1 556.317 21.6392   1 
   1   1   1 560.616 21.6486   1 
   1   1   1 533.897 28.1731   3 
  -2  -1  -1 3.91059 0.45158   1 
   2   1   1 3.11715 0.43754   1 
   2   1   1 2.79229 0.49098   3 
   2   1   1 2.76815 0.48904   1 
  -3  -1  -1 497.516 19.0585   1 
   3   1   1 431.116 24.5244   3 
   3   1   1 481.657 19.0821   1 
   3   1   1 503.495 19.1119   1 
  -4  -1  -1 305.008 12.0856   1 
   4   1   1 280.205 12.0921   1 
   4   1   1 302.536 12.1587   1 
  -5  -1  -1 42.6764 2.42156   1 
   5   1   1 45.3843 2.76583   1 
   5   1   1 46.0817 2.63752   1 
  -6  -1  -1 258.641 10.7812   1 
   6   1   1 258.440 11.0268   1 
   6   1   1 249.981 10.8450   1 
  -7  -1  -1 353.270 14.4102   1 
   7   1   1 338.553 14.5238   1 
   7   1   1 335.602 14.4746   1 
  -8  -1  -1 105.058 5.83380   1 
   8   1   1 115.971 6.39250   1 
   8   1   1 107.231 6.02878   1 
   9  -2  -1 13.4741 1.67618   1 
   9  -2  -1 11.4369 1.69834   1 
  -9   2   1 12.1068 1.51597   1 
   8  -2  -1 1.52402 0.98041   1 
   8  -2  -1 -0.4601 1.18330   1 
  -8   2   1 1.96359 0.82839   1 
   7  -2  -1 108.837 5.08688   1 
   7  -2  -1 112.934 5.03063   1 
  -7   2   1 110.023 4.79056   1 
   6  -2  -1 86.7729 3.84880   1 
   6  -2  -1 83.4843 3.88233   1 
  -6   2   1 83.4540 3.69117   1 
   5  -2  -1 139.385 5.87890   1 
  -5   2   1 142.100 5.77274   1 
   4  -2  -1 6.54629 0.58540   1 
  -4   2   1 5.58886 0.60059   3 
  -4   2   1 5.52091 0.46097   1 
   3  -2  -1 510.262 19.6711   1 
  -3   2   1 498.750 23.1122   2 
  -3   2   1 497.995 25.7420   3 
  -3   2   1 500.238 19.6036   1 
  -2   2   1 7496.92 353.784   2 
  -2   2   1 8039.39 396.118   3 
   1  -2  -1 1031.58 40.4714   1 
   1  -2  -1 1006.25 40.4856   1 
  -1   2   1 1067.42 47.0470   2 
  -1   2   1 961.756 40.3764   1 
  -1   2   1 976.549 40.3116   1 
  -1   2   1 1145.20 52.7423   3 
   0  -2  -1 9331.09 373.733   1 
   0  -2  -1 9776.19 373.925   1 
   0   2   1 9190.54 373.698   1 
   0   2   1 9999.99 488.247   3 
  -1  -2  -1 -0.4026 0.21512   1 
   1   2   1 -0.1029 0.32311   1 
   1   2   1 0.17716 0.31453   1 
   1   2   1 0.07305 0.42672   3 
  -2  -2  -1 11.0719 0.95750   1 
   2   2   1 12.3984 0.92913   1 
   2   2   1 11.8645 1.11017   3 
   2   2   1 9.49485 0.96545   1 
  -3  -2  -1 37.8871 2.00797   1 
   3   2   1 35.0074 1.94712   1 
   3   2   1 34.4017 2.31155   3 
   3   2   1 36.2189 1.96880   1 
  -4  -2  -1 21.2411 1.48081   1 
   4   2   1 17.4770 1.66612   3 
   4   2   1 21.7849 1.53416   1 
   4   2   1 21.8150 1.71267   1 
  -5  -2  -1 430.248 17.3424   1 
   5   2   1 427.250 17.4927   1 
   5   2   1 420.081 17.4241   1 
  -6  -2  -1 100.516 5.14700   1 
   6   2   1 106.360 5.22801   1 
   6   2   1 104.614 5.09730   1 
  -7  -2  -1 29.4571 2.66497   1 
   7   2   1 28.6964 2.89116   1 
   7   2   1 25.3913 2.54053   1 
   8   2   1 123.831 6.65121   1 
   8   2   1 120.973 7.03012   1 
  10  -3  -1 45.1020 4.05142   1 
 -10   3   1 41.9186 3.15949   1 
 -10   3   1 46.6304 4.09829   2 
   9  -3  -1 106.662 5.10557   1 
   9  -3  -1 99.9677 5.06274   1 
  -9   3   1 103.523 4.78934   1 
   8  -3  -1 17.7837 1.61057   1 
   8  -3  -1 15.8398 1.61365   1 
  -8   3   1 17.2915 1.42029   1 
   7  -3  -1 864.420 34.3069   1 
   7  -3  -1 858.342 34.2758   1 
  -7   3   1 875.200 34.0533   1 
   6  -3  -1 38.5323 2.05227   1 
  -6   3   1 37.1276 2.44544   2 
  -6   3   1 38.8315 1.80494   1 
   5  -3  -1 110.621 4.52447   1 
  -5   3   1 110.580 5.45709   2 
  -5   3   1 104.470 4.34555   1 
  -5   3   1 103.743 5.77699   3 
   4  -3  -1 4.10738 0.42250   1 
  -4   3   1 3.36069 0.25036   1 
  -4   3   1 3.62598 0.65381   3 
  -4   3   1 3.27092 0.66195   2 
   3  -3  -1 640.436 25.6730   1 
  -3   3   1 702.374 33.7892   3 
  -3   3   1 629.692 30.1273   2 
   2  -3  -1 1106.23 44.7009   1 
   2  -3  -1 1077.10 44.6870   1 
  -2   3   1 1261.21 58.5438   3 
  -2   3   1 1133.71 52.1814   2 
   1  -3  -1 29.9638 1.36121   1 
  -1   3   1 30.3411 1.34020   1 
  -1   3   1 28.1914 1.31588   1 
  -1   3   1 33.5771 2.05564   3 
   0  -3  -1 691.804 27.2007   1 
   0   3   1 710.036 35.6271   3 
   0   3   1 675.441 27.1915   1 
  -1  -3  -1 1142.35 44.3599   1 
  -1  -3  -1 1086.61 44.3853   1 
   1   3   1 1122.43 44.3654   1 
   1   3   1 1122.17 44.3644   1 
   1   3   1 1178.87 57.9284   3 
  -2  -3  -1 73.0974 3.26254   1 
   2   3   1 60.6472 4.07421   3 
   2   3   1 71.2613 3.23875   1 
   2   3   1 75.2315 3.25951   1 
  -3  -3  -1 33.6176 1.89802   1 
   3   3   1 32.6128 2.22880   3 
   3   3   1 31.3191 2.01978   1 
   3   3   1 31.4919 2.03153   1 
  -4  -3  -1 303.330 12.2232   1 
   4   3   1 298.330 12.2291   1 
   4   3   1 304.078 12.2928   1 
   4   3   1 271.818 15.4800   3 
  -5  -3  -1 83.6786 4.16453   1 
   5   3   1 83.3405 4.15112   1 
   5   3   1 78.5149 4.24322   1 
   5   3   1 72.3726 4.60786   3 
  -6  -3  -1 186.728 8.30320   1 
   6   3   1 176.756 8.45002   1 
   6   3   1 179.230 8.35268   1 
  -7  -3  -1 11.6865 1.85164   1 
   7   3   1 12.3521 2.07146   1 
   7   3   1 14.9110 2.45134   1 
  10  -4  -1 60.0614 4.37708   1 
 -10   4   1 67.1831 4.66964   2 
   9  -4  -1 15.9491 1.85157   1 
   9  -4  -1 13.9616 1.53703   1 
  -9   4   1 14.0533 1.43473   1 
  -9   4   1 16.4872 2.22141   2 
   8  -4  -1 7.24479 1.01494   1 
   8  -4  -1 8.36907 1.17048   1 
  -8   4   1 9.49861 1.68877   2 
  -8   4   1 7.96506 0.80940   1 
   7  -4  -1 414.185 16.6173   1 
  -7   4   1 421.392 19.4728   2 
  -7   4   1 403.136 16.2948   1 
   6  -4  -1 164.699 6.50929   1 
  -6   4   1 153.337 8.35080   3 
  -6   4   1 141.659 7.66475   2 
  -6   4   1 162.459 6.22488   1 
   5  -4  -1 0.07738 0.37562   1 
  -5   4   1 0.12133 0.61944   3 
  -5   4   1 0.31946 0.59504   2 
   4  -4  -1 474.314 18.9293   1 
  -4   4   1 471.940 22.2468   2 
  -4   4   1 500.408 24.9958   3 
   3  -4  -1 1091.32 41.6601   1 
  -3   4   1 1148.88 48.6244   2 
  -3   4   1 950.538 54.4829   3 
   2  -4  -1 268.698 10.9946   1 
   2  -4  -1 284.513 11.0016   1 
  -2   4   1 278.179 10.9385   1 
  -2   4   1 293.818 14.7199   3 
  -2   4   1 269.512 10.9337   1 
   1  -4  -1 318.775 12.6788   1 
   1  -4  -1 317.577 12.6969   1 
  -1   4   1 341.488 16.8291   3 
  -1   4   1 315.439 12.6405   1 
  -1   4   1 305.622 12.6498   1 
   0  -4  -1 3.98908 0.60105   1 
   0  -4  -1 4.42020 0.53787   1 
   0   4   1 5.22971 0.96228   3 
   0   4   1 4.86936 0.54262   1 
  -1  -4  -1 283.680 11.2752   1 
  -1  -4  -1 273.353 11.3196   1 
   1   4   1 284.710 14.7519   3 
   1   4   1 271.811 11.2558   1 
   1   4   1 275.680 11.2670   1 
  -2  -4  -1 380.192 15.2151   1 
   2   4   1 375.677 15.2251   1 
   2   4   1 377.316 19.7848   3 
   2   4   1 370.339 15.2042   1 
  -3  -4  -1 451.898 17.8475   1 
   3   4   1 437.985 17.8830   1 
   3   4   1 445.370 17.8805   1 
   3   4   1 427.371 23.0873   3 
  -4  -4  -1 82.1414 3.87771   1 
   4   4   1 72.8493 3.99499   1 
   4   4   1 73.5977 4.72394   3 
   4   4   1 75.1870 4.03086   1 
  -5  -4  -1 -0.7895 1.28381   1 
   5   4   1 0.19337 1.22795   3 
   5   4   1 2.67367 1.06761   1 
   5   4   1 2.65289 1.11928   1 
  -6  -4  -1 49.6549 3.22014   1 
   6   4   1 40.9318 3.21908   1 
   6   4   1 39.3191 3.39529   3 
   6   4   1 42.3715 3.92523   1 
  -7  -4  -1 269.565 12.0030   1 
   7   4   1 251.731 12.0435   1 
   7   4   1 262.194 12.3347   1 
  10  -5  -1 1.26250 1.67914   1 
 -10   5   1 -0.1385 1.74748   2 
 -10   5   1 0.43826 0.59181   1 
   9  -5  -1 49.9425 3.17309   1 
   9  -5  -1 48.0063 2.78360   1 
  -9   5   1 47.9842 2.17049   1 
  -9   5   1 49.3163 3.91987   2 
   8  -5  -1 27.9570 1.97461   1 
  -8   5   1 23.5900 1.14791   1 
  -8   5   1 24.2081 2.72562   2 
   7  -5  -1 0.99171 0.76883   1 
  -7   5   1 0.10617 0.95894   2 
  -7   5   1 -0.0213 0.98543   3 
   6  -5  -1 419.771 16.8779   1 
  -6   5   1 425.751 19.8092   2 
  -6   5   1 428.020 22.1641   3 
   5  -5  -1 420.948 16.9723   1 
  -5   5   1 443.406 22.4794   3 
  -5   5   1 425.752 19.9463   2 
   4  -5  -1 13.0837 0.74970   1 
  -4   5   1 12.6826 1.35262   3 
  -4   5   1 13.8865 1.19750   2 
   3  -5  -1 226.029 9.13453   1 
  -3   5   1 234.940 12.3543   3 
   2  -5  -1 44.2599 1.95296   1 
   2  -5  -1 43.7122 1.96059   1 
  -2   5   1 47.8371 3.01622   3 
  -2   5   1 41.2705 1.86904   1 
  -2   5   1 42.1637 1.87485   1 
   1  -5  -1 8.08361 0.71495   1 
   1  -5  -1 8.49104 0.79514   1 
  -1   5   1 9.75861 1.33730   3 
  -1   5   1 8.06106 0.66866   1 
   0  -5  -1 1353.46 52.1478   1 
   0  -5  -1 1315.80 52.1902   1 
   0   5   1 1303.25 52.1186   1 
   0   5   1 1344.96 68.2528   3 
  -1  -5  -1 9.92286 1.11160   1 
  -1  -5  -1 12.7928 1.22225   1 
   1   5   1 10.4138 1.37346   3 
   1   5   1 10.0106 0.98066   1 
   1   5   1 10.4825 0.96779   1 
  -2  -5  -1 1.44883 0.79794   1 
   2   5   1 0.52654 0.78541   1 
   2   5   1 1.65300 0.58228   1 
   2   5   1 0.80376 0.98040   3 
  -3  -5  -1 1.68699 0.80041   1 
   3   5   1 2.44369 1.03172   1 
   3   5   1 3.35726 1.06549   1 
   3   5   1 2.12932 0.94629   3 
  -4  -5  -1 40.9110 2.59074   1 
   4   5   1 35.7272 3.15425   3 
   4   5   1 37.9225 2.54350   1 
   4   5   1 38.3209 2.89216   1 
  -5  -5  -1 19.4994 1.94396   1 
   5   5   1 16.1587 2.09076   3 
   5   5   1 14.5395 2.21028   1 
   5   5   1 19.9413 2.19935   1 
  -6  -5  -1 1.97734 2.24203   1 
   6   5   1 0.06666 1.68137   1 
   6   5   1 1.25484 1.74813   1 
   6   5   1 3.88925 1.88233   3 
  10  -6  -1 6.68364 1.74513   1 
 -10   6   1 2.73772 1.76248   2 
   9  -6  -1 77.9622 3.79594   1 
   9  -6  -1 79.5139 4.07510   1 
   8  -6  -1 19.1899 1.62771   1 
  -8   6   1 18.5267 2.07204   2 
  -8   6   1 15.1843 1.87564   3 
   7  -6  -1 13.9714 1.21158   1 
  -7   6   1 12.6232 1.67204   3 
  -7   6   1 14.1748 1.68914   2 
   6  -6  -1 68.5481 3.06925   1 
  -6   6   1 68.6156 3.75729   2 
  -6   6   1 72.4947 4.36333   3 
   5  -6  -1 115.926 4.78748   1 
  -5   6   1 116.111 6.75334   3 
  -5   6   1 117.381 5.79008   2 
   4  -6  -1 147.364 6.10363   1 
  -4   6   1 156.210 8.53412   3 
   3  -6  -1 94.4475 3.91693   1 
   3  -6  -1 92.6356 3.92451   1 
  -3   6   1 92.1122 3.75483   1 
  -3   6   1 93.6471 3.75270   1 
  -3   6   1 97.8392 5.63347   3 
   2  -6  -1 54.8476 2.48598   1 
   2  -6  -1 52.9170 2.44654   1 
  -2   6   1 53.8178 2.36794   1 
  -2   6   1 55.7168 2.39359   1 
  -2   6   1 52.3524 3.62201   3 
   1  -6  -1 68.5299 3.18757   1 
   1  -6  -1 70.0659 3.12767   1 
  -1   6   1 66.2806 3.05426   1 
  -1   6   1 68.1722 3.06593   1 
  -1   6   1 71.2933 4.36161   3 
   0  -6  -1 337.769 13.4718   1 
   0  -6  -1 335.265 13.3953   1 
   0   6   1 317.791 13.3301   1 
   0   6   1 327.145 13.3199   1 
   0   6   1 333.351 17.6647   3 
  -1  -6  -1 125.839 5.42047   1 
  -1  -6  -1 122.822 5.52360   1 
   1   6   1 117.412 5.34540   1 
   1   6   1 118.061 5.35611   1 
   1   6   1 118.563 7.12944   3 
  -2  -6  -1 50.1021 2.97716   1 
   2   6   1 52.1276 2.95296   1 
   2   6   1 49.2633 2.76776   1 
   2   6   1 56.3851 3.96553   3 
  -3  -6  -1 435.487 17.0243   1 
   3   6   1 409.657 16.9642   1 
   3   6   1 397.330 16.9703   1 
   3   6   1 409.161 22.0721   3 
  -4  -6  -1 2.82856 1.17632   1 
   4   6   1 2.77821 1.57285   1 
   4   6   1 2.96744 1.54221   3 
   4   6   1 1.49726 1.48200   1 
  -5  -6  -1 24.0497 2.34492   1 
   5   6   1 22.4811 2.33280   1 
   5   6   1 25.0622 2.37004   1 
   5   6   1 19.8313 2.62470   3 
  10  -7  -1 12.0057 1.83227   1 
 -10   7   1 10.0962 2.13655   2 
   9  -7  -1 3.40319 1.16184   1 
  -9   7   1 1.79519 1.34740   3 
  -9   7   1 0.92132 1.51096   2 
   8  -7  -1 11.8589 1.25476   1 
  -8   7   1 11.1343 1.61766   2 
  -8   7   1 12.7101 2.03029   3 
   7  -7  -1 349.268 13.8464   1 
  -7   7   1 348.462 16.2479   2 
  -7   7   1 337.185 18.4612   3 
   6  -7  -1 17.4114 1.06872   1 
  -6   7   1 14.6901 1.90431   3 
  -6   7   1 18.4551 1.67208   2 
   5  -7  -1 766.131 30.1577   1 
  -5   7   1 771.257 39.9513   3 
   4  -7  -1 27.9505 1.40995   1 
  -4   7   1 26.7690 2.56480   3 
   3  -7  -1 0.54386 0.36491   1 
   3  -7  -1 0.16913 0.38001   1 
  -3   7   1 0.64289 0.24221   1 
  -3   7   1 0.51209 0.67119   3 
  -3   7   1 0.27935 0.25861   1 
   2  -7  -1 282.964 11.0948   1 
   2  -7  -1 272.776 11.1105   1 
  -2   7   1 269.384 14.8479   3 
  -2   7   1 272.333 10.9764   1 
  -2   7   1 270.706 10.9691   1 
   1  -7  -1 6.45361 0.85685   1 
   1  -7  -1 7.57371 0.82758   1 
  -1   7   1 5.95564 1.42167   3 
  -1   7   1 7.21731 0.82529   1 
  -1   7   1 6.91936 0.74001   1 
   0  -7  -1 253.281 9.91101   1 
   0  -7  -1 228.949 9.90573   1 
   0   7   1 232.609 13.0987   3 
   0   7   1 238.331 9.80609   1 
   0   7   1 230.693 9.78842   1 
  -1  -7  -1 119.006 5.45627   1 
  -1  -7  -1 122.295 5.33139   1 
   1   7   1 111.356 7.02773   3 
   1   7   1 119.851 5.30839   1 
   1   7   1 109.752 5.27212   1 
  -2  -7  -1 36.5920 2.77881   1 
   2   7   1 35.5765 2.64865   1 
   2   7   1 38.1829 3.18724   3 
   2   7   1 37.2641 2.60138   1 
  -3  -7  -1 73.6783 4.05310   1 
   3   7   1 72.9281 5.29328   3 
   3   7   1 76.3888 4.34817   1 
   3   7   1 74.9838 4.20528   1 
  -4  -7  -1 10.2647 2.12392   1 
   4   7   1 5.49205 1.95346   3 
   4   7   1 5.73960 1.54989   1 
   4   7   1 5.12553 1.48983   1 
  -5  -7  -1 4.32235 2.62919   1 
   5   7   1 4.02846 2.52765   1 
   5   7   1 3.21634 1.99767   3 
   5   7   1 5.05451 2.04165   1 
   9  -8  -1 7.88445 1.19517   1 
  -9   8   1 7.42344 1.84562   3 
  -9   8   1 6.37278 1.70682   2 
   8  -8  -1 12.1445 1.22992   1 
  -8   8   1 12.2314 2.06625   3 
  -8   8   1 12.7076 1.49233   2 
   7  -8  -1 37.6691 1.97269   1 
  -7   8   1 35.2393 3.45261   3 
   6  -8  -1 2.13291 0.51215   1 
  -6   8   1 1.85949 1.45021   3 
   5  -8  -1 2.21340 0.51883   1 
  -5   8   1 2.01857 1.00561   3 
   4  -8  -1 3.78307 0.54601   1 
  -4   8   1 2.97239 1.01701   3 
   3  -8  -1 1.58247 0.56510   1 
   3  -8  -1 0.83345 0.47184   1 
  -3   8   1 0.78736 0.42189   1 
  -3   8   1 0.31371 1.06774   3 
  -3   8   1 0.79369 0.29579   1 
   2  -8  -1 26.4827 1.52254   1 
   2  -8  -1 25.3459 1.74542   1 
  -2   8   1 25.1894 1.49259   1 
  -2   8   1 24.0276 1.46760   1 
  -2   8   1 24.0169 2.41254   3 
   1  -8  -1 3.02172 0.78894   1 
   1  -8  -1 1.38137 0.60654   1 
  -1   8   1 3.21445 1.38730   3 
  -1   8   1 2.04730 0.73778   1 
  -1   8   1 0.87959 0.56388   1 
   0  -8  -1 19.5133 1.77690   1 
   0  -8  -1 21.9137 1.86747   1 
   0   8   1 22.6216 1.78640   1 
   0   8   1 19.7593 2.62186   3 
   0   8   1 20.6873 1.61668   1 
  -1  -8  -1 0.77595 0.86097   1 
  -1  -8  -1 4.37926 1.41803   1 
   1   8   1 1.94831 0.99655   1 
   1   8   1 4.26128 1.32470   3 
  -2  -8  -1 273.789 11.6165   1 
   2   8   1 261.123 11.4865   1 
   2   8   1 278.801 11.5271   1 
   2   8   1 260.592 15.0245   3 
  -3  -8  -1 47.1780 3.42310   1 
   3   8   1 46.2899 4.43003   3 
   3   8   1 52.0027 3.33312   1 
   3   8   1 50.0186 3.60019   1 
  -4  -8  -1 64.2038 5.12270   1 
   4   8   1 54.8204 4.50167   3 
   4   8   1 57.7260 4.03370   1 
   9  -9  -1 6.96684 1.25807   1 
  -9   9   1 6.74419 2.02183   3 
   8  -9  -1 8.05434 0.97843   1 
  -8   9   1 7.98900 2.06412   3 
   7  -9  -1 41.8388 2.15855   1 
  -7   9   1 42.3212 3.92724   3 
   6  -9  -1 6.98820 0.78079   1 
  -6   9   1 7.91523 1.86619   3 
   5  -9  -1 14.8758 1.16240   1 
  -5   9   1 15.3415 2.08181   3 
   4  -9  -1 1.42824 0.62131   1 
  -4   9   1 0.80494 1.35162   3 
   3  -9  -1 70.3282 3.36052   1 
   3  -9  -1 70.4802 3.28788   1 
  -3   9   1 70.0456 3.09267   1 
  -3   9   1 67.4550 4.99266   3 
  -3   9   1 65.4361 2.99917   1 
   2  -9  -1 28.1672 2.11743   1 
   2  -9  -1 30.3648 1.95963   1 
  -2   9   1 31.8012 3.21436   3 
  -2   9   1 28.4942 1.79350   1 
  -2   9   1 27.9007 1.66476   1 
   1  -9  -1 1.17180 0.62251   1 
   1  -9  -1 -0.5349 0.97797   1 
  -1   9   1 0.40765 0.78342   1 
  -1   9   1 1.14773 1.35483   3 
  -1   9   1 -1.4210 0.58968   1 
   0  -9  -1 66.0979 3.75984   1 
   0  -9  -1 72.9488 3.84261   1 
   0   9   1 68.4080 5.16941   3 
   0   9   1 64.7914 3.40134   1 
   0   9   1 72.4447 3.68519   1 
  -1  -9  -1 10.9816 1.83366   1 
  -1  -9  -1 15.3671 1.96629   1 
   1   9   1 10.7827 1.43551   1 
   1   9   1 11.1764 2.06904   3 
  -2  -9  -1 7.11015 2.02898   1 
   2   9   1 10.9468 2.35141   3 
   2   9   1 6.57329 1.47817   1 
   2   9   1 8.83057 1.74450   1 
  -3  -9  -1 27.5466 3.10779   1 
   3   9   1 18.6614 2.71179   3 
   3   9   1 18.1375 2.61318   1 
   8 -10  -1 10.1593 1.05411   1 
  -8  10   1 12.1209 2.52825   3 
   7 -10  -1 3.66686 0.81841   1 
  -7  10   1 4.55739 2.04969   3 
   6 -10  -1 16.3185 1.48305   1 
  -6  10   1 15.8076 2.53253   3 
   5 -10  -1 8.73618 0.95967   1 
  -5  10   1 6.34304 1.89388   3 
   4 -10  -1 1.54872 0.97601   1 
  -4  10   1 0.02783 1.49036   3 
   3 -10  -1 1.92586 0.95796   1 
   3 -10  -1 0.64506 0.77706   1 
  -3  10   1 3.29073 0.79037   1 
  -3  10   1 1.43619 1.20212   3 
  -3  10   1 2.03229 0.63140   1 
   2 -10  -1 2.40941 1.18072   1 
   2 -10  -1 3.02895 1.02981   1 
  -2  10   1 4.32498 0.92624   1 
  -2  10   1 3.85952 1.60607   3 
  -2  10   1 2.16129 0.68457   1 
   1 -10  -1 3.65765 1.39428   1 
   1 -10  -1 3.38190 1.19723   1 
  -1  10   1 2.10403 1.13967   1 
  -1  10   1 4.25937 1.75314   3 
  -1  10   1 1.37220 0.82028   1 
   0 -10  -1 1.02438 1.66047   1 
   0 -10  -1 2.34947 1.53504   1 
   0  10   1 0.43360 1.02762   1 
   0  10   1 0.23733 1.74654   3 
   0  10   1 0.85771 1.33477   1 
  -1 -10  -1 2.34807 1.97305   1 
   1  10   1 -0.2440 1.03028   1 
   1  10   1 -0.5218 1.23721   3 
   1  10   1 -0.4255 1.15204   1 
   7 -11  -1 70.1147 3.44152   1 
  -7  11   1 71.4250 5.72386   3 
   6 -11  -1 21.8141 1.74199   1 
  -6  11   1 22.2612 3.01912   3 
   5 -11  -1 46.0480 2.73254   1 
  -5  11   1 49.4095 4.43492   3 
   4 -11  -1 11.0322 1.39429   1 
  -4  11   1 11.2498 1.97304   3 
   3 -11  -1 94.5408 4.64234   1 
   3 -11  -1 91.2323 4.41521   1 
  -3  11   1 89.1372 6.27605   3 
  -3  11   1 86.9177 4.11677   1 
   2 -11  -1 60.1149 3.48987   1 
   2 -11  -1 62.7165 3.59736   1 
  -2  11   1 62.0519 3.40716   1 
  -2  11   1 56.6684 3.05869   1 
  -2  11   1 64.0421 5.35756   3 
   1 -11  -1 0.14935 1.78613   1 
   1 -11  -1 3.65131 1.63623   1 
  -1  11   1 4.40299 2.13023   3 
  -1  11   1 3.18003 1.48080   1 
  -1  11   1 2.92680 1.11678   1 
   0 -11  -1 13.8238 2.56269   1 
   0 -11  -1 17.5654 2.04393   1 
   0  11   1 18.0210 1.90462   1 
   0  11   1 18.3633 3.27319   3 
   6 -12  -1 16.2925 1.56068   1 
  -6  12   1 14.4196 2.65402   3 
   5 -12  -1 108.283 5.51147   1 
  -5  12   1 114.618 7.94614   3 
   4 -12  -1 7.33402 1.59266   1 
  -4  12   1 7.44705 2.00948   3 
   3 -12  -1 2.06803 1.70089   1 
  -3  12   1 5.00844 1.19669   1 
  -3  12   1 1.87567 2.42058   3 
  -3  12   1 2.03919 0.91118   1 
  -1  12  -2 38.1272 3.13046   1 
  -1  12  -2 44.9427 4.23788   3 
  -2  12  -2 5.55391 1.74153   1 
  -2  12  -2 5.47519 1.12337   1 
  -2  12  -2 4.42539 2.42051   3 
   2 -12   2 4.63561 1.94222   1 
  -3  12  -2 3.15174 0.89257   1 
  -3  12  -2 2.36584 1.75499   1 
  -3  12  -2 3.14817 1.72839   3 
   3 -12   2 4.62445 1.74838   1 
  -4  12  -2 -2.5440 1.41637   1 
  -4  12  -2 -1.3491 0.72483   1 
  -4  12  -2 0.06016 1.35274   3 
   4 -12   2 0.16061 1.53366   1 
  -5  12  -2 1.51950 2.10538   3 
  -5  12  -2 -0.0083 1.18798   1 
  -5  12  -2 1.48129 0.69744   1 
   5 -12   2 -0.4429 1.53821   1 
  -6  12  -2 4.61072 1.66754   3 
   6 -12   2 6.31427 1.67424   1 
   1  11  -2 65.4619 4.30033   1 
   1  11  -2 69.5061 5.76473   3 
  -1 -11   2 68.5486 5.38329   1 
  -1 -11   2 66.0094 4.41823   1 
   0  11  -2 0.29785 1.37758   1 
   0  11  -2 0.28188 1.60569   1 
   0  11  -2 -1.6164 1.71657   3 
   0 -11   2 -0.6693 1.48308   1 
  -1  11  -2 27.1878 2.64596   1 
  -1  11  -2 26.1700 3.40184   3 
  -1  11  -2 26.8239 2.12850   1 
   1 -11   2 25.9136 2.56214   1 
  -2  11  -2 35.3361 2.12189   1 
  -2  11  -2 32.1604 3.63524   3 
  -2  11  -2 33.6256 2.68995   1 
   2 -11   2 30.1931 2.91683   1 
  -3  11  -2 16.2291 2.55633   3 
  -3  11  -2 18.5807 1.54077   1 
  -3  11  -2 21.7850 2.05749   1 
   3 -11   2 23.7595 2.39449   1 
  -4  11  -2 71.3756 5.27086   3 
  -4  11  -2 64.2644 3.26076   1 
   4 -11   2 72.4690 3.87403   1 
  -5  11  -2 7.97011 1.17271   1 
  -5  11  -2 7.98951 0.83828   1 
  -5  11  -2 8.53826 1.77618   3 
   5 -11   2 7.82806 1.45639   1 
  -6  11  -2 45.9618 4.27330   3 
  -6  11  -2 44.4701 2.07306   1 
   6 -11   2 51.8637 3.09611   1 
  -7  11  -2 100.818 6.78766   3 
   7 -11   2 107.316 5.18462   1 
   2  10  -2 37.6075 3.52743   1 
   2  10  -2 44.1338 4.40248   3 
  -2 -10   2 45.1349 3.71273   1 
  -2 -10   2 41.7213 4.34647   1 
   1  10  -2 58.4465 3.82544   1 
   1  10  -2 56.0226 3.55373   1 
   1  10  -2 55.9896 4.48223   3 
  -1 -10   2 59.5723 3.76125   1 
  -1 -10   2 54.1571 4.05831   1 
   0  10  -2 96.6443 6.32661   3 
   0  10  -2 87.8588 4.36104   1 
   0 -10   2 93.0828 4.96372   1 
   0 -10   2 88.9197 4.76546   1 
  -1  10  -2 -0.9717 1.27011   3 
  -1  10  -2 -0.0562 0.81759   1 
  -1  10  -2 0.44002 1.13232   1 
   1 -10   2 -1.7368 1.14231   1 
  -2  10  -2 0.34632 1.07960   3 
  -2  10  -2 0.66563 0.97399   1 
  -2  10  -2 0.54511 0.67773   1 
   2 -10   2 -0.1137 0.73184   1 
  -3  10  -2 39.0503 2.12874   1 
  -3  10  -2 39.9829 2.45607   1 
  -3  10  -2 42.2120 3.68479   3 
   3 -10   2 38.6827 2.62875   1 
  -4  10  -2 35.5173 2.29102   1 
  -4  10  -2 34.9780 3.20589   3 
  -4  10  -2 40.2653 1.98666   1 
   4 -10   2 38.7389 2.51476   1 
  -5  10  -2 239.883 10.2383   1 
  -5  10  -2 256.187 10.4078   1 
  -5  10  -2 261.274 14.3229   3 
   5 -10   2 261.368 10.6584   1 
  -6  10  -2 22.1860 1.42916   1 
  -6  10  -2 24.3017 2.95397   3 
   6 -10   2 22.2231 2.13137   1 
  -7  10  -2 5.05755 1.45438   3 
   7 -10   2 3.26455 1.32378   1 
  -8  10  -2 15.9825 2.69489   3 
   8 -10   2 15.4110 1.87875   1 
   3   9  -2 0.39182 1.35448   3 
   3   9  -2 4.40512 1.98440   1 
   3   9  -2 -0.3209 1.61365   1 
  -3  -9   2 0.36982 1.54853   1 
  -3  -9   2 1.62368 2.33478   1 
   2   9  -2 140.641 6.87178   1 
   2   9  -2 145.823 7.03858   1 
   2   9  -2 151.199 8.89544   3 
  -2  -9   2 141.811 7.28912   1 
  -2  -9   2 154.117 7.25350   1 
   1   9  -2 57.5005 3.35694   1 
   1   9  -2 63.6955 4.47690   3 
   1   9  -2 59.3225 3.34700   1 
  -1  -9   2 61.6346 3.79919   1 
  -1  -9   2 58.9501 3.89759   1 
   0   9  -2 2.20680 0.95106   1 
   0   9  -2 1.32103 1.44370   3 
   0  -9   2 5.18718 1.28837   1 
   0  -9   2 2.73498 0.98333   1 
  -1   9  -2 1.73566 0.98202   1 
  -1   9  -2 1.40517 0.72301   1 
  -1   9  -2 4.48089 1.39995   3 
   1  -9   2 1.07239 0.97722   1 
  -2   9  -2 96.3193 4.40614   1 
  -2   9  -2 100.326 6.20824   3 
  -2   9  -2 92.9982 4.55763   1 
   2  -9   2 106.920 4.64664   1 
  -3   9  -2 0.92032 0.72216   1 
  -3   9  -2 1.30808 0.54905   1 
  -3   9  -2 1.77322 1.04931   3 
   3  -9   2 1.21004 0.86623   1 
  -4   9  -2 1.46213 0.49218   1 
  -4   9  -2 1.79811 0.74116   1 
  -4   9  -2 2.13884 1.07239   3 
   4  -9   2 1.90098 0.61794   1 
  -5   9  -2 58.8446 2.94214   1 
  -5   9  -2 65.7326 4.37205   3 
  -5   9  -2 59.6004 2.78313   1 
   5  -9   2 67.0508 3.26514   1 
  -6   9  -2 1.28209 0.57617   1 
  -6   9  -2 0.72406 0.47620   1 
  -6   9  -2 -0.7239 1.27497   3 
   6  -9   2 0.44640 0.92765   1 
  -7   9  -2 1.01624 1.44005   3 
  -7   9  -2 -0.1686 0.56567   1 
  -7   9  -2 -0.6511 0.44454   1 
   7  -9   2 1.32941 1.10509   1 
  -8   9  -2 3.69823 0.42863   1 
  -8   9  -2 8.34450 2.03479   3 
   8  -9   2 4.70459 1.48828   1 
   4   8  -2 12.7964 2.31696   3 
   4   8  -2 9.03828 1.98386   1 
   4   8  -2 9.70956 2.26947   1 
  -4  -8   2 9.02851 2.37539   1 
  -4  -8   2 9.22183 2.54476   1 
   3   8  -2 18.2127 2.56196   3 
   3   8  -2 22.6394 2.31281   1 
   3   8  -2 19.1626 1.99389   1 
  -3  -8   2 15.8593 2.31149   1 
  -3  -8   2 23.8416 2.40535   1 
   2   8  -2 9.73305 1.17898   1 
   2   8  -2 9.54942 1.64247   3 
   2   8  -2 10.0727 1.53173   1 
  -2  -8   2 8.63084 1.66123   1 
  -2  -8   2 10.9144 1.71845   1 
   1   8  -2 126.965 5.80766   1 
   1   8  -2 129.655 7.69871   3 
   1   8  -2 122.719 5.85060   1 
  -1  -8   2 139.691 5.99362   1 
  -1  -8   2 127.065 6.10394   1 
   0   8  -2 40.9349 2.42158   1 
   0   8  -2 43.4182 2.55689   1 
   0   8  -2 44.3983 3.50978   3 
   0  -8   2 42.0863 2.48705   1 
   0  -8   2 45.7346 2.52807   1 
  -1   8  -2 2.03641 0.62668   1 
  -1   8  -2 -0.0060 1.03914   3 
  -1   8  -2 1.35861 0.74390   1 
   1  -8   2 0.09732 0.83820   1 
  -2   8  -2 214.978 9.05129   1 
  -2   8  -2 218.312 12.0512   3 
  -2   8  -2 221.730 8.97324   1 
   2  -8   2 215.951 9.10553   1 
  -3   8  -2 2.76603 0.56122   1 
  -3   8  -2 3.69571 0.74454   1 
  -3   8  -2 2.49001 0.92934   3 
   3  -8   2 3.01313 0.71353   1 
  -4   8  -2 46.9184 2.24523   1 
  -4   8  -2 48.2438 2.51448   1 
  -4   8  -2 46.7200 3.59006   3 
   4  -8   2 48.7888 2.53483   1 
  -5   8  -2 73.7665 4.83369   3 
  -5   8  -2 71.9227 3.32969   1 
  -5   8  -2 66.8124 3.14626   1 
   5  -8   2 76.6304 3.48555   1 
  -6   8  -2 119.559 5.20355   1 
  -6   8  -2 127.037 7.25021   3 
   6  -8   2 122.773 5.51463   1 
  -7   8  -2 7.54734 0.78099   1 
  -7   8  -2 9.24889 1.70658   3 
  -7   8  -2 8.72064 0.91100   1 
   7  -8   2 7.65521 1.31757   1 
  -8   8  -2 7.78769 0.87404   1 
  -8   8  -2 7.81948 0.88018   1 
  -8   8  -2 11.5109 1.91889   3 
   8  -8   2 10.0791 1.59111   1 
  -9   8  -2 6.89424 0.90379   1 
  -9   8  -2 12.3978 2.05102   3 
  -9   8  -2 7.11044 0.96738   1 
   9  -8   2 11.3871 2.03641   1 
   5   7  -2 37.1069 3.28284   3 
   5   7  -2 39.5740 3.23916   1 
   5   7  -2 36.7760 3.08296   1 
  -5  -7   2 44.1097 4.30113   1 
   4   7  -2 11.9185 1.53195   1 
   4   7  -2 13.3984 2.04741   1 
   4   7  -2 13.2065 2.16118   3 
  -4  -7   2 14.2191 1.84678   1 
  -4  -7   2 12.0827 2.11088   1 
   3   7  -2 89.2801 5.73834   3 
   3   7  -2 88.2566 4.50621   1 
   3   7  -2 87.0496 4.42702   1 
  -3  -7   2 88.7762 4.86491   1 
  -3  -7   2 87.4690 4.50428   1 
   2   7  -2 339.086 14.2675   1 
   2   7  -2 341.623 14.2859   1 
   2   7  -2 356.080 18.6445   3 
  -2  -7   2 337.243 14.3935   1 
  -2  -7   2 360.765 14.3945   1 
   1   7  -2 53.3468 3.61234   3 
   1   7  -2 53.7483 2.83942   1 
   1   7  -2 47.7517 2.84528   1 
  -1  -7   2 52.2293 2.85596   1 
  -1  -7   2 52.7561 2.97774   1 
   0   7  -2 2.44913 1.13897   3 
   0   7  -2 3.42504 0.73420   1 
   0   7  -2 2.54110 0.78107   1 
   0  -7   2 3.48990 0.83158   1 
   0  -7   2 2.41898 0.81494   1 
  -1   7  -2 53.4535 2.60823   1 
  -1   7  -2 56.2833 3.70823   3 
   1  -7   2 50.2398 2.71589   1 
  -2   7  -2 41.4481 2.20011   1 
  -2   7  -2 41.3408 2.08343   1 
  -2   7  -2 43.1318 3.01442   3 
   2  -7   2 41.6609 2.15132   1 
  -3   7  -2 139.707 6.01524   1 
  -3   7  -2 148.227 8.05856   3 
  -3   7  -2 139.007 5.91952   1 
   3  -7   2 141.978 6.04119   1 
  -4   7  -2 41.4236 2.96671   3 
  -4   7  -2 35.3600 1.84894   1 
  -4   7  -2 38.5200 2.03820   1 
   4  -7   2 37.9089 2.05225   1 
  -5   7  -2 5.30577 0.72900   1 
  -5   7  -2 5.18035 0.61557   1 
  -5   7  -2 5.53660 1.05294   3 
   5  -7   2 5.87370 0.89700   1 
  -6   7  -2 39.9791 2.17141   1 
  -6   7  -2 39.5585 2.93229   3 
   6  -7   2 41.5618 2.41104   1 
  -7   7  -2 15.3165 2.07611   3 
  -7   7  -2 11.3664 1.19968   1 
   7  -7   2 12.8057 1.44648   1 
  -8   7  -2 0.02579 1.23567   3 
  -8   7  -2 1.34855 0.86075   1 
   8  -7   2 -0.1496 0.88673   1 
  -9   7  -2 2.68876 1.07783   1 
   9  -7   2 2.16882 1.81658   1 
   6   6  -2 5.39488 2.12821   1 
   6   6  -2 7.54798 1.92487   3 
   6   6  -2 8.88114 1.74582   1 
  -6  -6   2 8.97982 1.89939   1 
   5   6  -2 6.21170 1.34227   1 
   5   6  -2 5.92021 1.70794   1 
   5   6  -2 5.20831 1.59618   3 
  -5  -6   2 6.23695 1.85899   1 
   4   6  -2 70.9512 4.07830   1 
   4   6  -2 69.0956 3.85180   1 
   4   6  -2 81.1058 4.98050   3 
  -4  -6   2 73.8381 4.08099   1 
  -4  -6   2 76.6974 4.27108   1 
   3   6  -2 10.9062 1.24321   1 
   3   6  -2 10.9280 1.41850   1 
   3   6  -2 14.1786 1.85371   3 
  -3  -6   2 13.1383 1.33876   1 
  -3  -6   2 13.7187 1.67579   1 
   2   6  -2 17.1904 1.58182   1 
   2   6  -2 14.4986 1.97340   3 
   2   6  -2 16.0019 1.63263   1 
  -2  -6   2 17.1286 1.53036   1 
  -2  -6   2 16.1134 1.48575   1 
   1   6  -2 228.858 9.79227   1 
   1   6  -2 239.649 12.8447   3 
   1   6  -2 237.697 9.83344   1 
  -1  -6   2 241.175 9.91011   1 
  -1  -6   2 237.826 9.86247   1 
   0   6  -2 24.0848 1.53903   1 
   0   6  -2 23.3098 1.92676   3 
   0   6  -2 25.6944 1.59907   1 
   0  -6   2 24.9462 1.51182   1 
   0  -6   2 23.1231 1.48528   1 
  -1   6  -2 330.364 17.1694   3 
  -1   6  -2 318.171 13.0056   1 
   1  -6   2 321.902 13.0686   1 
  -2   6  -2 213.307 11.3305   3 
  -2   6  -2 203.913 8.49635   1 
  -2   6  -2 208.664 8.57005   1 
   2  -6   2 209.854 8.56707   1 
  -3   6  -2 73.4548 3.20855   1 
  -3   6  -2 68.9963 3.28661   1 
  -3   6  -2 74.8105 4.46717   3 
   3  -6   2 74.0876 3.29835   1 
  -4   6  -2 8.76010 1.25667   3 
  -4   6  -2 7.93614 0.82660   1 
   4  -6   2 7.34929 0.83843   1 
  -5   6  -2 143.239 7.52151   3 
  -5   6  -2 129.278 5.63724   1 
   5  -6   2 126.766 5.74755   1 
  -6   6  -2 3.32666 0.67225   1 
  -6   6  -2 3.09158 0.85543   3 
   6  -6   2 1.46589 0.81422   1 
  -7   6  -2 3.85152 1.34091   3 
  -7   6  -2 4.18586 0.84085   1 
   7  -6   2 3.89318 1.10473   1 
  -8   6  -2 6.49681 1.15367   1 
  -8   6  -2 7.18592 1.45830   3 
   8  -6   2 3.77443 1.42098   1 
  -9   6  -2 79.9516 3.93542   1 
   9  -6   2 80.0438 4.82267   1 
   7   5  -2 3.98097 2.49172   1 
   7   5  -2 -0.8577 1.62465   3 
   7   5  -2 2.13295 1.61681   1 
  -7  -5   2 0.17847 1.72692   1 
   6   5  -2 2.11374 1.72026   1 
   6   5  -2 0.05609 1.60971   1 
   6   5  -2 0.83392 1.34697   3 
  -6  -5   2 -0.2418 1.26376   1 
   5   5  -2 46.9921 3.27748   3 
   5   5  -2 44.7882 3.30541   1 
   5   5  -2 44.6565 2.92466   1 
  -5  -5   2 49.1625 3.29996   1 
   4   5  -2 201.196 8.82041   1 
   4   5  -2 199.399 8.85869   1 
   4   5  -2 214.532 11.2068   3 
  -4  -5   2 207.860 8.88805   1 
  -4  -5   2 194.600 8.86137   1 
   3   5  -2 84.1344 4.04431   1 
   3   5  -2 84.1372 4.10315   1 
   3   5  -2 88.4665 5.08114   3 
  -3  -5   2 84.6636 4.11580   1 
  -3  -5   2 83.9438 4.06483   1 
   2   5  -2 3.14794 0.70116   1 
   2   5  -2 3.36120 0.81921   3 
   2   5  -2 4.27298 0.70846   1 
  -2  -5   2 2.72934 0.81756   1 
  -2  -5   2 3.65788 0.81404   1 
   1   5  -2 69.2365 3.28397   1 
   1   5  -2 72.5011 4.24360   3 
   1   5  -2 68.9736 3.25482   1 
  -1  -5   2 68.0837 3.33609   1 
  -1  -5   2 76.0881 3.38693   1 
   0   5  -2 84.1052 4.79320   3 
   0   5  -2 84.0358 3.64298   1 
   0   5  -2 81.7100 3.66559   1 
   0  -5   2 80.4901 3.67702   1 
   0  -5   2 81.4379 3.68106   1 
  -1   5  -2 202.591 8.45714   1 
  -1   5  -2 212.494 11.1680   3 
   1  -5   2 208.333 8.49071   1 
  -2   5  -2 139.875 7.51752   3 
  -2   5  -2 132.057 5.68674   1 
  -2   5  -2 140.262 5.65430   1 
   2  -5   2 133.115 5.66318   1 
  -3   5  -2 61.8194 3.47466   3 
  -3   5  -2 54.4054 2.62214   1 
   3  -5   2 54.1588 2.59211   1 
  -4   5  -2 13.7658 1.47659   3 
  -4   5  -2 14.0913 1.06463   1 
   4  -5   2 13.2482 1.13753   1 
  -5   5  -2 0.60759 0.54294   1 
  -5   5  -2 0.62667 0.77466   3 
   5  -5   2 1.32421 0.51079   1 
  -6   5  -2 0.96441 0.61424   1 
  -6   5  -2 3.08903 0.89338   3 
   6  -5   2 3.22002 0.90404   1 
  -7   5  -2 130.430 6.33674   2 
  -7   5  -2 139.504 5.81201   1 
   7  -5   2 127.980 5.97363   1 
  -8   5  -2 3.42184 1.11111   2 
  -8   5  -2 3.02178 1.06905   1 
   8  -5   2 1.64495 1.37509   1 
  -9   5  -2 3.80178 1.31887   1 
   9  -5   2 2.13132 1.41350   1 
   7   4  -2 4.59948 1.34551   3 
   7   4  -2 6.46797 1.53071   1 
   7   4  -2 7.59380 1.60134   1 
  -7  -4   2 5.29328 1.47894   1 
   6   4  -2 17.8760 2.04312   1 
   6   4  -2 16.8744 1.97936   1 
   6   4  -2 17.0626 1.99680   3 
  -6  -4   2 19.2505 2.07491   1 
   5   4  -2 10.9715 1.28239   1 
   5   4  -2 12.0233 1.47507   3 
   5   4  -2 9.08999 1.23508   1 
  -5  -4   2 10.5875 1.29165   1 
   4   4  -2 0.21519 0.81082   3 
   4   4  -2 1.05782 0.60267   1 
   4   4  -2 0.56796 0.87378   1 
  -4  -4   2 -0.7179 0.56433   1 
  -4  -4   2 0.47892 0.95280   1 
   3   4  -2 28.3321 1.77544   1 
   3   4  -2 32.2224 1.85465   1 
   3   4  -2 33.6702 2.31758   3 
  -3  -4   2 30.3428 2.00828   1 
  -3  -4   2 28.2060 1.93893   1 
   2   4  -2 152.155 6.49409   1 
   2   4  -2 160.256 8.36413   3 
   2   4  -2 148.545 6.48814   1 
  -2  -4   2 155.185 6.56761   1 
  -2  -4   2 152.641 6.50031   1 
   1   4  -2 368.674 15.1812   1 
   1   4  -2 400.012 19.8117   3 
   1   4  -2 370.405 15.1572   1 
  -1  -4   2 380.848 15.2166   1 
  -1  -4   2 377.928 15.1966   1 
   0   4  -2 374.998 18.7434   3 
   0   4  -2 350.113 14.3170   1 
   0   4  -2 357.208 14.3106   1 
   0  -4   2 351.813 14.3189   1 
  -1   4  -2 476.336 24.2057   3 
  -1   4  -2 458.248 18.4817   1 
   1  -4   2 467.630 18.5015   1 
  -2   4  -2 258.633 11.0017   1 
  -2   4  -2 277.128 14.3912   3 
   2  -4   2 287.438 11.0274   1 
  -3   4  -2 731.854 29.4236   1 
  -3   4  -2 787.624 38.4057   3 
   3  -4   2 721.945 29.4328   1 
  -4   4  -2 3.75315 0.60559   1 
  -4   4  -2 3.89056 0.77312   3 
   4  -4   2 4.73388 0.68364   1 
  -5   4  -2 435.144 17.3589   1 
  -5   4  -2 462.967 22.4738   3 
  -5   4  -2 428.645 19.8610   2 
   5  -4   2 408.009 17.4385   1 
  -6   4  -2 33.0694 1.99745   1 
  -6   4  -2 34.4154 2.12476   2 
  -6   4  -2 35.7803 2.27072   3 
   6  -4   2 34.0453 2.26034   1 
  -7   4  -2 41.5463 2.53593   3 
  -7   4  -2 39.2067 2.37503   1 
   7  -4   2 41.0732 2.73531   1 
   8  -4   2 5.86322 1.25833   1 
  -9   4  -2 13.3756 1.91981   2 
  -9   4  -2 11.5554 1.74568   1 
   9  -4   2 14.2728 2.34757   1 
   8   3  -2 5.69501 2.21217   1 
   8   3  -2 5.86057 2.37966   1 
  -8  -3   2 2.14163 2.00683   1 
   7   3  -2 3.25962 1.14984   1 
   7   3  -2 2.99543 1.65353   1 
  -7  -3   2 4.07398 1.64982   1 
   6   3  -2 4.74584 1.07326   1 
   6   3  -2 6.35536 1.07298   1 
   6   3  -2 5.74812 0.99141   3 
  -6  -3   2 6.65776 1.36951   1 
   5   3  -2 14.8256 1.56144   3 
   5   3  -2 16.2033 1.56734   1 
   5   3  -2 19.3807 1.53939   1 
  -5  -3   2 16.7972 1.57033   1 
   4   3  -2 95.4068 4.33503   1 
   4   3  -2 95.1275 4.31786   1 
   4   3  -2 88.5559 5.26950   3 
  -4  -3   2 96.5318 4.39048   1 
  -4  -3   2 97.7236 4.38648   1 
   3   3  -2 40.0903 2.45878   3 
   3   3  -2 39.3188 2.16257   1 
   3   3  -2 38.9043 2.11279   1 
  -3  -3   2 39.5197 2.13494   1 
  -3  -3   2 38.9782 2.16874   1 
   2   3  -2 444.395 22.6659   3 
   2   3  -2 434.276 17.4463   1 
   2   3  -2 441.907 17.4751   1 
  -2  -3   2 434.828 17.4684   1 
  -2  -3   2 434.602 17.4970   1 
   1   3  -2 248.283 12.5241   3 
   1   3  -2 233.044 9.60487   1 
   1   3  -2 237.705 9.62194   1 
  -1  -3   2 236.536 9.62414   1 
  -1  -3   2 236.487 9.62360   1 
   0   3  -2 2.01579 0.33203   1 
   0   3  -2 1.67739 0.56923   3 
   0   3  -2 3.25996 0.44797   1 
   0  -3   2 2.73352 0.41789   1 
  -1   3  -2 588.141 23.7901   1 
  -1   3  -2 628.857 31.0733   3 
   1  -3   2 595.947 23.7721   1 
  -2   3  -2 778.510 39.0803   3 
   2  -3   2 746.189 29.9608   1 
  -3   3  -2 2321.14 93.2761   1 
  -3   3  -2 2695.32 121.835   3 
   3  -3   2 2149.96 93.2610   1 
  -4   3  -2 6.67583 0.86614   3 
  -4   3  -2 8.39231 0.88708   1 
   4  -3   2 6.71692 0.77688   1 
  -5   3  -2 24.0088 1.57701   1 
  -5   3  -2 25.7664 1.62069   3 
   5  -3   2 21.0806 1.55440   1 
  -6   3  -2 15.3554 1.42901   1 
  -6   3  -2 14.0966 1.26131   3 
   6  -3   2 11.0795 1.41632   1 
  -7   3  -2 1.75382 0.66971   1 
   7  -3   2 1.08016 1.27392   1 
  -8   3  -2 3.84165 1.27274   1 
   8  -3   2 5.30905 1.79652   1 
  -9   3  -2 -0.3043 1.51680   1 
   9  -3   2 -0.6414 1.68114   1 
   9  -3   2 2.55599 1.60743   1 
   8   2  -2 67.5826 3.95950   1 
   8   2  -2 64.1741 4.07850   1 
  -8  -2   2 71.4029 4.24297   1 
   7   2  -2 6.98079 1.46162   1 
   7   2  -2 8.51311 1.57591   1 
  -7  -2   2 8.86212 1.51119   1 
   6   2  -2 59.8003 3.40706   3 
   6   2  -2 57.2286 3.14226   1 
   6   2  -2 61.8919 3.19489   1 
  -6  -2   2 55.1738 3.04401   1 
   5   2  -2 11.9471 1.16023   1 
   5   2  -2 12.2201 1.22850   3 
   5   2  -2 9.76670 1.13962   1 
  -5  -2   2 10.1604 1.15971   1 
   4   2  -2 1462.08 67.7010   3 
   4   2  -2 1315.39 52.1101   1 
   4   2  -2 1280.88 52.1181   1 
  -4  -2   2 1264.57 52.1370   1 
  -4  -2   2 1304.86 52.0769   1 
   3   2  -2 2.13875 0.43171   1 
   3   2  -2 2.63117 0.53118   3 
   3   2  -2 1.35716 0.42426   1 
  -3  -2   2 1.63418 0.53814   1 
  -3  -2   2 0.56223 0.48796   1 
   2   2  -2 116.144 6.14303   3 
   2   2  -2 114.514 4.79342   1 
   2   2  -2 113.109 4.79622   1 
  -2  -2   2 115.797 4.81276   1 
  -2  -2   2 112.630 4.79390   1 
   1   2  -2 917.763 35.9016   1 
   1   2  -2 914.888 35.8962   1 
   1   2  -2 935.346 46.8475   3 
  -1  -2   2 897.799 35.8947   1 
  -1  -2   2 915.390 35.9048   1 
   0   2  -2 209.572 10.9438   3 
   0   2  -2 205.654 8.37008   1 
   0  -2   2 211.470 8.37235   1 
  -1   2  -2 36.4216 1.72735   1 
  -1   2  -2 38.6941 2.28519   3 
   1  -2   2 37.3724 1.82886   2 
   1  -2   2 38.9217 1.72950   1 
  -2   2  -2 2.88233 0.52485   3 
  -2   2  -2 2.30964 0.38466   1 
   2  -2   2 1.48943 0.41325   1 
  -3   2  -2 1134.80 58.1850   3 
   3  -2   2 1145.50 44.7690   1 
  -4   2  -2 698.338 35.7970   3 
   4  -2   2 701.089 27.7588   1 
  -5   2  -2 58.7248 3.19368   3 
   5  -2   2 56.3475 3.01578   1 
   6  -2   2 163.721 7.19826   1 
   7  -2   2 195.036 8.61269   1 
  -8   2  -2 71.6277 3.87127   1 
   8  -2   2 70.8548 4.49969   1 
   8  -2   2 60.4770 3.71240   1 
   9  -2   2 13.0083 2.29684   1 
   9  -2   2 11.6448 2.79409   1 
   9   1  -2 31.6042 3.30675   1 
   9   1  -2 33.4750 3.02472   1 
   8   1  -2 2.08642 1.45701   1 
   8   1  -2 1.61992 1.57328   1 
  -8  -1   2 0.43872 1.21862   1 
   7   1  -2 11.6047 1.46928   1 
   7   1  -2 10.3468 1.48429   1 
   6   1  -2 1.64503 0.64309   1 
   6   1  -2 2.11070 0.92239   1 
   5   1  -2 37.9364 2.04387   1 
   5   1  -2 41.0182 2.17920   3 
   5   1  -2 32.5455 2.05992   1 
  -5  -1   2 33.9739 2.05233   1 
   4   1  -2 98.7949 4.24573   1 
   4   1  -2 103.592 5.16859   3 
   4   1  -2 94.7132 4.22668   1 
  -4  -1   2 89.0596 4.20015   1 
  -4  -1   2 94.0199 4.18686   1 
   3   1  -2 642.283 25.4508   1 
   3   1  -2 657.893 33.0059   3 
   3   1  -2 652.994 25.4333   1 
  -3  -1   2 623.194 25.4116   1 
  -3  -1   2 647.828 25.4609   1 
   2   1  -2 235.315 9.24304   1 
   2   1  -2 230.180 9.22353   1 
   2   1  -2 225.789 11.9706   3 
  -2  -1   2 238.265 9.25231   1 
  -2  -1   2 223.544 9.21217   1 
   1   1  -2 537.159 27.7965   3 
   1   1  -2 530.130 21.2733   1 
   1   1  -2 554.186 21.2820   1 
  -1  -1   2 547.016 21.2752   1 
   0   1  -2 -0.5199 0.43586   3 
   0   1  -2 -1.1171 0.27498   1 
   0  -1   2 -1.2520 0.18017   1 
   0  -1   2 -1.5474 0.27346   2 
  -1   1  -2 679.456 35.7218   3 
  -1   1  -2 671.384 27.3919   1 
   1  -1   2 680.128 27.3933   1 
   1  -1   2 759.455 31.8063   2 
  -2   1  -2 23.7162 1.59511   3 
  -2   1  -2 25.2846 1.35867   1 
   2  -1   2 23.3917 1.38502   1 
  -3   1  -2 1143.30 61.2388   3 
  -3   1  -2 1226.84 47.1294   1 
   3  -1   2 1232.71 47.1769   1 
  -4   1  -2 258.872 10.2739   1 
  -4   1  -2 239.959 12.9736   3 
   4  -1   2 254.114 10.3428   1 
  -5   1  -2 120.231 6.45974   3 
  -5   1  -2 125.652 5.48883   1 
   5  -1   2 126.610 5.63307   1 
  -6   1  -2 229.464 9.68117   1 
   6  -1   2 231.035 9.92974   1 
  -7   1  -2 84.2789 4.03001   1 
   7  -1   2 71.5376 4.05518   1 
   7  -1   2 82.8841 4.30299   1 
  -8   1  -2 20.4568 2.16882   1 
   8  -1   2 19.5431 2.27367   1 
   8  -1   2 20.6333 2.22077   1 
   9  -1   2 16.6741 2.50265   1 
   9  -1   2 16.7785 2.66601   1 
   9   0  -2 94.6091 5.20554   1 
   9   0  -2 94.8363 5.06238   1 
  -9   0   2 84.7960 4.81341   1 
   8   0  -2 69.6656 4.15443   1 
   8   0  -2 78.9108 4.37878   1 
  -8   0   2 82.7047 4.01976   1 
   7   0  -2 266.416 11.1851   1 
   7   0  -2 264.499 11.2060   1 
  -7   0   2 269.428 11.0503   1 
   6   0  -2 40.4082 2.25297   1 
   6   0  -2 44.0216 2.29565   1 
  -6   0   2 39.3743 2.22777   1 
   5   0  -2 0.21355 0.52254   1 
   5   0  -2 0.64426 0.29810   3 
   5   0  -2 0.02296 0.44812   1 
  -5   0   2 0.23154 0.34007   1 
   4   0  -2 1222.93 48.0221   1 
   4   0  -2 1221.45 62.3667   3 
   4   0  -2 1244.45 48.0009   1 
  -4   0   2 1208.79 47.9468   1 
   3   0  -2 0.44383 0.32517   3 
   3   0  -2 0.10324 0.19304   1 
   3   0  -2 0.40954 0.26805   1 
  -3   0   2 -0.1499 0.24225   1 
  -3   0   2 0.99583 0.28099   1 
   2   0  -2 411.558 16.2189   1 
   2   0  -2 421.899 16.2324   1 
  -2   0   2 403.888 16.2221   1 
   1   0  -2 1440.16 58.4517   1 
  -1   0   2 1580.95 67.9307   2 
  -1   0   2 1450.48 58.4764   1 
   0   0  -2 607.578 24.1845   1 
   0   0   2 612.157 24.1791   1 
   0   0   2 626.764 28.1901   2 
  -1   0  -2 862.504 34.0997   1 
   1   0   2 876.656 34.1125   1 
  -2   0  -2 849.604 34.0320   1 
   2   0   2 881.770 34.0701   1 
  -3   0  -2 23.9324 1.49304   1 
   3   0   2 23.7616 1.45147   1 
  -4   0  -2 102.824 4.55898   1 
   4   0   2 101.690 4.68774   1 
  -5   0  -2 93.4757 4.19676   1 
  -5   0  -2 82.3543 4.76913   3 
   5   0   2 95.3894 4.44658   1 
  -6   0  -2 8.09532 1.07544   1 
   6   0   2 6.05469 1.23316   1 
   6   0   2 6.08351 1.10728   1 
  -7   0  -2 0.38249 1.30208   1 
   7   0   2 3.06819 1.64644   1 
   7   0   2 -0.6250 1.31737   1 
  -8   0  -2 4.76352 1.37965   1 
   8   0   2 6.69404 1.59692   1 
   8   0   2 9.00014 1.82216   1 
   9  -1  -2 2.15312 1.22269   1 
   9  -1  -2 5.09512 1.10103   1 
  -9   1   2 1.45461 1.22244   1 
   8  -1  -2 28.8156 2.34477   1 
   8  -1  -2 27.9470 2.41299   1 
  -8   1   2 26.5034 2.00511   1 
   7  -1  -2 -0.2544 0.55159   1 
   7  -1  -2 -0.4076 0.77002   1 
  -7   1   2 0.04324 0.65794   1 
   6  -1  -2 17.1464 1.24283   1 
   6  -1  -2 18.6382 1.34377   1 
  -6   1   2 16.8775 1.21277   1 
   5  -1  -2 135.395 5.58203   1 
   5  -1  -2 127.463 6.84787   3 
   5  -1  -2 133.818 5.58821   1 
  -5   1   2 132.473 5.46973   1 
   4  -1  -2 53.9256 2.43230   1 
   4  -1  -2 54.3732 2.40602   1 
  -4   1   2 53.7764 2.34051   1 
   3  -1  -2 542.554 21.2644   1 
   3  -1  -2 541.340 21.2839   1 
   2  -1  -2 585.546 22.3798   1 
  -2   1   2 571.486 26.3237   2 
  -2   1   2 558.866 22.4003   1 
   1  -1  -2 796.964 32.2612   1 
  -1   1   2 824.667 32.3738   1 
  -1   1   2 868.025 37.7043   2 
  -1   1   2 810.306 42.2019   3 
   0  -1  -2 51.5903 2.27959   1 
   0   1   2 56.9816 2.67505   2 
   0   1   2 48.2796 3.03885   3 
   0   1   2 51.7710 2.26885   1 
  -1  -1  -2 122.105 4.92415   1 
   1   1   2 122.795 4.93050   1 
   1   1   2 109.533 6.33211   3 
  -2  -1  -2 176.937 6.92512   1 
   2   1   2 152.294 8.81138   3 
   2   1   2 169.133 6.92189   1 
  -3  -1  -2 5.88686 0.72089   1 
   3   1   2 4.63165 0.81314   1 
  -4  -1  -2 83.1808 3.88759   1 
   4   1   2 77.0617 3.80180   1 
   4   1   2 82.2761 3.98707   1 
  -5  -1  -2 310.867 12.3993   1 
   5   1   2 279.511 12.3951   1 
   5   1   2 302.023 12.4739   1 
  -6  -1  -2 7.25059 1.39805   1 
  -6  -1  -2 6.63729 0.91760   3 
   6   1   2 9.34275 1.66029   1 
   6   1   2 6.82889 1.41048   1 
  -7  -1  -2 5.27038 1.36928   1 
   7   1   2 8.46679 1.65109   1 
   7   1   2 6.05182 1.86801   1 
   8   1   2 49.2939 3.83250   1 
   8   1   2 57.6048 4.29738   1 
  10  -2  -2 27.5829 2.83873   1 
 -10   2   2 22.3011 2.38283   1 
   9  -2  -2 12.8015 1.88273   1 
   9  -2  -2 18.3587 1.80680   1 
  -9   2   2 14.2918 1.39327   1 
   8  -2  -2 92.6368 4.28189   1 
   8  -2  -2 82.7179 4.19169   1 
  -8   2   2 86.2488 3.96903   1 
   7  -2  -2 50.9549 2.65816   1 
   7  -2  -2 51.1247 2.73019   1 
  -7   2   2 50.5845 2.51451   1 
   6  -2  -2 34.1864 2.01344   3 
   6  -2  -2 40.5961 2.00155   1 
   6  -2  -2 38.2274 1.90262   1 
  -6   2   2 36.2566 1.77131   1 
   5  -2  -2 67.5928 2.97249   1 
   5  -2  -2 68.9671 2.96362   1 
  -5   2   2 65.1428 2.82480   1 
   4  -2  -2 333.431 12.2127   1 
   4  -2  -2 316.237 12.2220   1 
  -4   2   2 311.477 14.5178   2 
  -4   2   2 272.387 15.9458   3 
   3  -2  -2 30.0588 1.22015   1 
   3  -2  -2 28.4082 1.22868   1 
  -3   2   2 29.8000 1.81182   2 
  -3   2   2 25.6351 1.79989   3 
   2  -2  -2 3251.64 127.829   1 
  -2   2   2 3242.36 167.285   3 
  -2   2   2 3343.16 149.560   2 
   1  -2  -2 3170.99 126.934   1 
  -1   2   2 3081.80 126.764   1 
  -1   2   2 3247.10 165.675   3 
  -1   2   2 3415.23 126.918   1 
  -1   2   2 3309.07 147.985   2 
   0  -2  -2 4312.16 169.855   1 
   0   2   2 4322.72 221.453   3 
   0   2   2 4369.54 169.871   1 
  -1  -2  -2 629.501 24.3516   1 
   1   2   2 636.330 24.3741   1 
   1   2   2 594.445 31.7598   3 
   1   2   2 605.901 24.3497   1 
  -2  -2  -2 1.76359 0.60179   1 
   2   2   2 0.43826 0.60486   3 
   2   2   2 -0.4316 0.36113   1 
   2   2   2 -0.3065 0.36909   1 
  -3  -2  -2 232.739 9.20695   1 
   3   2   2 201.958 11.7112   3 
   3   2   2 220.652 9.21337   1 
   3   2   2 229.744 9.30397   1 
  -4  -2  -2 53.4281 2.81408   1 
   4   2   2 51.7582 2.94427   1 
   4   2   2 55.1664 2.95271   1 
  -5  -2  -2 18.7923 1.77718   1 
   5   2   2 22.7310 1.98438   1 
   5   2   2 18.7157 1.78180   1 
  -6  -2  -2 0.39070 1.31473   1 
   6   2   2 0.67787 1.35623   1 
   6   2   2 1.75026 1.07234   1 
  -7  -2  -2 82.5734 5.06724   1 
   7   2   2 87.9954 5.04157   1 
   7   2   2 86.9666 4.84788   1 
  10  -3  -2 18.4833 1.93754   1 
  10  -3  -2 12.2522 2.17849   1 
 -10   3   2 18.1889 2.70955   2 
 -10   3   2 11.2611 1.47470   1 
   9  -3  -2 79.6970 4.32011   1 
   9  -3  -2 81.7706 4.03954   1 
  -9   3   2 76.5166 3.60049   1 
  -9   3   2 80.0695 5.18135   2 
   8  -3  -2 31.7962 1.95051   1 
   8  -3  -2 27.4099 2.12319   1 
  -8   3   2 26.5499 1.55290   1 
  -8   3   2 27.1418 2.78152   2 
   7  -3  -2 1175.93 45.6885   1 
   7  -3  -2 1184.72 45.6855   1 
  -7   3   2 1121.66 45.4073   1 
  -7   3   2 1161.41 53.5550   2 
   6  -3  -2 21.3307 1.27832   1 
   6  -3  -2 24.3919 1.34968   1 
  -6   3   2 20.2141 1.05106   1 
  -6   3   2 21.4354 2.04783   2 
   5  -3  -2 59.0433 2.42216   1 
   5  -3  -2 53.7070 2.40304   1 
  -5   3   2 57.4672 3.24217   2 
  -5   3   2 50.0003 3.21570   3 
   4  -3  -2 118.071 4.53718   1 
  -4   3   2 113.716 5.63493   2 
  -4   3   2 106.764 6.19046   3 
  -3   3   2 96.9352 5.42766   3 
  -3   3   2 96.9910 4.84001   2 
   2  -3  -2 66.6534 2.73531   1 
   2  -3  -2 69.4704 2.74201   1 
  -2   3   2 67.4210 3.46813   2 
  -2   3   2 67.0841 3.98621   3 
   1  -3  -2 42.9728 1.86780   1 
  -1   3   2 42.7174 2.69220   3 
  -1   3   2 41.3980 1.82557   1 
  -1   3   2 41.6153 1.84530   1 
   0  -3  -2 220.192 8.64036   1 
   0   3   2 207.266 11.4025   3 
   0   3   2 212.912 8.63762   1 
  -1  -3  -2 2363.87 90.7687   1 
   1   3   2 2320.96 90.7696   1 
   1   3   2 2340.12 90.7875   1 
   1   3   2 2265.14 118.524   3 
  -2  -3  -2 315.165 12.5444   1 
   2   3   2 310.094 12.5742   1 
   2   3   2 309.552 12.5920   1 
   2   3   2 298.428 16.2681   3 
  -3  -3  -2 19.4648 1.59579   1 
   3   3   2 16.6345 1.57183   3 
   3   3   2 18.2510 1.70223   1 
   3   3   2 19.1929 1.45893   1 
  -4  -3  -2 56.6012 3.03128   1 
   4   3   2 53.3150 3.04942   1 
   4   3   2 50.0016 3.16308   1 
   4   3   2 44.8396 3.33892   3 
  -5  -3  -2 4.68762 1.34128   1 
   5   3   2 5.60861 1.49897   1 
   5   3   2 3.38439 1.48922   1 
  -6  -3  -2 198.936 9.00837   1 
   6   3   2 196.436 8.92518   1 
   6   3   2 195.827 9.24594   1 
  -7  -3  -2 52.3165 3.85606   1 
   7   3   2 49.0394 4.05821   1 
   7   3   2 47.0806 4.68385   1 
  10  -4  -2 12.3003 1.96485   1 
  10  -4  -2 11.0430 1.55778   1 
 -10   4   2 14.2718 2.39332   2 
   9  -4  -2 78.9582 3.93005   1 
   9  -4  -2 77.5423 4.11408   1 
  -9   4   2 81.1119 4.80194   2 
   8  -4  -2 59.8140 2.93745   1 
   8  -4  -2 58.3390 3.05995   1 
  -8   4   2 57.0598 3.89743   2 
   7  -4  -2 166.144 6.98586   1 
   7  -4  -2 162.386 6.94069   1 
  -7   4   2 172.875 8.54842   2 
   6  -4  -2 154.913 6.26946   1 
  -6   4   2 139.270 8.22368   3 
  -6   4   2 163.394 7.71670   2 
   5  -4  -2 12.6852 0.76130   1 
  -5   4   2 15.5154 1.48221   2 
  -5   4   2 10.9721 1.45711   3 
   4  -4  -2 247.819 9.65682   1 
  -4   4   2 241.181 11.6409   2 
  -4   4   2 249.220 13.0874   3 
   3  -4  -2 111.840 4.37463   1 
   3  -4  -2 113.958 4.37414   1 
  -3   4   2 106.898 5.45890   2 
  -3   4   2 106.059 6.20608   3 
   2  -4  -2 451.730 17.7201   1 
   2  -4  -2 472.067 17.7147   1 
  -2   4   2 448.438 17.6027   1 
  -2   4   2 458.942 20.8972   2 
  -2   4   2 425.810 17.6085   1 
  -2   4   2 448.532 23.5176   3 
   1  -4  -2 21.5452 1.13799   1 
   1  -4  -2 20.5243 1.17084   1 
  -1   4   2 22.8945 1.80172   3 
  -1   4   2 21.6882 1.10736   1 
  -1   4   2 19.8604 1.11468   1 
   0  -4  -2 799.434 31.0874   1 
   0   4   2 778.225 31.0810   1 
   0   4   2 787.526 40.7682   3 
   0   4   2 790.683 31.0643   1 
  -1  -4  -2 55.9810 2.69765   1 
   1   4   2 53.5251 2.69638   1 
   1   4   2 52.6052 2.68600   1 
   1   4   2 55.5010 3.53131   3 
  -2  -4  -2 83.9803 3.68016   1 
   2   4   2 75.4914 3.72236   1 
   2   4   2 76.3617 3.72969   1 
   2   4   2 73.1860 4.67140   3 
  -3  -4  -2 275.104 11.2072   1 
   3   4   2 278.452 11.2580   1 
   3   4   2 250.602 14.3376   3 
   3   4   2 265.217 11.2525   1 
  -4  -4  -2 170.896 7.51227   1 
   4   4   2 179.364 7.64815   1 
   4   4   2 152.957 9.43607   3 
   4   4   2 176.174 7.70464   1 
  -5  -4  -2 10.5580 1.74058   1 
   5   4   2 9.01657 1.56884   3 
   5   4   2 9.30676 1.89278   1 
   5   4   2 8.43165 1.77694   1 
  -6  -4  -2 15.0019 2.07449   1 
   6   4   2 18.0912 2.62422   1 
   6   4   2 16.8096 2.66405   1 
  10  -5  -2 4.61660 1.15990   1 
  10  -5  -2 2.18580 1.51638   1 
 -10   5   2 0.59401 1.82107   2 
   9  -5  -2 43.8385 2.80938   1 
   9  -5  -2 44.1041 2.49501   1 
  -9   5   2 49.2950 3.67625   2 
   8  -5  -2 0.88023 0.75359   1 
  -8   5   2 1.03005 1.29419   2 
   7  -5  -2 1108.16 42.1822   1 
  -7   5   2 982.693 55.0883   3 
  -7   5   2 1131.78 49.5452   2 
   6  -5  -2 217.234 8.50722   1 
  -6   5   2 204.405 11.4324   3 
  -6   5   2 211.940 10.2861   2 
   5  -5  -2 33.3623 1.50297   1 
  -5   5   2 34.8247 2.17861   2 
  -5   5   2 35.3499 2.64738   3 
   4  -5  -2 201.470 8.03217   1 
  -4   5   2 209.399 9.79806   2 
  -4   5   2 201.743 11.1210   3 
   3  -5  -2 188.736 7.61214   1 
   3  -5  -2 195.398 7.60665   1 
  -3   5   2 192.676 9.20745   2 
  -3   5   2 189.076 10.4517   3 
   2  -5  -2 38.4455 1.76394   1 
   2  -5  -2 40.3216 1.81176   1 
  -2   5   2 38.9988 2.86321   3 
  -2   5   2 35.6282 1.67464   1 
  -2   5   2 40.0471 1.67795   1 
   1  -5  -2 327.903 13.1834   1 
   1  -5  -2 344.010 13.1549   1 
  -1   5   2 326.398 17.4746   3 
  -1   5   2 314.529 13.1010   1 
  -1   5   2 328.650 13.0786   1 
   0  -5  -2 511.493 19.8667   1 
   0  -5  -2 513.178 19.7986   1 
   0   5   2 480.090 26.0372   3 
   0   5   2 484.974 19.7677   1 
   0   5   2 491.833 19.7464   1 
  -1  -5  -2 788.554 29.9648   1 
   1   5   2 718.262 39.1566   3 
   1   5   2 749.067 29.9469   1 
   1   5   2 761.363 29.9200   1 
  -2  -5  -2 238.328 9.78563   1 
   2   5   2 232.369 9.77684   1 
   2   5   2 226.684 12.7506   3 
   2   5   2 228.590 9.78404   1 
  -3  -5  -2 51.1057 3.10274   1 
   3   5   2 47.8431 3.84849   3 
   3   5   2 53.5968 3.17374   1 
   3   5   2 51.4551 2.96138   1 
  -4  -5  -2 4.31101 1.13287   1 
   4   5   2 1.04627 1.47928   1 
   4   5   2 3.75830 1.06003   1 
   4   5   2 2.91422 1.02451   3 
  -5  -5  -2 65.8050 4.38337   1 
   5   5   2 51.0315 4.34898   3 
   5   5   2 69.1699 4.49269   1 
   5   5   2 64.4172 3.91231   1 
  -6  -5  -2 7.16538 2.62852   1 
   6   5   2 2.66304 2.59332   1 
   6   5   2 3.89257 2.03702   1 
  10  -6  -2 1.24346 1.61360   1 
  10  -6  -2 0.87832 0.90132   1 
 -10   6   2 0.03112 1.72608   2 
   9  -6  -2 0.04295 1.14969   1 
   9  -6  -2 0.09181 0.67746   1 
  -9   6   2 -0.7132 1.40791   2 
   8  -6  -2 -0.8179 0.55396   1 
   8  -6  -2 0.04289 0.65012   1 
  -8   6   2 -1.2536 1.20263   2 
   7  -6  -2 290.535 11.4523   1 
  -7   6   2 299.357 13.7375   2 
  -7   6   2 265.532 15.2742   3 
   6  -6  -2 100.992 4.18623   1 
  -6   6   2 102.859 5.31968   2 
  -6   6   2 99.9312 6.08254   3 
   5  -6  -2 1032.38 40.2855   1 
  -5   6   2 1021.17 53.2752   3 
  -5   6   2 1042.89 47.4178   2 
   4  -6  -2 10.5349 0.67789   1 
  -4   6   2 11.6809 1.52831   3 
  -4   6   2 11.6113 1.28614   2 
   3  -6  -2 3.78804 0.40711   1 
   3  -6  -2 6.40119 0.55637   1 
  -3   6   2 5.19851 1.18320   3 
   2  -6  -2 16.7749 1.01002   1 
   2  -6  -2 16.0925 1.08392   1 
  -2   6   2 15.1990 1.72079   3 
  -2   6   2 14.3903 0.91734   1 
  -2   6   2 15.7496 0.93134   1 
   1  -6  -2 106.452 4.47395   1 
   1  -6  -2 100.833 4.52215   1 
  -1   6   2 101.358 4.41517   1 
  -1   6   2 98.9526 6.21044   3 
  -1   6   2 105.192 4.39493   1 
   0  -6  -2 43.8041 2.32584   1 
   0  -6  -2 44.7454 2.45699   1 
   0   6   2 40.6828 2.24512   1 
   0   6   2 42.1109 3.33096   3 
   0   6   2 41.3106 2.25415   1 
  -1  -6  -2 1466.35 55.4765   1 
   1   6   2 1404.03 55.4475   1 
   1   6   2 1365.25 72.5297   3 
   1   6   2 1395.88 55.4021   1 
  -2  -6  -2 187.430 7.86612   1 
   2   6   2 173.933 7.90757   1 
   2   6   2 175.005 10.2368   3 
   2   6   2 183.842 7.91203   1 
  -3  -6  -2 12.1700 1.49426   1 
   3   6   2 13.4789 2.14497   3 
   3   6   2 13.8608 1.72220   1 
   3   6   2 14.8923 1.56597   1 
  -4  -6  -2 25.7981 2.51940   1 
   4   6   2 21.9472 2.81297   3 
   4   6   2 29.0072 2.73292   1 
   4   6   2 30.2936 2.56203   1 
  -5  -6  -2 23.1938 2.43691   1 
   5   6   2 21.8778 2.92342   1 
   5   6   2 22.5347 2.96750   1 
   5   6   2 17.8161 2.66604   3 
  10  -7  -2 3.72669 1.34684   1 
 -10   7   2 3.61448 1.86888   2 
   9  -7  -2 23.5470 1.78556   1 
   9  -7  -2 28.9164 2.17921   1 
  -9   7   2 27.5363 3.11214   3 
  -9   7   2 27.1365 3.10101   2 
   8  -7  -2 11.7838 1.12431   1 
  -8   7   2 14.5456 1.77471   2 
  -8   7   2 13.1274 1.90359   3 
   7  -7  -2 232.888 9.21420   1 
  -7   7   2 239.878 11.1842   2 
  -7   7   2 214.358 12.6417   3 
   6  -7  -2 562.854 22.0282   1 
  -6   7   2 582.410 26.1610   2 
  -6   7   2 538.585 29.5088   3 
   5  -7  -2 107.732 4.39113   1 
  -5   7   2 107.929 6.65510   3 
   4  -7  -2 11.3656 0.75540   1 
   4  -7  -2 9.68373 0.77759   1 
  -4   7   2 7.89595 1.62483   3 
   3  -7  -2 -0.2325 0.38805   1 
   3  -7  -2 -0.1659 0.38332   1 
  -3   7   2 0.08885 0.16984   1 
  -3   7   2 -0.4562 0.71511   3 
  -3   7   2 0.20830 0.17464   1 
   2  -7  -2 109.304 4.60382   1 
   2  -7  -2 106.156 4.66118   1 
  -2   7   2 107.493 4.46843   1 
  -2   7   2 104.600 6.48686   3 
  -2   7   2 105.091 4.50633   1 
   1  -7  -2 27.1641 1.69988   1 
   1  -7  -2 27.1846 1.83736   1 
  -1   7   2 28.7348 2.78568   3 
  -1   7   2 27.9795 1.63814   1 
  -1   7   2 24.7128 1.56822   1 
   0  -7  -2 751.550 28.9030   1 
   0  -7  -2 720.494 28.9811   1 
   0   7   2 706.265 28.8265   1 
   0   7   2 694.666 37.9978   3 
   0   7   2 752.962 28.8257   1 
  -1  -7  -2 0.92299 0.73992   1 
   1   7   2 -0.5557 0.93334   3 
   1   7   2 1.62799 0.93459   1 
  -2  -7  -2 95.3734 4.78270   1 
   2   7   2 94.2894 4.77241   1 
   2   7   2 90.2538 4.71085   1 
   2   7   2 90.7323 6.01799   3 
  -3  -7  -2 4.37408 1.28183   1 
   3   7   2 1.45961 1.62455   3 
   3   7   2 4.96123 1.68459   1 
   3   7   2 -0.7015 1.06837   1 
  -4  -7  -2 18.0990 2.23270   1 
   4   7   2 13.1906 2.47878   3 
   4   7   2 19.0110 2.15413   1 
   4   7   2 16.9450 2.46384   1 
   9  -8  -2 4.19746 0.93763   1 
   9  -8  -2 4.27395 0.76472   1 
  -9   8   2 2.48331 1.73169   3 
  -9   8   2 5.26460 1.84068   2 
   8  -8  -2 3.46697 0.63866   1 
  -8   8   2 3.36640 1.34910   2 
  -8   8   2 3.40117 1.37898   3 
   7  -8  -2 357.905 14.3017   1 
  -7   8   2 388.167 17.1986   2 
  -7   8   2 338.433 19.4576   3 
   6  -8  -2 131.761 5.30769   1 
  -6   8   2 128.711 7.79099   3 
   5  -8  -2 338.584 13.3405   1 
  -5   8   2 332.964 18.2949   3 
   4  -8  -2 26.3258 1.38672   1 
   4  -8  -2 26.2317 1.46222   1 
  -4   8   2 24.9159 2.78658   3 
   3  -8  -2 15.4870 1.22470   1 
   3  -8  -2 14.1991 1.12082   1 
  -3   8   2 15.3642 0.85015   1 
  -3   8   2 13.8127 1.91419   3 
  -3   8   2 14.7590 0.83277   1 
   2  -8  -2 36.6766 1.98749   1 
   2  -8  -2 33.4074 2.09783   1 
  -2   8   2 36.6232 1.82436   1 
  -2   8   2 31.3813 1.78833   1 
  -2   8   2 35.0014 3.30538   3 
   1  -8  -2 200.286 8.59352   1 
   1  -8  -2 207.790 8.49531   1 
  -1   8   2 209.960 8.38171   1 
  -1   8   2 189.919 8.35735   1 
  -1   8   2 195.085 11.4754   3 
   0  -8  -2 21.8886 1.97061   1 
   0   8   2 20.9891 1.71102   1 
   0   8   2 22.4295 1.93101   1 
   0   8   2 20.1860 2.43774   3 
  -1  -8  -2 923.415 34.8481   1 
   1   8   2 843.906 45.6686   3 
   1   8   2 844.626 34.7224   1 
  -2  -8  -2 -0.4216 1.48375   1 
   2   8   2 0.48373 0.96332   1 
   2   8   2 -0.6820 1.02238   1 
   2   8   2 0.85860 1.59635   3 
  -3  -8  -2 47.3993 3.39019   1 
   3   8   2 49.1471 4.51261   3 
   3   8   2 41.9364 3.85027   1 
   3   8   2 36.3742 3.83222   1 
   9  -9  -2 4.86003 0.86050   1 
  -9   9   2 4.53299 1.55856   3 
   8  -9  -2 39.3775 1.97121   1 
  -8   9   2 42.7083 3.92466   3 
   7  -9  -2 396.893 15.6501   1 
  -7   9   2 395.175 21.5547   3 
   6  -9  -2 233.001 9.37486   1 
  -6   9   2 234.150 13.3244   3 
   5  -9  -2 26.1461 1.50923   1 
  -5   9   2 28.0018 3.17925   3 
   4  -9  -2 36.7645 2.03726   1 
   4  -9  -2 39.1078 1.93620   1 
  -4   9   2 34.3831 3.47959   3 
   3  -9  -2 0.03513 0.59508   1 
   3  -9  -2 0.55695 0.72050   1 
  -3   9   2 0.70375 0.38464   1 
  -3   9   2 0.57987 0.42374   1 
  -3   9   2 1.08829 1.48214   3 
   2  -9  -2 35.9429 2.34797   1 
   2  -9  -2 35.7897 2.14167   1 
  -2   9   2 37.6303 2.07125   1 
  -2   9   2 35.6560 3.27992   3 
  -2   9   2 30.5320 1.85588   1 
   1  -9  -2 1.17282 0.92918   1 
   1  -9  -2 0.33389 1.06139   1 
  -1   9   2 0.48654 0.75088   1 
  -1   9   2 1.02737 1.52226   3 
  -1   9   2 0.81942 0.89698   1 
   0  -9  -2 257.687 10.5601   1 
   0   9   2 229.417 10.3049   1 
   0   9   2 237.949 14.0831   3 
   0   9   2 253.630 10.3765   1 
  -1  -9  -2 139.151 6.48366   1 
   1   9   2 124.246 6.19421   1 
   1   9   2 136.177 6.14359   1 
   1   9   2 125.040 8.28370   3 
  -2  -9  -2 17.9931 2.47242   1 
   2   9   2 17.0730 2.61343   3 
   2   9   2 15.5766 2.37008   1 
   8 -10  -2 35.4077 1.81782   1 
  -8  10   2 37.9499 3.53786   3 
   7 -10  -2 89.3639 3.78851   1 
  -7  10   2 86.1050 6.08891   3 
   6 -10  -2 94.1628 4.18798   1 
  -6  10   2 98.9487 6.72796   3 
   5 -10  -2 12.0262 1.16784   1 
  -5  10   2 10.2508 2.25667   3 
   4 -10  -2 0.24360 0.57172   1 
   4 -10  -2 1.12137 0.76887   1 
  -4  10   2 -0.1735 1.09186   3 
   3 -10  -2 39.1147 2.36347   1 
   3 -10  -2 35.9602 2.50796   1 
  -3  10   2 41.5868 1.97438   1 
  -3  10   2 36.2204 3.56963   3 
   2 -10  -2 -0.9992 1.05816   1 
   2 -10  -2 1.51502 0.97150   1 
  -2  10   2 -1.8491 1.57836   3 
  -2  10   2 0.27565 0.81741   1 
  -2  10   2 -1.3321 0.62695   1 
   1 -10  -2 39.1859 3.25791   1 
   1 -10  -2 46.1882 2.72553   1 
  -1  10   2 39.7833 2.53045   1 
  -1  10   2 42.5478 4.22696   3 
  -1  10   2 43.5308 2.76707   1 
   0 -10  -2 26.4999 2.42335   1 
   0  10   2 28.0078 3.67109   3 
   0  10   2 25.7281 2.71518   1 
   0  10   2 24.6980 2.28805   1 
  -1 -10  -2 37.5175 3.90651   1 
   1  10   2 34.1757 3.72960   3 
   1  10   2 34.0857 3.19057   1 
   7 -11  -2 10.4919 1.01490   1 
  -7  11   2 9.90127 2.21561   3 
   6 -11  -2 0.23111 0.70661   1 
  -6  11   2 -0.1507 1.24476   3 
   5 -11  -2 226.621 9.28445   1 
  -5  11   2 216.554 13.0048   3 
   4 -11  -2 1.02310 1.01227   1 
  -4  11   2 0.60378 1.19836   3 
   3 -11  -2 33.1356 2.45424   1 
   3 -11  -2 34.0588 2.76683   1 
  -3  11   2 34.6452 3.62175   3 
  -3  11   2 37.1189 1.97841   1 
   2 -11  -2 192.239 8.13203   1 
   2 -11  -2 185.819 8.28887   1 
  -2  11   2 191.090 7.73330   1 
  -2  11   2 162.567 11.1512   3 
  -2  11   2 170.059 7.63128   1 
   1 -11  -2 14.4077 1.66208   1 
  -1  11   2 16.5295 2.62126   3 
  -1  11   2 15.4528 1.54816   1 
  -1  11   2 16.3063 1.85698   1 
   5 -12  -2 12.6416 1.52935   1 
  -5  12   2 9.95471 2.93313   3 
   4 -12  -2 -0.9794 1.34540   1 
  -4  12   2 0.11409 2.27117   3 
  -1  12  -3 101.219 7.13901   3 
  -1  12  -3 83.4517 4.98568   1 
  -2  12  -3 57.4800 3.18642   1 
  -2  12  -3 50.6257 4.65276   3 
   2 -12   3 56.4439 4.23003   1 
  -3  12  -3 9.90866 2.17584   1 
  -3  12  -3 13.0083 2.78566   3 
  -3  12  -3 12.7864 1.38428   1 
   3 -12   3 15.1030 2.08884   1 
  -4  12  -3 81.5398 6.24197   3 
  -4  12  -3 75.9426 4.59919   1 
   4 -12   3 78.6578 4.76059   1 
  -5  12  -3 1.48757 0.80184   1 
  -5  12  -3 4.74793 1.66477   3 
  -5  12  -3 2.94505 1.63533   1 
   5 -12   3 3.46474 1.69396   1 
   1  11  -3 3.66137 1.67428   3 
   1  11  -3 0.71784 1.11849   1 
  -1 -11   3 0.35783 2.44469   1 
   0  11  -3 -0.5651 1.16254   3 
   0  11  -3 2.28469 1.40296   1 
   0 -11   3 -0.1554 2.03874   1 
  -1  11  -3 -1.8221 0.91245   3 
  -1  11  -3 0.60380 1.14247   1 
  -1  11  -3 -0.3796 1.01506   1 
   1 -11   3 -0.2177 1.71561   1 
  -2  11  -3 61.8356 3.28125   1 
  -2  11  -3 60.8391 3.76191   1 
  -2  11  -3 64.1521 4.75749   3 
   2 -11   3 59.1296 3.56845   1 
  -3  11  -3 -1.4269 0.73749   1 
  -3  11  -3 0.71091 1.17109   3 
  -3  11  -3 -1.7430 1.19798   1 
   3 -11   3 3.50980 1.41795   1 
  -4  11  -3 1.39241 1.51803   1 
  -4  11  -3 0.59972 1.26532   3 
  -4  11  -3 0.71403 0.77157   1 
   4 -11   3 -0.5839 1.24775   1 
  -5  11  -3 8.05848 2.02869   3 
  -5  11  -3 8.58030 1.57534   1 
  -5  11  -3 4.98744 0.84855   1 
   5 -11   3 6.00842 1.50316   1 
  -6  11  -3 12.7476 1.43809   1 
  -6  11  -3 16.9406 2.59477   3 
  -6  11  -3 11.3417 1.11633   1 
   6 -11   3 16.0249 1.92745   1 
  -7  11  -3 6.37187 0.97310   1 
  -7  11  -3 4.98803 0.81960   1 
  -7  11  -3 8.18591 2.31303   3 
   7 -11   3 9.05624 1.91311   1 
   2  10  -3 5.38248 1.75044   1 
   2  10  -3 2.99122 1.41295   3 
   2  10  -3 1.04221 1.95096   1 
  -2 -10   3 4.22204 2.39882   1 
  -2 -10   3 3.74513 2.21359   1 
   1  10  -3 1.81958 1.32552   1 
   1  10  -3 3.01543 1.65774   1 
   1  10  -3 2.67332 1.40251   3 
  -1 -10   3 2.99754 1.94350   1 
   0  10  -3 50.6862 3.19366   1 
   0  10  -3 51.7549 4.09706   3 
   0  10  -3 53.3147 3.39841   1 
   0 -10   3 50.0250 3.67142   1 
  -1  10  -3 32.2872 3.10579   3 
  -1  10  -3 31.2692 2.28614   1 
  -1  10  -3 34.7662 2.60514   1 
   1 -10   3 39.2323 2.93742   1 
  -2  10  -3 119.877 7.39562   3 
  -2  10  -3 120.207 5.57709   1 
  -2  10  -3 114.678 5.32355   1 
   2 -10   3 119.403 5.56941   1 
  -3  10  -3 30.9107 2.35518   1 
  -3  10  -3 31.7163 1.99708   1 
  -3  10  -3 31.1092 2.96126   3 
   3 -10   3 32.6526 2.49089   1 
  -4  10  -3 23.0142 2.54220   3 
  -4  10  -3 25.2623 2.15904   1 
  -4  10  -3 25.2889 1.68147   1 
   4 -10   3 24.8326 2.25057   1 
  -5  10  -3 25.3775 2.08100   1 
  -5  10  -3 23.7428 1.69409   1 
  -5  10  -3 25.7129 2.71882   3 
   5 -10   3 25.1876 2.27863   1 
  -6  10  -3 2.61555 0.67097   1 
  -6  10  -3 3.77606 1.35519   3 
  -6  10  -3 1.13511 0.88574   1 
   6 -10   3 3.58498 1.32747   1 
  -7  10  -3 1.27165 1.80775   3 
  -7  10  -3 0.88691 0.66978   1 
  -7  10  -3 2.94630 0.98407   1 
   7 -10   3 2.48261 1.08056   1 
   4   9  -3 2.24734 1.69395   1 
   4   9  -3 8.13061 2.35810   3 
  -4  -9   3 10.9242 3.14649   1 
  -4  -9   3 1.52956 2.14780   1 
   3   9  -3 9.19932 1.50369   1 
   3   9  -3 3.87033 2.02396   1 
   3   9  -3 8.27683 1.81703   3 
  -3  -9   3 11.9946 2.37456   1 
  -3  -9   3 12.0052 2.51589   1 
   2   9  -3 27.4479 2.69562   1 
   2   9  -3 27.2205 3.31194   3 
   2   9  -3 29.9562 2.56260   1 
  -2  -9   3 26.0269 2.70846   1 
  -2  -9   3 31.8446 3.22157   1 
   1   9  -3 0.15988 1.08487   1 
   1   9  -3 0.62062 1.30704   1 
   1   9  -3 0.38116 1.00815   3 
  -1  -9   3 -0.3777 1.34431   1 
  -1  -9   3 0.94249 1.41615   1 
   0   9  -3 8.64656 1.85619   3 
   0   9  -3 8.61446 1.08200   1 
   0   9  -3 10.7476 1.40600   1 
   0  -9   3 8.75140 1.22614   1 
  -1   9  -3 10.1963 1.17903   1 
  -1   9  -3 9.45337 1.87260   3 
   1  -9   3 14.4785 1.55924   1 
  -2   9  -3 69.6271 3.74991   1 
  -2   9  -3 77.4082 3.60224   1 
  -2   9  -3 72.8934 4.98126   3 
   2  -9   3 79.2867 3.76304   1 
  -3   9  -3 48.5841 3.47828   3 
  -3   9  -3 42.4705 2.60008   1 
  -3   9  -3 43.9166 2.36308   1 
   3  -9   3 44.3582 2.65879   1 
  -4   9  -3 265.411 10.8746   1 
  -4   9  -3 259.366 11.0292   1 
  -4   9  -3 272.620 14.7355   3 
   4  -9   3 267.564 11.1006   1 
  -5   9  -3 8.48743 0.87399   1 
  -5   9  -3 10.8099 1.68380   3 
  -5   9  -3 6.82437 1.11795   1 
   5  -9   3 10.3008 1.32756   1 
  -6   9  -3 -1.1626 0.80853   1 
  -6   9  -3 -1.8904 1.36747   3 
  -6   9  -3 0.07131 0.56481   1 
   6  -9   3 -1.5482 1.01561   1 
  -7   9  -3 19.8246 1.56821   1 
  -7   9  -3 17.9440 1.67366   1 
  -7   9  -3 20.1680 2.65934   3 
   7  -9   3 24.8286 2.10743   1 
  -8   9  -3 19.9935 1.90721   1 
  -8   9  -3 23.3122 3.05687   3 
   8  -9   3 26.9921 2.44356   1 
   5   8  -3 6.82312 2.72026   1 
   5   8  -3 3.42089 2.08095   3 
   5   8  -3 4.14737 1.72247   1 
  -5  -8   3 3.57167 2.04778   1 
  -5  -8   3 -0.3498 2.64973   1 
   4   8  -3 3.75846 1.99059   1 
   4   8  -3 -0.7219 1.57188   3 
   4   8  -3 -2.2182 1.74291   1 
  -4  -8   3 1.49872 2.12335   1 
  -4  -8   3 0.30811 1.44426   1 
   3   8  -3 0.92022 0.95890   1 
   3   8  -3 1.46283 1.21503   3 
   3   8  -3 2.37048 1.19178   1 
  -3  -8   3 3.98670 1.29893   1 
  -3  -8   3 0.03059 1.57088   1 
   2   8  -3 -0.7949 1.00813   1 
   2   8  -3 -1.5279 1.28296   3 
   2   8  -3 2.06682 1.24725   1 
  -2  -8   3 0.85898 1.38006   1 
  -2  -8   3 -0.1090 1.35775   1 
   1   8  -3 4.46949 0.86658   1 
   1   8  -3 3.73432 1.19004   1 
   1   8  -3 4.56828 1.50042   3 
  -1  -8   3 5.97801 1.06737   1 
  -1  -8   3 6.22577 1.27447   1 
   0   8  -3 6.16125 1.55043   3 
   0   8  -3 6.35249 1.07457   1 
   0   8  -3 7.42417 1.05558   1 
   0  -8   3 4.81453 1.10674   1 
  -1   8  -3 33.5647 3.04692   3 
  -1   8  -3 37.1553 2.11431   1 
   1  -8   3 36.0562 2.31183   1 
  -2   8  -3 0.80382 0.56237   1 
  -2   8  -3 -0.2875 0.70641   3 
  -2   8  -3 0.92996 0.82439   1 
   2  -8   3 -0.6115 0.77176   1 
  -3   8  -3 276.675 11.3366   1 
  -3   8  -3 249.492 11.1635   1 
  -3   8  -3 289.370 14.9824   3 
   3  -8   3 284.695 11.3623   1 
  -4   8  -3 2.35774 0.63305   1 
  -4   8  -3 3.39322 0.88873   1 
  -4   8  -3 2.29247 1.24069   3 
   4  -8   3 2.14979 0.68732   1 
  -5   8  -3 272.794 14.6392   3 
  -5   8  -3 260.197 11.0216   1 
  -5   8  -3 266.821 10.9194   1 
   5  -8   3 272.039 11.1550   1 
  -6   8  -3 10.6887 1.20119   1 
  -6   8  -3 13.9691 1.82695   3 
  -6   8  -3 10.9056 1.12802   1 
   6  -8   3 12.1543 1.42756   1 
  -7   8  -3 19.2292 2.30551   3 
  -7   8  -3 18.8247 1.93665   1 
   7  -8   3 14.1211 1.55168   1 
  -8   8  -3 -1.2056 0.90265   1 
  -8   8  -3 0.05135 1.47658   3 
   8  -8   3 -0.2236 1.53635   1 
   5   7  -3 4.32911 1.61686   1 
   5   7  -3 2.32587 1.85517   1 
   5   7  -3 4.74946 1.41479   3 
  -5  -7   3 2.29591 2.25315   1 
  -5  -7   3 6.54180 2.31184   1 
   4   7  -3 28.7042 2.47009   1 
   4   7  -3 21.6781 2.96019   3 
   4   7  -3 28.6869 2.30988   1 
  -4  -7   3 28.8486 2.67247   1 
  -4  -7   3 28.2806 2.60418   1 
   3   7  -3 9.91116 1.51648   1 
   3   7  -3 11.0252 1.88510   3 
   3   7  -3 13.5585 1.64482   1 
  -3  -7   3 11.1803 1.40835   1 
  -3  -7   3 11.7926 1.46696   1 
   2   7  -3 258.574 11.0920   1 
   2   7  -3 271.945 11.1748   1 
   2   7  -3 268.285 14.4146   3 
  -2  -7   3 267.095 11.1691   1 
  -2  -7   3 254.263 11.1678   1 
   1   7  -3 103.095 4.94674   1 
   1   7  -3 109.254 4.92276   1 
   1   7  -3 107.265 6.37758   3 
  -1  -7   3 105.805 4.94393   1 
  -1  -7   3 108.577 4.95193   1 
   0   7  -3 85.5807 5.21464   3 
   0   7  -3 79.4347 3.82772   1 
   0   7  -3 82.1483 3.85253   1 
   0  -7   3 81.6685 3.96608   1 
  -1   7  -3 33.2630 2.56941   3 
  -1   7  -3 30.2245 1.76778   1 
  -1   7  -3 32.3365 2.02734   1 
   1  -7   3 33.5424 1.91112   1 
  -2   7  -3 228.713 12.5616   3 
  -2   7  -3 227.704 9.51249   1 
  -2   7  -3 229.277 9.45409   1 
   2  -7   3 233.612 9.54524   1 
  -3   7  -3 29.0321 1.87773   1 
  -3   7  -3 29.8009 2.53089   3 
  -3   7  -3 27.8751 1.65055   1 
   3  -7   3 30.8302 1.85638   1 
  -4   7  -3 74.4886 3.66589   1 
  -4   7  -3 80.2837 4.81814   3 
  -4   7  -3 78.2115 3.54538   1 
   4  -7   3 77.5484 3.69015   1 
  -5   7  -3 10.3941 1.14120   1 
  -5   7  -3 12.2420 1.61796   3 
   5  -7   3 10.7061 1.20985   1 
  -6   7  -3 25.0598 2.42982   3 
  -6   7  -3 20.7349 1.75898   1 
   6  -7   3 21.3791 1.99491   1 
  -7   7  -3 26.5567 2.66780   3 
  -7   7  -3 24.7122 1.96896   1 
   7  -7   3 30.7204 2.59197   1 
  -8   7  -3 5.50748 1.18492   1 
  -8   7  -3 6.03984 1.48752   3 
   8  -7   3 3.15239 1.63637   1 
  -9   7  -3 8.40234 1.70999   1 
   9  -7   3 2.73242 2.18706   1 
   6   6  -3 5.09783 1.81738   3 
   6   6  -3 3.01190 1.44868   1 
   6   6  -3 0.57444 1.91543   1 
  -6  -6   3 1.82924 2.20365   1 
   5   6  -3 -1.3747 1.59233   1 
   5   6  -3 -1.0838 1.03062   1 
   5   6  -3 -0.8718 1.28168   3 
  -5  -6   3 3.34479 1.74683   1 
  -5  -6   3 -0.3642 1.13220   1 
   4   6  -3 45.5555 3.24338   3 
   4   6  -3 42.7040 3.10394   1 
   4   6  -3 43.2344 2.97237   1 
  -4  -6   3 43.3448 3.19880   1 
  -4  -6   3 40.2311 3.20992   1 
   3   6  -3 2.22636 0.93923   1 
   3   6  -3 3.18364 0.88442   1 
   3   6  -3 1.91294 0.86943   3 
  -3  -6   3 1.86265 0.84296   1 
  -3  -6   3 0.43524 1.06770   1 
   2   6  -3 104.711 4.90487   1 
   2   6  -3 111.535 6.32655   3 
   2   6  -3 102.425 4.85672   1 
  -2  -6   3 102.003 4.98281   1 
  -2  -6   3 107.306 4.88991   1 
   1   6  -3 219.391 9.04891   1 
   1   6  -3 206.565 8.96029   1 
   1   6  -3 216.540 11.7738   3 
  -1  -6   3 216.739 9.04815   1 
  -1  -6   3 218.922 9.05506   1 
   0   6  -3 5.70907 0.98176   3 
   0   6  -3 4.96946 0.66557   1 
   0   6  -3 5.67097 0.70550   1 
   0  -6   3 6.14924 0.85522   1 
  -1   6  -3 23.4413 1.53018   1 
  -1   6  -3 21.7381 1.34782   1 
  -1   6  -3 21.8457 1.87738   3 
   1  -6   3 22.7414 1.53098   1 
  -2   6  -3 513.772 20.2584   1 
  -2   6  -3 506.875 26.5741   3 
   2  -6   3 505.817 20.2900   1 
  -3   6  -3 97.4600 4.44707   1 
  -3   6  -3 101.769 5.84522   3 
  -4   6  -3 90.0918 4.17846   1 
  -4   6  -3 95.1172 5.46868   3 
   4  -6   3 90.4702 4.14552   1 
  -5   6  -3 43.7833 2.96905   3 
  -5   6  -3 37.9426 2.25763   1 
   5  -6   3 38.8483 2.35979   1 
  -6   6  -3 58.5263 3.82546   3 
  -6   6  -3 60.0693 3.07404   1 
   6  -6   3 56.6563 3.21161   1 
  -7   6  -3 25.5808 2.30893   3 
  -7   6  -3 22.0931 1.97534   1 
   7  -6   3 20.8481 1.99670   1 
  -8   6  -3 54.6503 3.23192   1 
  -8   6  -3 58.4647 3.73438   3 
   8  -6   3 56.8077 3.90398   1 
  -9   6  -3 33.1637 2.75875   1 
   9  -6   3 29.4146 3.00835   1 
   7   5  -3 4.09026 1.88035   3 
   7   5  -3 3.32851 2.14788   1 
   7   5  -3 5.92101 2.29155   1 
  -7  -5   3 2.21095 2.38381   1 
   6   5  -3 1.11286 1.31649   3 
   6   5  -3 0.07468 1.62542   1 
   6   5  -3 1.61903 1.56195   1 
  -6  -5   3 0.45902 1.26134   1 
   5   5  -3 370.557 15.7521   1 
   5   5  -3 380.590 15.7748   1 
   5   5  -3 395.739 20.1685   3 
  -5  -5   3 380.045 15.7842   1 
  -5  -5   3 373.157 15.9390   1 
   4   5  -3 174.034 9.36743   3 
   4   5  -3 167.809 7.36208   1 
   4   5  -3 161.974 7.35466   1 
  -4  -5   3 167.743 7.38851   1 
  -4  -5   3 165.475 7.45057   1 
   3   5  -3 222.538 11.6265   3 
   3   5  -3 212.864 9.04436   1 
   3   5  -3 217.802 9.06965   1 
  -3  -5   3 209.964 9.05327   1 
  -3  -5   3 205.861 9.08507   1 
   2   5  -3 340.159 13.8573   1 
   2   5  -3 340.113 13.8821   1 
   2   5  -3 345.930 18.0242   3 
  -2  -5   3 341.261 13.9037   1 
  -2  -5   3 337.920 13.9161   1 
   1   5  -3 53.0182 2.60645   1 
   1   5  -3 52.4534 3.40000   3 
   1   5  -3 56.6967 2.67090   1 
  -1  -5   3 52.6724 2.72795   1 
  -1  -5   3 56.9297 2.76920   1 
   0   5  -3 189.859 7.90765   1 
   0   5  -3 190.294 7.88407   1 
   0   5  -3 191.681 10.3523   3 
   0  -5   3 190.560 7.91467   1 
  -1   5  -3 5.99189 0.65072   1 
  -1   5  -3 4.78513 0.98795   3 
  -1   5  -3 5.92897 0.63314   1 
   1  -5   3 6.03790 0.73179   1 
  -2   5  -3 41.3261 2.57601   3 
   2  -5   3 34.3506 1.95324   1 
  -3   5  -3 140.881 7.50415   3 
  -3   5  -3 131.990 5.76086   1 
   3  -5   3 131.545 5.72475   1 
  -4   5  -3 8.59357 0.96106   1 
  -4   5  -3 11.0149 1.39583   3 
   4  -5   3 5.43153 0.85031   1 
  -5   5  -3 4.85665 0.98798   3 
  -5   5  -3 3.57137 0.81857   1 
   5  -5   3 3.94606 0.71838   1 
  -6   5  -3 146.727 6.41650   1 
  -6   5  -3 156.657 8.13018   3 
   6  -5   3 137.239 6.56039   1 
  -7   5  -3 -0.7384 1.05909   3 
  -7   5  -3 -0.1595 0.86470   1 
   7  -5   3 -0.3404 1.15045   1 
  -8   5  -3 -0.0277 1.17253   1 
   8  -5   3 1.13732 1.21619   1 
  -9   5  -3 5.12062 1.68469   1 
   9  -5   3 7.74400 2.41072   1 
   8   4  -3 71.9920 4.84356   1 
   7   4  -3 49.0836 3.28566   1 
   7   4  -3 35.9979 3.67777   1 
  -7  -4   3 42.0061 3.74601   1 
   6   4  -3 4.75993 1.21343   3 
   6   4  -3 4.42451 1.10449   1 
   6   4  -3 6.59019 1.54199   1 
  -6  -4   3 4.83308 1.45062   1 
   5   4  -3 1.57333 1.07565   1 
   5   4  -3 -0.1264 0.89860   3 
   5   4  -3 1.00727 1.07636   1 
  -5  -4   3 -0.5982 1.04985   1 
  -5  -4   3 1.73623 1.15868   1 
   4   4  -3 443.706 18.4748   1 
   4   4  -3 451.833 18.4880   1 
   4   4  -3 489.870 23.8548   3 
  -4  -4   3 449.070 18.5669   1 
  -4  -4   3 446.775 18.4661   1 
   3   4  -3 68.5094 4.10048   3 
   3   4  -3 64.2026 3.27705   1 
   3   4  -3 66.3436 3.24104   1 
  -3  -4   3 69.0048 3.30191   1 
  -3  -4   3 67.4710 3.25012   1 
   2   4  -3 8.06075 0.89822   1 
   2   4  -3 7.80535 1.09322   3 
   2   4  -3 7.61630 0.85599   1 
  -2  -4   3 7.89930 0.92120   1 
  -2  -4   3 7.31591 0.88809   1 
   1   4  -3 1997.43 101.504   3 
   1   4  -3 1985.32 77.7627   1 
   1   4  -3 1965.89 77.7458   1 
  -1  -4   3 2002.09 77.7714   1 
   0   4  -3 572.455 22.6149   1 
   0   4  -3 579.239 29.5581   3 
   0   4  -3 567.856 22.6225   1 
   0  -4   3 564.209 22.6125   1 
  -1   4  -3 209.997 11.0192   3 
  -1   4  -3 205.435 8.44216   1 
   1  -4   3 202.731 8.41187   1 
  -2   4  -3 306.989 15.5110   3 
  -2   4  -3 289.081 11.8883   1 
   2  -4   3 292.432 13.4751   2 
   2  -4   3 290.257 11.8780   1 
  -3   4  -3 175.668 9.28496   3 
   3  -4   3 168.320 7.18166   1 
  -4   4  -3 270.257 14.0646   3 
   4  -4   3 263.540 10.9675   1 
  -5   4  -3 54.7796 3.42238   3 
  -5   4  -3 59.3717 2.93250   1 
   5  -4   3 56.7537 3.05542   1 
  -6   4  -3 19.3254 1.76005   1 
  -6   4  -3 22.5034 1.92687   3 
   6  -4   3 21.5523 2.02180   1 
  -7   4  -3 23.8013 1.91143   3 
  -7   4  -3 23.0988 1.77944   1 
   7  -4   3 20.1737 2.04450   1 
  -8   4  -3 8.17813 1.50099   1 
   8  -4   3 9.92702 2.03102   1 
   9  -4   3 14.7504 2.64736   1 
   8   3  -3 -0.5672 1.96180   1 
   8   3  -3 -0.4854 2.03277   1 
  -8  -3   3 1.51469 1.30845   1 
   7   3  -3 14.5651 1.82942   3 
   7   3  -3 20.3435 2.12357   1 
   7   3  -3 17.6181 1.81648   1 
  -7  -3   3 16.9854 2.02763   1 
   6   3  -3 1.31924 0.83704   1 
   6   3  -3 0.54780 0.83582   3 
   6   3  -3 1.14560 1.17441   1 
  -6  -3   3 0.98581 0.82399   1 
   5   3  -3 45.0401 2.80034   1 
   5   3  -3 48.9261 2.68754   1 
   5   3  -3 51.8202 3.11909   3 
  -5  -3   3 49.8156 2.88632   1 
  -5  -3   3 46.5698 2.64331   1 
   4   3  -3 153.581 6.68380   1 
   4   3  -3 166.723 8.38897   3 
   4   3  -3 150.017 6.60036   1 
  -4  -3   3 153.277 6.60716   1 
  -4  -3   3 145.928 6.67931   1 
   3   3  -3 48.3185 2.92430   3 
   3   3  -3 47.7006 2.38818   1 
   3   3  -3 48.3103 2.45926   1 
  -3  -3   3 46.1289 2.44065   1 
  -3  -3   3 48.1316 2.41922   1 
   2   3  -3 363.622 14.4291   1 
   2   3  -3 365.278 18.7539   3 
   2   3  -3 369.762 14.4426   1 
  -2  -3   3 354.851 14.4359   1 
  -2  -3   3 345.022 14.4172   1 
   1   3  -3 5.70786 0.60163   1 
   1   3  -3 5.50533 0.59082   1 
   1   3  -3 4.94392 0.86159   3 
  -1  -3   3 5.50496 0.58931   1 
   0   3  -3 456.659 23.5858   3 
   0   3  -3 450.676 18.0502   1 
   0  -3   3 456.778 18.0324   1 
  -1   3  -3 6.37618 0.70039   1 
  -1   3  -3 6.95296 0.96934   3 
   1  -3   3 7.57927 0.65417   2 
   1  -3   3 7.24884 0.74265   1 
  -2   3  -3 581.445 21.7742   1 
  -2   3  -3 476.342 28.2587   3 
   2  -3   3 588.648 21.7696   1 
  -3   3  -3 92.8094 3.85963   1 
  -3   3  -3 71.8378 4.73166   3 
   3  -3   3 92.6521 3.88328   1 
  -4   3  -3 32.0709 1.86915   1 
  -4   3  -3 34.5722 2.25737   3 
   4  -3   3 35.5944 1.95952   1 
  -5   3  -3 1.59477 0.60861   3 
   5  -3   3 0.91822 0.80005   1 
  -6   3  -3 16.8937 1.39689   3 
   6  -3   3 18.5684 1.77345   1 
  -7   3  -3 31.5350 2.40022   1 
   7  -3   3 27.0633 2.86715   1 
  -8   3  -3 12.0584 1.47236   1 
   8  -3   3 10.1717 2.21728   1 
   9  -3   3 43.0296 3.94815   1 
   9  -3   3 40.0309 4.11543   1 
   9   2  -3 7.39387 1.97852   1 
   9   2  -3 0.24935 1.70126   1 
   8   2  -3 25.2741 2.47847   1 
   8   2  -3 32.0998 3.19355   1 
   7   2  -3 30.4635 2.04944   3 
   7   2  -3 29.9219 2.63974   1 
   7   2  -3 33.7656 2.27254   1 
  -7  -2   3 30.0149 2.49017   1 
   6   2  -3 10.8231 1.31736   3 
   6   2  -3 9.27058 1.20285   1 
   6   2  -3 8.04112 1.03943   1 
  -6  -2   3 8.43815 1.04322   1 
   5   2  -3 48.0673 2.71964   1 
   5   2  -3 53.3575 2.78650   1 
   5   2  -3 52.7149 3.08006   3 
  -5  -2   3 50.8534 2.72033   1 
  -5  -2   3 51.1039 2.80394   1 
   4   2  -3 70.9948 3.37730   1 
   4   2  -3 75.6861 4.11947   3 
   4   2  -3 73.3768 3.41631   1 
  -4  -2   3 70.9935 3.40717   1 
  -4  -2   3 68.3970 3.33680   1 
   3   2  -3 379.362 14.9385   1 
   3   2  -3 372.094 14.9515   1 
   3   2  -3 370.505 19.3488   3 
  -3  -2   3 361.149 14.9071   1 
  -3  -2   3 381.488 14.9739   1 
   2   2  -3 18.5238 1.12447   1 
   2   2  -3 18.9235 1.56039   3 
   2   2  -3 19.8953 1.20599   1 
  -2  -2   3 19.5735 1.18168   1 
   1   2  -3 29.3391 1.44190   1 
   1   2  -3 27.5980 1.43408   1 
   1   2  -3 27.0603 1.85245   3 
  -1  -2   3 26.2194 1.40358   1 
   0   2  -3 95.0370 5.25896   3 
   0   2  -3 94.2760 3.99919   1 
   0  -2   3 95.2181 3.99329   1 
  -1   2  -3 612.455 24.2701   1 
  -1   2  -3 614.332 31.6681   3 
   1  -2   3 619.777 24.2588   1 
   1  -2   3 612.984 28.0854   2 
  -2   2  -3 17.2694 1.48289   3 
  -2   2  -3 16.5161 1.18594   1 
   2  -2   3 18.8656 1.23754   1 
  -3   2  -3 114.272 4.97288   1 
  -3   2  -3 110.491 6.26243   3 
   3  -2   3 119.764 5.03833   1 
  -4   2  -3 227.331 9.61052   1 
  -4   2  -3 230.669 12.2054   3 
   4  -2   3 239.047 9.69510   1 
  -5   2  -3 63.1257 3.57964   3 
  -5   2  -3 60.3509 3.09634   1 
   5  -2   3 65.1409 3.41061   1 
  -6   2  -3 114.768 6.05137   3 
  -6   2  -3 109.257 5.26720   1 
   6  -2   3 114.760 5.53760   1 
  -7   2  -3 118.194 5.53476   1 
   7  -2   3 109.494 5.88146   1 
   8  -2   3 5.56004 1.64848   1 
   9   1  -3 2.29151 1.79275   1 
   9   1  -3 -0.4370 1.31866   1 
  -9  -1   3 -0.8071 1.54181   1 
   8   1  -3 3.62654 1.41401   1 
   8   1  -3 1.23981 1.34037   1 
  -8  -1   3 2.10744 1.23319   1 
   7   1  -3 49.9736 2.97522   1 
   7   1  -3 49.7060 3.05319   1 
  -7  -1   3 47.9991 2.81359   1 
   6   1  -3 30.3721 1.89907   1 
   6   1  -3 35.3984 1.95995   3 
   6   1  -3 31.0520 2.06158   1 
  -6  -1   3 23.0557 1.83900   1 
   5   1  -3 0.80350 0.58808   3 
   5   1  -3 -0.0244 0.40526   1 
   5   1  -3 1.60919 0.61753   1 
  -5  -1   3 0.37203 0.49124   1 
   4   1  -3 59.0937 2.69814   1 
   4   1  -3 57.8695 3.31450   3 
   4   1  -3 59.6863 2.76113   1 
  -4  -1   3 55.4241 2.72340   1 
   3   1  -3 1.98970 0.35844   1 
   3   1  -3 2.21340 0.48691   3 
   3   1  -3 2.43991 0.47514   1 
  -3  -1   3 2.29306 0.39410   1 
   2   1  -3 -0.7371 0.16847   1 
   2   1  -3 0.38530 0.30323   1 
   2   1  -3 0.26536 0.49298   3 
  -2  -1   3 -0.3577 0.25427   1 
   1   1  -3 182.483 7.37414   1 
   1   1  -3 180.133 9.69637   3 
  -1  -1   3 185.968 7.35747   1 
   0   1  -3 1082.33 42.1751   1 
   0   1  -3 1062.92 55.1037   3 
   0  -1   3 1072.92 49.1320   2 
   0  -1   3 1090.08 42.1606   1 
  -1   1  -3 460.469 24.7145   3 
  -1   1  -3 468.842 18.9554   1 
   1  -1   3 510.193 21.9435   2 
   1  -1   3 473.840 18.9558   1 
  -2   1  -3 43.6628 2.10300   1 
  -2   1  -3 39.1731 2.56879   3 
   2  -1   3 41.5865 2.06712   1 
  -3   1  -3 1033.03 55.9666   3 
  -3   1  -3 1112.20 43.0787   1 
   3  -1   3 1138.44 43.1421   1 
  -4   1  -3 186.700 10.5380   3 
  -4   1  -3 206.057 8.41908   1 
   4  -1   3 208.577 8.53989   1 
  -5   1  -3 9.36531 1.06442   3 
  -5   1  -3 9.19989 1.16974   1 
   5  -1   3 9.08304 1.33713   1 
  -6   1  -3 21.0199 1.89665   1 
  -6   1  -3 21.4281 1.53543   3 
   6  -1   3 22.8949 2.15698   1 
  -7   1  -3 28.7933 2.36229   1 
   7  -1   3 33.6917 2.76318   1 
  -8   1  -3 4.59240 1.84610   1 
   8  -1   3 8.18847 2.57067   1 
   8  -1   3 7.24159 2.01261   1 
   9   0  -3 26.0533 2.49107   1 
   9   0  -3 33.7297 3.31091   1 
  -9   0   3 28.9830 2.61037   1 
   8   0  -3 218.935 9.21267   1 
   8   0  -3 209.802 9.23540   1 
  -8   0   3 204.903 8.95057   1 
   7   0  -3 8.65725 1.04935   1 
   7   0  -3 10.5070 1.30537   1 
  -7   0   3 10.9821 1.08545   1 
   6   0  -3 21.9697 1.46995   1 
   6   0  -3 23.2353 1.61118   1 
   6   0  -3 22.0659 1.43141   3 
  -6   0   3 19.4150 1.42883   1 
   5   0  -3 58.9215 3.29357   3 
   5   0  -3 58.1308 2.72123   1 
   5   0  -3 61.3289 2.78695   1 
  -5   0   3 53.0571 2.64342   1 
   4   0  -3 1563.36 82.7033   3 
   4   0  -3 1629.72 63.4355   1 
   4   0  -3 1724.54 63.4806   1 
  -4   0   3 1553.31 63.3802   1 
  -4   0   3 1639.82 63.4492   1 
   3   0  -3 85.4362 3.58509   1 
   3   0  -3 85.9120 3.57011   1 
  -3   0   3 83.1148 3.57297   1 
   2   0  -3 82.0528 3.38210   1 
  -2   0   3 79.6563 4.13126   2 
  -2   0   3 82.4821 3.37746   1 
   1   0  -3 230.814 9.25009   1 
  -1   0   3 231.390 10.8766   2 
  -1   0   3 233.404 9.22815   1 
   0   0  -3 38.4707 1.69414   1 
   0   0   3 36.5045 1.66248   1 
   0   0   3 31.1064 1.86977   2 
  -1   0  -3 624.237 24.6516   1 
   1   0   3 624.712 24.6570   1 
  -2   0  -3 155.337 6.58351   1 
   2   0   3 159.059 6.63872   1 
  -3   0  -3 3.66849 0.68539   1 
   3   0   3 4.34050 0.69809   1 
  -4   0  -3 918.262 37.1825   1 
   4   0   3 960.657 37.3017   1 
  -5   0  -3 114.015 4.82200   1 
  -5   0  -3 92.0787 5.60907   3 
   5   0   3 102.524 5.02832   1 
  -6   0  -3 92.3970 4.59173   1 
  -6   0  -3 82.2365 4.84147   3 
   6   0   3 92.4820 4.65939   1 
   6   0   3 92.0495 4.68474   1 
  -7   0  -3 101.263 5.31587   1 
   7   0   3 101.904 5.44862   1 
   7   0   3 97.0660 5.67126   1 
   8   0   3 35.8406 3.64620   1 
   8   0   3 30.2546 3.17089   1 
   9  -1  -3 8.90178 1.69120   1 
   9  -1  -3 8.68714 1.58213   1 
  -9   1   3 8.92916 1.33312   1 
   8  -1  -3 0.05031 0.60924   1 
   8  -1  -3 1.41741 1.07101   1 
  -8   1   3 -0.0108 0.75842   1 
   7  -1  -3 62.9925 3.07915   1 
   7  -1  -3 57.5954 3.01434   1 
  -7   1   3 59.7665 2.88113   1 
   6  -1  -3 0.45431 0.52240   1 
   6  -1  -3 0.18913 0.46729   1 
   6  -1  -3 -0.2012 0.46325   3 
  -6   1   3 0.17332 0.44218   1 
   5  -1  -3 3.25671 0.58214   3 
   5  -1  -3 3.58899 0.52262   1 
   5  -1  -3 3.36484 0.53980   1 
  -5   1   3 2.39232 0.43726   1 
   4  -1  -3 736.809 29.1060   1 
   4  -1  -3 745.781 29.1277   1 
   3  -1  -3 349.214 13.4729   1 
   3  -1  -3 347.217 13.4746   1 
  -3   1   3 337.154 13.4431   1 
  -3   1   3 331.674 15.9991   2 
   2  -1  -3 152.519 6.03350   1 
  -2   1   3 151.996 6.00266   1 
  -2   1   3 147.977 7.28476   2 
   1  -1  -3 605.012 24.2051   1 
  -1   1   3 613.437 24.1780   1 
  -1   1   3 632.542 28.3548   2 
   0  -1  -3 1318.03 53.2182   1 
   0   1   3 1342.91 53.2168   1 
   0   1   3 1421.76 62.0977   2 
  -1  -1  -3 437.235 17.5458   1 
   1   1   3 445.003 17.5747   1 
  -2  -1  -3 45.6165 2.33164   1 
   2   1   3 49.1041 2.40292   1 
  -3  -1  -3 102.252 4.61451   1 
   3   1   3 104.787 4.77045   1 
  -4  -1  -3 9.93567 1.22001   1 
   4   1   3 10.0258 1.18996   1 
  -5  -1  -3 3.90418 0.95712   1 
   5   1   3 1.39228 0.87707   1 
   5   1   3 3.21898 1.19474   1 
  -6  -1  -3 37.8479 2.95618   1 
  -6  -1  -3 35.1697 2.50437   3 
   6   1   3 40.4893 3.02195   1 
   6   1   3 37.1901 3.31895   1 
  -7  -1  -3 3.79211 1.76302   1 
   7   1   3 4.72104 2.20955   1 
   7   1   3 5.73062 2.08123   1 
  10  -2  -3 23.4424 2.58498   1 
 -10   2   3 19.0645 2.08461   1 
 -10   2   3 22.9597 2.66792   2 
   9  -2  -3 20.5245 2.06803   1 
   9  -2  -3 21.1376 2.10065   1 
  -9   2   3 20.7543 1.68320   1 
   8  -2  -3 25.6278 1.90421   1 
   8  -2  -3 31.7977 2.16141   1 
  -8   2   3 24.9020 1.61946   1 
   7  -2  -3 21.8230 1.52851   1 
   7  -2  -3 20.4372 1.34702   3 
   7  -2  -3 21.7858 1.58383   1 
  -7   2   3 20.6474 1.27021   1 
   6  -2  -3 126.312 5.17685   1 
   6  -2  -3 121.238 5.15950   1 
  -6   2   3 115.741 6.33417   2 
   5  -2  -3 14.0423 0.87103   1 
   5  -2  -3 12.9417 0.86521   1 
  -5   2   3 13.4715 1.37364   2 
   4  -2  -3 411.047 16.0046   1 
   4  -2  -3 406.987 16.0124   1 
  -4   2   3 401.369 19.0710   2 
   3  -2  -3 2.65642 0.25994   1 
  -3   2   3 2.95664 0.75164   3 
  -3   2   3 2.13593 0.62013   2 
   2  -2  -3 233.657 9.30890   1 
  -2   2   3 234.146 11.1262   2 
  -2   2   3 251.968 9.23862   1 
  -2   2   3 219.588 12.4487   3 
   1  -2  -3 1.30015 0.28624   1 
  -1   2   3 0.29185 0.36001   2 
  -1   2   3 0.36990 0.20580   1 
  -1   2   3 0.03987 0.43641   3 
   0  -2  -3 51.9011 2.39816   1 
   0   2   3 52.5161 2.37695   1 
  -1  -2  -3 207.697 8.25244   1 
   1   2   3 212.302 8.29009   1 
   1   2   3 180.938 10.7009   3 
  -2  -2  -3 215.368 8.60513   1 
   2   2   3 219.508 8.68361   1 
   2   2   3 184.975 11.0548   3 
  -3  -2  -3 38.5449 2.32810   1 
   3   2   3 40.0246 2.28014   1 
   3   2   3 36.4584 2.17149   1 
  -4  -2  -3 87.0791 4.25680   1 
   4   2   3 87.7047 4.29120   1 
   4   2   3 90.6241 4.39274   1 
  -5  -2  -3 22.4261 2.26954   1 
   5   2   3 21.9570 2.11607   1 
   5   2   3 20.7305 2.06035   1 
  -6  -2  -3 51.6826 3.74491   1 
   6   2   3 61.0523 3.76007   1 
   6   2   3 53.5934 3.55073   1 
  -7  -2  -3 1.40378 1.56740   1 
   7   2   3 -1.7023 1.61339   1 
   7   2   3 1.44579 2.22383   1 
  10  -3  -3 21.2998 1.95365   1 
  10  -3  -3 23.2449 2.40384   1 
 -10   3   3 19.9103 2.79854   2 
   9  -3  -3 39.6752 2.53207   1 
   9  -3  -3 44.8246 2.82177   1 
  -9   3   3 38.8244 3.61998   2 
   8  -3  -3 96.7346 4.33447   1 
   8  -3  -3 95.5535 4.40955   1 
  -8   3   3 89.7563 5.59308   2 
   7  -3  -3 11.9906 1.13151   1 
   7  -3  -3 11.0528 1.05553   1 
  -7   3   3 12.4328 1.80836   2 
   6  -3  -3 83.6077 3.59753   1 
   6  -3  -3 84.6494 3.62746   1 
  -6   3   3 81.6961 4.74811   2 
   5  -3  -3 0.89927 0.29081   1 
   5  -3  -3 1.01992 0.26770   1 
  -5   3   3 0.60736 0.64543   3 
  -5   3   3 0.81083 0.58531   2 
   4  -3  -3 215.821 8.03998   1 
   4  -3  -3 219.051 8.03876   1 
  -4   3   3 173.612 10.8562   3 
  -4   3   3 203.771 9.83789   2 
   3  -3  -3 40.4934 1.64901   1 
  -3   3   3 38.1767 2.70071   3 
  -3   3   3 40.4990 2.41947   2 
   2  -3  -3 334.247 13.2146   1 
  -2   3   3 337.835 15.6837   2 
  -2   3   3 315.801 17.6035   3 
  -2   3   3 349.502 13.1076   1 
  -2   3   3 336.987 13.1041   1 
   1  -3  -3 149.583 6.01099   1 
  -1   3   3 161.958 5.99473   1 
  -1   3   3 124.564 7.09934   2 
  -1   3   3 146.537 8.12079   3 
  -1   3   3 151.670 5.98857   1 
   0  -3  -3 34.9003 1.70411   1 
   0   3   3 32.6367 1.64273   1 
   0   3   3 28.2127 1.59241   1 
   0   3   3 32.1693 2.30617   3 
  -1  -3  -3 -0.0918 0.45799   1 
   1   3   3 0.19147 0.78177   3 
   1   3   3 0.62224 0.34966   1 
   1   3   3 -0.1089 0.46710   1 
  -2  -3  -3 66.2977 3.14510   1 
   2   3   3 68.1334 3.21955   1 
   2   3   3 66.4185 3.16812   1 
   2   3   3 58.9897 4.01371   3 
  -3  -3  -3 113.809 4.99377   1 
   3   3   3 111.738 5.01933   1 
   3   3   3 93.1154 6.25191   3 
   3   3   3 116.535 5.17792   1 
  -4  -3  -3 323.830 13.3508   1 
   4   3   3 312.085 13.3339   1 
   4   3   3 321.430 13.4155   1 
  -5  -3  -3 -0.7075 1.33893   1 
   5   3   3 0.83605 1.47109   1 
   5   3   3 -0.0179 1.40589   1 
  -6  -3  -3 91.1346 5.39563   1 
   6   3   3 86.3277 5.56923   1 
   6   3   3 91.8720 5.45199   1 
  -7  -3  -3 21.1069 3.46517   1 
   7   3   3 18.8867 3.44148   1 
   7   3   3 24.0365 2.76268   1 
  10  -4  -3 3.51338 1.53693   1 
  10  -4  -3 4.99242 1.18339   1 
 -10   4   3 4.40709 2.13441   2 
   9  -4  -3 3.35041 1.13822   1 
   9  -4  -3 2.14007 0.82382   1 
  -9   4   3 5.95304 1.84741   2 
   8  -4  -3 17.3986 1.66682   1 
   8  -4  -3 18.4815 1.38205   1 
  -8   4   3 19.2991 2.11043   2 
   7  -4  -3 12.6099 1.18310   1 
   7  -4  -3 13.7477 0.95973   1 
  -7   4   3 11.0612 1.77854   2 
   6  -4  -3 20.9810 1.05755   1 
   6  -4  -3 19.9465 1.10150   1 
  -6   4   3 19.2923 2.09995   2 
  -6   4   3 16.9467 1.87321   3 
   5  -4  -3 15.9412 0.78293   1 
   5  -4  -3 16.4662 0.78003   1 
  -5   4   3 17.0418 1.67309   2 
  -5   4   3 13.9375 1.72153   3 
   4  -4  -3 779.028 31.0147   1 
  -4   4   3 815.926 36.7386   2 
  -4   4   3 794.387 41.1324   3 
   3  -4  -3 113.464 4.43983   1 
  -3   4   3 112.764 5.58407   2 
  -3   4   3 106.019 6.32830   3 
   2  -4  -3 575.424 22.4349   1 
  -2   4   3 591.387 22.3228   1 
  -2   4   3 543.575 22.3260   1 
  -2   4   3 583.467 26.4414   2 
  -2   4   3 560.622 29.7231   3 
   1  -4  -3 147.357 5.89212   1 
  -1   4   3 137.216 7.96670   3 
  -1   4   3 140.160 5.85434   1 
  -1   4   3 143.859 5.83270   1 
   0  -4  -3 570.578 22.0820   1 
   0   4   3 553.644 22.0490   1 
   0   4   3 538.391 29.0266   3 
   0   4   3 560.049 22.0814   1 
  -1  -4  -3 210.854 8.51734   1 
   1   4   3 191.445 11.1291   3 
   1   4   3 208.863 8.53500   1 
   1   4   3 201.395 8.48660   1 
  -2  -4  -3 27.4089 1.74707   1 
   2   4   3 27.4841 1.80384   1 
   2   4   3 26.6486 1.75840   1 
   2   4   3 24.6473 2.24814   3 
  -3  -4  -3 64.8859 3.38597   1 
   3   4   3 60.8427 4.40639   3 
   3   4   3 67.4481 3.64216   1 
   3   4   3 68.1813 3.51102   1 
  -4  -4  -3 31.0934 2.59229   1 
   4   4   3 33.5094 2.81126   1 
   4   4   3 22.1439 2.72242   3 
   4   4   3 32.4446 2.35937   1 
  -5  -4  -3 4.87350 1.77275   1 
   5   4   3 1.78828 1.76719   1 
   5   4   3 5.13521 1.36804   1 
  -6  -4  -3 13.6555 2.61654   1 
   6   4   3 11.8337 2.76433   1 
   6   4   3 13.4619 2.81969   1 
  10  -5  -3 1.71653 0.93558   1 
  10  -5  -3 2.63189 1.35745   1 
 -10   5   3 2.90000 1.83545   2 
   9  -5  -3 302.961 12.5728   1 
   9  -5  -3 304.277 12.6621   1 
  -9   5   3 320.820 15.3217   2 
   8  -5  -3 5.49066 0.76228   1 
   8  -5  -3 5.15643 0.63641   1 
  -8   5   3 5.21991 1.22820   2 
   7  -5  -3 286.289 11.0067   1 
   7  -5  -3 281.452 11.0287   1 
  -7   5   3 235.922 14.6283   3 
  -7   5   3 297.606 13.4974   2 
   6  -5  -3 -0.3755 0.27923   1 
   6  -5  -3 0.02400 0.21919   1 
  -6   5   3 -0.0164 1.03948   2 
  -6   5   3 0.44862 0.68981   3 
   5  -5  -3 8.74627 0.38961   1 
   5  -5  -3 8.29794 0.38349   1 
  -5   5   3 8.93051 1.26886   2 
  -5   5   3 7.56202 1.17008   3 
   4  -5  -3 29.5937 1.19044   1 
  -4   5   3 28.9335 2.04840   2 
  -4   5   3 25.8599 2.21793   3 
   3  -5  -3 38.4505 1.74299   1 
  -3   5   3 40.8850 2.57328   2 
  -3   5   3 41.9465 3.00826   3 
   2  -5  -3 15.5765 0.91614   1 
  -2   5   3 14.7455 0.81392   1 
  -2   5   3 16.3310 0.83513   1 
  -2   5   3 13.0151 1.84441   3 
   1  -5  -3 56.1221 2.57474   1 
  -1   5   3 53.7550 2.53109   1 
  -1   5   3 55.5141 3.80619   3 
  -1   5   3 54.2707 2.50054   1 
   0  -5  -3 6.32455 0.78934   1 
   0   5   3 6.65829 0.72512   1 
   0   5   3 6.99731 1.37115   3 
   0   5   3 6.06463 0.71508   1 
  -1  -5  -3 229.630 9.62745   1 
   1   5   3 238.539 9.63970   1 
   1   5   3 231.939 9.62252   1 
   1   5   3 219.828 12.7105   3 
  -2  -5  -3 82.3120 3.81085   1 
   2   5   3 78.5940 3.93259   1 
   2   5   3 66.8935 5.03035   3 
   2   5   3 75.5989 3.92184   1 
  -3  -5  -3 4.10978 1.26329   1 
   3   5   3 5.69058 1.33868   3 
   3   5   3 5.32691 1.09022   1 
   3   5   3 6.34517 1.43353   1 
  -4  -5  -3 159.239 7.18118   1 
   4   5   3 159.842 7.44848   1 
   4   5   3 138.784 8.89162   3 
   4   5   3 161.980 7.25249   1 
  -5  -5  -3 94.2715 5.55843   1 
   5   5   3 84.3093 5.14537   1 
   5   5   3 101.906 5.75376   1 
  10  -6  -3 1.13443 0.81400   1 
  10  -6  -3 -0.5776 1.24433   1 
 -10   6   3 1.48866 1.87467   2 
   9  -6  -3 37.5965 2.04847   1 
   9  -6  -3 37.4367 2.22207   1 
  -9   6   3 37.5853 3.42269   2 
   8  -6  -3 5.45968 0.63608   1 
   8  -6  -3 5.52577 0.74662   1 
  -8   6   3 4.41403 1.51905   2 
  -8   6   3 5.56712 1.52099   3 
   7  -6  -3 76.4775 3.19757   1 
   7  -6  -3 76.8278 3.14997   1 
  -7   6   3 67.5153 4.87768   3 
  -7   6   3 77.7117 4.46665   2 
   6  -6  -3 171.153 6.86916   1 
   6  -6  -3 182.586 6.87030   1 
  -6   6   3 165.225 9.77229   3 
  -6   6   3 177.132 8.75579   2 
   5  -6  -3 0.50318 0.13491   1 
  -5   6   3 0.07639 1.03074   3 
  -5   6   3 0.22451 0.66828   2 
   4  -6  -3 304.473 11.8181   1 
   4  -6  -3 300.413 11.8410   1 
  -4   6   3 290.129 16.2138   3 
  -4   6   3 303.742 14.2938   2 
   3  -6  -3 50.7896 2.20881   1 
   3  -6  -3 51.2282 2.26692   1 
  -3   6   3 45.5660 3.62692   3 
   2  -6  -3 17.5991 1.09584   1 
  -2   6   3 14.0368 2.00703   3 
  -2   6   3 16.9388 1.02238   1 
  -2   6   3 17.1653 0.95028   1 
   1  -6  -3 185.422 7.46599   1 
  -1   6   3 170.307 10.1695   3 
  -1   6   3 176.543 7.41674   1 
  -1   6   3 182.859 7.38952   1 
  -1  -6  -3 7.23821 1.11250   1 
   1   6   3 5.82862 1.30882   3 
   1   6   3 5.88470 1.08571   1 
  -2  -6  -3 116.068 5.45124   1 
   2   6   3 99.4191 6.86089   3 
   2   6   3 121.124 5.46270   1 
   2   6   3 114.463 5.42450   1 
  -3  -6  -3 1.29136 0.92357   1 
   3   6   3 2.05296 0.99851   1 
   3   6   3 0.76079 1.47491   1 
   3   6   3 -1.2287 1.51687   3 
  -4  -6  -3 0.03598 1.29975   1 
   4   6   3 -0.6495 1.74121   1 
   4   6   3 2.50263 1.40644   1 
   4   6   3 -0.8811 1.66696   3 
  -5  -6  -3 -0.2965 2.63863   1 
   5   6   3 3.84892 2.07874   3 
   5   6   3 5.29001 2.61873   1 
  10  -7  -3 26.1200 1.96723   1 
  10  -7  -3 26.4682 2.43002   1 
 -10   7   3 29.9225 3.43048   2 
   9  -7  -3 109.792 4.85654   1 
   9  -7  -3 118.462 5.00533   1 
  -9   7   3 132.815 6.62978   2 
  -9   7   3 100.891 6.80688   3 
   8  -7  -3 0.13366 0.49358   1 
   8  -7  -3 -0.2711 0.39466   1 
  -8   7   3 1.54123 1.38972   2 
  -8   7   3 0.34856 1.35907   3 
   7  -7  -3 106.903 4.15126   1 
   7  -7  -3 102.744 4.15720   1 
  -7   7   3 92.3842 6.42549   3 
  -7   7   3 110.063 5.72416   2 
   6  -7  -3 63.6064 2.49163   1 
  -6   7   3 63.1122 3.84201   2 
  -6   7   3 58.4902 4.26247   3 
   5  -7  -3 33.6653 1.50157   1 
  -5   7   3 35.3147 2.38124   2 
  -5   7   3 31.2586 3.09419   3 
   4  -7  -3 33.8647 1.57211   1 
   4  -7  -3 32.7051 1.61750   1 
  -4   7   3 30.9173 3.05571   3 
   3  -7  -3 98.0331 4.09284   1 
   3  -7  -3 95.2680 4.15050   1 
  -3   7   3 94.0898 6.02595   3 
   2  -7  -3 2.34730 0.54638   1 
  -2   7   3 2.31788 0.44661   1 
  -2   7   3 1.19910 0.90050   3 
  -2   7   3 2.06607 0.48908   1 
   1  -7  -3 7.35824 0.84275   1 
  -1   7   3 7.75378 0.85806   1 
  -1   7   3 5.70804 1.53089   3 
  -1   7   3 5.96924 0.76822   1 
   0  -7  -3 145.838 6.32914   1 
   0   7   3 133.891 8.56886   3 
   0   7   3 140.979 6.22072   1 
   0   7   3 147.420 6.25145   1 
  -1  -7  -3 15.3732 1.65060   1 
   1   7   3 13.6229 2.28551   3 
   1   7   3 14.2037 1.50637   1 
  -2  -7  -3 37.8775 3.03611   1 
   2   7   3 36.8000 2.84817   1 
   2   7   3 33.2621 3.72775   3 
   2   7   3 32.7141 2.81178   1 
  -3  -7  -3 0.47681 1.41637   1 
   3   7   3 1.16463 1.70925   1 
   3   7   3 0.76407 1.29295   3 
   3   7   3 0.28697 1.59627   1 
  -4  -7  -3 9.20627 2.47277   1 
   4   7   3 6.53695 2.36680   3 
   4   7   3 8.47925 1.87839   1 
   9  -8  -3 -0.4033 0.56481   1 
   9  -8  -3 0.23263 0.49495   1 
  -9   8   3 1.84028 1.57514   2 
  -9   8   3 -2.1450 1.66272   3 
   8  -8  -3 11.0922 0.69547   1 
   8  -8  -3 9.81785 0.68886   1 
  -8   8   3 8.68000 2.13005   3 
  -8   8   3 13.0640 1.89195   2 
   7  -8  -3 0.96931 0.19775   1 
  -7   8   3 0.31361 1.31091   2 
  -7   8   3 0.96455 1.18458   3 
   6  -8  -3 11.0431 0.67539   1 
  -6   8   3 12.2774 1.90311   3 
   5  -8  -3 91.0245 3.79209   1 
  -5   8   3 88.2883 6.04449   3 
   4  -8  -3 1.54860 0.48339   1 
   4  -8  -3 1.91975 0.45354   1 
  -4   8   3 1.63071 1.06751   3 
   3  -8  -3 0.72258 0.57190   1 
   3  -8  -3 0.99502 0.48109   1 
  -3   8   3 2.20972 1.51016   3 
  -3   8   3 1.56647 0.27190   1 
  -3   8   3 1.20794 0.27691   1 
   2  -8  -3 26.2853 1.65227   1 
  -2   8   3 21.7744 2.53536   3 
  -2   8   3 22.1947 1.48632   1 
  -2   8   3 25.6719 1.43705   1 
   1  -8  -3 4.44278 0.92478   1 
  -1   8   3 2.74091 0.71710   1 
  -1   8   3 3.32363 1.54859   3 
  -1   8   3 4.03698 0.87639   1 
   0  -8  -3 325.989 12.8687   1 
   0   8   3 293.801 12.7348   1 
   0   8   3 290.388 17.1580   3 
   0   8   3 323.697 12.7821   1 
  -1  -8  -3 495.300 18.8116   1 
   1   8   3 435.220 24.7148   3 
   1   8   3 439.727 18.6942   1 
  -2  -8  -3 -0.3157 1.65264   1 
   2   8   3 -0.4982 1.71767   3 
   2   8   3 -1.3124 1.53873   1 
   2   8   3 2.02909 1.53003   1 
  -3  -8  -3 19.1978 2.92623   1 
   3   8   3 18.0995 2.55992   1 
   3   8   3 17.1222 2.61459   3 
   9  -9  -3 33.5386 1.44729   1 
   9  -9  -3 33.7973 1.43834   1 
  -9   9   3 38.8154 3.96861   3 
  -9   9   3 45.3659 3.50389   2 
  -8   9   3 3.81671 2.05046   3 
   7  -9  -3 333.534 12.6939   1 
  -7   9   3 311.572 17.8637   3 
   6  -9  -3 152.814 6.14908   1 
  -6   9   3 149.922 9.33429   3 
   5  -9  -3 22.7167 1.40192   1 
  -5   9   3 18.3816 2.73426   3 
   4  -9  -3 104.089 4.56687   1 
   4  -9  -3 110.581 4.51866   1 
  -4   9   3 94.6940 6.68337   3 
   3  -9  -3 29.9614 2.03486   1 
   3  -9  -3 33.1998 1.91176   1 
  -3   9   3 31.0167 3.53904   3 
  -3   9   3 29.0001 1.46344   1 
  -3   9   3 31.1182 1.44469   1 
   2  -9  -3 82.2287 3.77022   1 
  -2   9   3 71.5936 5.43255   3 
  -2   9   3 76.4247 3.57741   1 
  -2   9   3 79.0467 3.53689   1 
   1  -9  -3 17.5347 1.51929   1 
  -1   9   3 14.2203 2.58877   3 
  -1   9   3 18.4425 1.75775   1 
  -1   9   3 14.0563 1.46746   1 
   0  -9  -3 208.597 8.90254   1 
   0   9   3 187.644 8.60813   1 
   0   9   3 215.076 8.76747   1 
   0   9   3 189.469 11.8049   3 
  -1  -9  -3 150.406 6.92049   1 
   1   9   3 134.613 6.59468   1 
   1   9   3 135.924 9.06816   3 
   1   9   3 136.605 6.68295   1 
  -2  -9  -3 -0.2495 2.21828   1 
   2   9   3 3.56364 1.75824   3 
   2   9   3 1.45263 1.40001   1 
  -8  10   3 -0.4102 1.91900   3 
   7 -10  -3 21.5816 1.21301   1 
  -7  10   3 21.9437 3.04503   3 
   6 -10  -3 258.000 10.2318   1 
  -6  10   3 248.996 14.6582   3 
   5 -10  -3 25.8350 1.68802   1 
  -5  10   3 28.2278 3.47830   3 
   4 -10  -3 32.8525 1.86643   1 
   4 -10  -3 30.6677 2.08880   1 
  -4  10   3 28.7976 3.18462   3 
   3 -10  -3 29.6145 1.97736   1 
  -3  10   3 25.1464 1.38271   1 
  -3  10   3 25.4486 3.11723   3 
   2 -10  -3 94.5081 4.42115   1 
  -2  10   3 85.9515 4.00005   1 
  -2  10   3 83.3406 6.45425   3 
   1 -10  -3 29.2890 2.69481   1 
  -1  10   3 29.5797 2.38079   1 
  -1  10   3 25.6088 2.03058   1 
  -1  10   3 28.0547 3.21212   3 
   0 -10  -3 29.9208 3.16843   1 
   0  10   3 32.8990 4.05220   3 
   0  10   3 23.5841 2.32933   1 
   0  10   3 27.8283 2.86822   1 
  -7  11   3 49.4621 4.88790   3 
   6 -11  -3 38.7283 2.25518   1 
  -6  11   3 41.4259 4.44628   3 
   5 -11  -3 65.0135 3.42476   1 
  -5  11   3 62.9912 5.54100   3 
   4 -11  -3 4.75691 1.12905   1 
  -4  11   3 4.69513 2.04480   3 
   3 -11  -3 10.4316 1.40428   1 
  -3  11   3 9.07735 2.68336   3 
  -3  11   3 10.1249 1.02016   1 
  -3  11   3 10.2055 0.96971   1 
   2 -11  -3 19.3601 1.92133   1 
  -2  11   3 21.9574 2.09477   1 
  -2  11   3 17.4161 2.89450   3 
  -2  11   3 11.4593 1.28364   1 
  -2  12  -4 335.325 14.0079   1 
   2 -12   4 335.019 14.6562   1 
  -3  12  -4 11.9790 1.42825   1 
  -3  12  -4 9.60340 2.55578   3 
   3 -12   4 12.1432 2.29148   1 
  -4  12  -4 15.6763 2.19168   1 
  -4  12  -4 15.8209 2.87610   3 
  -4  12  -4 13.7528 1.46871   1 
   1  11  -4 16.3187 2.93861   3 
   1  11  -4 10.3597 2.09029   1 
  -1 -11   4 12.2294 2.32686   1 
   0  11  -4 5.59527 1.65866   1 
   0  11  -4 5.39350 2.10523   3 
   0  11  -4 -0.3291 1.78435   1 
   0 -11   4 5.07031 1.70308   1 
  -1  11  -4 69.6561 4.03600   1 
  -1  11  -4 66.2221 4.39160   1 
  -1  11  -4 72.9451 5.69205   3 
   1 -11   4 81.5386 4.36039   1 
  -2  11  -4 -1.5813 1.07809   1 
  -2  11  -4 0.46194 1.22160   3 
  -2  11  -4 -1.4714 1.55195   1 
   2 -11   4 0.54038 1.65829   1 
  -3  11  -4 220.453 9.86639   1 
  -3  11  -4 224.715 9.70115   1 
  -3  11  -4 242.383 13.4171   3 
   3 -11   4 231.308 10.1516   1 
  -4  11  -4 1.18144 1.52704   1 
  -4  11  -4 1.03937 0.92716   1 
  -4  11  -4 0.42130 1.20602   3 
   4 -11   4 2.57104 1.11443   1 
  -5  11  -4 2.01433 1.51607   1 
  -5  11  -4 0.97677 1.66914   3 
  -5  11  -4 0.11689 0.80475   1 
   5 -11   4 -2.4390 1.43928   1 
  -6  11  -4 31.1019 3.65088   3 
  -6  11  -4 25.8760 2.10295   1 
  -6  11  -4 23.4091 2.42681   1 
   6 -11   4 24.5805 2.44840   1 
   2  10  -4 15.2951 2.55628   1 
   2  10  -4 16.2050 2.41349   3 
   2  10  -4 11.8376 1.71583   1 
  -2 -10   4 16.1150 2.81501   1 
   1  10  -4 24.0332 2.43503   1 
   1  10  -4 25.3617 3.41269   3 
   1  10  -4 26.2548 2.75461   1 
  -1 -10   4 25.1123 2.74980   1 
   0  10  -4 17.7830 2.47398   3 
   0  10  -4 20.6224 1.91857   1 
   0  10  -4 22.9227 2.19200   1 
   0 -10   4 18.0177 1.90989   1 
  -1  10  -4 241.001 10.5913   1 
  -1  10  -4 256.281 14.2979   3 
   1 -10   4 253.987 10.9075   1 
  -2  10  -4 368.423 19.8759   3 
  -2  10  -4 350.177 14.9419   1 
  -2  10  -4 357.156 14.8115   1 
   2 -10   4 370.715 15.1042   1 
  -3  10  -4 2.55228 1.59851   3 
  -3  10  -4 5.10511 1.34185   1 
  -3  10  -4 3.86813 0.94410   1 
   3 -10   4 5.78354 1.14319   1 
  -4  10  -4 0.33113 0.81039   1 
  -4  10  -4 -1.5848 1.22651   1 
  -4  10  -4 -1.1781 0.90805   3 
   4 -10   4 -1.4956 1.20258   1 
  -5  10  -4 0.26243 1.63033   3 
  -5  10  -4 -0.3257 1.21827   1 
  -5  10  -4 -0.2326 0.75073   1 
   5 -10   4 0.46528 0.94427   1 
  -6  10  -4 -1.3336 1.16040   1 
  -6  10  -4 -0.5499 1.63737   3 
  -6  10  -4 1.53518 0.92241   1 
   6 -10   4 0.01548 1.48923   1 
  -7  10  -4 4.42534 2.07155   3 
  -7  10  -4 1.01063 0.85333   1 
  -7  10  -4 4.05592 1.32010   1 
   7 -10   4 1.62082 1.18977   1 
   4   9  -4 -1.6532 2.11808   1 
   4   9  -4 -0.5686 1.72972   1 
   4   9  -4 0.72909 2.01644   3 
  -4  -9   4 4.63142 2.75645   1 
  -4  -9   4 3.76371 2.87340   1 
   3   9  -4 0.82363 1.26471   3 
   3   9  -4 0.99232 1.76671   1 
   3   9  -4 1.01395 2.02377   1 
  -3  -9   4 0.41845 1.43684   1 
   2   9  -4 20.5832 2.30778   1 
   2   9  -4 24.7495 2.15834   1 
   2   9  -4 22.8269 2.68583   3 
  -2  -9   4 23.9253 2.30159   1 
   1   9  -4 4.68935 1.31259   3 
   1   9  -4 2.52611 1.23814   1 
   1   9  -4 5.61888 1.50435   1 
  -1  -9   4 4.88640 1.59675   1 
   0   9  -4 17.2517 1.67502   1 
   0   9  -4 13.7447 1.51787   1 
   0   9  -4 16.4478 2.22616   3 
   0  -9   4 16.6271 1.81421   1 
  -1   9  -4 95.0048 6.00874   3 
  -1   9  -4 93.2793 4.48313   1 
  -1   9  -4 90.9678 4.61277   1 
   1  -9   4 91.8273 4.70480   1 
  -2   9  -4 418.766 22.5152   3 
  -2   9  -4 417.815 17.1117   1 
  -2   9  -4 416.604 16.9656   1 
   2  -9   4 419.152 17.1311   1 
  -3   9  -4 8.93287 1.06860   1 
  -3   9  -4 8.14752 1.78999   3 
  -3   9  -4 9.36377 1.37746   1 
   3  -9   4 10.0700 1.45209   1 
  -4   9  -4 0.47542 0.71273   1 
  -4   9  -4 2.53868 0.81432   1 
  -4   9  -4 0.05932 1.39745   3 
   4  -9   4 0.57571 1.03784   1 
  -5   9  -4 130.507 5.81892   1 
  -5   9  -4 128.806 6.05195   1 
  -5   9  -4 139.709 8.07635   3 
   5  -9   4 130.768 6.01758   1 
  -6   9  -4 4.58965 1.20402   1 
  -6   9  -4 4.01055 0.88842   1 
  -6   9  -4 6.50352 1.44655   3 
   6  -9   4 2.97977 1.31014   1 
  -7   9  -4 1.46874 1.26896   1 
  -7   9  -4 1.39055 0.85355   1 
  -7   9  -4 2.95469 1.28581   3 
   7  -9   4 3.54390 1.23242   1 
  -8   9  -4 8.68773 1.46808   1 
  -8   9  -4 11.7956 2.31507   3 
  -8   9  -4 11.5079 1.53316   1 
   5   8  -4 72.9621 5.72211   1 
   5   8  -4 73.2859 5.34027   1 
   5   8  -4 77.2470 5.69503   3 
  -5  -8   4 81.2978 6.08671   1 
  -5  -8   4 76.6265 6.00182   1 
   4   8  -4 4.43772 1.38745   1 
   4   8  -4 3.36172 1.84176   3 
   4   8  -4 4.10586 1.96229   1 
  -4  -8   4 4.18257 1.64180   1 
  -4  -8   4 2.31059 1.61792   1 
   3   8  -4 6.54242 1.56334   1 
   3   8  -4 8.14230 1.44005   1 
   3   8  -4 6.52455 1.86756   3 
  -3  -8   4 8.43550 1.98778   1 
  -3  -8   4 6.70461 1.88757   1 
   2   8  -4 2.25712 1.10967   1 
   2   8  -4 3.17379 1.40143   1 
   2   8  -4 2.27750 1.64488   3 
  -2  -8   4 4.08358 1.10403   1 
   1   8  -4 8.40208 1.08274   1 
   1   8  -4 8.66284 1.20426   1 
   1   8  -4 8.76301 1.69362   3 
  -1  -8   4 8.54538 1.42858   1 
   0   8  -4 360.043 14.8237   1 
   0   8  -4 372.903 19.5122   3 
   0   8  -4 353.455 14.7433   1 
   0  -8   4 356.276 14.8548   1 
  -1   8  -4 31.0675 2.16118   1 
  -1   8  -4 37.8851 3.14867   3 
  -1   8  -4 32.8009 2.32049   1 
   1  -8   4 34.7735 2.38095   1 
  -2   8  -4 6.57951 1.28284   3 
  -2   8  -4 5.14073 0.88973   1 
   2  -8   4 6.42260 1.06315   1 
  -3   8  -4 682.655 26.9295   1 
  -3   8  -4 650.226 26.9905   1 
  -3   8  -4 687.013 35.3893   3 
   3  -8   4 684.609 27.0277   1 
  -4   8  -4 83.2932 5.24807   3 
  -4   8  -4 77.6869 3.74388   1 
  -4   8  -4 72.9409 3.93334   1 
   4  -8   4 84.6444 4.01129   1 
  -5   8  -4 28.6180 2.85383   3 
  -5   8  -4 28.0317 2.18697   1 
  -5   8  -4 28.2928 1.88646   1 
   5  -8   4 29.4931 2.30513   1 
  -6   8  -4 2.97086 1.17207   1 
  -6   8  -4 4.55090 1.51614   3 
   6  -8   4 4.16273 1.36517   1 
  -7   8  -4 44.8442 3.67718   3 
   7  -8   4 39.4461 2.89753   1 
  -8   8  -4 2.95943 1.70083   1 
  -8   8  -4 -1.1590 1.53560   3 
   8  -8   4 0.00494 1.83018   1 
   5   7  -4 44.3030 4.09186   1 
   5   7  -4 44.8324 3.23637   1 
   5   7  -4 46.7762 3.67293   3 
  -5  -7   4 46.4217 4.33686   1 
  -5  -7   4 42.8051 3.45495   1 
   4   7  -4 227.088 12.1504   3 
   4   7  -4 204.938 9.39212   1 
   4   7  -4 211.490 9.59641   1 
  -4  -7   4 212.886 9.57783   1 
  -4  -7   4 213.134 9.69519   1 
   3   7  -4 2.75275 1.04701   1 
   3   7  -4 3.07174 1.12162   3 
   3   7  -4 1.15598 1.20153   1 
  -3  -7   4 3.59332 1.33043   1 
  -3  -7   4 1.89397 1.06570   1 
   2   7  -4 30.5449 2.45012   1 
   2   7  -4 31.2603 2.29105   1 
   2   7  -4 29.0019 2.86490   3 
  -2  -7   4 28.0074 2.40940   1 
   1   7  -4 69.7843 4.60382   3 
   1   7  -4 73.1572 3.51393   1 
   1   7  -4 70.1212 3.70541   1 
  -1  -7   4 71.9522 3.60558   1 
   0   7  -4 1.63317 0.65742   1 
   0   7  -4 3.71316 1.20291   3 
   0   7  -4 2.47164 0.83819   1 
   0  -7   4 3.57908 0.92271   1 
  -1   7  -4 5.60284 0.77835   1 
  -1   7  -4 5.45758 1.27025   3 
  -1   7  -4 4.43486 0.77840   1 
   1  -7   4 5.81752 0.98427   1 
  -2   7  -4 301.813 16.5032   3 
  -2   7  -4 315.278 12.5650   1 
   2  -7   4 303.906 12.6018   1 
  -3   7  -4 31.5737 2.18765   1 
  -3   7  -4 33.8600 2.82751   3 
  -3   7  -4 31.6863 1.97391   1 
   3  -7   4 33.2252 2.13031   1 
  -4   7  -4 5.47153 1.14132   3 
  -4   7  -4 4.41723 1.02474   1 
   4  -7   4 5.09517 1.00945   1 
  -5   7  -4 4.45251 1.01298   1 
  -5   7  -4 4.05223 1.26733   3 
   5  -7   4 2.79582 1.07624   1 
  -6   7  -4 5.45744 1.18517   1 
  -6   7  -4 5.93498 1.47221   3 
   6  -7   4 6.15589 1.33019   1 
  -7   7  -4 2.75289 1.22363   1 
  -7   7  -4 0.92064 1.29253   3 
   7  -7   4 1.72541 1.46168   1 
  -8   7  -4 0.78785 1.41793   3 
  -8   7  -4 0.35721 1.36667   1 
   8  -7   4 -0.1724 1.86712   1 
   6   6  -4 -3.5696 2.04083   1 
   6   6  -4 -0.4769 1.23884   1 
   6   6  -4 1.07391 1.48440   3 
  -6  -6   4 -2.6434 2.11469   1 
  -6  -6   4 0.37218 1.42844   1 
   5   6  -4 1.06129 1.37775   3 
   5   6  -4 3.86800 1.50516   1 
   5   6  -4 0.27670 1.06733   1 
  -5  -6   4 -0.4162 1.61482   1 
  -5  -6   4 0.71533 1.69639   1 
   4   6  -4 93.0508 4.85574   1 
   4   6  -4 97.9136 5.90116   3 
   4   6  -4 95.8415 4.98186   1 
  -4  -6   4 95.6304 4.81953   1 
  -4  -6   4 97.9391 4.82490   1 
   3   6  -4 3.75191 1.17972   1 
   3   6  -4 6.46444 1.17176   3 
   3   6  -4 3.63679 0.92113   1 
  -3  -6   4 4.12248 0.95698   1 
  -3  -6   4 4.94760 1.02965   1 
   2   6  -4 10.8993 1.64313   3 
   2   6  -4 11.8058 1.20907   1 
   2   6  -4 12.4107 1.31269   1 
  -2  -6   4 11.2677 1.38512   1 
   1   6  -4 1.18919 0.76281   1 
   1   6  -4 0.76741 0.89665   3 
   1   6  -4 -0.6346 0.42278   1 
  -1  -6   4 0.49011 0.58287   1 
   0   6  -4 101.516 4.48033   1 
   0   6  -4 96.9574 4.54995   1 
   0   6  -4 100.305 5.89795   3 
   0  -6   4 99.8415 4.55854   1 
  -1   6  -4 52.4591 2.55888   1 
  -1   6  -4 51.5739 3.52682   3 
  -1   6  -4 50.0575 2.69268   1 
   1  -6   4 50.5454 2.57956   1 
  -2   6  -4 36.6843 2.02878   1 
  -2   6  -4 34.4583 2.58866   3 
  -2   6  -4 34.0059 2.11057   1 
   2  -6   4 35.4854 2.05609   1 
  -3   6  -4 347.079 18.2557   3 
   3  -6   4 339.392 13.9608   1 
  -4   6  -4 -0.6002 0.87057   3 
  -4   6  -4 2.01960 0.89574   1 
   4  -6   4 1.14242 0.78297   1 
  -5   6  -4 1.06556 1.05331   3 
  -5   6  -4 1.50088 0.95234   1 
   5  -6   4 0.79839 0.99631   1 
  -6   6  -4 59.0705 3.89849   3 
  -6   6  -4 53.3968 3.19191   1 
   6  -6   4 60.2080 3.44992   1 
  -7   6  -4 1.24044 1.16286   3 
  -7   6  -4 1.78303 1.12003   1 
   7  -6   4 -0.7441 1.34888   1 
  -8   6  -4 0.98168 1.41804   1 
  -8   6  -4 1.90646 1.60787   3 
   8  -6   4 3.00543 1.96080   1 
   7   5  -4 35.5116 3.28702   1 
   7   5  -4 41.1339 3.28835   3 
   7   5  -4 42.4149 4.23585   1 
  -7  -5   4 28.3816 2.79714   1 
   6   5  -4 0.36017 1.18877   1 
   6   5  -4 -1.4776 0.92370   1 
   6   5  -4 0.77317 1.29608   3 
  -6  -5   4 -0.9312 1.56128   1 
  -6  -5   4 0.30083 1.64412   1 
   5   5  -4 0.04867 0.85309   1 
   5   5  -4 -0.2271 1.07577   3 
   5   5  -4 -1.2057 0.83222   1 
  -5  -5   4 -1.2358 0.89128   1 
  -5  -5   4 -2.6705 0.79307   1 
   4   5  -4 235.798 12.3265   3 
   4   5  -4 225.154 9.64016   1 
   4   5  -4 223.791 9.60363   1 
  -4  -5   4 216.144 9.65016   1 
  -4  -5   4 223.206 9.66976   1 
   3   5  -4 37.2734 2.79723   3 
   3   5  -4 32.9274 2.07379   1 
   3   5  -4 32.3220 2.27317   1 
  -3  -5   4 34.2120 2.17632   1 
  -3  -5   4 32.9932 2.11611   1 
   2   5  -4 280.245 11.7347   1 
   2   5  -4 292.356 15.3000   3 
   2   5  -4 290.275 11.8060   1 
  -2  -5   4 281.372 11.7797   1 
   1   5  -4 301.146 15.8598   3 
   1   5  -4 296.893 12.1306   1 
   1   5  -4 292.773 12.1466   1 
  -1  -5   4 299.302 12.1720   1 
   0   5  -4 262.851 10.8002   1 
   0   5  -4 263.299 14.1111   3 
   0   5  -4 264.194 10.7540   1 
   0  -5   4 261.769 10.7723   1 
  -1   5  -4 3.88293 0.99772   3 
  -1   5  -4 4.77701 0.64487   1 
   1  -5   4 3.74367 0.59236   1 
  -2   5  -4 19.1590 1.51189   1 
  -2   5  -4 22.7572 1.92486   3 
   2  -5   4 20.9294 1.31887   1 
   2  -5   4 19.1434 1.18685   2 
  -3   5  -4 18.7389 1.67813   3 
  -3   5  -4 19.0353 1.51676   1 
   3  -5   4 17.2931 1.42248   1 
  -4   5  -4 18.4350 1.68085   3 
   4  -5   4 18.1741 1.64459   1 
  -5   5  -4 -0.8174 0.79890   1 
  -5   5  -4 0.78535 0.63750   3 
   5  -5   4 0.02770 0.56750   1 
  -6   5  -4 55.8459 3.50829   3 
  -6   5  -4 45.8533 2.83245   1 
   6  -5   4 55.0159 3.28359   1 
  -7   5  -4 41.8264 2.97201   3 
  -7   5  -4 38.8700 2.89376   1 
   7  -5   4 43.6331 3.32020   1 
  -8   5  -4 150.501 6.96719   1 
   8  -5   4 143.534 7.47225   1 
   8   4  -4 2.09382 2.48070   1 
   8   4  -4 -1.1827 2.36015   1 
   7   4  -4 31.6799 2.74233   1 
   7   4  -4 25.5427 2.82508   3 
   7   4  -4 26.6297 2.64435   1 
  -7  -4   4 33.0038 3.23910   1 
   6   4  -4 73.6493 4.21328   1 
   6   4  -4 73.7663 3.97541   1 
   6   4  -4 84.1195 4.73003   3 
  -6  -4   4 67.6958 4.16249   1 
  -6  -4   4 70.4157 4.27644   1 
   5   4  -4 3.54952 1.13921   3 
   5   4  -4 5.62674 1.25232   1 
   5   4  -4 3.84898 1.12590   1 
  -5  -4   4 1.18950 0.83466   1 
  -5  -4   4 2.55395 0.90092   1 
   4   4  -4 13.0739 1.42721   3 
   4   4  -4 11.1224 1.17362   1 
   4   4  -4 14.0060 1.41900   1 
  -4  -4   4 12.8425 1.32299   1 
  -4  -4   4 13.5429 1.46057   1 
   3   4  -4 16.5496 1.31668   1 
   3   4  -4 16.0550 1.29235   1 
   3   4  -4 17.9712 1.81595   3 
  -3  -4   4 18.0864 1.53065   1 
  -3  -4   4 14.7930 1.51382   1 
   2   4  -4 32.8919 2.41797   3 
   2   4  -4 29.9124 1.77019   1 
   2   4  -4 30.4454 1.88808   1 
  -2  -4   4 32.2619 1.79948   1 
   1   4  -4 637.191 25.5858   1 
   1   4  -4 639.590 25.5674   1 
   1   4  -4 651.516 33.4218   3 
  -1  -4   4 650.870 25.5835   1 
   0   4  -4 317.445 12.8932   1 
   0   4  -4 313.382 12.8727   1 
   0   4  -4 322.447 16.8635   3 
   0  -4   4 322.935 12.8784   1 
  -1   4  -4 298.231 15.3964   3 
  -1   4  -4 276.280 11.7783   1 
   1  -4   4 295.485 11.7638   1 
  -2   4  -4 15.6756 1.37478   3 
  -2   4  -4 13.8583 1.23144   1 
   2  -4   4 13.5551 0.86517   2 
   2  -4   4 14.1765 1.09082   1 
  -3   4  -4 149.382 8.08500   3 
  -3   4  -4 143.930 6.29049   1 
   3  -4   4 144.513 6.25299   1 
  -4   4  -4 110.604 6.19649   3 
  -4   4  -4 112.471 4.98830   1 
   4  -4   4 106.126 4.93081   1 
  -5   4  -4 5.62573 1.06555   3 
   5  -4   4 6.83337 1.22029   1 
  -6   4  -4 26.6647 2.15856   3 
   6  -4   4 27.6447 2.55950   1 
  -7   4  -4 8.27972 1.46760   1 
  -7   4  -4 6.45610 1.27499   3 
   7  -4   4 7.59019 1.75248   1 
  -8   4  -4 49.2191 3.18501   1 
   8  -4   4 54.4731 3.79983   1 
   8   3  -4 98.1122 5.21402   1 
   8   3  -4 97.6014 5.29265   1 
   7   3  -4 127.921 6.04508   1 
   7   3  -4 129.385 6.05165   1 
  -7  -3   4 123.766 6.11953   1 
   6   3  -4 4.16001 1.11084   1 
   6   3  -4 3.42832 1.20651   3 
   6   3  -4 4.02607 1.23619   1 
  -6  -3   4 3.09484 0.87185   1 
  -6  -3   4 2.41915 1.11508   1 
   5   3  -4 328.984 13.9109   1 
   5   3  -4 353.081 14.0156   1 
   5   3  -4 359.124 17.8519   3 
  -5  -3   4 323.405 13.9070   1 
  -5  -3   4 330.742 13.9998   1 
   4   3  -4 12.8315 1.29529   1 
   4   3  -4 14.8280 1.24215   1 
   4   3  -4 14.9629 1.54489   3 
  -4  -3   4 11.8421 1.21900   1 
  -4  -3   4 14.2586 1.24168   1 
   3   3  -4 40.9682 2.74215   3 
   3   3  -4 41.4393 2.20074   1 
   3   3  -4 41.0335 2.11585   1 
  -3  -3   4 37.4720 2.14688   1 
   2   3  -4 -0.1677 0.32080   1 
   2   3  -4 0.28288 0.67103   3 
   2   3  -4 0.04850 0.49315   1 
  -2  -3   4 0.75194 0.38444   1 
   1   3  -4 12.3720 1.27140   3 
   1   3  -4 11.5224 1.03559   1 
   1   3  -4 14.2417 1.05976   1 
  -1  -3   4 12.1732 1.01199   1 
   0   3  -4 1644.74 82.7066   3 
   0   3  -4 1610.23 63.3058   1 
   0  -3   4 1594.55 63.2684   1 
  -1   3  -4 -0.1105 0.34287   1 
  -1   3  -4 -0.0240 0.67626   3 
   1  -3   4 -0.9123 0.39123   1 
   1  -3   4 -0.0812 0.35354   2 
  -2   3  -4 12.1789 1.47169   3 
  -2   3  -4 11.9064 1.01789   1 
   2  -3   4 11.2013 0.98112   1 
   2  -3   4 13.9665 0.82004   2 
  -3   3  -4 68.6921 3.28407   1 
  -3   3  -4 69.6550 4.19062   3 
   3  -3   4 69.5445 3.35430   1 
  -4   3  -4 1.90231 0.77652   1 
  -4   3  -4 2.85553 0.85730   3 
   4  -3   4 2.90770 0.70817   1 
  -5   3  -4 7.25423 1.18813   1 
  -5   3  -4 8.40933 1.11953   3 
   5  -3   4 6.97972 1.07728   1 
  -6   3  -4 127.597 5.87403   1 
  -6   3  -4 130.598 7.15565   3 
   6  -3   4 130.649 6.23245   1 
  -7   3  -4 27.8262 2.28189   1 
  -7   3  -4 28.3172 2.14355   3 
   7  -3   4 27.5608 2.60980   1 
   8  -3   4 16.2950 2.21087   1 
   9   2  -4 6.83738 2.41667   1 
   9   2  -4 5.85576 2.36843   1 
   8   2  -4 149.493 6.90620   1 
   8   2  -4 146.614 7.11709   1 
  -8  -2   4 143.752 6.68218   1 
   7   2  -4 121.196 6.06725   1 
   7   2  -4 129.953 5.98318   1 
   7   2  -4 132.999 6.97807   3 
   6   2  -4 137.059 6.08229   1 
   6   2  -4 120.483 6.09549   1 
   6   2  -4 151.445 7.45665   3 
  -6  -2   4 132.162 6.12214   1 
   5   2  -4 31.3105 1.88631   1 
   5   2  -4 36.3271 2.28830   3 
   5   2  -4 30.7651 2.04512   1 
  -5  -2   4 29.7644 1.88208   1 
  -5  -2   4 29.6112 1.82063   1 
   4   2  -4 116.180 5.20451   1 
   4   2  -4 124.349 5.20734   1 
   4   2  -4 123.308 6.65631   3 
  -4  -2   4 116.103 5.24261   1 
   3   2  -4 186.731 7.72849   1 
   3   2  -4 187.833 7.73577   1 
   3   2  -4 188.076 10.0441   3 
  -3  -2   4 185.101 7.73661   1 
   2   2  -4 1.97091 0.46972   1 
   2   2  -4 1.20409 0.43154   1 
   2   2  -4 1.08661 0.55066   3 
  -2  -2   4 0.58061 0.43169   1 
   1   2  -4 2143.20 82.2006   1 
   1   2  -4 2109.98 107.396   3 
  -1  -2   4 2057.52 82.1595   1 
   0   2  -4 952.337 49.8187   3 
   0   2  -4 960.485 38.1204   1 
   0  -2   4 975.221 44.3683   2 
   0  -2   4 991.097 38.0987   1 
  -1   2  -4 323.359 13.5477   1 
  -1   2  -4 338.752 17.7030   3 
   1  -2   4 344.926 15.5637   2 
   1  -2   4 339.827 13.5434   1 
  -2   2  -4 164.019 9.11322   3 
  -2   2  -4 170.112 7.05067   1 
   2  -2   4 169.437 7.06017   1 
  -3   2  -4 45.5277 2.93302   3 
  -3   2  -4 43.1341 2.44290   1 
   3  -2   4 50.5212 2.47700   1 
  -4   2  -4 454.095 24.4880   3 
  -4   2  -4 476.134 19.0179   1 
   4  -2   4 485.350 19.1246   1 
  -5   2  -4 2.19358 0.85173   3 
  -5   2  -4 2.44418 0.94896   1 
   5  -2   4 1.45156 0.78078   1 
  -6   2  -4 100.420 4.76523   1 
   6  -2   4 96.8864 4.98478   1 
  -7   2  -4 48.7850 3.44672   1 
   7  -2   4 49.9692 3.46483   1 
  -8   2  -4 -0.2361 1.77538   1 
   8  -2   4 4.29809 2.51984   1 
   9   1  -4 5.96333 1.97232   1 
   9   1  -4 6.59159 1.46851   1 
  -9  -1   4 4.58734 1.59420   1 
   8   1  -4 21.5947 2.11068   1 
   8   1  -4 24.6237 2.58876   1 
  -8  -1   4 22.2238 2.22793   1 
   7   1  -4 235.194 9.77910   1 
   7   1  -4 238.698 9.77943   1 
  -7  -1   4 215.747 9.62358   1 
   6   1  -4 31.3658 1.90903   1 
   6   1  -4 33.1696 2.13098   3 
   6   1  -4 29.2801 2.06239   1 
  -6  -1   4 28.0714 1.91814   1 
   5   1  -4 0.15413 0.42008   1 
   5   1  -4 0.13485 0.61588   1 
   5   1  -4 -0.6319 0.58647   3 
  -5  -1   4 0.62431 0.56560   1 
  -5  -1   4 -0.1817 0.34373   1 
   4   1  -4 15.5977 1.18092   1 
   4   1  -4 17.0285 1.41873   3 
   4   1  -4 16.2722 1.11014   1 
  -4  -1   4 18.3530 1.12110   1 
   3   1  -4 103.965 6.40275   3 
   3   1  -4 120.179 4.90784   1 
   3   1  -4 119.263 4.90891   1 
  -3  -1   4 119.451 4.89955   1 
   2   1  -4 128.250 8.16233   3 
   2   1  -4 164.020 6.25152   1 
  -2  -1   4 162.092 6.22541   1 
   1   1  -4 880.581 34.4262   1 
  -1  -1   4 881.910 40.2092   2 
  -1  -1   4 866.900 34.3876   1 
   0   1  -4 24.8681 1.37804   1 
   0  -1   4 26.4893 1.59595   2 
   0  -1   4 24.9362 1.34261   1 
  -1   1  -4 279.593 11.7686   1 
   1  -1   4 306.583 13.5326   2 
   1  -1   4 286.901 11.7527   1 
  -2   1  -4 254.363 10.5684   1 
   2  -1   4 261.668 10.5807   1 
  -3   1  -4 8.01899 1.11588   3 
  -3   1  -4 8.23925 0.92982   1 
   3  -1   4 9.58150 1.12490   1 
  -4   1  -4 9.69239 1.25198   3 
  -4   1  -4 9.18686 1.06833   1 
   4  -1   4 11.2150 1.38386   1 
  -5   1  -4 13.8488 1.51980   1 
  -5   1  -4 13.7762 1.56753   3 
   5  -1   4 11.5936 1.66460   1 
  -6   1  -4 40.5130 2.67162   1 
   6  -1   4 39.7588 2.89630   1 
  -7   1  -4 0.19073 1.57935   1 
   7  -1   4 -1.4652 1.97454   1 
   8  -1   4 2.95142 2.80186   1 
   8  -1   4 2.18480 2.40871   1 
   9   0  -4 16.9970 1.73094   1 
   9   0  -4 9.68083 1.85128   1 
  -9   0   4 16.7301 1.77337   1 
   8   0  -4 144.183 6.58239   1 
   8   0  -4 142.796 6.49357   1 
  -8   0   4 139.267 6.25884   1 
   7   0  -4 14.1783 1.40300   1 
   7   0  -4 15.0340 1.55982   1 
   7   0  -4 14.4828 1.22788   3 
  -7   0   4 11.1736 1.12890   1 
   6   0  -4 13.9875 1.28167   1 
   6   0  -4 15.2342 1.36057   1 
   6   0  -4 14.4179 1.35812   3 
   5   0  -4 369.815 20.1758   3 
   5   0  -4 395.147 15.5624   1 
   5   0  -4 411.887 15.6066   1 
  -5   0   4 377.755 15.5453   1 
   4   0  -4 106.184 4.34143   1 
   4   0  -4 90.6962 5.64145   3 
   4   0  -4 104.051 4.33769   1 
  -4   0   4 104.906 4.32385   1 
   3   0  -4 5.64363 0.58830   1 
   3   0  -4 4.53697 0.49984   1 
  -3   0   4 4.91844 0.55804   1 
  -3   0   4 4.14879 0.90974   2 
   2   0  -4 167.157 6.87238   1 
  -2   0   4 173.749 6.84469   1 
  -2   0   4 166.272 8.23118   2 
   1   0  -4 198.800 8.03931   1 
  -1   0   4 198.641 9.44007   2 
  -1   0   4 197.734 7.99159   1 
   0   0  -4 1074.34 42.9346   1 
   0   0   4 1114.56 50.0307   2 
   0   0   4 1092.75 42.9139   1 
  -1   0  -4 11.9856 0.97363   1 
   1   0   4 13.0966 1.12765   1 
  -2   0  -4 232.022 9.74750   1 
   2   0   4 241.700 9.80322   1 
  -3   0  -4 364.060 14.9166   1 
   3   0   4 370.238 15.0244   1 
  -4   0  -4 116.936 5.40398   1 
   4   0   4 118.627 5.48941   1 
  -5   0  -4 243.137 10.6500   1 
   5   0   4 260.936 10.9630   1 
  -6   0  -4 73.9740 4.61793   3 
  -6   0  -4 80.2276 4.46755   1 
   6   0   4 83.4779 4.85835   1 
  -7   0  -4 20.6596 2.13910   1 
   7   0   4 20.6378 2.48359   1 
   7   0   4 20.2983 2.17513   1 
   9  -1  -4 2.56049 0.84018   1 
   9  -1  -4 1.50188 1.37087   1 
   8  -1  -4 3.57136 0.97955   1 
   8  -1  -4 3.34676 1.11249   1 
   7  -1  -4 168.128 7.08044   1 
   7  -1  -4 164.482 7.05840   1 
   7  -1  -4 166.330 8.77087   3 
   6  -1  -4 7.93279 0.80334   1 
   6  -1  -4 7.59205 0.84808   1 
   6  -1  -4 7.48797 0.98012   3 
   5  -1  -4 100.813 4.24849   1 
   5  -1  -4 102.900 4.26052   1 
  -5   1   4 92.8269 5.28466   2 
   4  -1  -4 103.417 4.21959   1 
   4  -1  -4 100.642 4.21420   1 
  -4   1   4 99.0948 4.16543   1 
  -4   1   4 98.5085 5.35004   2 
   3  -1  -4 1.70883 0.27634   1 
  -3   1   4 2.86458 0.30675   1 
  -3   1   4 2.31686 0.83212   2 
   2  -1  -4 231.760 9.49910   1 
  -2   1   4 234.290 11.3211   2 
  -2   1   4 245.706 9.45508   1 
   1  -1  -4 452.539 18.1615   1 
  -1   1   4 462.823 18.1229   1 
  -1   1   4 460.810 21.2734   2 
   0  -1  -4 1451.84 57.8710   1 
   0   1   4 1536.35 67.5077   2 
   0   1   4 1445.23 57.8518   1 
  -1  -1  -4 74.5079 3.47767   1 
   1   1   4 77.5590 3.46812   1 
  -2  -1  -4 94.6090 4.29774   1 
   2   1   4 95.8005 4.35532   1 
  -3  -1  -4 18.4100 1.42274   1 
   3   1   4 16.5764 1.50152   1 
  -4  -1  -4 371.522 15.3328   1 
   4   1   4 373.700 15.4804   1 
  -5  -1  -4 30.5993 2.50475   1 
   5   1   4 25.2299 2.51192   1 
   5   1   4 24.5132 2.27590   1 
  -6  -1  -4 -1.6581 1.14502   3 
  -6  -1  -4 0.24615 1.52653   1 
   6   1   4 1.74752 1.88827   1 
   6   1   4 -2.3779 1.54088   1 
  -7  -1  -4 -0.7812 1.44105   1 
   7   1   4 -0.2354 1.74577   1 
   7   1   4 -1.0402 2.05054   1 
  10  -2  -4 81.4378 4.85008   1 
 -10   2   4 81.0246 5.72817   2 
   9  -2  -4 25.3692 2.10116   1 
   9  -2  -4 28.4881 2.44239   1 
  -9   2   4 26.5178 2.72475   2 
   8  -2  -4 16.5095 1.27842   1 
   8  -2  -4 17.4146 1.75307   1 
  -8   2   4 16.4100 2.06499   2 
   7  -2  -4 13.1447 1.10878   1 
   7  -2  -4 13.6366 1.25431   1 
   7  -2  -4 13.0793 1.49311   3 
  -7   2   4 11.9040 1.90451   2 
   6  -2  -4 221.638 8.71241   1 
   6  -2  -4 214.090 8.70308   1 
  -6   2   4 203.678 10.6509   2 
   5  -2  -4 50.5197 2.21727   1 
   5  -2  -4 48.2978 2.19620   1 
  -5   2   4 48.2657 3.02726   2 
   4  -2  -4 535.852 20.8846   1 
   4  -2  -4 538.414 20.8833   1 
  -4   2   4 519.713 24.8055   2 
   3  -2  -4 158.396 6.34948   1 
  -3   2   4 162.288 6.24866   1 
  -3   2   4 153.027 7.77275   2 
   2  -2  -4 26.5133 1.34112   1 
  -2   2   4 28.3137 1.81826   2 
  -2   2   4 27.0412 1.25176   1 
   1  -2  -4 1.29295 0.40219   1 
  -1   2   4 1.32432 0.75764   3 
  -1   2   4 2.06662 0.53800   2 
  -1   2   4 2.04439 0.36063   1 
   0  -2  -4 472.528 18.0583   1 
   0   2   4 411.611 23.6399   3 
   0   2   4 473.843 18.0513   1 
  -1  -2  -4 16.7447 1.28162   1 
   1   2   4 15.8322 1.19060   1 
  -2  -2  -4 44.0971 2.37923   1 
   2   2   4 45.3400 2.57392   1 
  -3  -2  -4 -0.4150 0.74929   1 
   3   2   4 -0.1015 0.92528   1 
  -4  -2  -4 335.801 14.1481   1 
   4   2   4 355.817 14.3418   1 
   4   2   4 333.073 14.2632   1 
  -5  -2  -4 19.7455 1.94925   1 
   5   2   4 17.6306 2.05451   1 
   5   2   4 21.8806 2.29531   1 
  -6  -2  -4 19.4355 2.30948   1 
   6   2   4 14.9442 1.96727   1 
   6   2   4 18.3353 2.65864   1 
  -7  -2  -4 27.7600 3.41843   1 
   7   2   4 26.0654 2.91824   1 
   7   2   4 36.5678 3.90195   1 
  10  -3  -4 3.28613 1.16292   1 
  10  -3  -4 2.43362 1.62944   1 
 -10   3   4 5.70274 2.23447   2 
   9  -3  -4 24.6404 1.97593   1 
   9  -3  -4 30.5081 2.34825   1 
  -9   3   4 34.9718 3.30957   2 
   8  -3  -4 1.95671 0.58923   1 
   8  -3  -4 0.82742 0.82648   3 
   8  -3  -4 3.27807 0.82292   1 
  -8   3   4 0.58524 1.48542   2 
   7  -3  -4 28.0555 1.61081   1 
   7  -3  -4 28.4065 1.59550   1 
  -7   3   4 26.2177 2.70372   2 
   6  -3  -4 24.6941 1.31159   1 
   6  -3  -4 25.6695 1.34358   1 
  -6   3   4 27.9925 2.40218   2 
   5  -3  -4 10.1388 0.60383   1 
   5  -3  -4 9.68155 0.62328   1 
  -5   3   4 9.63819 1.24122   2 
   4  -3  -4 10.4159 0.57266   1 
  -4   3   4 9.73693 1.25406   3 
  -4   3   4 9.96419 1.18391   2 
   3  -3  -4 1177.98 44.3825   1 
  -3   3   4 1175.67 52.1837   2 
  -3   3   4 1053.67 58.3648   3 
   2  -3  -4 596.565 23.2164   1 
  -2   3   4 592.453 23.1086   1 
  -2   3   4 614.345 23.1292   1 
  -2   3   4 536.461 30.6467   3 
  -2   3   4 607.152 27.3505   2 
   1  -3  -4 421.495 16.9713   1 
  -1   3   4 441.752 16.9450   1 
  -1   3   4 427.250 16.9355   1 
  -1   3   4 453.076 19.9692   2 
  -1   3   4 390.361 22.3987   3 
   0  -3  -4 471.364 17.6775   1 
   0   3   4 485.052 17.6870   1 
   0   3   4 385.789 17.5794   1 
   0   3   4 424.439 23.2200   3 
  -1  -3  -4 153.231 6.32056   1 
   1   3   4 135.392 8.30975   3 
   1   3   4 148.518 6.34954   1 
   1   3   4 151.349 6.38581   1 
  -2  -3  -4 -1.3054 0.67614   1 
   2   3   4 -0.7384 0.89262   3 
   2   3   4 -0.0318 0.75952   1 
   2   3   4 -0.3080 0.55305   1 
  -3  -3  -4 30.8503 2.36336   1 
   3   3   4 31.2158 2.35836   1 
   3   3   4 30.5409 2.47556   1 
  -4  -3  -4 3.85948 1.28235   1 
   4   3   4 0.30828 0.94611   1 
   4   3   4 1.48801 0.96134   1 
  -5  -3  -4 14.9336 1.73208   1 
   5   3   4 18.8641 2.22029   1 
   5   3   4 17.6396 2.28779   1 
  -6  -3  -4 4.95119 1.66235   1 
   6   3   4 1.10847 1.73449   1 
   6   3   4 -0.1247 1.68656   1 
  10  -4  -4 17.5734 1.91264   1 
  10  -4  -4 15.8953 1.68959   1 
 -10   4   4 18.4943 2.69738   2 
   9  -4  -4 31.0077 1.90488   1 
   9  -4  -4 34.2180 2.22175   1 
  -9   4   4 27.7596 3.32347   2 
   8  -4  -4 2.45486 0.54791   1 
   8  -4  -4 3.05685 0.82352   1 
  -8   4   4 2.46335 1.52732   2 
   7  -4  -4 12.5751 0.85761   1 
   7  -4  -4 12.7667 1.02654   1 
  -7   4   4 11.2940 1.60411   2 
   6  -4  -4 112.104 4.64413   1 
   6  -4  -4 116.357 4.66931   1 
  -6   4   4 114.550 6.20416   2 
   5  -4  -4 108.149 4.01652   1 
   5  -4  -4 102.040 4.00549   1 
  -5   4   4 99.6401 5.43288   2 
  -5   4   4 86.6421 5.79556   3 
   4  -4  -4 64.3740 2.60688   1 
  -4   4   4 59.8817 4.11876   3 
  -4   4   4 65.9144 3.72026   2 
   3  -4  -4 54.6672 2.14403   1 
  -3   4   4 47.8454 2.94676   2 
  -3   4   4 41.8953 3.24586   3 
   2  -4  -4 655.956 25.1103   1 
  -2   4   4 667.885 24.9920   1 
  -2   4   4 655.803 29.5798   2 
  -2   4   4 580.592 33.1837   3 
  -2   4   4 625.082 24.9862   1 
   1  -4  -4 87.2729 3.83485   1 
  -1   4   4 94.4178 3.80997   1 
  -1   4   4 87.1790 3.80167   1 
  -1   4   4 80.0435 5.35645   3 
   0  -4  -4 218.002 8.82197   1 
   0   4   4 199.313 11.6875   3 
   0   4   4 221.213 8.80979   1 
   0   4   4 211.209 8.80650   1 
  -1  -4  -4 94.6731 4.28473   1 
   1   4   4 80.0759 5.61327   3 
   1   4   4 99.8553 4.33254   1 
   1   4   4 96.8898 4.29089   1 
  -2  -4  -4 6.26114 0.97390   1 
   2   4   4 7.04949 1.02173   1 
   2   4   4 4.04809 1.05987   1 
   2   4   4 5.41482 1.24749   3 
  -3  -4  -4 5.45579 1.01499   1 
   3   4   4 7.23000 1.19912   1 
   3   4   4 6.54187 1.44139   1 
   3   4   4 5.03196 1.59980   3 
  -4  -4  -4 146.416 6.69236   1 
   4   4   4 146.362 7.06137   1 
   4   4   4 138.144 6.73379   1 
  -5  -4  -4 2.40322 1.39379   1 
   5   4   4 0.75074 1.49044   1 
   5   4   4 6.44541 1.64412   1 
   6   4   4 37.8694 3.97864   1 
  10  -5  -4 1.08157 1.44578   1 
  10  -5  -4 0.81753 0.98069   1 
 -10   5   4 -2.0870 1.80907   2 
   9  -5  -4 57.6575 2.74123   1 
   9  -5  -4 58.2968 2.93766   1 
  -9   5   4 54.3106 4.28163   2 
   8  -5  -4 125.764 5.29910   1 
   8  -5  -4 125.328 5.35215   1 
  -8   5   4 131.784 7.00014   2 
   7  -5  -4 12.2329 0.89040   1 
   7  -5  -4 11.1001 0.78800   1 
  -7   5   4 13.1918 1.63765   2 
   6  -5  -4 38.3495 1.57748   1 
   6  -5  -4 38.8048 1.60190   1 
  -6   5   4 33.7904 3.01596   3 
  -6   5   4 37.6796 2.90819   2 
  -5   5   4 1.98855 1.17848   3 
  -5   5   4 2.47669 0.78424   2 
   4  -5  -4 130.268 4.92772   1 
  -4   5   4 110.834 7.12214   3 
  -4   5   4 125.111 6.38135   2 
   3  -5  -4 4.05989 0.42116   1 
  -3   5   4 5.25188 0.93123   2 
  -3   5   4 3.13784 0.95900   3 
   2  -5  -4 129.839 5.32734   1 
  -2   5   4 133.204 5.19510   1 
  -2   5   4 117.841 7.48342   3 
  -2   5   4 126.074 5.21242   1 
   1  -5  -4 110.679 4.68131   1 
  -1   5   4 108.830 4.66142   1 
  -1   5   4 100.372 6.53309   3 
  -1   5   4 110.233 4.62858   1 
   0  -5  -4 215.323 8.58686   1 
   0   5   4 204.713 8.49397   1 
   0   5   4 206.328 8.55000   1 
   0   5   4 188.501 11.4409   3 
  -1  -5  -4 21.1016 1.69134   1 
   1   5   4 18.3997 1.44637   1 
   1   5   4 15.9201 2.12531   3 
   1   5   4 14.1847 1.34968   1 
  -2  -5  -4 6.24382 1.02551   1 
   2   5   4 5.07168 1.60920   3 
   2   5   4 6.51587 1.05116   1 
   2   5   4 5.28723 1.23055   1 
  -3  -5  -4 0.30056 1.32470   1 
   3   5   4 3.01000 1.63673   3 
   3   5   4 1.57484 1.02015   1 
   3   5   4 2.59346 1.46435   1 
  -4  -5  -4 310.367 12.5375   1 
   4   5   4 241.452 15.6563   3 
   4   5   4 287.273 12.5900   1 
   4   5   4 307.416 12.4727   1 
  -5  -5  -4 4.54030 2.35062   1 
   5   5   4 4.15735 1.84866   1 
   5   5   4 3.79312 1.83835   1 
  10  -6  -4 -0.2273 0.64230   1 
  10  -6  -4 -0.0994 1.20296   1 
 -10   6   4 -1.8311 1.79823   2 
   9  -6  -4 113.537 4.91513   1 
   9  -6  -4 105.881 4.73520   1 
  -9   6   4 121.207 6.74785   2 
   8  -6  -4 1.18544 0.34537   1 
   8  -6  -4 0.97549 0.47221   1 
  -8   6   4 0.82222 1.47849   2 
   7  -6  -4 0.72612 0.18099   1 
   7  -6  -4 1.00963 0.25314   1 
  -7   6   4 -0.5983 1.33285   3 
  -7   6   4 2.38065 1.40343   2 
  -6   6   4 18.0758 2.17922   2 
  -6   6   4 15.7745 2.16069   3 
  -5   6   4 51.3440 4.03299   3 
  -5   6   4 57.9858 3.51253   2 
   4  -6  -4 60.1131 2.49739   1 
  -4   6   4 61.7001 3.67229   2 
  -4   6   4 53.1477 4.01034   3 
   3  -6  -4 286.306 10.6837   1 
  -3   6   4 243.123 14.5751   3 
   2  -6  -4 83.9079 3.60487   1 
  -2   6   4 72.6117 5.17977   3 
  -2   6   4 84.2206 3.45697   1 
  -2   6   4 80.3092 3.48494   1 
   1  -6  -4 175.785 7.31161   1 
  -1   6   4 176.479 7.21351   1 
  -1   6   4 174.470 7.26242   1 
  -1   6   4 165.006 10.0066   3 
   0  -6  -4 14.2502 1.29881   1 
   0   6   4 14.5276 1.20341   1 
   0   6   4 11.6987 1.12298   1 
   0   6   4 13.1062 2.07926   3 
  -1  -6  -4 123.965 5.58929   1 
   1   6   4 117.323 5.54001   1 
   1   6   4 116.782 7.52626   3 
  -2  -6  -4 2.74867 0.94158   1 
   2   6   4 2.25627 1.33910   1 
   2   6   4 0.52166 0.85640   1 
   2   6   4 1.41682 1.61151   3 
  -3  -6  -4 18.8963 2.23022   1 
   3   6   4 22.5727 2.43630   1 
   3   6   4 18.9460 2.63058   3 
   3   6   4 16.3773 1.85878   1 
  -4  -6  -4 24.8479 2.84671   1 
   4   6   4 15.5945 2.73491   3 
   4   6   4 19.2997 2.73757   1 
   4   6   4 17.4801 2.78090   1 
  10  -7  -4 3.51569 0.77902   1 
  10  -7  -4 3.85912 1.16872   1 
 -10   7   4 4.86087 2.16947   2 
   9  -7  -4 120.444 4.89476   1 
   9  -7  -4 108.380 4.75515   1 
  -9   7   4 125.162 6.85704   2 
  -8   7   4 68.5519 4.34977   2 
  -8   7   4 54.4534 4.49884   3 
  -7   7   4 187.908 8.95257   2 
  -7   7   4 154.897 9.97081   3 
  -6   7   4 1.48923 0.89671   2 
  -6   7   4 0.74869 1.38231   3 
   5  -7  -4 23.7560 1.15976   1 
  -5   7   4 28.2738 3.06804   3 
  -5   7   4 33.7563 2.61208   2 
   4  -7  -4 27.4839 1.37461   1 
  -4   7   4 24.2530 2.63102   3 
   3  -7  -4 -0.1144 0.47940   1 
  -3   7   4 -0.8489 1.34220   3 
   2  -7  -4 82.0536 3.53915   1 
  -2   7   4 69.6826 3.34712   1 
  -2   7   4 73.2630 5.30521   3 
  -2   7   4 78.5583 3.31869   1 
   1  -7  -4 25.2473 1.76323   1 
  -1   7   4 24.7238 1.65068   1 
  -1   7   4 24.3292 1.64214   1 
  -1   7   4 23.3733 2.59504   3 
   0  -7  -4 29.1803 2.06354   1 
   0   7   4 26.4855 1.98896   1 
   0   7   4 23.9390 1.86071   1 
   0   7   4 23.1902 2.60990   3 
  -1  -7  -4 31.6849 2.59234   1 
   1   7   4 27.6651 3.45704   3 
   1   7   4 32.7901 2.20482   1 
   1   7   4 28.9530 2.42144   1 
  -2  -7  -4 8.89331 1.82649   1 
   2   7   4 8.84565 1.77570   1 
   2   7   4 11.3249 1.79679   1 
   2   7   4 9.48036 1.90329   3 
  -3  -7  -4 48.4724 4.04846   1 
   3   7   4 35.2940 4.20811   3 
   3   7   4 39.6760 3.75633   1 
  -9   8   4 30.8687 3.27499   2 
  -9   8   4 28.6337 3.62399   3 
  -8   8   4 10.7857 2.03833   2 
  -8   8   4 7.93701 2.10287   3 
  -7   8   4 0.00809 0.99619   2 
  -7   8   4 0.32215 1.13459   3 
  -6   8   4 434.870 18.9138   2 
  -6   8   4 349.068 21.1919   3 
   5  -8  -4 87.6458 3.56171   1 
  -5   8   4 81.2489 5.74610   3 
   4  -8  -4 0.07705 0.45648   1 
  -4   8   4 1.00451 1.00558   3 
   3  -8  -4 17.8096 1.44009   1 
  -3   8   4 20.3841 2.41376   3 
   2  -8  -4 74.0247 3.38514   1 
  -2   8   4 64.2865 4.91281   3 
  -2   8   4 66.2001 3.12646   1 
  -2   8   4 69.1815 3.10932   1 
   1  -8  -4 4.29219 0.99640   1 
  -1   8   4 1.25463 0.75497   1 
  -1   8   4 3.89177 0.89747   1 
  -1   8   4 4.13769 1.79877   3 
   0  -8  -4 49.3062 3.04914   1 
   0   8   4 46.4372 2.92189   1 
   0   8   4 45.8725 2.74192   1 
   0   8   4 47.7350 4.46786   3 
  -1  -8  -4 -0.1740 1.50516   1 
   1   8   4 0.52101 1.34964   3 
   1   8   4 2.37342 1.32239   1 
   1   8   4 0.12020 1.48660   1 
  -2  -8  -4 12.6318 1.91879   1 
   2   8   4 9.83825 2.10925   3 
   2   8   4 9.09074 1.98357   1 
  -9   9   4 5.50926 2.31353   3 
  -9   9   4 8.88321 2.17684   2 
  -8   9   4 -0.6372 1.55983   2 
  -8   9   4 0.38318 1.34106   3 
  -7   9   4 2.23181 1.89115   3 
  -6   9   4 93.1505 6.63393   3 
   5  -9  -4 0.45040 0.47987   1 
  -5   9   4 2.44193 1.82031   3 
   4  -9  -4 14.0768 1.28628   1 
  -4   9   4 14.4089 2.24406   3 
   3  -9  -4 1.89081 0.68165   1 
  -3   9   4 1.11925 0.26296   1 
  -3   9   4 1.49554 1.68121   3 
  -3   9   4 1.22959 0.25485   1 
   2  -9  -4 19.8972 1.74840   1 
  -2   9   4 21.4613 1.50552   1 
  -2   9   4 23.0295 1.51086   1 
  -2   9   4 16.7057 2.52660   3 
   1  -9  -4 8.58974 1.35137   1 
  -1   9   4 8.14425 1.10110   1 
  -1   9   4 7.97338 2.26723   3 
  -1   9   4 8.67513 1.26035   1 
   0  -9  -4 37.3262 3.04095   1 
   0   9   4 30.0219 3.38234   3 
   0   9   4 34.5941 2.74564   1 
   0   9   4 25.2805 2.30785   1 
  -1  -9  -4 2.98732 1.98311   1 
   1   9   4 0.03741 1.49480   1 
   1   9   4 0.52087 2.12043   3 
  -8  10   4 25.5574 3.28186   3 
  -7  10   4 38.7920 3.84849   3 
  -6  10   4 2.29419 1.61144   3 
   5 -10  -4 29.5766 1.80089   1 
  -5  10   4 30.7947 3.34400   3 
   4 -10  -4 6.08428 0.89656   1 
  -4  10   4 5.60307 1.67368   3 
   3 -10  -4 4.76223 1.00294   1 
  -3  10   4 1.84653 1.32365   3 
   2 -10  -4 105.404 4.90668   1 
  -2  10   4 103.255 4.64318   1 
  -2  10   4 94.7652 7.20730   3 
   1 -10  -4 68.2954 3.70593   1 
  -1  10   4 55.6932 3.15227   1 
  -1  10   4 47.8083 4.82391   3 
   0  10   4 0.28018 1.76875   3 
   5 -11  -4 1.65241 0.91017   1 
  -5  11   4 2.39453 2.19659   3 
  -4  11   4 14.1193 2.64957   3 
  -3  11   4 7.13069 2.51175   3 
   0  11  -5 23.2686 2.33886   1 
   0  11  -5 25.0515 3.23959   3 
   0 -11   5 18.4927 2.25573   1 
  -1  11  -5 10.8766 2.83104   3 
  -1  11  -5 17.3798 1.99000   1 
   1 -11   5 20.0447 2.16372   1 
  -2  11  -5 5.81967 1.54515   1 
  -2  11  -5 2.23727 1.86050   1 
  -2  11  -5 6.35641 1.75777   3 
   2 -11   5 7.07912 1.93609   1 
  -3  11  -5 205.493 11.9894   3 
  -3  11  -5 185.524 9.02301   1 
  -3  11  -5 193.207 8.67278   1 
   3 -11   5 216.236 9.27502   1 
  -4  11  -5 3.18427 1.78784   1 
  -4  11  -5 7.67760 1.22326   1 
  -4  11  -5 7.70611 1.64271   3 
   4 -11   5 9.37066 1.91824   1 
  -5  11  -5 1.02047 1.80835   1 
  -5  11  -5 1.94368 1.11680   1 
  -5  11  -5 3.01199 2.04371   3 
   5 -11   5 -3.3714 1.71180   1 
   2  10  -5 58.2106 4.93209   3 
   2  10  -5 45.2651 4.24086   1 
   2  10  -5 46.6860 3.96578   1 
  -2 -10   5 48.7303 4.78728   1 
   1  10  -5 13.7281 2.26437   1 
   1  10  -5 12.0839 1.63914   1 
   1  10  -5 14.9598 2.35067   3 
  -1 -10   5 10.7997 2.25288   1 
   0  10  -5 47.7781 3.66885   1 
   0  10  -5 46.9314 4.02802   3 
   0  10  -5 47.6086 3.37703   1 
   0 -10   5 50.1105 3.28540   1 
  -1  10  -5 340.512 14.2682   1 
  -1  10  -5 352.464 18.9221   3 
  -1  10  -5 329.985 14.4148   1 
   1 -10   5 344.732 14.5046   1 
  -2  10  -5 271.111 11.7243   1 
  -2  10  -5 284.161 15.8364   3 
   2 -10   5 286.339 12.0802   1 
  -3  10  -5 58.1535 3.78383   1 
  -3  10  -5 60.6627 3.42692   1 
  -3  10  -5 62.2740 4.84482   3 
   3 -10   5 66.5328 3.88321   1 
  -4  10  -5 0.97056 1.42757   1 
  -4  10  -5 -1.1454 1.34463   3 
  -4  10  -5 0.26084 0.94530   1 
   4 -10   5 1.31499 1.09138   1 
  -5  10  -5 -0.2641 1.56893   1 
  -5  10  -5 -0.1918 1.51372   3 
  -5  10  -5 -0.6194 0.91625   1 
   5 -10   5 0.91145 1.60322   1 
  -6  10  -5 5.48401 2.12238   3 
  -6  10  -5 4.81536 1.69127   1 
  -6  10  -5 7.30354 1.19293   1 
   6 -10   5 6.63102 1.49778   1 
   3   9  -5 3.13949 2.13079   3 
   3   9  -5 3.33214 2.19138   1 
   3   9  -5 3.59445 1.41250   1 
  -3  -9   5 5.12186 1.81220   1 
   2   9  -5 23.3291 2.33365   1 
   2   9  -5 29.1573 2.67067   1 
   2   9  -5 30.4092 2.95578   3 
  -2  -9   5 23.6236 2.67670   1 
   1   9  -5 2.22318 1.58436   3 
   1   9  -5 -0.0187 1.27479   1 
   1   9  -5 1.68201 1.10424   1 
  -1  -9   5 -0.0295 1.15393   1 
   0   9  -5 90.1091 4.57652   1 
   0   9  -5 103.986 6.46627   3 
   0   9  -5 95.7950 4.95497   1 
   0  -9   5 89.7027 4.98254   1 
  -1   9  -5 5.76747 1.45864   1 
  -1   9  -5 3.78687 1.18827   1 
  -1   9  -5 3.43215 1.78608   3 
   1  -9   5 5.57344 1.44823   1 
  -2   9  -5 183.444 7.96194   1 
  -2   9  -5 182.863 10.5757   3 
   2  -9   5 180.631 8.12477   1 
  -3   9  -5 55.2066 4.00774   3 
  -3   9  -5 49.5838 3.27953   1 
  -3   9  -5 55.7376 3.06266   1 
   3  -9   5 53.1851 3.07942   1 
  -4   9  -5 -0.2426 0.83282   1 
  -4   9  -5 2.48880 1.36705   3 
  -4   9  -5 0.13625 1.22682   1 
   4  -9   5 1.17461 1.28146   1 
  -5   9  -5 4.90447 1.53876   1 
  -5   9  -5 4.61843 1.05974   1 
  -5   9  -5 5.68271 1.88118   3 
   5  -9   5 3.93629 1.03894   1 
  -6   9  -5 19.5799 1.95313   1 
  -6   9  -5 15.3748 2.33061   3 
  -6   9  -5 15.7728 1.52628   1 
   6  -9   5 14.6052 2.08282   1 
  -7   9  -5 5.31520 1.71449   1 
  -7   9  -5 2.27449 1.88061   3 
   7  -9   5 2.42220 1.36402   1 
   5   8  -5 151.974 7.58142   1 
   5   8  -5 158.722 8.31119   1 
  -5  -8   5 152.283 8.35040   1 
   4   8  -5 70.7467 4.64313   1 
   4   8  -5 76.8479 5.12808   3 
   4   8  -5 68.9126 4.38256   1 
  -4  -8   5 66.3607 4.39375   1 
   3   8  -5 1.12012 1.53518   3 
   3   8  -5 0.47858 1.64857   1 
   3   8  -5 2.91779 1.51441   1 
  -3  -8   5 1.90711 1.78483   1 
   2   8  -5 52.1516 4.09028   3 
   2   8  -5 48.7168 2.99207   1 
   2   8  -5 47.0901 3.08873   1 
  -2  -8   5 48.5442 3.09324   1 
   1   8  -5 0.47596 0.97664   3 
   1   8  -5 2.30102 1.24949   1 
   1   8  -5 -0.5780 0.65373   1 
  -1  -8   5 -0.0360 0.88086   1 
   0   8  -5 10.2335 1.20985   1 
   0   8  -5 11.2600 1.55601   1 
   0   8  -5 13.0500 1.98067   3 
   0  -8   5 10.7786 1.30239   1 
  -1   8  -5 669.486 33.7114   3 
  -1   8  -5 659.067 25.7735   1 
  -1   8  -5 555.266 25.5632   1 
   1  -8   5 676.837 25.7639   1 
  -2   8  -5 162.487 9.28937   3 
  -2   8  -5 155.181 7.09289   1 
  -2   8  -5 155.895 6.93852   1 
   2  -8   5 158.402 7.05629   1 
  -3   8  -5 148.752 8.44877   3 
  -3   8  -5 144.664 6.29679   1 
   3  -8   5 143.243 6.43378   1 
   3  -8   5 130.831 6.66786   2 
  -4   8  -5 1.46109 0.93179   3 
  -4   8  -5 2.71349 0.88999   1 
  -4   8  -5 -0.6974 0.56070   1 
   4  -8   5 2.57191 1.25006   1 
  -5   8  -5 6.34345 1.42476   3 
  -5   8  -5 6.67863 1.39437   1 
   5  -8   5 4.73511 1.32057   1 
  -6   8  -5 -0.2489 1.38547   1 
  -6   8  -5 -0.6791 1.39953   3 
   6  -8   5 -1.4344 1.30368   1 
  -7   8  -5 45.6584 3.44090   1 
  -7   8  -5 49.6573 4.01432   3 
   7  -8   5 45.1259 3.78504   1 
   5   7  -5 2.07695 1.80761   3 
   5   7  -5 1.20588 2.09550   1 
   5   7  -5 0.56642 1.84935   1 
  -5  -7   5 0.00476 2.05294   1 
   4   7  -5 46.8370 3.86865   3 
   4   7  -5 47.7274 3.36964   1 
   4   7  -5 42.9498 3.04987   1 
  -4  -7   5 43.0366 3.16882   1 
   3   7  -5 40.0246 3.43489   3 
   3   7  -5 36.3344 2.88826   1 
   3   7  -5 39.3991 3.03422   1 
  -3  -7   5 36.6784 2.70726   1 
   2   7  -5 22.1547 2.71751   3 
   2   7  -5 23.1374 2.21003   1 
   2   7  -5 27.3115 2.38273   1 
  -2  -7   5 24.5712 2.01184   1 
   1   7  -5 137.165 6.26633   1 
   1   7  -5 144.087 8.08519   3 
   1   7  -5 132.556 6.10395   1 
  -1  -7   5 133.852 6.17153   1 
   0   7  -5 1.06545 0.93857   1 
   0   7  -5 1.69809 0.85132   1 
   0   7  -5 0.59725 1.11563   3 
   0  -7   5 0.33119 0.67641   1 
  -1   7  -5 34.2891 2.05116   1 
  -1   7  -5 34.6443 2.80981   3 
  -1   7  -5 32.7828 2.31869   1 
   1  -7   5 35.8948 2.36956   1 
  -2   7  -5 1120.35 57.3113   3 
  -2   7  -5 1082.60 43.8387   1 
  -2   7  -5 1146.04 43.8126   1 
   2  -7   5 1082.88 43.7834   1 
  -3   7  -5 282.442 12.5078   1 
  -3   7  -5 313.496 16.3003   3 
   3  -7   5 301.643 12.4269   1 
  -4   7  -5 8.07523 1.34152   1 
  -4   7  -5 13.1289 1.87643   3 
   4  -7   5 10.5625 1.30324   1 
  -5   7  -5 4.63117 1.47073   3 
  -5   7  -5 3.80070 1.25872   1 
   5  -7   5 6.50809 1.37300   1 
  -6   7  -5 135.719 7.86338   3 
   6  -7   5 130.024 6.24658   1 
  -7   7  -5 2.33856 1.53978   3 
  -7   7  -5 1.81482 1.44821   1 
   7  -7   5 4.56613 1.36234   1 
  -8   7  -5 17.1495 2.25922   3 
   8  -7   5 9.33308 2.50046   1 
   6   6  -5 17.3589 2.40469   3 
   6   6  -5 21.1955 2.62069   1 
   6   6  -5 11.3075 1.90691   1 
  -6  -6   5 16.6189 2.64712   1 
   5   6  -5 143.914 6.82045   1 
   5   6  -5 124.526 6.98140   1 
   5   6  -5 166.065 8.71086   3 
  -5  -6   5 145.710 7.19013   1 
   4   6  -5 40.3245 3.02027   1 
   4   6  -5 40.4857 3.43266   3 
   4   6  -5 42.3970 2.74385   1 
  -4  -6   5 37.2830 2.71583   1 
   3   6  -5 16.9201 1.71435   1 
   3   6  -5 16.5893 2.05306   3 
   3   6  -5 15.2646 1.63363   1 
  -3  -6   5 15.7775 1.64957   1 
   2   6  -5 312.952 12.8973   1 
   2   6  -5 316.518 12.9109   1 
   2   6  -5 319.618 16.8274   3 
  -2  -6   5 295.199 12.8734   1 
   1   6  -5 233.215 9.81550   1 
   1   6  -5 242.184 12.8835   3 
   1   6  -5 227.889 9.76299   1 
  -1  -6   5 230.392 9.83468   1 
   0   6  -5 4.57567 1.05525   3 
   0   6  -5 3.88421 0.72641   1 
   0   6  -5 5.23256 1.01343   1 
   0  -6   5 4.21561 0.92394   1 
  -1   6  -5 188.958 8.54905   1 
  -1   6  -5 201.980 11.2835   3 
  -1   6  -5 209.787 8.55204   1 
   1  -6   5 210.500 8.55549   1 
  -2   6  -5 5.19163 1.33432   3 
  -2   6  -5 4.52906 1.06839   1 
   2  -6   5 7.11644 0.87906   1 
   2  -6   5 6.58850 0.83429   2 
  -3   6  -5 876.787 44.7030   3 
  -3   6  -5 833.749 34.2540   1 
   3  -6   5 874.953 34.2369   1 
  -4   6  -5 13.6097 1.81806   3 
   4  -6   5 12.2868 1.43228   1 
  -5   6  -5 203.085 11.2320   3 
   5  -6   5 204.993 8.92799   1 
  -6   6  -5 13.7488 1.83302   3 
  -6   6  -5 13.0664 1.64834   1 
   6  -6   5 13.7235 1.77507   1 
  -7   6  -5 3.40519 1.42400   3 
  -7   6  -5 3.39834 1.50209   1 
   7  -6   5 3.18641 1.69052   1 
  -8   6  -5 23.8622 2.69201   3 
   8  -6   5 20.3257 2.88006   1 
   7   5  -5 7.58748 1.90699   1 
   7   5  -5 8.83480 2.21492   1 
   7   5  -5 10.9586 2.23129   3 
   6   5  -5 11.8955 1.99076   1 
   6   5  -5 13.5055 1.92698   3 
   6   5  -5 14.2318 2.12707   1 
  -6  -5   5 10.2142 1.89570   1 
   5   5  -5 202.275 8.96070   1 
   5   5  -5 210.170 11.2309   3 
   5   5  -5 195.584 8.79531   1 
  -5  -5   5 195.519 8.87719   1 
   4   5  -5 333.176 17.0794   3 
   4   5  -5 321.822 13.2783   1 
   4   5  -5 310.494 13.2139   1 
  -4  -5   5 302.443 13.2633   1 
   3   5  -5 20.5270 1.89346   3 
   3   5  -5 14.1242 1.44045   1 
   3   5  -5 18.0671 1.58600   1 
  -3  -5   5 18.5538 1.51768   1 
   2   5  -5 90.5512 5.59479   3 
   2   5  -5 96.2984 4.28115   1 
   2   5  -5 92.3478 4.28441   1 
  -2  -5   5 87.2922 4.24821   1 
   1   5  -5 29.9695 1.99543   1 
   1   5  -5 31.4398 2.53015   3 
   1   5  -5 31.7231 1.97876   1 
  -1  -5   5 28.9703 1.80964   1 
   0   5  -5 6.58466 0.99843   1 
   0   5  -5 7.36458 1.32459   3 
   0   5  -5 8.68619 0.89420   1 
   0  -5   5 9.94039 0.99683   1 
  -1   5  -5 183.800 7.93298   1 
  -1   5  -5 191.812 10.3868   3 
   1  -5   5 190.249 7.88350   1 
   1  -5   5 181.511 8.90659   2 
  -2   5  -5 132.854 7.62460   3 
  -2   5  -5 132.790 5.84451   1 
   2  -5   5 130.897 6.28612   2 
   2  -5   5 134.712 5.78418   1 
  -3   5  -5 212.563 9.18046   1 
  -3   5  -5 221.109 11.9043   3 
   3  -5   5 219.958 9.19722   1 
  -4   5  -5 6.67038 1.02220   1 
  -4   5  -5 7.39471 1.29060   3 
   4  -5   5 6.04176 0.99251   1 
  -5   5  -5 25.4996 2.22638   1 
  -5   5  -5 24.0205 2.11016   3 
   5  -5   5 24.6927 1.95483   1 
  -6   5  -5 1.76181 1.14719   3 
   6  -5   5 2.01573 1.42022   1 
  -7   5  -5 9.49822 1.72787   1 
  -7   5  -5 10.2528 1.55731   3 
   7  -5   5 9.21074 1.59638   1 
   8   4  -5 1.61630 2.49701   1 
   8   4  -5 2.46685 2.38597   1 
   7   4  -5 31.1794 3.17830   1 
   7   4  -5 24.1310 2.32072   1 
   7   4  -5 29.6830 3.03420   3 
   6   4  -5 -0.6737 1.25380   1 
   6   4  -5 0.25951 0.87684   1 
   6   4  -5 -0.9478 1.09695   3 
  -6  -4   5 -0.0479 1.41652   1 
   5   4  -5 0.36446 1.07610   3 
   5   4  -5 0.26245 0.99415   1 
   5   4  -5 1.88222 0.79721   1 
  -5  -4   5 -0.1616 1.05386   1 
   4   4  -5 164.623 7.45679   1 
   4   4  -5 177.838 9.59213   3 
   4   4  -5 172.607 7.45742   1 
  -4  -4   5 171.613 7.47066   1 
   3   4  -5 225.801 12.0412   3 
   3   4  -5 216.843 9.26252   1 
   3   4  -5 224.950 9.30243   1 
  -3  -4   5 214.922 9.27191   1 
   2   4  -5 75.8056 3.77154   1 
   2   4  -5 80.1136 3.76840   1 
   2   4  -5 82.1897 4.86904   3 
  -2  -4   5 82.5512 3.72869   1 
   1   4  -5 55.4855 3.63923   3 
   1   4  -5 54.5298 2.83911   1 
   1   4  -5 58.7590 2.84546   1 
  -1  -4   5 58.7230 2.76918   1 
   0   4  -5 0.58958 0.67910   3 
   0   4  -5 0.70166 0.60399   1 
   0  -4   5 0.46340 0.58090   1 
  -1   4  -5 20.6643 1.46628   1 
  -1   4  -5 23.0673 2.13676   3 
   1  -4   5 22.8778 1.56494   1 
   1  -4   5 24.0363 1.54850   2 
  -2   4  -5 335.215 17.4414   3 
  -2   4  -5 318.326 13.3793   1 
   2  -4   5 328.509 13.3315   1 
   2  -4   5 327.302 15.0788   2 
  -3   4  -5 54.9864 2.90093   1 
  -3   4  -5 56.0098 3.63918   3 
   3  -4   5 56.7139 3.00540   1 
  -4   4  -5 0.13996 0.85788   1 
  -4   4  -5 1.32764 0.92742   3 
   4  -4   5 1.43730 0.86258   1 
  -5   4  -5 106.903 5.07555   1 
  -5   4  -5 103.427 6.10347   3 
   5  -4   5 103.551 5.01108   1 
  -6   4  -5 1.58685 0.86617   1 
  -6   4  -5 1.97393 1.10179   3 
   6  -4   5 0.58920 1.41945   1 
  -7   4  -5 34.0396 2.57816   1 
   7  -4   5 32.7777 3.04919   1 
   8  -4   5 6.82917 2.13095   1 
   8   3  -5 27.2449 2.81513   1 
   8   3  -5 29.2427 2.83126   1 
   7   3  -5 42.6921 3.21790   1 
   7   3  -5 36.8506 2.79279   1 
   7   3  -5 42.2264 2.98995   3 
   6   3  -5 106.567 5.26853   1 
   6   3  -5 107.657 5.16878   1 
   6   3  -5 115.579 6.33356   3 
  -6  -3   5 105.675 5.29188   1 
   5   3  -5 39.5902 2.30095   1 
   5   3  -5 37.2864 2.48098   1 
   5   3  -5 38.9541 2.67331   3 
  -5  -3   5 34.1769 2.22960   1 
   4   3  -5 76.0367 3.76046   1 
   4   3  -5 79.4322 3.76988   1 
   4   3  -5 80.1194 4.69932   3 
  -4  -3   5 75.5651 3.68921   1 
   3   3  -5 0.77360 0.47348   1 
   3   3  -5 1.21256 0.65880   1 
   3   3  -5 0.34325 0.82229   3 
  -3  -3   5 1.99910 0.64051   1 
   2   3  -5 178.892 7.19588   1 
   2   3  -5 171.786 7.20622   1 
   2   3  -5 165.790 9.40912   3 
  -2  -3   5 168.072 7.15710   1 
   1   3  -5 9.00408 1.20591   3 
   1   3  -5 7.92050 0.90157   1 
  -1  -3   5 8.94662 0.96765   1 
   0   3  -5 4.57476 0.92469   3 
   0   3  -5 4.23173 0.74790   1 
   0  -3   5 5.01153 0.81156   2 
   0  -3   5 4.81167 0.69156   1 
  -1   3  -5 25.0361 2.21442   3 
  -1   3  -5 24.3121 1.56848   1 
   1  -3   5 25.1957 1.57821   2 
   1  -3   5 26.6818 1.50830   1 
  -2   3  -5 11.6211 1.12462   1 
  -2   3  -5 13.1742 1.65947   3 
   2  -3   5 11.3607 1.07558   1 
   2  -3   5 11.5574 0.93261   2 
  -3   3  -5 63.7110 4.14009   3 
  -3   3  -5 65.3952 3.24949   1 
   3  -3   5 66.0573 3.24473   1 
  -4   3  -5 2.89930 1.06268   3 
  -4   3  -5 2.16256 0.72895   1 
   4  -3   5 1.93645 0.75949   1 
  -5   3  -5 26.2878 2.36228   1 
  -5   3  -5 27.9902 2.41699   3 
   5  -3   5 30.9328 2.26709   1 
  -6   3  -5 20.2828 1.94398   1 
  -6   3  -5 18.8623 1.94775   3 
   6  -3   5 17.9743 2.11450   1 
  -7   3  -5 4.60521 1.67940   1 
  -7   3  -5 1.83522 1.03968   3 
   7  -3   5 0.30320 1.45009   1 
   8  -3   5 97.7599 5.82345   1 
   9   2  -5 37.2789 3.88138   1 
   8   2  -5 12.0841 1.80461   1 
   8   2  -5 10.2395 1.51064   1 
   7   2  -5 18.7850 1.89799   1 
   7   2  -5 21.9286 2.12845   3 
   7   2  -5 18.0192 1.78686   1 
   6   2  -5 43.1952 2.72960   1 
   6   2  -5 42.4892 2.73625   1 
   6   2  -5 46.9270 3.05758   3 
  -6  -2   5 43.3082 2.64765   1 
   5   2  -5 176.735 7.52522   1 
   5   2  -5 178.642 9.65057   3 
   5   2  -5 176.208 7.54108   1 
  -5  -2   5 175.377 7.53203   1 
   4   2  -5 83.1949 3.76247   1 
   4   2  -5 79.0823 3.74598   1 
   4   2  -5 81.5739 4.93438   3 
  -4  -2   5 84.4673 3.81359   1 
   3   2  -5 42.8519 3.02561   3 
   3   2  -5 43.1938 2.16351   1 
   3   2  -5 42.9522 2.15453   1 
  -3  -2   5 42.0479 2.18478   1 
   2   2  -5 282.619 11.3509   1 
   2   2  -5 268.236 14.8806   3 
  -2  -2   5 287.756 11.3288   1 
   1   2  -5 412.680 22.5611   3 
   1   2  -5 432.856 17.2339   1 
  -1  -2   5 452.445 17.1911   1 
  -1  -2   5 424.735 20.0984   2 
   0   2  -5 232.562 12.6016   3 
   0   2  -5 239.544 9.61470   1 
   0  -2   5 226.399 11.0620   2 
   0  -2   5 237.211 9.56136   1 
  -1   2  -5 97.1004 5.89911   3 
  -1   2  -5 103.884 4.54833   1 
   1  -2   5 103.957 5.03026   2 
   1  -2   5 104.060 4.50144   1 
  -2   2  -5 231.156 9.61243   1 
  -2   2  -5 226.362 12.4432   3 
   2  -2   5 233.514 9.57347   1 
  -3   2  -5 1036.26 41.2356   1 
  -3   2  -5 1010.60 53.6452   3 
   3  -2   5 1080.93 41.2879   1 
  -4   2  -5 7.05488 1.27307   3 
  -4   2  -5 4.68375 0.95381   1 
   4  -2   5 7.62833 1.08312   1 
  -5   2  -5 25.2209 1.97954   1 
  -5   2  -5 24.1177 2.29154   3 
   5  -2   5 22.7747 2.45101   1 
  -6   2  -5 96.4854 4.76829   1 
  -6   2  -5 91.5765 5.48919   3 
   6  -2   5 95.1690 5.25335   1 
  -7   2  -5 4.22932 1.82854   1 
   7  -2   5 2.76279 2.22410   1 
   8  -2   5 -0.5615 2.88998   1 
   9   1  -5 0.72092 1.08647   1 
   9   1  -5 1.78298 1.34724   1 
   8   1  -5 50.7268 2.94140   1 
   8   1  -5 48.4416 3.28302   1 
   7   1  -5 190.680 9.86964   3 
   7   1  -5 176.460 7.98000   1 
   7   1  -5 181.328 7.97916   1 
   6   1  -5 2.65338 0.87787   3 
   6   1  -5 2.92553 0.83421   1 
   6   1  -5 2.46606 0.82121   1 
  -6  -1   5 2.85819 0.78180   1 
   5   1  -5 172.060 7.11768   1 
   5   1  -5 168.281 7.09918   1 
   5   1  -5 164.537 9.17812   3 
  -5  -1   5 166.858 7.09385   1 
   4   1  -5 506.039 20.0455   1 
   4   1  -5 481.069 26.1883   3 
   4   1  -5 510.087 20.0563   1 
  -4  -1   5 514.964 20.0403   1 
   3   1  -5 303.998 11.8348   1 
   3   1  -5 297.324 11.8092   1 
   3   1  -5 274.132 15.5033   3 
  -3  -1   5 284.566 14.0198   2 
  -3  -1   5 302.797 11.8041   1 
   2   1  -5 746.586 28.5044   1 
   2   1  -5 684.935 37.3162   3 
  -2  -1   5 727.452 33.3958   2 
  -2  -1   5 728.467 28.4486   1 
   1   1  -5 595.291 23.7035   1 
  -1  -1   5 608.035 23.6496   1 
  -1  -1   5 590.990 27.6720   2 
   0   1  -5 374.697 15.2599   1 
   0  -1   5 375.684 17.6657   2 
   0  -1   5 388.649 15.2172   1 
  -1   1  -5 21.8213 1.58681   1 
   1  -1   5 27.1074 1.62659   2 
   1  -1   5 21.5224 1.50645   1 
  -2   1  -5 54.1155 2.83291   1 
   2  -1   5 55.0338 2.78291   1 
  -3   1  -5 7.50613 1.25983   3 
  -3   1  -5 10.2176 1.16204   1 
   3  -1   5 8.62031 1.03159   1 
  -4   1  -5 56.4847 3.16651   1 
  -4   1  -5 49.7646 3.62475   3 
   4  -1   5 58.0510 3.11377   1 
  -5   1  -5 277.109 11.5958   1 
  -5   1  -5 253.989 14.4929   3 
   5  -1   5 287.006 11.7256   1 
  -6   1  -5 -0.1121 1.01681   3 
  -6   1  -5 0.31669 0.99308   1 
   6  -1   5 0.59167 1.71256   1 
  -7   1  -5 12.6862 1.92428   1 
   7  -1   5 11.3404 2.64409   1 
   9   0  -5 27.5651 2.66951   1 
   9   0  -5 30.2832 2.58023   1 
   8   0  -5 100.194 5.06462   1 
   8   0  -5 100.365 4.93043   1 
   8   0  -5 108.126 5.63543   3 
   7   0  -5 0.63465 0.76475   3 
   7   0  -5 0.36858 0.83686   1 
   7   0  -5 0.25615 0.50100   1 
   6   0  -5 2.01557 0.74143   1 
   6   0  -5 1.11963 0.85409   3 
   6   0  -5 1.53502 0.63012   1 
  -6   0   5 1.74558 0.57892   1 
   5   0  -5 31.7114 1.73737   1 
   5   0  -5 29.2239 1.66825   1 
   5   0  -5 29.7772 2.32096   3 
  -5   0   5 29.1226 1.65010   1 
   4   0  -5 13.8732 0.98160   1 
   4   0  -5 12.7810 1.57211   3 
   4   0  -5 13.1335 0.92130   1 
  -4   0   5 12.5010 1.43900   2 
  -4   0   5 13.8055 0.94185   1 
   3   0  -5 229.022 9.19837   1 
  -3   0   5 218.400 11.0157   2 
  -3   0   5 232.916 9.15816   1 
   2   0  -5 45.1157 2.09342   1 
  -2   0   5 42.2750 2.70794   2 
  -2   0   5 44.5430 2.05912   1 
   1   0  -5 2.30913 0.51956   1 
  -1   0   5 3.00212 0.69146   2 
  -1   0   5 2.64922 0.44878   1 
   0   0  -5 147.713 6.48417   1 
   0   0   5 153.421 6.45403   1 
   0   0   5 161.064 7.50854   2 
  -1   0  -5 34.2859 1.88437   1 
   1   0   5 32.2967 1.92170   1 
  -2   0  -5 188.163 8.07288   1 
   2   0   5 192.122 8.08143   1 
  -3   0  -5 47.9041 2.81838   1 
   3   0   5 51.2944 2.95200   1 
  -4   0  -5 1.58315 1.05907   1 
   4   0   5 0.66518 0.84073   1 
  -5   0  -5 2.45880 1.11692   3 
  -5   0  -5 5.30626 1.10338   1 
   5   0   5 2.46798 1.61071   1 
  -6   0  -5 235.506 10.2557   1 
   6   0   5 232.309 10.7601   1 
  -7   0  -5 10.0170 1.78952   1 
   7   0   5 8.99549 2.63578   1 
   7   0   5 11.8168 3.07101   1 
   9  -1  -5 24.3711 2.13840   1 
   9  -1  -5 20.8146 2.22083   1 
  -9   1   5 18.4534 2.80103   2 
   8  -1  -5 47.0714 2.49467   1 
   8  -1  -5 45.1838 2.77728   1 
  -8   1   5 43.8285 3.45302   2 
   7  -1  -5 211.109 8.29273   1 
   7  -1  -5 199.974 8.31681   1 
   7  -1  -5 189.560 10.5730   3 
  -7   1   5 188.886 10.2013   2 
   6  -1  -5 35.0229 2.71579   3 
   6  -1  -5 41.6705 2.10992   1 
   6  -1  -5 40.7166 2.08470   1 
  -6   1   5 39.8312 3.08422   2 
   5  -1  -5 -0.0998 0.37489   1 
   5  -1  -5 0.30472 0.35459   1 
  -5   1   5 -0.5198 0.28431   1 
  -5   1   5 -0.6517 0.63811   2 
   4  -1  -5 55.4407 2.47131   1 
   4  -1  -5 54.7545 2.47055   1 
  -4   1   5 51.4143 3.28275   2 
  -4   1   5 55.3612 2.40022   1 
   3  -1  -5 95.3046 3.97100   1 
  -3   1   5 91.3269 4.94041   2 
  -3   1   5 93.5792 3.89199   1 
   2  -1  -5 0.88943 0.35429   1 
  -2   1   5 0.33075 0.26602   1 
  -2   1   5 0.14150 0.45206   2 
   1  -1  -5 1188.04 46.8759   1 
  -1   1   5 1177.86 54.7447   2 
  -1   1   5 1217.21 46.8244   1 
   0  -1  -5 15.9211 1.12854   1 
   0   1   5 16.5745 1.18038   1 
   0   1   5 16.8200 1.48935   2 
  -1  -1  -5 4.67408 0.79734   1 
   1   1   5 5.01412 0.84307   1 
  -2  -1  -5 3.92261 0.72347   1 
   2   1   5 3.63621 0.70110   1 
  -3  -1  -5 30.6641 2.00668   1 
   3   1   5 30.2602 2.41885   1 
  -4  -1  -5 4.07819 1.28721   1 
   4   1   5 4.47597 1.52554   1 
  -5  -1  -5 43.7825 3.26676   1 
   5   1   5 35.3345 2.99904   1 
  -6  -1  -5 5.84137 1.77992   3 
  -6  -1  -5 8.33019 1.63627   1 
   6   1   5 9.17040 1.72089   1 
   6   1   5 6.60269 1.76304   1 
   7   1   5 9.50732 3.28701   1 
   7   1   5 6.78781 2.02942   1 
  10  -2  -5 0.48145 1.66782   1 
 -10   2   5 2.79326 1.61976   2 
   9  -2  -5 120.002 5.41497   1 
   9  -2  -5 113.057 5.19240   1 
  -9   2   5 105.038 6.57898   2 
   8  -2  -5 57.9757 3.91927   3 
   8  -2  -5 67.9799 3.18605   1 
   8  -2  -5 68.0367 3.33886   1 
  -8   2   5 64.3387 4.30706   2 
   7  -2  -5 38.4676 1.89571   1 
   7  -2  -5 30.0712 2.48182   3 
   7  -2  -5 36.6800 1.96670   1 
  -7   2   5 30.4961 2.70924   2 
   6  -2  -5 5.19915 0.58280   1 
   6  -2  -5 5.82850 0.66375   1 
  -6   2   5 5.46185 1.43330   2 
   5  -2  -5 169.731 6.89178   1 
   5  -2  -5 170.712 6.90446   1 
  -5   2   5 167.415 8.63892   2 
   4  -2  -5 78.7848 3.36390   1 
  -4   2   5 81.9349 3.24282   1 
  -4   2   5 76.6460 4.42069   2 
   3  -2  -5 573.156 22.9072   1 
  -3   2   5 598.991 22.7955   1 
  -3   2   5 571.607 27.0825   2 
   2  -2  -5 52.1605 2.40894   1 
  -2   2   5 54.8633 3.14265   2 
  -2   2   5 52.3452 2.32431   1 
   1  -2  -5 243.968 10.3303   1 
  -1   2   5 254.940 10.2803   1 
  -1   2   5 265.169 12.1976   2 
   0  -2  -5 682.553 27.4226   1 
   0   2   5 700.790 27.4139   1 
  -1  -2  -5 10.0737 1.05023   1 
   1   2   5 9.05063 1.07225   1 
  -2  -2  -5 11.9533 1.24761   1 
   2   2   5 14.6816 1.40352   1 
  -3  -2  -5 395.196 16.3002   1 
   3   2   5 399.602 16.4637   1 
  -4  -2  -5 8.03915 1.31259   1 
   4   2   5 6.70631 1.29280   1 
   4   2   5 8.04999 1.44531   1 
  -5  -2  -5 23.0082 2.40890   1 
   5   2   5 22.0341 2.34339   1 
   5   2   5 17.9135 2.36536   1 
  -6  -2  -5 16.8339 2.15546   1 
   6   2   5 17.5199 3.01206   1 
   6   2   5 15.4224 2.64493   1 
  10  -3  -5 2.14436 1.51988   1 
 -10   3   5 5.92712 2.15562   2 
   9  -3  -5 -0.5853 0.94849   1 
   9  -3  -5 -0.2454 0.72143   1 
  -9   3   5 -1.0498 1.22406   2 
   8  -3  -5 71.8430 3.26194   1 
   8  -3  -5 72.4672 3.38778   1 
  -8   3   5 64.6629 4.80396   2 
   7  -3  -5 9.03624 0.82711   1 
   7  -3  -5 6.26752 0.82759   1 
  -7   3   5 8.21413 1.72798   2 
   6  -3  -5 0.75024 0.28924   1 
   6  -3  -5 1.29744 0.42881   1 
  -6   3   5 -0.0025 1.25661   2 
   5  -3  -5 47.6203 2.08922   1 
   5  -3  -5 44.8218 2.04547   1 
  -5   3   5 48.4831 3.02345   2 
   4  -3  -5 388.477 15.2351   1 
  -4   3   5 382.265 18.2952   2 
   3  -3  -5 306.382 12.6038   1 
  -3   3   5 324.585 12.4334   1 
  -3   3   5 325.760 12.4161   1 
  -3   3   5 307.845 15.0736   2 
   2  -3  -5 317.627 12.4866   1 
  -2   3   5 323.053 14.8381   2 
  -2   3   5 334.765 12.3791   1 
  -2   3   5 266.676 16.5744   3 
   1  -3  -5 293.851 11.6277   1 
  -1   3   5 252.089 15.3822   3 
  -1   3   5 292.618 11.5641   1 
  -1   3   5 307.308 13.7447   2 
   0  -3  -5 321.589 12.6008   1 
   0   3   5 282.241 16.5598   3 
   0   3   5 321.681 12.5900   1 
  -1  -3  -5 32.0790 1.88990   1 
   1   3   5 29.1174 2.04407   1 
  -2  -3  -5 55.6658 2.97390   1 
   2   3   5 56.5290 3.21822   1 
   2   3   5 57.1712 3.24329   1 
  -3  -3  -5 0.55480 0.80983   1 
   3   3   5 -0.0492 1.26980   1 
   3   3   5 0.64737 1.18586   1 
  -4  -3  -5 42.4037 3.22183   1 
   4   3   5 38.8688 2.79574   1 
   4   3   5 29.4982 2.85454   1 
  -5  -3  -5 -0.2576 1.33873   1 
   5   3   5 3.18196 2.15665   1 
   5   3   5 3.01701 1.98456   1 
  -6  -3  -5 -0.9581 1.80878   1 
   6   3   5 7.28041 3.07917   1 
   6   3   5 0.69789 2.80387   1 
  10  -4  -5 1.55489 0.83789   1 
  10  -4  -5 0.43877 1.25545   1 
 -10   4   5 2.77055 1.57272   2 
   9  -4  -5 1.74695 0.87101   1 
   9  -4  -5 -0.0650 0.60792   1 
  -9   4   5 -0.5678 1.67474   2 
   8  -4  -5 48.9025 2.52263   1 
   8  -4  -5 49.4081 2.37838   1 
  -8   4   5 48.2484 3.87607   2 
   7  -4  -5 272.453 11.0434   1 
   7  -4  -5 281.770 11.0855   1 
  -7   4   5 276.445 13.7847   2 
   6  -4  -5 12.5326 0.81718   1 
  -6   4   5 19.6522 1.83567   2 
   5  -4  -5 162.886 6.49333   1 
  -5   4   5 160.919 8.26963   2 
   4  -4  -5 62.3239 2.53722   1 
  -4   4   5 60.9752 3.62187   2 
  -4   4   5 50.3595 3.85003   3 
   3  -4  -5 44.4230 2.02622   1 
  -3   4   5 39.8833 3.28489   3 
  -3   4   5 45.9706 2.78989   2 
   2  -4  -5 56.4962 2.65184   1 
  -2   4   5 58.6679 3.48173   2 
  -2   4   5 57.6699 2.51107   1 
  -2   4   5 51.3189 3.83877   3 
  -2   4   5 60.1472 2.53711   1 
   1  -4  -5 0.65169 0.48459   1 
  -1   4   5 -0.4310 0.40915   1 
  -1   4   5 0.49835 0.70695   3 
  -1   4   5 0.11046 0.48105   1 
   0  -4  -5 3.02173 0.76431   1 
   0   4   5 2.65111 0.73700   1 
   0   4   5 1.60918 0.71583   1 
   0   4   5 3.32125 1.29234   3 
  -1  -4  -5 17.5661 1.44417   1 
   1   4   5 14.4176 1.90253   3 
   1   4   5 15.8127 1.41365   1 
   1   4   5 18.5854 1.68256   1 
  -2  -4  -5 58.5620 3.44715   1 
   2   4   5 64.5612 3.36071   1 
   2   4   5 58.2114 4.50941   3 
   2   4   5 68.3010 3.64053   1 
  -3  -4  -5 3.20452 1.40534   1 
   3   4   5 2.96747 1.16251   1 
   3   4   5 5.15125 1.50618   1 
  -4  -4  -5 20.8141 2.14082   1 
   4   4   5 24.2787 2.54099   1 
   4   4   5 23.2221 2.61219   1 
  -5  -4  -5 -1.6645 1.45933   1 
   5   4   5 2.82848 2.48587   1 
   5   4   5 6.46103 1.96879   1 
  10  -5  -5 2.32399 0.89994   1 
  10  -5  -5 0.80472 1.14356   1 
 -10   5   5 1.40409 1.99090   2 
   9  -5  -5 0.15485 0.83558   1 
   9  -5  -5 0.15486 0.60953   1 
  -9   5   5 0.25481 1.34136   2 
   8  -5  -5 15.1342 1.00963   1 
   8  -5  -5 14.8757 1.25258   1 
  -8   5   5 13.8419 2.16813   2 
   7  -5  -5 11.5459 0.78855   1 
   7  -5  -5 10.8996 0.72478   1 
  -7   5   5 12.5868 1.75592   2 
   6  -5  -5 0.43579 0.24384   1 
   6  -5  -5 0.85869 0.22387   1 
  -6   5   5 0.86474 1.25923   2 
  -6   5   5 1.25778 0.89601   3 
   5  -5  -5 21.1950 1.00089   1 
  -5   5   5 18.1890 2.47210   3 
  -5   5   5 20.8775 2.22845   2 
   4  -5  -5 39.6813 1.79682   1 
  -4   5   5 39.8331 2.67137   2 
  -4   5   5 37.4520 3.08126   3 
   3  -5  -5 622.878 23.4011   1 
  -3   5   5 613.477 27.7374   2 
  -3   5   5 539.113 31.1543   3 
   2  -5  -5 135.961 5.69614   1 
  -2   5   5 131.016 5.53688   1 
  -2   5   5 143.681 5.55723   1 
  -2   5   5 125.309 7.94823   3 
   1  -5  -5 54.1601 2.62497   1 
  -1   5   5 45.0589 3.70188   3 
  -1   5   5 53.2735 2.56271   1 
  -1   5   5 51.2392 2.53547   1 
   0  -5  -5 50.3425 2.79850   1 
   0   5   5 53.4848 2.69098   1 
   0   5   5 52.6534 2.67169   1 
   0   5   5 46.8175 3.76364   3 
  -1  -5  -5 0.89896 0.97081   1 
   1   5   5 0.47621 0.99647   3 
   1   5   5 0.43805 0.70792   1 
  -2  -5  -5 2.90871 1.17322   1 
   2   5   5 -1.1968 1.21227   1 
   2   5   5 1.42388 1.14920   3 
   2   5   5 1.57240 1.17959   1 
  -3  -5  -5 12.8097 1.88226   1 
   3   5   5 9.61455 2.01613   1 
   3   5   5 10.4391 1.96397   1 
  -4  -5  -5 78.3871 5.00488   1 
   4   5   5 78.6996 4.64446   1 
   4   5   5 65.6675 5.04676   1 
  10  -6  -5 22.0821 1.60981   1 
  10  -6  -5 23.0931 2.07098   1 
 -10   6   5 27.2950 3.03340   2 
   9  -6  -5 22.8324 1.31736   1 
   9  -6  -5 25.1789 1.55897   1 
  -9   6   5 27.8080 2.79625   2 
   8  -6  -5 43.9878 1.95260   1 
   8  -6  -5 41.6934 1.86970   1 
  -8   6   5 49.2307 3.71964   2 
  -7   6   5 1.14560 1.44150   2 
  -7   6   5 2.11589 1.63946   3 
  -6   6   5 -0.0858 0.81078   2 
  -6   6   5 1.94078 1.48659   3 
   5  -6  -5 7.89959 0.54695   1 
  -5   6   5 7.99465 1.28580   2 
  -5   6   5 7.54134 1.79756   3 
   4  -6  -5 121.672 4.89065   1 
  -4   6   5 126.616 6.48513   2 
  -4   6   5 104.956 7.26316   3 
   3  -6  -5 89.1982 3.85583   1 
  -3   6   5 87.9417 5.91343   3 
   2  -6  -5 3.19406 0.63343   1 
  -2   6   5 3.08068 0.50192   1 
  -2   6   5 2.35410 1.34806   3 
  -2   6   5 2.41108 0.47885   1 
   1  -6  -5 23.5382 1.53812   1 
  -1   6   5 22.8719 1.55880   1 
  -1   6   5 19.9206 2.40743   3 
  -1   6   5 23.8703 1.58167   1 
   0  -6  -5 23.1740 1.85175   1 
   0   6   5 17.4045 2.39881   3 
   0   6   5 17.4537 1.76116   1 
   0   6   5 16.9477 1.42344   1 
  -1  -6  -5 13.6985 1.41681   1 
   1   6   5 10.3876 1.96975   3 
   1   6   5 12.6803 1.57405   1 
  -2  -6  -5 37.3661 2.98344   1 
   2   6   5 28.8573 3.19198   3 
   2   6   5 34.5891 2.57112   1 
   2   6   5 34.0547 2.92603   1 
  -3  -6  -5 75.0142 4.19136   1 
   3   6   5 75.7547 4.75639   1 
   3   6   5 60.5532 5.00357   3 
   3   6   5 63.9753 4.54646   1 
  -9   7   5 20.7459 2.39540   2 
  -8   7   5 2.20998 1.69989   2 
  -8   7   5 1.49896 1.63151   3 
  -7   7   5 0.09177 1.66161   3 
  -7   7   5 0.93204 1.41297   2 
  -6   7   5 25.2201 2.25425   2 
  -6   7   5 18.0030 2.65118   3 
   5  -7  -5 0.31001 0.28601   1 
  -5   7   5 0.08800 0.95746   3 
  -5   7   5 -0.4632 0.88992   2 
   4  -7  -5 22.4969 1.28566   1 
  -4   7   5 20.7187 2.51380   3 
   3  -7  -5 60.2527 2.78035   1 
  -3   7   5 57.1196 4.70132   3 
   2  -7  -5 2.18527 0.67554   1 
  -2   7   5 1.22701 1.65217   3 
  -2   7   5 2.64810 0.62777   1 
  -2   7   5 2.55340 0.59292   1 
   1  -7  -5 18.5204 1.50247   1 
  -1   7   5 20.8616 2.56752   3 
  -1   7   5 22.1649 1.63973   1 
  -1   7   5 21.7853 1.57012   1 
   0  -7  -5 15.3840 1.54099   1 
   0   7   5 11.2903 1.36746   1 
   0   7   5 16.2435 1.54933   1 
   0   7   5 14.6157 2.31318   3 
  -1  -7  -5 15.5172 1.57886   1 
   1   7   5 12.5585 1.74767   1 
   1   7   5 13.3593 2.60834   3 
   1   7   5 15.9928 1.80516   1 
  -2  -7  -5 14.9452 1.82806   1 
   2   7   5 16.3454 2.75394   3 
   2   7   5 12.6333 2.13048   1 
   2   7   5 8.71190 1.91035   1 
  -3  -7  -5 17.7656 2.95243   1 
   3   7   5 20.0023 2.65544   1 
   3   7   5 16.5147 3.02010   3 
  -9   8   5 78.0564 4.96531   2 
  -8   8   5 2.23931 1.78554   2 
  -8   8   5 0.17150 1.37877   3 
  -7   8   5 36.1917 4.11550   3 
  -7   8   5 47.2899 3.72728   2 
  -6   8   5 -0.0660 1.13810   3 
  -6   8   5 0.78113 1.03765   2 
   5  -8  -5 0.51231 0.41175   1 
  -5   8   5 -0.0240 1.10284   3 
   4  -8  -5 33.9088 1.76163   1 
  -4   8   5 31.9562 3.27733   3 
   3  -8  -5 387.686 14.6311   1 
  -3   8   5 332.041 19.9165   3 
   2  -8  -5 16.6986 1.51699   1 
  -2   8   5 14.4463 2.38352   3 
  -2   8   5 16.8735 1.25866   1 
  -2   8   5 15.2579 1.39640   1 
   1  -8  -5 51.3176 2.90804   1 
  -1   8   5 46.9368 2.65132   1 
  -1   8   5 45.0492 3.97667   3 
  -1   8   5 41.9264 2.59478   1 
   0  -8  -5 0.17510 0.91378   1 
   0   8   5 1.98765 1.31813   1 
   0   8   5 0.52426 1.34159   3 
   0   8   5 1.23029 1.05765   1 
  -1  -8  -5 4.12247 1.76122   1 
   1   8   5 1.89851 1.59131   1 
   1   8   5 1.61125 1.46422   3 
   1   8   5 0.60796 1.51211   1 
  -2  -8  -5 41.5925 4.27238   1 
   2   8   5 39.7974 3.89596   1 
  -8   9   5 12.6539 2.65448   3 
  -8   9   5 15.9054 2.41356   2 
  -7   9   5 64.4399 5.43843   3 
  -6   9   5 3.22617 1.42327   3 
   5  -9  -5 78.6279 3.36281   1 
  -5   9   5 70.6149 5.52407   3 
   4  -9  -5 0.78807 0.58401   1 
  -4   9   5 -0.3440 1.71516   3 
   3  -9  -5 68.2893 3.28256   1 
  -3   9   5 60.1291 5.34988   3 
   2  -9  -5 8.70322 1.25194   1 
  -2   9   5 4.21416 0.95026   1 
  -2   9   5 5.64909 1.77402   3 
  -2   9   5 6.87856 1.05239   1 
   1  -9  -5 0.08461 1.33053   1 
  -1   9   5 2.49284 1.13275   1 
  -1   9   5 2.26811 1.74192   3 
  -1   9   5 -0.6648 0.86559   1 
   0  -9  -5 10.8365 1.96318   1 
   0   9   5 11.4288 1.82120   1 
   0   9   5 8.91911 2.41189   3 
   0   9   5 10.5123 1.55275   1 
  -7  10   5 5.24739 2.40143   3 
  -6  10   5 28.8604 4.05907   3 
   5 -10  -5 9.10243 1.00194   1 
  -5  10   5 7.55889 1.97181   3 
   4 -10  -5 1.12275 0.87936   1 
  -4  10   5 -2.3159 1.92512   3 
   3 -10  -5 6.81054 1.16337   1 
  -3  10   5 5.53134 2.51382   3 
   2 -10  -5 47.2439 3.07575   1 
  -2  10   5 47.7348 4.72727   3 
  -1  10   5 3.07559 1.47114   1 
  -1  10   5 -0.5629 1.76831   3 
   0  11  -6 4.47433 1.93449   3 
   0  11  -6 6.15245 2.03141   1 
   0 -11   6 3.91327 2.52607   1 
  -1  11  -6 41.3656 3.07329   1 
  -1  11  -6 43.7054 4.66402   3 
   1 -11   6 41.8713 4.23445   1 
  -2  11  -6 68.8592 5.15480   3 
  -2  11  -6 57.1040 3.95938   1 
   2 -11   6 66.3173 4.12965   1 
  -3  11  -6 2.96749 1.48602   1 
  -3  11  -6 0.99865 1.44458   3 
  -3  11  -6 2.11581 2.02739   1 
   3 -11   6 2.83088 1.56612   1 
  -4  11  -6 1.29143 1.03389   1 
  -4  11  -6 -0.1889 1.50219   3 
   4 -11   6 2.67701 1.54811   1 
   2  10  -6 5.95281 2.41713   3 
   2  10  -6 7.65581 2.19010   1 
  -2 -10   6 5.55398 2.68919   1 
   1  10  -6 7.95734 1.99637   1 
   1  10  -6 5.97564 1.66794   1 
   1  10  -6 4.85708 1.57615   3 
  -1 -10   6 8.89743 2.34399   1 
   0  10  -6 0.29851 1.55383   1 
   0  10  -6 2.91911 1.87873   1 
   0  10  -6 2.66630 1.30396   3 
   0 -10   6 2.24277 1.31114   1 
  -1  10  -6 53.7245 3.82473   1 
  -1  10  -6 49.1946 3.10461   1 
  -1  10  -6 50.6247 4.25005   3 
   1 -10   6 53.2676 3.89857   1 
  -2  10  -6 1.00491 1.30133   1 
  -2  10  -6 -0.3772 1.53388   3 
  -2  10  -6 1.38871 1.57794   1 
   2 -10   6 0.01567 1.68156   1 
  -3  10  -6 11.9477 2.35913   3 
  -3  10  -6 11.0754 1.66272   1 
  -3  10  -6 13.0173 1.73227   1 
   3 -10   6 11.0820 1.62080   1 
  -4  10  -6 -0.8474 1.04376   3 
  -4  10  -6 -0.0598 1.14159   1 
  -4  10  -6 -0.5250 1.73125   1 
   4 -10   6 -0.4798 1.68943   1 
  -5  10  -6 12.0889 1.55846   1 
  -5  10  -6 6.43211 2.05078   1 
  -5  10  -6 10.5666 2.43183   3 
   5 -10   6 10.1858 1.66074   1 
  -6  10  -6 21.7262 2.79565   3 
  -6  10  -6 18.1462 1.92142   1 
   3   9  -6 1.87254 2.24353   1 
   3   9  -6 1.05976 1.82211   3 
   3   9  -6 0.13904 1.94937   1 
  -3  -9   6 3.14059 2.38588   1 
   2   9  -6 3.62281 1.53502   3 
   2   9  -6 6.63732 1.99858   1 
   2   9  -6 2.50419 1.28575   1 
  -2  -9   6 3.97816 1.45129   1 
   1   9  -6 10.4541 1.43141   1 
   1   9  -6 13.7949 2.07474   1 
   1   9  -6 12.6506 2.34925   3 
  -1  -9   6 10.6944 1.97676   1 
   0   9  -6 -0.1223 1.01621   3 
   0   9  -6 -1.4190 1.19148   1 
   0   9  -6 1.28028 1.61380   1 
   0  -9   6 -0.2573 1.43410   1 
  -1   9  -6 39.1079 3.73241   3 
  -1   9  -6 40.8347 2.93425   1 
  -1   9  -6 39.5851 3.17791   1 
   1  -9   6 42.1564 2.78368   1 
  -2   9  -6 7.72935 1.60011   3 
  -2   9  -6 8.41683 1.20491   1 
  -2   9  -6 9.53642 1.38778   1 
   2  -9   6 8.09451 1.55954   1 
  -3   9  -6 116.441 5.46383   1 
  -3   9  -6 118.077 7.20178   3 
   3  -9   6 108.458 5.68023   1 
  -4   9  -6 33.0405 3.01911   1 
  -4   9  -6 34.0082 2.59187   1 
  -4   9  -6 37.2351 3.48237   3 
   4  -9   6 31.7215 3.04494   1 
  -5   9  -6 2.77025 1.71844   3 
  -5   9  -6 1.54693 1.70931   1 
  -5   9  -6 3.22652 1.20826   1 
   5  -9   6 2.15761 1.59941   1 
  -6   9  -6 89.3506 5.76807   3 
   6  -9   6 79.5565 4.61327   1 
   4   8  -6 271.839 12.3607   1 
   4   8  -6 305.744 16.0784   3 
   4   8  -6 286.472 12.5443   1 
  -4  -8   6 274.920 12.7580   1 
   3   8  -6 -0.1020 1.21151   1 
   3   8  -6 0.69514 1.23037   3 
   3   8  -6 0.33177 1.58392   1 
  -3  -8   6 -3.3192 1.75357   1 
   2   8  -6 22.1031 2.13594   1 
   2   8  -6 23.8547 2.59329   3 
   2   8  -6 20.1610 2.28827   1 
  -2  -8   6 25.8315 2.33619   1 
   1   8  -6 354.080 18.8325   3 
   1   8  -6 333.890 14.4270   1 
   1   8  -6 343.542 14.3314   1 
  -1  -8   6 339.794 14.3425   1 
   0   8  -6 126.589 5.93987   1 
   0   8  -6 127.322 5.96549   1 
   0   8  -6 132.013 7.93219   3 
   0  -8   6 120.939 5.88014   1 
  -1   8  -6 72.8272 3.87677   1 
  -1   8  -6 69.9680 3.80390   1 
  -1   8  -6 73.6978 5.15985   3 
   1  -8   6 73.5014 3.77557   1 
  -2   8  -6 134.293 6.04335   1 
  -2   8  -6 132.311 8.01559   3 
  -2   8  -6 131.901 6.20551   1 
   2  -8   6 121.891 6.46676   2 
   2  -8   6 133.835 6.00860   1 
  -3   8  -6 29.4147 2.93942   3 
  -3   8  -6 25.4377 2.19777   1 
  -3   8  -6 25.2181 2.52117   1 
   3  -8   6 27.0505 2.47167   1 
  -4   8  -6 33.8760 2.99913   3 
   4  -8   6 31.6594 2.41427   1 
  -5   8  -6 85.1763 4.43494   1 
  -5   8  -6 91.3177 5.64522   3 
   5  -8   6 78.8586 4.35516   1 
  -6   8  -6 29.3412 2.74522   1 
  -6   8  -6 33.7042 3.48947   3 
   6  -8   6 43.2731 3.37653   1 
  -7   8  -6 -0.1612 1.79098   3 
   7  -8   6 -0.9118 1.55221   1 
   5   7  -6 146.963 7.54824   1 
   5   7  -6 163.825 7.77633   1 
   5   7  -6 175.466 9.68903   3 
  -5  -7   6 152.352 8.02392   1 
   4   7  -6 33.3024 2.67362   1 
   4   7  -6 33.9380 3.45336   3 
   4   7  -6 30.4197 2.83877   1 
  -4  -7   6 31.5267 2.77781   1 
   3   7  -6 15.4823 1.99663   1 
   3   7  -6 14.1641 1.95317   3 
   3   7  -6 12.1173 1.55953   1 
  -3  -7   6 14.6212 1.63017   1 
   2   7  -6 41.3692 3.19044   3 
   2   7  -6 28.5029 2.37365   1 
   2   7  -6 37.2515 2.42139   1 
  -2  -7   6 35.7657 2.47596   1 
   1   7  -6 46.9684 3.82679   3 
   1   7  -6 53.1871 3.22243   1 
   1   7  -6 47.2684 2.98046   1 
  -1  -7   6 46.8801 2.82984   1 
   0   7  -6 36.3812 3.05522   3 
   0   7  -6 33.4129 2.23420   1 
   0   7  -6 37.0553 2.64777   1 
   0  -7   6 35.9546 2.59422   1 
  -1   7  -6 41.0964 3.53995   3 
  -1   7  -6 42.4672 2.68064   1 
  -1   7  -6 40.8641 2.58052   1 
   1  -7   6 39.5550 2.45130   1 
  -2   7  -6 429.019 18.2020   1 
  -2   7  -6 445.340 18.1701   1 
  -2   7  -6 462.774 23.8717   3 
   2  -7   6 446.806 18.1455   1 
  -3   7  -6 10.9743 1.95385   3 
  -3   7  -6 11.8561 1.36030   1 
   3  -7   6 12.8568 1.35838   1 
  -4   7  -6 0.25235 1.30396   3 
  -4   7  -6 0.84289 1.17288   1 
   4  -7   6 -1.0135 1.07546   1 
  -5   7  -6 117.618 6.99976   3 
   5  -7   6 105.931 5.60708   1 
  -6   7  -6 18.5766 2.38513   3 
  -6   7  -6 16.0346 2.12954   1 
   6  -7   6 14.0069 2.19807   1 
  -7   7  -6 59.2854 4.42105   3 
   7  -7   6 56.4344 3.90878   1 
   6   6  -6 3.51249 2.13678   1 
   6   6  -6 0.75244 1.56164   1 
   6   6  -6 1.64638 1.72379   3 
  -6  -6   6 1.97447 2.08440   1 
   5   6  -6 267.039 13.8958   3 
   5   6  -6 240.926 10.8386   1 
   5   6  -6 240.038 10.9283   1 
  -5  -6   6 244.715 11.0418   1 
   4   6  -6 1.28606 0.95149   3 
   4   6  -6 0.19051 0.96891   1 
   4   6  -6 0.04313 0.99585   1 
  -4  -6   6 0.51705 1.36780   1 
   3   6  -6 48.8816 3.86674   3 
   3   6  -6 46.1942 3.06547   1 
   3   6  -6 48.6764 2.94222   1 
  -3  -6   6 50.3511 3.19568   1 
   2   6  -6 151.218 6.98423   1 
   2   6  -6 157.064 6.97941   1 
   2   6  -6 167.286 9.27695   3 
  -2  -6   6 156.475 6.99947   1 
   1   6  -6 116.214 7.08912   3 
   1   6  -6 115.673 5.42848   1 
   1   6  -6 119.275 5.47713   1 
  -1  -6   6 121.698 5.49367   1 
   0   6  -6 195.300 10.7957   3 
   0   6  -6 189.883 8.23166   1 
   0   6  -6 188.476 8.19787   1 
   0  -6   6 189.116 8.20205   1 
  -1   6  -6 12.4963 1.66884   3 
  -1   6  -6 11.0597 1.24273   1 
   1  -6   6 8.28640 1.19158   2 
   1  -6   6 10.8117 1.14506   1 
  -2   6  -6 183.455 8.20889   1 
  -2   6  -6 195.880 10.6349   3 
   2  -6   6 189.820 8.12921   1 
   2  -6   6 182.687 8.88358   2 
  -3   6  -6 554.248 22.9661   1 
  -3   6  -6 593.603 29.9962   3 
   3  -6   6 558.522 22.9315   1 
  -4   6  -6 24.9604 2.61609   3 
  -4   6  -6 25.0894 2.03538   1 
   4  -6   6 22.1096 1.94528   1 
  -5   6  -6 21.0247 2.02675   1 
  -5   6  -6 24.0782 2.36328   3 
   5  -6   6 26.5106 2.60388   1 
  -6   6  -6 91.4532 5.78088   3 
   6  -6   6 87.7952 5.11965   1 
  -7   6  -6 6.55095 1.74089   3 
  -7   6  -6 -0.6564 1.66094   1 
   7  -6   6 5.08756 1.66994   1 
   7   5  -6 8.10859 2.50191   1 
   7   5  -6 9.07363 1.93776   3 
   7   5  -6 7.94903 2.42781   1 
  -7  -5   6 8.22752 2.32432   1 
   6   5  -6 22.9701 2.81994   3 
   6   5  -6 21.7140 2.34502   1 
   6   5  -6 23.0715 2.44819   1 
  -6  -5   6 23.1103 2.45235   1 
   5   5  -6 33.2232 2.95305   3 
   5   5  -6 30.2518 2.78340   1 
   5   5  -6 28.6104 2.73478   1 
  -5  -5   6 28.1207 2.75461   1 
   4   5  -6 507.763 25.9487   3 
   4   5  -6 473.307 19.8838   1 
   4   5  -6 501.424 20.0290   1 
  -4  -5   6 476.162 19.9871   1 
   3   5  -6 12.0218 1.32339   1 
   3   5  -6 14.2777 1.44379   1 
   3   5  -6 14.3599 1.84344   3 
  -3  -5   6 13.3661 1.39148   1 
   2   5  -6 97.9981 4.45583   1 
   2   5  -6 94.6431 4.53728   1 
   2   5  -6 94.9968 5.89229   3 
  -2  -5   6 89.9734 4.39559   1 
   1   5  -6 131.132 7.86902   3 
   1   5  -6 134.975 5.98244   1 
   1   5  -6 138.364 6.10440   1 
  -1  -5   6 139.049 5.99173   1 
   0   5  -6 92.9198 4.44854   1 
   0   5  -6 95.4276 5.73788   3 
   0  -5   6 94.8204 4.35940   1 
   0  -5   6 88.8403 4.90689   2 
  -1   5  -6 72.8936 4.60353   3 
  -1   5  -6 64.8802 3.40287   1 
   1  -5   6 66.4227 3.65581   2 
   1  -5   6 70.1187 3.44161   1 
  -2   5  -6 706.969 36.2155   3 
  -2   5  -6 679.309 27.7475   1 
   2  -5   6 692.721 27.6646   1 
   2  -5   6 693.439 31.7543   2 
  -3   5  -6 2.99872 0.82956   1 
  -3   5  -6 3.33011 1.03006   3 
   3  -5   6 3.14420 0.84496   1 
  -4   5  -6 159.527 7.45796   1 
  -4   5  -6 178.899 9.67405   3 
   4  -5   6 168.559 7.48107   1 
  -5   5  -6 2.65501 1.00358   1 
  -5   5  -6 2.86305 0.98768   3 
   5  -5   6 3.34454 1.43071   1 
  -6   5  -6 68.5568 4.17424   1 
  -6   5  -6 73.7532 4.75409   3 
   6  -5   6 66.3091 4.36712   1 
  -7   5  -6 0.34808 1.33756   3 
  -7   5  -6 2.39108 1.88864   1 
   7  -5   6 2.79318 2.09148   1 
   7   4  -6 -0.2471 1.57149   1 
   7   4  -6 -1.0527 1.20336   1 
   7   4  -6 -0.2992 1.34805   3 
  -7  -4   6 -2.7717 1.64531   1 
   6   4  -6 2.30873 1.33825   3 
   6   4  -6 0.97699 1.29158   1 
   6   4  -6 3.03270 1.41535   1 
  -6  -4   6 1.66952 1.31405   1 
   5   4  -6 485.704 22.2485   1 
   5   4  -6 554.471 22.3587   1 
   5   4  -6 601.304 29.0036   3 
  -5  -4   6 563.856 22.3822   1 
   4   4  -6 414.220 17.1352   1 
   4   4  -6 421.385 17.1864   1 
   4   4  -6 430.460 22.3076   3 
  -4  -4   6 414.511 17.1607   1 
   3   4  -6 298.988 15.9604   3 
   3   4  -6 292.893 12.2045   1 
   3   4  -6 292.970 12.2383   1 
  -3  -4   6 295.380 12.2169   1 
   2   4  -6 206.397 11.3455   3 
   2   4  -6 201.242 8.62193   1 
   2   4  -6 207.180 8.66532   1 
  -2  -4   6 201.607 8.60281   1 
   1   4  -6 22.3621 1.60715   1 
   1   4  -6 22.8816 2.11706   3 
  -1  -4   6 22.8696 1.53347   1 
   0   4  -6 9.84240 1.41482   3 
   0   4  -6 7.75555 1.11380   1 
   0  -4   6 10.0063 1.10088   2 
   0  -4   6 9.11588 0.93175   1 
  -1   4  -6 169.478 9.28903   3 
  -1   4  -6 157.442 7.06725   1 
   1  -4   6 165.459 6.96295   1 
   1  -4   6 158.225 7.81908   2 
  -2   4  -6 145.773 8.42368   3 
  -2   4  -6 146.899 6.46360   1 
   2  -4   6 146.946 6.45036   1 
   2  -4   6 145.061 6.95692   2 
  -3   4  -6 1216.39 49.4824   1 
  -3   4  -6 1272.99 64.5041   3 
   3  -4   6 1264.84 49.4790   1 
  -4   4  -6 161.738 7.23295   1 
  -4   4  -6 158.090 9.11481   3 
   4  -4   6 160.443 7.24883   1 
  -5   4  -6 3.41954 1.06302   1 
  -5   4  -6 5.22093 1.30889   3 
   5  -4   6 4.40743 1.42780   1 
  -6   4  -6 3.78544 1.33602   3 
  -6   4  -6 2.84352 1.69243   1 
   6  -4   6 3.50009 1.27258   1 
  -7   4  -6 0.99426 1.63291   3 
  -7   4  -6 1.31805 1.84376   1 
   7  -4   6 5.24970 1.79607   1 
   8   3  -6 1.37519 1.55277   3 
   8   3  -6 0.41636 1.87530   1 
   8   3  -6 -0.6285 1.96687   1 
   7   3  -6 71.8203 3.78602   1 
   7   3  -6 60.1399 3.99698   1 
   7   3  -6 71.3615 4.38373   3 
  -7  -3   6 59.0006 3.88969   1 
   6   3  -6 75.4428 4.63823   3 
   6   3  -6 66.2117 3.67383   1 
   6   3  -6 75.1758 3.74863   1 
  -6  -3   6 67.4341 3.83863   1 
   5   3  -6 255.962 13.1311   3 
   5   3  -6 237.408 10.0980   1 
   5   3  -6 255.070 10.1792   1 
  -5  -3   6 211.816 10.0952   1 
   4   3  -6 1134.36 43.8941   1 
   4   3  -6 1109.00 57.2366   3 
   4   3  -6 1091.41 43.8402   1 
  -4  -3   6 1104.76 43.8601   1 
   3   3  -6 1.50084 0.51558   1 
   3   3  -6 0.60424 0.68599   1 
   3   3  -6 0.42070 0.78911   3 
  -3  -3   6 0.51555 0.72034   1 
   2   3  -6 0.85144 0.49829   1 
   2   3  -6 0.38858 0.43561   1 
   2   3  -6 1.78477 0.96998   3 
  -2  -3   6 1.02403 0.61537   1 
   1   3  -6 48.6574 2.49688   1 
   1   3  -6 46.2803 3.32890   3 
  -1  -3   6 49.8677 2.41747   1 
  -1  -3   6 46.6871 2.83376   2 
   0   3  -6 149.275 8.58510   3 
   0   3  -6 160.037 6.56160   1 
   0  -3   6 157.247 6.46453   1 
   0  -3   6 139.886 7.40599   2 
  -1   3  -6 24.2081 2.14110   3 
  -1   3  -6 24.0544 1.63014   1 
   1  -3   6 24.5425 1.65463   2 
   1  -3   6 23.7676 1.53766   1 
  -2   3  -6 135.929 8.11773   3 
  -2   3  -6 140.016 6.28402   1 
   2  -3   6 142.782 6.31433   1 
   2  -3   6 150.850 6.88163   2 
  -3   3  -6 84.3121 4.14325   1 
  -3   3  -6 82.8988 5.22917   3 
   3  -3   6 86.9755 4.14058   1 
  -4   3  -6 54.0772 3.13454   1 
  -4   3  -6 57.7869 3.98838   3 
   4  -3   6 57.5986 3.39835   1 
  -5   3  -6 19.0240 2.37502   3 
  -5   3  -6 22.5569 2.34204   1 
   5  -3   6 21.3792 2.13798   1 
  -6   3  -6 83.0771 5.15863   3 
  -6   3  -6 84.3762 4.77107   1 
   6  -3   6 82.4736 5.14736   1 
  -7   3  -6 21.6455 2.32270   1 
  -7   3  -6 30.0823 2.62175   3 
   7  -3   6 27.5733 2.83512   1 
   8   2  -6 18.7637 2.19045   1 
   8   2  -6 21.1724 2.15853   3 
   8   2  -6 18.7368 2.23566   1 
   7   2  -6 26.5138 2.54918   3 
   7   2  -6 23.6329 2.35172   1 
   7   2  -6 22.0687 2.29277   1 
  -7  -2   6 20.8434 2.18553   1 
   6   2  -6 -1.0081 0.97632   3 
   6   2  -6 1.41307 0.68608   1 
   6   2  -6 1.41759 1.07171   1 
  -6  -2   6 2.12621 0.85383   1 
   5   2  -6 260.077 14.3432   3 
   5   2  -6 265.947 11.0848   1 
   5   2  -6 273.121 11.0908   1 
  -5  -2   6 268.736 11.0913   1 
   4   2  -6 298.278 12.4000   1 
   4   2  -6 301.913 16.2649   3 
   4   2  -6 310.087 12.4374   1 
  -4  -2   6 302.302 12.3907   1 
   3   2  -6 89.1322 5.59008   3 
   3   2  -6 94.3084 4.18118   1 
   3   2  -6 93.2110 4.11760   1 
  -3  -2   6 91.3781 4.07981   1 
  -3  -2   6 89.6069 5.07092   2 
   2   2  -6 57.0918 3.86493   3 
   2   2  -6 56.7696 2.78189   1 
  -2  -2   6 60.6440 2.75195   1 
  -2  -2   6 55.5420 3.33698   2 
   1   2  -6 19.1831 1.85767   3 
   1   2  -6 20.6166 1.36106   1 
  -1  -2   6 18.4674 1.54048   2 
  -1  -2   6 22.8683 1.42577   1 
   0   2  -6 19.9440 1.90854   3 
   0   2  -6 22.4798 1.62316   1 
   0  -2   6 19.0862 1.47678   2 
   0  -2   6 23.3036 1.36947   1 
  -1   2  -6 372.672 15.3174   1 
  -1   2  -6 353.765 19.9412   3 
   1  -2   6 391.431 15.2838   1 
   1  -2   6 386.860 17.5329   2 
  -2   2  -6 105.166 4.81597   1 
  -2   2  -6 99.5912 6.25854   3 
   2  -2   6 108.862 4.86793   1 
  -3   2  -6 0.86363 0.67074   1 
  -3   2  -6 0.07991 0.73800   3 
   3  -2   6 0.28948 0.67005   1 
  -4   2  -6 6.38285 1.53944   3 
  -4   2  -6 5.85648 1.39061   1 
   4  -2   6 8.61501 1.21190   1 
  -5   2  -6 42.9534 3.17816   1 
  -5   2  -6 41.2223 3.35466   3 
   5  -2   6 43.7045 3.44791   1 
  -6   2  -6 19.1092 2.32856   3 
  -6   2  -6 18.1861 1.89708   1 
   6  -2   6 19.4712 2.62750   1 
  -7   2  -6 10.1874 2.43535   1 
   7  -2   6 22.5841 3.28969   1 
   9   1  -6 25.3187 2.61204   1 
   9   1  -6 23.0514 2.42021   1 
   8   1  -6 69.2461 4.03314   1 
   8   1  -6 78.0612 4.54786   3 
   8   1  -6 69.7268 4.12841   1 
   7   1  -6 85.3191 4.27994   1 
   7   1  -6 87.2967 5.19358   3 
   7   1  -6 86.2362 4.31895   1 
   6   1  -6 1.53996 1.13941   3 
   6   1  -6 0.23611 0.62418   1 
   6   1  -6 0.40060 0.49091   1 
  -6  -1   6 0.87111 0.54598   1 
   5   1  -6 52.0909 3.78972   3 
   5   1  -6 59.3448 2.86712   1 
  -5  -1   6 56.0651 2.79844   1 
   4   1  -6 3.83862 0.69972   1 
   4   1  -6 2.61991 0.69524   1 
   4   1  -6 2.24987 1.16844   3 
  -4  -1   6 2.14450 1.15138   2 
  -4  -1   6 4.23899 0.65260   1 
   3   1  -6 54.3583 3.73576   3 
   3   1  -6 58.7041 2.75160   1 
  -3  -1   6 61.3254 2.70734   1 
  -3  -1   6 55.7954 3.52520   2 
   2   1  -6 7.54131 1.17874   3 
   2   1  -6 9.95258 0.87234   1 
  -2  -1   6 8.56658 0.77573   1 
  -2  -1   6 13.0610 1.49404   2 
   1   1  -6 62.8298 3.03792   1 
  -1  -1   6 61.6181 3.48827   2 
  -1  -1   6 64.4968 2.91655   1 
   0   1  -6 0.40205 0.59079   1 
   0  -1   6 0.47768 0.53060   1 
   0  -1   6 0.19200 0.64270   2 
  -1   1  -6 4.77529 0.78410   1 
   1  -1   6 4.98745 0.75287   1 
   1  -1   6 6.05422 0.91989   2 
  -2   1  -6 0.76020 0.83546   1 
   2  -1   6 0.51498 0.56114   1 
  -3   1  -6 162.054 9.85479   3 
  -3   1  -6 177.606 7.73690   1 
   3  -1   6 192.794 7.91792   1 
  -4   1  -6 11.1772 1.77176   3 
  -4   1  -6 10.8758 1.35284   1 
   4  -1   6 14.7504 1.78983   1 
  -5   1  -6 4.00302 1.39211   3 
  -5   1  -6 5.63398 1.19296   1 
   5  -1   6 7.79193 1.86493   1 
  -6   1  -6 18.2321 2.40089   3 
  -6   1  -6 17.4305 1.93487   1 
   6  -1   6 18.3588 2.16998   1 
   7  -1   6 6.45875 2.20696   1 
   9   0  -6 9.40658 1.88746   1 
   9   0  -6 11.5925 1.68979   1 
  -9   0   6 6.16382 1.68687   2 
   8   0  -6 10.1594 1.38626   1 
   8   0  -6 10.5432 1.35161   3 
   8   0  -6 11.7220 1.47209   1 
  -8   0   6 10.3668 2.19697   2 
   7   0  -6 165.396 6.84185   1 
   7   0  -6 159.077 6.84917   1 
   7   0  -6 155.978 8.74920   3 
  -7   0   6 142.918 8.32149   2 
   6   0  -6 54.7126 3.73630   3 
   6   0  -6 56.6527 2.84971   1 
   6   0  -6 57.0226 2.81288   1 
  -6   0   6 54.0464 2.72452   1 
  -6   0   6 52.1068 3.65352   2 
   5   0  -6 3.94707 0.70832   1 
   5   0  -6 3.37646 1.16303   3 
   5   0  -6 3.93542 0.65761   1 
  -5   0   6 4.13060 0.63627   1 
  -5   0   6 3.12000 1.02297   2 
   4   0  -6 18.3912 1.21063   1 
   4   0  -6 20.4145 1.21148   1 
  -4   0   6 22.4891 2.09357   2 
  -4   0   6 20.0359 1.22520   1 
   3   0  -6 15.7083 1.12634   1 
  -3   0   6 16.0766 1.06587   1 
  -3   0   6 15.5759 1.54934   2 
   2   0  -6 189.070 7.80806   1 
  -2   0   6 189.741 7.70310   1 
  -2   0   6 184.616 9.26880   2 
   1   0  -6 130.457 5.63274   1 
  -1   0   6 130.003 6.59544   2 
  -1   0   6 131.444 5.53731   1 
   0   0  -6 262.448 10.9335   1 
   0   0   6 267.003 12.6211   2 
   0   0   6 266.595 10.8619   1 
  -1   0  -6 826.513 33.5129   1 
   1   0   6 862.894 33.5124   1 
  -2   0  -6 66.0042 3.35676   1 
   2   0   6 67.5448 3.53020   1 
  -3   0  -6 434.225 17.9461   1 
   3   0   6 444.446 18.0296   1 
  -4   0  -6 64.5307 3.60001   1 
   4   0   6 68.0396 4.06057   1 
  -5   0  -6 9.58159 1.55488   1 
  -5   0  -6 8.50967 1.72991   3 
   5   0   6 10.1166 1.66850   1 
  -6   0  -6 12.6224 2.04475   3 
  -6   0  -6 17.4307 2.53181   1 
   6   0   6 18.9657 2.87754   1 
   9  -1  -6 51.0062 3.05259   1 
   9  -1  -6 53.2878 3.39524   1 
  -9   1   6 43.3657 3.81347   2 
   8  -1  -6 107.863 6.28386   3 
   8  -1  -6 110.599 4.94567   1 
   8  -1  -6 112.817 5.07044   1 
  -8   1   6 97.4209 6.45794   2 
   7  -1  -6 235.591 9.17381   1 
   7  -1  -6 199.360 11.8545   3 
   7  -1  -6 231.068 9.19756   1 
  -7   1   6 212.013 11.2208   2 
   6  -1  -6 272.051 15.6077   3 
   6  -1  -6 308.836 11.9318   1 
   6  -1  -6 307.930 11.9358   1 
  -6   1   6 279.831 14.4282   2 
  -6   1   6 296.625 11.8030   1 
   5  -1  -6 50.6549 2.44627   1 
   5  -1  -6 51.1282 2.42229   1 
  -5   1   6 46.2793 3.29401   2 
  -5   1   6 52.1037 2.35957   1 
   4  -1  -6 559.872 22.0303   1 
  -4   1   6 569.719 21.9415   1 
  -4   1   6 537.394 26.1271   2 
   3  -1  -6 80.4792 3.56557   1 
  -3   1   6 75.4236 4.52765   2 
  -3   1   6 86.2533 3.49790   1 
   2  -1  -6 116.029 5.08429   1 
  -2   1   6 119.372 4.98118   1 
  -2   1   6 120.191 6.11820   2 
   1  -1  -6 448.532 18.3811   1 
  -1   1   6 464.373 21.4910   2 
  -1   1   6 464.148 18.3065   1 
   0  -1  -6 144.552 6.30056   1 
   0   1   6 146.452 7.24469   2 
   0   1   6 145.464 6.23416   1 
  -1  -1  -6 6.17756 1.00639   1 
   1   1   6 7.85464 0.94103   1 
  -2  -1  -6 48.0354 2.80520   1 
   2   1   6 44.1562 2.64064   1 
  -3  -1  -6 122.104 5.82316   1 
   3   1   6 130.568 5.96715   1 
  -4  -1  -6 80.2626 4.45009   1 
   4   1   6 79.2233 4.34966   1 
  -5  -1  -6 169.105 7.97021   1 
   5   1   6 162.560 8.16706   1 
  -6  -1  -6 31.1597 3.34140   1 
  -6  -1  -6 31.2896 3.25819   3 
   6   1   6 36.0082 3.49615   1 
   6   1   6 38.0706 3.70008   1 
  10  -2  -6 47.7231 3.56764   1 
 -10   2   6 50.2399 4.70741   2 
   9  -2  -6 0.42005 1.19102   3 
   9  -2  -6 -0.7193 1.11198   1 
   9  -2  -6 -0.1141 0.87957   1 
  -9   2   6 3.46472 1.83186   2 
   8  -2  -6 219.478 8.78948   1 
   8  -2  -6 192.278 11.2406   3 
   8  -2  -6 216.720 8.71628   1 
  -8   2   6 203.916 10.8333   2 
   7  -2  -6 41.0125 2.23575   1 
   7  -2  -6 40.9546 2.14250   1 
  -7   2   6 40.6097 3.17317   2 
   6  -2  -6 3.26884 0.61067   1 
   6  -2  -6 3.03280 0.52667   1 
  -6   2   6 5.14880 1.39273   2 
   5  -2  -6 2.80520 0.48327   1 
   5  -2  -6 3.22024 0.52226   1 
  -5   2   6 3.34763 0.98799   2 
  -5   2   6 2.57217 0.36075   1 
   4  -2  -6 3.86458 0.54556   1 
  -4   2   6 4.55348 1.04010   2 
  -4   2   6 4.68255 0.45828   1 
   3  -2  -6 11.4726 0.92605   1 
  -3   2   6 11.1804 0.73506   1 
  -3   2   6 10.2521 1.29333   2 
   2  -2  -6 7.36432 0.77524   1 
  -2   2   6 6.00861 0.98022   2 
  -2   2   6 6.76566 0.66194   1 
   1  -2  -6 1.60277 0.42666   1 
  -1   2   6 0.58371 0.47511   1 
  -1   2   6 0.85199 0.60591   2 
   0  -2  -6 4.50887 0.67814   1 
   0   2   6 3.85543 0.75837   1 
  -1  -2  -6 0.73655 0.82374   1 
   1   2   6 -0.2596 0.78670   1 
  -2  -2  -6 0.78725 0.75888   1 
   2   2   6 1.77597 0.82986   1 
  -3  -2  -6 89.4605 4.47619   1 
   3   2   6 88.9012 4.77249   1 
  -4  -2  -6 72.7509 3.91555   1 
   4   2   6 58.5031 3.94419   1 
   4   2   6 69.8843 4.32878   1 
  -5  -2  -6 9.72245 2.12559   1 
   5   2   6 5.05047 2.39922   1 
   5   2   6 1.47485 2.13899   1 
  10  -3  -6 5.08691 1.50815   1 
 -10   3   6 6.58576 2.39011   2 
   9  -3  -6 9.13426 0.99206   1 
   9  -3  -6 10.1989 1.27096   1 
   9  -3  -6 6.83627 1.64045   3 
  -9   3   6 8.05820 2.19755   2 
   8  -3  -6 57.8698 2.80679   1 
   8  -3  -6 61.0620 2.95102   1 
  -8   3   6 59.3376 4.43896   2 
   7  -3  -6 230.343 9.40631   1 
   7  -3  -6 235.053 9.44335   1 
  -7   3   6 230.323 11.8883   2 
   6  -3  -6 0.87661 0.37735   1 
   6  -3  -6 1.28766 0.41805   1 
  -6   3   6 3.13803 1.30380   2 
   5  -3  -6 115.521 4.87461   1 
  -5   3   6 118.885 6.34278   2 
   4  -3  -6 82.2341 3.50079   1 
  -4   3   6 77.2331 4.62586   2 
   3  -3  -6 7.55771 0.80271   1 
  -3   3   6 6.89445 0.58731   1 
  -3   3   6 12.8724 1.46230   2 
   2  -3  -6 101.560 4.49977   1 
  -2   3   6 101.765 5.46862   2 
  -2   3   6 105.388 4.36209   1 
   1  -3  -6 255.485 10.8089   1 
  -1   3   6 260.249 10.7330   1 
  -1   3   6 274.993 12.7715   2 
   0  -3  -6 3.70623 0.84167   1 
   0   3   6 3.66206 0.69068   1 
  -1  -3  -6 215.172 9.21697   1 
   1   3   6 218.678 9.28324   1 
  -2  -3  -6 13.9383 1.55494   1 
   2   3   6 14.0383 1.66462   1 
   2   3   6 9.98719 1.56993   1 
  -3  -3  -6 5.54326 1.16991   1 
   3   3   6 2.86745 1.12151   1 
   3   3   6 5.05735 1.56371   1 
  -4  -3  -6 13.1166 2.13854   1 
   4   3   6 15.7355 2.29870   1 
   4   3   6 12.5681 1.94865   1 
  -5  -3  -6 10.0348 1.84000   1 
   5   3   6 13.7826 2.14331   1 
   5   3   6 12.1454 2.28251   1 
  10  -4  -6 5.28104 1.30380   1 
 -10   4   6 9.17788 2.32469   2 
   9  -4  -6 3.55753 0.68069   1 
   9  -4  -6 3.72721 0.86511   1 
  -9   4   6 2.75925 1.91701   2 
   8  -4  -6 88.0206 3.88828   1 
   8  -4  -6 85.6741 3.78897   1 
  -8   4   6 86.3404 5.62834   2 
   7  -4  -6 120.343 4.97621   1 
   7  -4  -6 117.924 4.97030   1 
  -7   4   6 121.280 6.87886   2 
   6  -4  -6 13.1600 0.89174   1 
   6  -4  -6 12.3344 0.88311   1 
  -6   4   6 13.2585 2.02492   2 
   5  -4  -6 6.54600 0.64494   1 
  -5   4   6 7.32450 1.55860   2 
   4  -4  -6 218.653 8.85928   1 
  -4   4   6 219.158 10.9185   2 
   3  -4  -6 0.16206 0.44531   1 
  -3   4   6 -1.4821 1.04940   3 
  -3   4   6 0.52080 0.22561   1 
  -3   4   6 0.36124 0.30578   1 
  -3   4   6 -0.4176 0.89950   2 
   2  -4  -6 7.09202 0.83018   1 
  -2   4   6 9.33890 0.78006   1 
  -2   4   6 7.76325 1.20425   2 
  -2   4   6 7.18510 1.46737   3 
  -2   4   6 10.2443 0.99566   1 
   1  -4  -6 237.459 9.46832   1 
  -1   4   6 228.229 9.36966   1 
  -1   4   6 244.378 9.43432   1 
  -1   4   6 196.624 12.6505   3 
   0  -4  -6 142.291 6.30460   1 
   0   4   6 150.775 6.37802   1 
   0   4   6 138.585 6.25243   1 
  -1  -4  -6 32.1517 2.13777   1 
   1   4   6 31.0722 2.35005   1 
   1   4   6 32.2321 2.38190   1 
  -2  -4  -6 16.6199 1.88260   1 
   2   4   6 16.8695 1.89236   1 
   2   4   6 18.5162 1.90690   1 
  -3  -4  -6 50.3988 3.78780   1 
   3   4   6 51.7379 3.49639   1 
   3   4   6 57.1072 3.91172   1 
  -4  -4  -6 -1.7515 1.29722   1 
   4   4   6 2.46496 2.31155   1 
   4   4   6 -0.3253 2.19943   1 
  10  -5  -6 6.83639 1.15725   1 
 -10   5   6 8.27375 2.49573   2 
   9  -5  -6 39.8948 2.22655   1 
   9  -5  -6 38.5699 2.02017   1 
  -9   5   6 37.8120 3.78355   2 
   8  -5  -6 56.4592 2.60177   1 
   8  -5  -6 53.7941 2.49242   1 
  -8   5   6 64.2369 4.47068   2 
   7  -5  -6 31.2655 1.46214   1 
   7  -5  -6 28.7429 1.43988   1 
  -7   5   6 29.4809 3.19352   2 
   6  -5  -6 88.0659 3.63662   1 
   6  -5  -6 87.1278 3.67845   1 
  -6   5   6 91.8304 5.39674   2 
   5  -5  -6 7.54953 0.71160   1 
  -5   5   6 8.05680 1.52097   2 
  -5   5   6 7.14556 1.69421   3 
   4  -5  -6 248.216 10.5291   1 
  -4   5   6 297.432 13.0512   2 
  -4   5   6 243.399 14.4949   3 
   3  -5  -6 335.204 14.3247   1 
  -3   5   6 380.734 17.2780   2 
  -3   5   6 381.255 14.0490   1 
  -3   5   6 310.658 19.3516   3 
  -3   5   6 375.357 14.0415   1 
   2  -5  -6 164.149 6.73080   1 
  -2   5   6 167.456 6.55682   1 
  -2   5   6 158.711 6.53733   1 
  -2   5   6 138.586 9.22279   3 
   1  -5  -6 74.7182 3.56234   1 
  -1   5   6 73.3818 3.48237   1 
  -1   5   6 67.5180 5.10839   3 
  -1   5   6 73.8528 3.46237   1 
   0  -5  -6 159.674 6.75408   1 
   0   5   6 163.241 6.77510   1 
   0   5   6 135.940 9.06261   3 
   0   5   6 150.874 6.69582   1 
  -1  -5  -6 66.1083 3.59759   1 
   1   5   6 50.6312 4.61678   3 
   1   5   6 61.6675 3.46577   1 
  -2  -5  -6 -0.7707 1.43860   1 
   2   5   6 -0.9349 1.46199   1 
   2   5   6 0.67014 1.06919   1 
  -3  -5  -6 4.87032 1.82616   1 
   3   5   6 2.35507 1.97982   1 
   3   5   6 2.67209 2.06892   1 
  -4  -5  -6 8.27360 2.64253   1 
   4   5   6 7.71712 2.78396   1 
   9  -6  -6 49.6882 2.28569   1 
   9  -6  -6 52.9696 2.40992   1 
  -9   6   6 49.7529 4.33933   2 
   8  -6  -6 38.4887 1.62779   1 
   8  -6  -6 37.0334 1.62734   1 
  -8   6   6 36.9703 3.76615   2 
  -7   6   6 466.140 22.4179   2 
   6  -6  -6 101.153 3.81075   1 
   6  -6  -6 93.7642 3.78230   1 
  -6   6   6 103.777 5.74294   2 
  -6   6   6 76.1278 5.98275   3 
   5  -6  -6 16.6045 0.96167   1 
  -5   6   6 15.9145 2.08887   2 
  -5   6   6 13.6190 2.21374   3 
   4  -6  -6 24.9339 1.35849   1 
  -4   6   6 20.5743 2.55413   3 
  -4   6   6 27.8064 2.66510   2 
   3  -6  -6 75.8987 3.35937   1 
  -3   6   6 74.5283 2.90163   1 
  -3   6   6 62.2937 5.19825   3 
  -3   6   6 70.2792 2.89667   1 
   2  -6  -6 8.67323 0.97076   1 
  -2   6   6 8.73424 0.93111   1 
  -2   6   6 9.37830 2.15175   3 
  -2   6   6 9.87773 1.01602   1 
   1  -6  -6 7.38861 1.08076   1 
  -1   6   6 5.15915 0.84207   1 
  -1   6   6 5.91222 0.96401   1 
  -1   6   6 2.40386 1.18579   3 
   0  -6  -6 91.6001 4.40252   1 
   0   6   6 87.9858 4.33040   1 
   0   6   6 82.6577 6.02864   3 
   0   6   6 93.2193 4.45282   1 
  -1  -6  -6 82.0950 4.32117   1 
   1   6   6 81.6008 4.27398   1 
   1   6   6 64.4359 5.38234   3 
   1   6   6 78.3243 4.30316   1 
  -2  -6  -6 0.45929 1.61650   1 
   2   6   6 -1.4891 1.69085   1 
   2   6   6 2.42201 1.82547   1 
  -3  -6  -6 1.95504 1.64614   1 
   3   6   6 0.16381 2.23069   1 
  -9   7   6 -1.3634 1.76130   2 
  -8   7   6 39.8779 3.26704   2 
  -7   7   6 7.56042 2.30395   3 
  -7   7   6 10.5083 1.69951   2 
   6  -7  -6 67.0943 2.62437   1 
  -6   7   6 68.2685 4.56543   2 
  -6   7   6 59.2632 4.79145   3 
   5  -7  -6 4.85805 0.54762   1 
  -5   7   6 3.64307 1.73704   3 
  -5   7   6 5.17240 1.33645   2 
   4  -7  -6 2.27704 0.52334   1 
  -4   7   6 3.07156 1.20494   3 
   3  -7  -6 72.6016 3.13376   1 
  -3   7   6 58.7046 2.51868   1 
  -3   7   6 64.5048 5.17267   3 
   2  -7  -6 18.5147 1.56113   1 
  -2   7   6 12.9251 1.13393   1 
  -2   7   6 14.1466 1.35273   1 
  -2   7   6 14.8848 2.62067   3 
   1  -7  -6 5.52299 1.14064   1 
  -1   7   6 6.24991 1.01330   1 
  -1   7   6 3.38646 1.34035   3 
  -1   7   6 4.48451 0.90830   1 
   0  -7  -6 2.54547 1.32913   1 
   0   7   6 2.41232 1.04733   1 
   0   7   6 6.44418 1.32111   1 
   0   7   6 4.49274 1.69415   3 
  -1  -7  -6 2.94349 1.70568   1 
   1   7   6 6.65676 1.59791   1 
   1   7   6 3.69660 1.63053   1 
   1   7   6 3.39215 2.16944   3 
  -2  -7  -6 7.63283 1.75875   1 
   2   7   6 7.53575 2.22238   1 
   2   7   6 10.4932 2.34063   3 
  -9   8   6 -1.4129 1.92655   2 
  -8   8   6 20.8406 2.68959   2 
  -8   8   6 12.5796 2.69731   3 
  -7   8   6 17.5313 2.49396   2 
  -7   8   6 13.7135 2.39166   3 
   6  -8  -6 0.21769 0.28758   1 
  -6   8   6 2.22347 1.84838   3 
  -6   8   6 0.27622 1.11595   2 
   5  -8  -6 12.3572 1.03928   1 
  -5   8   6 15.8883 2.67721   3 
   4  -8  -6 6.06001 0.73967   1 
  -4   8   6 3.92994 1.65786   3 
   3  -8  -6 65.6508 3.08334   1 
  -3   8   6 54.2930 4.79549   3 
   2  -8  -6 6.81909 1.05920   1 
  -2   8   6 5.87709 1.92211   3 
  -2   8   6 5.92260 0.93519   1 
  -2   8   6 7.35365 0.89595   1 
   1  -8  -6 10.9420 1.52182   1 
  -1   8   6 8.46552 1.10963   1 
  -1   8   6 8.56198 2.29697   3 
  -1   8   6 9.13399 1.35004   1 
   0  -8  -6 -1.1564 1.55025   1 
   0   8   6 -0.0209 1.11033   1 
   0   8   6 0.55645 1.46616   1 
   0   8   6 -0.1838 2.09082   3 
  -1  -8  -6 8.15516 2.32282   1 
   1   8   6 2.94688 1.96298   3 
   1   8   6 3.64400 1.79256   1 
  -8   9   6 2.53744 2.03666   3 
  -8   9   6 4.34758 2.10542   2 
  -7   9   6 1.78070 1.53801   3 
   6  -9  -6 4.76317 0.52473   1 
  -6   9   6 4.38079 2.19223   3 
   5  -9  -6 1.04076 0.66291   1 
  -5   9   6 2.04595 1.40676   3 
   4  -9  -6 -0.0464 0.86980   1 
  -4   9   6 -0.6259 1.83821   3 
   3  -9  -6 12.7109 1.27316   1 
  -3   9   6 9.56213 2.83501   3 
   2  -9  -6 1.84735 1.14766   1 
  -2   9   6 7.38062 2.33386   3 
  -2   9   6 1.39530 0.74629   1 
  -2   9   6 0.79281 0.82429   1 
   1  -9  -6 0.47896 1.05064   1 
  -1   9   6 -3.0656 2.38528   3 
  -1   9   6 1.68497 1.31398   1 
  -1   9   6 0.68709 1.05388   1 
   6 -10  -6 -0.0825 0.64760   1 
  -6  10   6 0.14579 1.74727   3 
   5 -10  -6 27.8043 1.89354   1 
  -5  10   6 20.8628 3.71303   3 
  -4  10   6 1.35293 1.76818   3 
  -3  10   6 62.0806 6.09942   3 
  -1  11  -7 -1.0925 2.25686   3 
  -1  11  -7 1.61263 1.42469   1 
   1 -11   7 1.95080 1.76915   1 
  -2  11  -7 5.76267 1.96414   1 
  -2  11  -7 5.70984 2.35963   3 
   2 -11   7 9.17232 2.00347   1 
  -3  11  -7 5.24330 2.32820   3 
  -3  11  -7 7.61310 1.96367   1 
   3 -11   7 4.40477 1.88597   1 
   1  10  -7 6.55278 2.07942   1 
   1  10  -7 2.87800 1.85617   1 
   1  10  -7 0.42328 1.57923   3 
  -1 -10   7 1.52434 1.62546   1 
   0  10  -7 4.32103 1.80287   1 
   0  10  -7 4.21713 1.65526   1 
   0  10  -7 1.39212 1.40959   3 
   0 -10   7 6.19614 2.15718   1 
  -1  10  -7 3.40823 1.84357   3 
  -1  10  -7 4.18273 2.18239   1 
  -1  10  -7 3.81836 1.72852   1 
   1 -10   7 8.05359 2.11262   1 
  -2  10  -7 1.26858 1.37290   1 
  -2  10  -7 1.06360 1.55742   1 
  -2  10  -7 0.25852 1.26973   3 
   2 -10   7 0.12404 1.67459   2 
   2 -10   7 0.40244 1.42302   1 
  -3  10  -7 3.43644 1.45487   3 
  -3  10  -7 3.77313 1.57079   1 
   3 -10   7 3.21735 1.46287   1 
  -4  10  -7 40.7867 4.04519   3 
  -4  10  -7 35.3373 3.11147   1 
   4 -10   7 30.4758 3.08255   1 
  -5  10  -7 113.441 5.88908   1 
  -5  10  -7 114.319 7.48876   3 
   5 -10   7 118.219 6.60997   1 
   3   9  -7 13.9739 2.83927   3 
   3   9  -7 12.7040 2.21899   1 
   3   9  -7 14.0332 2.56190   1 
  -3  -9   7 14.2137 2.84351   1 
   2   9  -7 76.5314 4.40800   1 
   2   9  -7 73.5563 4.59605   1 
   2   9  -7 72.9675 5.79363   3 
  -2  -9   7 72.8408 5.03988   1 
   1   9  -7 3.90985 1.85495   3 
   1   9  -7 3.01016 1.89071   1 
   1   9  -7 3.59158 1.17434   1 
  -1  -9   7 5.21964 2.01346   1 
   0   9  -7 3.63225 1.32424   1 
   0   9  -7 1.94073 1.53514   3 
   0   9  -7 2.83466 1.56431   1 
   0  -9   7 2.65970 1.24747   1 
  -1   9  -7 3.90387 1.67769   3 
  -1   9  -7 0.93241 1.47644   1 
  -1   9  -7 0.69672 1.77941   1 
   1  -9   7 -1.2848 1.56282   1 
  -2   9  -7 0.87181 1.66075   1 
  -2   9  -7 1.82269 1.67860   3 
  -2   9  -7 1.71380 1.00895   1 
   2  -9   7 0.05514 1.31781   2 
   2  -9   7 0.97480 1.57993   1 
  -3   9  -7 5.60327 1.56673   1 
  -3   9  -7 4.70468 1.91309   3 
  -3   9  -7 4.57037 1.34597   1 
   3  -9   7 4.31779 1.30128   1 
  -4   9  -7 36.4999 3.39179   3 
  -4   9  -7 39.0962 3.05499   1 
   4  -9   7 33.7731 2.88502   1 
  -5   9  -7 30.4768 3.10929   3 
   5  -9   7 30.8110 2.98116   1 
  -6   9  -7 323.352 18.0086   3 
   4   8  -7 55.0342 4.02136   1 
   4   8  -7 59.5442 4.93955   1 
   4   8  -7 65.0137 4.72698   3 
  -4  -8   7 54.5210 4.92993   1 
   3   8  -7 6.86335 2.04162   1 
   3   8  -7 3.45206 1.97357   1 
   3   8  -7 4.94057 1.94882   3 
  -3  -8   7 6.04393 1.47990   1 
   2   8  -7 1.67633 1.25865   3 
   2   8  -7 3.29060 1.55606   1 
   2   8  -7 2.46460 1.74476   1 
  -2  -8   7 1.35668 1.64602   1 
   1   8  -7 54.0416 3.75123   1 
   1   8  -7 51.4149 4.31473   3 
   1   8  -7 48.8318 3.48733   1 
  -1  -8   7 45.7670 3.43892   1 
   0   8  -7 44.7243 3.78498   3 
   0   8  -7 41.2672 3.01024   1 
   0   8  -7 36.9808 2.77340   1 
   0  -8   7 34.2551 3.03729   1 
  -1   8  -7 0.84530 0.99585   1 
  -1   8  -7 1.71616 1.29522   3 
  -1   8  -7 1.58489 1.25852   1 
   1  -8   7 -1.2483 1.11401   2 
   1  -8   7 0.45302 0.96264   1 
  -2   8  -7 50.6364 4.07625   3 
  -2   8  -7 44.7995 3.44688   1 
  -2   8  -7 51.1316 3.21350   1 
   2  -8   7 42.6388 2.93108   2 
   2  -8   7 49.9302 3.30711   1 
  -3   8  -7 1.58577 1.07798   1 
  -3   8  -7 -0.8158 1.02642   3 
   3  -8   7 0.65552 0.94482   1 
  -4   8  -7 7.31027 1.91254   3 
  -4   8  -7 4.16407 1.67229   1 
   4  -8   7 3.61039 1.25062   1 
  -5   8  -7 46.7421 4.12611   3 
   5  -8   7 44.6085 3.68284   1 
  -6   8  -7 -2.4180 1.34253   1 
  -6   8  -7 2.95063 1.85621   3 
   6  -8   7 -3.9021 1.98563   1 
   5   7  -7 49.5726 4.33275   3 
   5   7  -7 51.9521 4.69114   1 
   5   7  -7 38.9529 3.53620   1 
  -5  -7   7 49.8564 3.75466   1 
   4   7  -7 86.1015 5.69396   3 
   4   7  -7 77.6204 4.54592   1 
   4   7  -7 77.3310 4.43064   1 
  -4  -7   7 68.4286 4.80593   1 
   3   7  -7 -1.3192 0.94134   1 
   3   7  -7 0.56775 1.57308   3 
   3   7  -7 0.62759 1.06779   1 
  -3  -7   7 0.41476 1.47393   1 
   2   7  -7 30.3304 3.26675   3 
   2   7  -7 29.4346 2.74247   1 
   2   7  -7 30.6426 2.87674   1 
  -2  -7   7 27.3073 2.72588   1 
   1   7  -7 197.602 8.90842   1 
   1   7  -7 203.472 8.93669   1 
   1   7  -7 212.034 11.7872   3 
  -1  -7   7 197.729 8.92449   1 
   0   7  -7 0.34943 1.44365   3 
   0   7  -7 0.76428 0.87522   1 
   0   7  -7 1.14393 0.79329   1 
   0  -7   7 0.45218 0.78396   1 
  -1   7  -7 6.14958 1.16746   1 
  -1   7  -7 5.15143 1.07816   1 
  -1   7  -7 5.29706 1.43046   3 
   1  -7   7 5.02830 1.02607   1 
   1  -7   7 6.46263 1.19833   2 
  -2   7  -7 27.5380 3.06740   3 
  -2   7  -7 32.5879 2.76929   1 
   2  -7   7 29.6094 2.20244   1 
  -3   7  -7 9.15022 1.73987   3 
  -3   7  -7 11.9718 1.71865   1 
   3  -7   7 7.76895 1.55378   1 
  -4   7  -7 2.00560 1.50781   3 
  -4   7  -7 -0.9510 1.06407   1 
   4  -7   7 -0.8402 1.27469   1 
  -5   7  -7 136.525 8.04878   3 
  -5   7  -7 127.485 6.62108   1 
   5  -7   7 133.842 6.58602   1 
  -6   7  -7 242.715 13.1883   3 
   6  -7   7 225.381 10.6966   1 
   6   6  -7 7.53729 2.10075   3 
   6   6  -7 11.6307 2.59774   1 
   6   6  -7 9.65092 2.39653   1 
  -6  -6   7 6.96518 2.28454   1 
   5   6  -7 45.1656 3.80491   3 
   5   6  -7 40.2980 3.64629   1 
   5   6  -7 41.8614 3.22457   1 
  -5  -6   7 36.8947 3.03170   1 
   4   6  -7 71.8513 4.00959   1 
   4   6  -7 80.8060 5.34374   3 
   4   6  -7 77.8510 4.55552   1 
  -4  -6   7 71.5166 4.09283   1 
   3   6  -7 63.3278 3.78254   1 
   3   6  -7 62.1568 3.55642   1 
   3   6  -7 68.3390 4.59940   3 
  -3  -6   7 61.9732 3.73240   1 
   2   6  -7 131.639 6.24219   1 
   2   6  -7 136.061 6.34861   1 
   2   6  -7 146.734 8.41327   3 
  -2  -6   7 137.693 6.39801   1 
   1   6  -7 100.074 4.79324   1 
   1   6  -7 97.9339 5.02205   1 
   1   6  -7 107.722 6.41726   3 
  -1  -6   7 97.4457 4.76463   1 
   0   6  -7 1.20851 0.98025   3 
   0   6  -7 1.61227 0.80603   1 
   0   6  -7 -0.1577 1.01883   1 
   0  -6   7 1.14689 1.03414   1 
   0  -6   7 1.67820 0.82191   2 
  -1   6  -7 227.434 10.0252   1 
  -1   6  -7 244.295 13.1311   3 
   1  -6   7 233.039 9.84613   1 
   1  -6   7 224.538 11.1294   2 
  -2   6  -7 97.8537 6.44293   3 
  -2   6  -7 103.289 4.92314   1 
   2  -6   7 97.8577 5.01665   2 
   2  -6   7 103.496 4.81585   1 
  -3   6  -7 42.4169 3.39265   3 
  -3   6  -7 40.0645 2.74905   1 
   3  -6   7 43.1329 2.84618   1 
  -4   6  -7 3.50061 1.39695   1 
  -4   6  -7 1.46631 1.11720   3 
   4  -6   7 2.50166 1.38959   1 
  -5   6  -7 99.6890 5.44565   1 
  -5   6  -7 98.3692 6.51787   3 
   5  -6   7 108.663 5.53692   1 
  -6   6  -7 31.9684 3.15515   1 
  -6   6  -7 40.1290 3.69572   3 
   6  -6   7 47.7609 3.98340   1 
  -7   6  -7 17.6249 2.44944   3 
   7  -6   7 14.2461 2.94219   1 
   7   5  -7 17.4733 2.40201   3 
   7   5  -7 12.9593 2.18274   1 
   7   5  -7 12.7203 2.13702   1 
  -7  -5   7 15.6755 2.62588   1 
   6   5  -7 135.438 7.64003   3 
   6   5  -7 126.518 6.18654   1 
   6   5  -7 114.403 6.01591   1 
  -6  -5   7 113.768 6.02996   1 
   5   5  -7 91.4397 5.01088   1 
   5   5  -7 88.6491 4.92812   1 
   5   5  -7 94.1930 5.95367   3 
  -5  -5   7 86.9051 4.62182   1 
   4   5  -7 54.6941 3.51090   1 
   4   5  -7 55.7646 3.41572   1 
   4   5  -7 56.0157 4.01726   3 
  -4  -5   7 52.7889 3.29431   1 
   3   5  -7 81.1175 5.30730   3 
   3   5  -7 73.6204 4.09092   1 
   3   5  -7 79.8365 4.08192   1 
  -3  -5   7 75.6925 3.90926   1 
   2   5  -7 -0.0112 0.94440   1 
   2   5  -7 -0.7264 0.92652   1 
   2   5  -7 1.58936 1.19268   3 
  -2  -5   7 0.58100 0.70929   1 
   1   5  -7 2.34958 0.97617   3 
   1   5  -7 2.75509 0.97790   1 
   1   5  -7 2.09519 1.03950   1 
  -1  -5   7 0.87017 0.81359   2 
  -1  -5   7 2.70141 0.98984   1 
   0   5  -7 102.497 4.87427   1 
   0   5  -7 109.013 6.56530   3 
   0  -5   7 96.2478 5.40353   2 
   0  -5   7 103.639 4.83639   1 
  -1   5  -7 117.059 6.92910   3 
  -1   5  -7 120.103 5.32563   1 
   1  -5   7 97.7874 5.69473   2 
   1  -5   7 118.085 5.18016   1 
  -2   5  -7 839.150 33.8506   1 
  -2   5  -7 848.499 44.1674   3 
   2  -5   7 856.941 38.8169   2 
   2  -5   7 843.333 33.7495   1 
  -3   5  -7 50.0890 4.01166   3 
  -3   5  -7 51.3962 3.04869   1 
   3  -5   7 51.4913 3.15087   1 
  -4   5  -7 224.968 9.95097   1 
  -4   5  -7 225.228 12.6412   3 
   4  -5   7 227.577 9.93236   1 
  -5   5  -7 10.5652 1.90930   3 
  -5   5  -7 10.5170 1.53676   1 
   5  -5   7 14.2451 2.11074   1 
  -6   5  -7 14.7160 1.99766   3 
  -6   5  -7 12.5183 2.18161   1 
   6  -5   7 13.5647 2.02628   1 
  -7   5  -7 -0.5702 1.52065   3 
   7  -5   7 -2.5619 1.71055   1 
   7   4  -7 15.1615 2.20986   1 
   7   4  -7 14.2894 2.26778   1 
   7   4  -7 17.2169 2.22231   3 
  -7  -4   7 15.2344 2.19421   1 
   6   4  -7 5.17308 1.55413   3 
   6   4  -7 2.25952 1.18630   1 
   6   4  -7 3.48694 1.50933   1 
  -6  -4   7 1.24428 1.30357   1 
   5   4  -7 339.182 14.1356   1 
   5   4  -7 335.969 14.0723   1 
   5   4  -7 344.649 18.2403   3 
  -5  -4   7 328.397 14.0269   1 
   4   4  -7 219.160 9.56406   1 
   4   4  -7 221.654 12.4962   3 
   4   4  -7 227.659 9.63395   1 
  -4  -4   7 231.376 9.66778   1 
   3   4  -7 3.69792 1.42668   3 
   3   4  -7 4.00576 0.82444   1 
   3   4  -7 3.94049 0.83852   1 
  -3  -4   7 4.56226 1.00871   1 
   2   4  -7 81.7153 3.94829   1 
   2   4  -7 77.2820 3.85812   1 
   2   4  -7 81.0723 5.31378   3 
  -2  -4   7 78.4749 4.64307   2 
  -2  -4   7 78.4372 3.80376   1 
   1   4  -7 228.855 9.63353   1 
   1   4  -7 222.107 12.6439   3 
  -1  -4   7 238.475 9.59194   1 
  -1  -4   7 220.796 11.1388   2 
   0   4  -7 131.191 5.87554   1 
   0   4  -7 132.887 7.83203   3 
   0  -4   7 129.425 5.81955   1 
   0  -4   7 127.987 6.56437   2 
  -1   4  -7 106.254 6.68144   3 
  -1   4  -7 115.191 5.26920   1 
   1  -4   7 110.105 5.02133   1 
  -2   4  -7 14.3909 2.06426   3 
  -2   4  -7 14.9553 1.62747   1 
   2  -4   7 12.9173 1.45283   1 
   2  -4   7 12.7099 1.31537   2 
  -3   4  -7 508.310 21.0178   1 
  -3   4  -7 518.198 27.3119   3 
   3  -4   7 521.890 21.0209   1 
  -4   4  -7 104.910 5.38928   1 
  -4   4  -7 105.534 6.60017   3 
   4  -4   7 103.977 5.16768   1 
  -5   4  -7 19.8002 2.03458   1 
  -5   4  -7 18.8854 2.54310   3 
   5  -4   7 20.6502 2.04443   1 
  -6   4  -7 36.2065 3.16225   3 
  -6   4  -7 28.3600 2.87804   1 
   6  -4   7 32.4010 3.17962   1 
  -7   4  -7 4.32168 1.72274   3 
   7  -4   7 3.62098 2.08813   1 
   8   3  -7 5.35673 1.58835   3 
   8   3  -7 2.14966 2.01070   1 
   8   3  -7 3.38826 1.50303   1 
   7   3  -7 0.81592 1.51251   1 
   7   3  -7 1.12524 1.11319   1 
   7   3  -7 2.98354 1.42281   3 
  -7  -3   7 4.41217 1.46522   1 
   6   3  -7 2.45958 1.35187   1 
   6   3  -7 1.74351 1.34806   3 
   6   3  -7 2.38360 1.28966   1 
  -6  -3   7 3.47438 0.87691   1 
   5   3  -7 80.5112 5.35072   3 
   5   3  -7 87.5000 4.30224   1 
   5   3  -7 83.2037 4.24589   1 
  -5  -3   7 82.6209 4.18886   1 
   4   3  -7 278.154 11.6338   1 
   4   3  -7 284.017 15.2560   3 
   4   3  -7 275.056 11.6051   1 
  -4  -3   7 276.843 11.5477   1 
   3   3  -7 99.9075 6.10284   3 
   3   3  -7 100.892 4.56092   1 
   3   3  -7 98.5920 4.57812   1 
  -3  -3   7 101.007 4.58052   1 
  -3  -3   7 93.5311 5.43007   2 
   2   3  -7 0.07993 0.80704   3 
   2   3  -7 0.43299 0.75342   1 
  -2  -3   7 2.10122 0.71371   1 
  -2  -3   7 0.35760 0.75310   2 
   1   3  -7 55.6292 2.98157   1 
   1   3  -7 52.8366 3.80031   3 
  -1  -3   7 53.8922 2.73336   1 
  -1  -3   7 53.9029 3.34182   2 
   0   3  -7 0.96591 0.90062   3 
   0   3  -7 0.96297 0.84955   1 
   0  -3   7 0.70434 0.80111   2 
   0  -3   7 1.26771 0.73243   1 
  -1   3  -7 89.3483 5.63241   3 
  -1   3  -7 89.1250 4.29495   1 
   1  -3   7 89.7230 4.27982   1 
   1  -3   7 89.3139 4.62578   2 
  -2   3  -7 318.863 13.6522   1 
  -2   3  -7 311.718 17.7921   3 
   2  -3   7 354.153 15.4343   2 
   2  -3   7 329.119 13.6457   1 
  -3   3  -7 28.0059 3.01203   3 
  -3   3  -7 26.3765 2.52217   1 
   3  -3   7 32.2792 2.53464   1 
  -4   3  -7 270.518 15.2684   3 
  -4   3  -7 286.719 11.9676   1 
   4  -3   7 284.364 12.0740   1 
  -5   3  -7 11.1196 1.99211   3 
  -5   3  -7 11.3634 1.66997   1 
   5  -3   7 13.4176 2.03064   1 
  -6   3  -7 18.8679 2.03955   1 
  -6   3  -7 18.4846 2.30539   3 
   6  -3   7 21.9513 2.84426   1 
   8   2  -7 12.9873 1.97723   3 
   8   2  -7 10.4828 1.56859   1 
   8   2  -7 9.30666 1.50252   1 
   7   2  -7 35.0365 2.49766   1 
   7   2  -7 40.6891 2.92534   3 
   7   2  -7 35.1229 2.56939   1 
  -7  -2   7 42.7175 2.72584   1 
   6   2  -7 9.66404 1.25786   1 
   6   2  -7 8.37415 1.33135   1 
   6   2  -7 8.99860 1.58018   3 
  -6  -2   7 7.74520 1.02462   1 
   5   2  -7 182.106 7.83252   1 
   5   2  -7 182.090 10.3521   3 
   5   2  -7 187.052 7.92461   1 
  -5  -2   7 180.098 7.83420   1 
   4   2  -7 1545.65 59.4768   1 
   4   2  -7 1498.84 77.8018   3 
   4   2  -7 1565.33 59.5230   1 
  -4  -2   7 1415.94 69.6242   2 
  -4  -2   7 1534.57 59.4485   1 
   3   2  -7 55.5461 4.06554   3 
   3   2  -7 55.0665 2.93093   1 
   3   2  -7 60.0983 2.99389   1 
  -3  -2   7 53.5520 3.48425   2 
  -3  -2   7 58.5277 2.86917   1 
   2   2  -7 1.93953 0.75603   1 
   2   2  -7 2.46437 1.15103   3 
  -2  -2   7 1.54484 0.49599   1 
  -2  -2   7 2.22381 1.02696   2 
   1   2  -7 29.9029 2.76178   3 
   1   2  -7 31.6731 1.87662   1 
  -1  -2   7 27.4374 2.23662   2 
  -1  -2   7 29.8052 1.73622   1 
   0   2  -7 8.90744 1.46525   3 
   0   2  -7 8.86133 1.15323   1 
   0  -2   7 8.98359 1.07295   2 
   0  -2   7 6.97895 0.98259   1 
  -1   2  -7 42.8918 2.52786   1 
  -1   2  -7 43.1643 3.29314   3 
   1  -2   7 44.7721 2.58383   1 
   1  -2   7 45.1662 2.67879   2 
  -2   2  -7 1501.88 81.4469   3 
  -2   2  -7 1595.26 62.4623   1 
   2  -2   7 1654.46 62.4480   1 
  -3   2  -7 645.252 34.9356   3 
  -3   2  -7 673.537 26.9393   1 
   3  -2   7 683.667 26.9227   1 
  -4   2  -7 40.8143 3.62125   3 
  -4   2  -7 45.2975 3.27399   1 
   4  -2   7 45.3723 2.90115   1 
  -5   2  -7 27.3916 2.62364   1 
  -5   2  -7 26.1490 2.60747   3 
   5  -2   7 32.1949 3.35870   1 
  -6   2  -7 0.07974 2.05392   1 
  -6   2  -7 0.84291 1.48588   3 
   6  -2   7 1.86225 2.42391   1 
  -9  -1   7 10.7553 2.12168   2 
   8   1  -7 50.0022 3.29033   1 
   8   1  -7 42.1292 2.76135   1 
   8   1  -7 45.2439 3.30435   3 
  -8  -1   7 39.1320 3.53753   2 
   7   1  -7 3.19771 1.03802   1 
   7   1  -7 4.72130 0.99239   1 
   7   1  -7 5.34386 1.47166   3 
  -7  -1   7 2.93819 1.38043   2 
  -7  -1   7 4.57192 1.00247   1 
   6   1  -7 393.628 15.5385   1 
   6   1  -7 394.618 15.4972   1 
   6   1  -7 377.988 20.2374   3 
  -6  -1   7 386.631 15.4568   1 
  -6  -1   7 343.994 18.5089   2 
   5   1  -7 600.006 22.7139   1 
   5   1  -7 564.580 29.7387   3 
  -5  -1   7 578.471 22.6280   1 
  -5  -1   7 520.175 26.7785   2 
   4   1  -7 284.713 16.4476   3 
   4   1  -7 322.731 12.5052   1 
   4   1  -7 312.004 12.4616   1 
  -4  -1   7 289.858 14.8244   2 
  -4  -1   7 312.512 12.3901   1 
   3   1  -7 120.622 7.57848   3 
   3   1  -7 133.797 5.68952   1 
  -3  -1   7 127.224 6.79128   2 
  -3  -1   7 135.878 5.58804   1 
   2   1  -7 269.643 10.8915   1 
   2   1  -7 242.961 14.2965   3 
  -2  -1   7 262.617 12.7812   2 
  -2  -1   7 278.189 10.7907   1 
   1   1  -7 74.1742 3.61757   1 
  -1  -1   7 74.5572 3.44104   1 
  -1  -1   7 74.1831 4.13083   2 
   0   1  -7 82.1252 3.86868   1 
   0  -1   7 78.4854 3.75117   1 
   0  -1   7 81.2906 4.39832   2 
  -1   1  -7 135.827 6.24796   1 
   1  -1   7 138.051 6.24957   1 
   1  -1   7 146.970 7.06688   2 
  -2   1  -7 0.41197 1.19230   3 
  -2   1  -7 3.08071 0.87233   1 
   2  -1   7 3.50778 0.86928   1 
  -3   1  -7 255.681 10.6276   1 
  -3   1  -7 230.812 13.5642   3 
   3  -1   7 256.743 10.7282   1 
  -4   1  -7 2.51661 1.01803   1 
  -4   1  -7 1.62002 1.11900   3 
   4  -1   7 0.95808 1.08496   1 
  -5   1  -7 7.06866 1.82451   3 
  -5   1  -7 9.43884 1.99132   1 
   5  -1   7 11.4414 1.93694   1 
  -6   1  -7 1.07800 2.25269   1 
  -6   1  -7 1.47946 1.63124   3 
   6  -1   7 2.68060 1.88284   1 
   9   0  -7 0.37330 1.60389   1 
   9   0  -7 -0.7171 1.44678   1 
   9   0  -7 0.31837 1.40993   3 
  -9   0   7 -1.3206 1.37847   2 
   8   0  -7 5.37183 1.41136   1 
   8   0  -7 2.94313 1.60602   3 
   8   0  -7 3.12144 1.04681   1 
  -8   0   7 1.95866 1.33459   2 
   7   0  -7 53.0778 3.98039   3 
   7   0  -7 58.9200 3.11513   1 
   7   0  -7 57.3537 2.88113   1 
  -7   0   7 56.6913 2.84352   1 
  -7   0   7 50.0339 4.19885   2 
   6   0  -7 198.329 8.04127   1 
   6   0  -7 184.720 10.6021   3 
   6   0  -7 194.825 8.06013   1 
  -6   0   7 174.947 9.90580   2 
  -6   0   7 192.457 7.93614   1 
   5   0  -7 85.9293 3.83104   1 
   5   0  -7 74.0441 5.27281   3 
   5   0  -7 88.6870 3.86747   1 
  -5   0   7 84.2070 3.76729   1 
  -5   0   7 82.9834 4.94219   2 
   4   0  -7 346.054 13.7313   1 
  -4   0   7 309.760 16.3569   2 
  -4   0   7 359.024 13.6596   1 
   3   0  -7 85.5277 4.03613   1 
  -3   0   7 92.9924 3.95002   1 
  -3   0   7 89.3436 5.06651   2 
   2   0  -7 30.5483 1.88489   1 
  -2   0   7 32.1658 2.23799   2 
  -2   0   7 31.4497 1.75048   1 
   1   0  -7 83.9587 3.98526   1 
  -1   0   7 90.2879 3.88622   1 
  -1   0   7 79.6843 4.63251   2 
   0   0  -7 71.4513 3.63407   1 
   0   0   7 75.4593 4.21693   2 
   0   0   7 79.3539 3.58965   1 
  -1   0  -7 270.269 11.6079   1 
   1   0   7 283.908 11.5442   1 
  -2   0  -7 485.515 20.3307   1 
   2   0   7 515.581 20.4155   1 
  -3   0  -7 46.0983 2.91371   1 
   3   0   7 47.9682 3.35463   1 
  -4   0  -7 137.171 6.41924   1 
  -4   0  -7 114.316 7.63690   3 
   4   0   7 136.277 6.36162   1 
  -5   0  -7 4.64777 1.96326   1 
  -5   0  -7 4.08663 1.71578   3 
   5   0   7 4.72448 2.29303   1 
  -6   0  -7 49.4664 4.31049   3 
  -6   0  -7 63.4607 5.18460   1 
   6   0   7 55.6719 4.58556   1 
   9  -1  -7 37.2045 2.90069   1 
   9  -1  -7 30.3528 2.47838   1 
   9  -1  -7 37.6855 3.08265   3 
  -9   1   7 35.3829 3.36222   2 
   8  -1  -7 3.18104 0.68589   1 
   8  -1  -7 4.02309 1.43113   3 
   8  -1  -7 5.01849 1.20693   1 
  -8   1   7 2.51910 1.80427   2 
   7  -1  -7 25.3415 2.73851   3 
   7  -1  -7 31.9990 2.07625   1 
   7  -1  -7 33.2094 1.95722   1 
  -7   1   7 26.6112 2.62864   2 
   6  -1  -7 5.66006 0.86038   1 
   6  -1  -7 5.53513 1.50318   3 
   6  -1  -7 6.89490 0.87291   1 
  -6   1   7 5.38019 0.73915   1 
  -6   1   7 7.26061 1.71032   2 
   5  -1  -7 328.550 13.4569   1 
   5  -1  -7 341.346 13.5005   1 
  -5   1   7 320.002 16.2869   2 
  -5   1   7 344.006 13.3769   1 
   4  -1  -7 883.155 34.3764   1 
  -4   1   7 837.456 40.5070   2 
  -4   1   7 890.607 34.2390   1 
   3  -1  -7 63.1164 3.00940   1 
  -3   1   7 61.8419 3.80835   2 
  -3   1   7 67.0695 2.92182   1 
   2  -1  -7 1.54368 0.60695   1 
  -2   1   7 2.24019 1.01768   2 
  -2   1   7 1.65354 0.40644   1 
   1  -1  -7 99.7101 4.59324   1 
  -1   1   7 103.607 5.46636   2 
  -1   1   7 101.959 4.52614   1 
   0  -1  -7 3.04531 0.69765   1 
   0   1   7 2.80470 0.77301   1 
   0   1   7 1.72623 0.79689   2 
  -1  -1  -7 6.51251 1.18813   1 
   1   1   7 7.04526 1.17158   1 
  -2  -1  -7 27.0009 2.36770   1 
   2   1   7 25.9157 2.40070   1 
  -3  -1  -7 423.685 17.7757   1 
   3   1   7 434.246 17.8179   1 
  -4  -1  -7 183.433 8.50079   1 
   4   1   7 192.544 8.91562   1 
  -5  -1  -7 59.9427 4.77481   3 
  -5  -1  -7 69.2047 4.28646   1 
   5   1   7 68.8329 4.44913   1 
   9  -2  -7 12.6266 1.77525   3 
   9  -2  -7 10.2820 1.28622   1 
   9  -2  -7 11.9784 1.50587   1 
  -9   2   7 9.21528 2.39575   2 
   8  -2  -7 57.1316 2.98275   1 
   8  -2  -7 49.6196 3.94347   3 
   8  -2  -7 56.2122 2.83832   1 
  -8   2   7 56.5284 4.08565   2 
   7  -2  -7 27.8851 1.83823   1 
   7  -2  -7 28.6612 1.74315   1 
  -7   2   7 28.2690 2.58258   2 
   6  -2  -7 68.5133 3.18527   1 
   6  -2  -7 72.3347 3.23442   1 
  -6   2   7 65.5564 4.34878   2 
   5  -2  -7 49.9403 2.42635   1 
  -5   2   7 48.8919 2.19952   1 
  -5   2   7 51.7514 3.42018   2 
   4  -2  -7 0.85440 0.50982   1 
  -4   2   7 -0.4423 0.73741   2 
  -4   2   7 -0.2813 0.26280   1 
   3  -2  -7 80.5918 3.62465   1 
  -3   2   7 75.4229 4.47849   2 
  -3   2   7 79.2141 3.40531   1 
   2  -2  -7 255.244 10.5993   1 
  -2   2   7 253.703 12.5244   2 
  -2   2   7 262.521 10.4471   1 
   1  -2  -7 102.431 4.56716   1 
  -1   2   7 95.0605 5.26694   2 
  -1   2   7 96.9541 4.35036   1 
   0  -2  -7 -0.2952 0.81018   1 
   0   2   7 -0.7826 0.67002   1 
  -1  -2  -7 101.795 4.93603   1 
   1   2   7 107.601 5.03212   1 
  -2  -2  -7 0.95069 1.23719   1 
   2   2   7 1.75285 0.87792   1 
  -3  -2  -7 133.172 6.65450   1 
   3   2   7 142.887 6.81156   1 
  -4  -2  -7 69.8763 4.57602   1 
   4   2   7 64.9911 4.68844   1 
  -5  -2  -7 4.14864 1.66396   1 
   5   2   7 1.57769 1.81420   1 
   5   2   7 4.19347 2.07203   1 
   9  -3  -7 76.0546 5.39564   3 
   9  -3  -7 84.7537 3.97995   1 
   9  -3  -7 79.1131 3.74837   1 
  -9   3   7 84.5731 5.80266   2 
   8  -3  -7 9.17168 0.97178   1 
   8  -3  -7 9.58105 1.16530   1 
  -8   3   7 8.81456 1.72347   2 
   7  -3  -7 82.8595 3.69118   1 
   7  -3  -7 81.9576 3.72463   1 
  -7   3   7 87.2715 5.43451   2 
   6  -3  -7 10.7527 0.89505   1 
   6  -3  -7 10.8549 1.00205   1 
  -6   3   7 9.38194 1.86054   2 
   5  -3  -7 2.03448 0.47200   1 
  -5   3   7 2.29550 1.03187   2 
   4  -3  -7 434.606 18.1340   1 
  -4   3   7 451.875 21.6833   2 
  -4   3   7 476.605 17.8616   1 
   3  -3  -7 46.0140 2.41847   1 
  -3   3   7 48.2475 2.19729   1 
  -3   3   7 49.6276 3.33664   2 
   2  -3  -7 15.8360 1.40183   1 
  -2   3   7 19.6660 1.83110   2 
  -2   3   7 19.8465 1.20546   1 
   1  -3  -7 338.984 14.1363   1 
  -1   3   7 364.578 16.6686   2 
  -1   3   7 334.106 14.0068   1 
   0  -3  -7 4.58901 1.07583   1 
   0   3   7 7.71809 1.11638   1 
  -1  -3  -7 1.78154 1.13494   1 
   1   3   7 -0.9606 1.07587   1 
  -2  -3  -7 36.4540 2.93153   1 
   2   3   7 37.9348 2.95029   1 
  -3  -3  -7 60.0469 4.11132   1 
   3   3   7 61.1907 4.30191   1 
   3   3   7 66.0208 4.24123   1 
  -4  -3  -7 150.439 7.16742   1 
   4   3   7 138.188 7.63801   1 
   4   3   7 147.331 7.65762   1 
   9  -4  -7 55.1937 2.67392   1 
   9  -4  -7 52.4648 2.84712   1 
  -9   4   7 55.8652 4.62289   2 
   8  -4  -7 190.720 7.99785   1 
   8  -4  -7 195.119 8.06025   1 
  -8   4   7 202.513 10.5739   2 
   7  -4  -7 7.87523 0.82576   1 
   7  -4  -7 7.51645 0.76050   1 
  -7   4   7 6.25155 1.53093   2 
   6  -4  -7 3.48304 0.54090   1 
   6  -4  -7 3.83648 0.59287   1 
  -6   4   7 3.72797 1.24560   2 
   5  -4  -7 36.0893 1.90778   1 
  -5   4   7 37.7005 3.13445   2 
   4  -4  -7 60.7402 2.85471   1 
  -4   4   7 60.5282 3.86321   2 
   3  -4  -7 58.1553 2.89899   1 
  -3   4   7 60.6657 2.61093   1 
  -3   4   7 58.6218 3.91341   2 
  -3   4   7 60.6111 2.68340   1 
   2  -4  -7 191.356 8.36923   1 
  -2   4   7 203.318 8.28368   1 
  -2   4   7 203.336 10.1382   2 
   1  -4  -7 23.7148 1.85226   1 
  -1   4   7 26.6921 1.91984   1 
  -1   4   7 23.4730 1.63801   1 
   0  -4  -7 34.9957 2.45046   1 
   0   4   7 32.5453 2.07157   1 
   0   4   7 33.4450 2.18452   1 
  -1  -4  -7 55.0246 3.17681   1 
   1   4   7 55.4167 3.42750   1 
   1   4   7 57.0222 3.46944   1 
  -2  -4  -7 13.1669 1.88693   1 
   2   4   7 13.6189 2.04382   1 
   2   4   7 12.8655 1.87822   1 
  -3  -4  -7 1.49695 1.37662   1 
   3   4   7 -1.4706 1.37084   1 
   3   4   7 -0.8439 1.83092   1 
  -4  -4  -7 27.6519 3.31323   1 
   4   4   7 30.0159 3.52490   1 
   9  -5  -7 0.57355 0.61384   1 
   9  -5  -7 2.72392 0.81990   1 
  -9   5   7 2.46729 2.10862   2 
   8  -5  -7 64.4854 2.97753   1 
   8  -5  -7 67.9919 3.00649   1 
  -8   5   7 74.3901 5.15333   2 
   7  -5  -7 24.4647 1.39898   1 
   7  -5  -7 25.2926 1.37755   1 
  -7   5   7 25.2703 3.03156   2 
   6  -5  -7 54.7729 2.55057   1 
  -6   5   7 58.8447 4.17982   2 
   5  -5  -7 0.99498 0.53626   1 
  -5   5   7 2.02228 1.35034   2 
   4  -5  -7 167.387 6.81487   1 
  -4   5   7 157.678 8.61262   2 
   3  -5  -7 7.86815 0.93071   1 
  -3   5   7 8.60383 0.67522   1 
  -3   5   7 7.55170 0.71758   1 
  -3   5   7 8.22268 1.38419   2 
   2  -5  -7 2.56074 0.74872   1 
  -2   5   7 3.74815 0.61790   1 
  -2   5   7 3.56176 0.68860   1 
   1  -5  -7 5.98037 1.15306   1 
  -1   5   7 7.32918 1.10387   1 
  -1   5   7 7.25863 0.89373   1 
   0  -5  -7 40.8380 2.69805   1 
   0   5   7 34.7959 2.62983   1 
   0   5   7 36.3554 2.48783   1 
  -1  -5  -7 89.8297 4.79565   1 
   1   5   7 87.8067 4.60474   1 
  -2  -5  -7 31.4523 2.75849   1 
   2   5   7 25.4155 2.67279   1 
   2   5   7 23.9207 2.52071   1 
  -3  -5  -7 2.48361 2.29086   1 
   3   5   7 1.14029 2.16515   1 
   9  -6  -7 35.6677 1.73848   1 
   9  -6  -7 31.8569 1.71163   1 
  -9   6   7 34.8356 3.90165   2 
   8  -6  -7 18.6037 1.01841   1 
   8  -6  -7 18.1063 0.96531   1 
  -8   6   7 18.8857 2.70808   2 
   7  -6  -7 141.067 5.65429   1 
   7  -6  -7 137.578 5.61659   1 
  -7   6   7 145.485 7.87011   2 
   6  -6  -7 3.60773 0.57097   1 
  -6   6   7 6.65853 1.65707   2 
   5  -6  -7 3.12889 0.59929   1 
  -5   6   7 3.20403 1.18590   2 
   4  -6  -7 1.02046 0.51318   1 
  -4   6   7 -1.1368 0.91994   2 
  -4   6   7 2.83618 1.28401   3 
   3  -6  -7 0.41099 0.64970   1 
  -3   6   7 0.27390 1.59432   3 
  -3   6   7 0.30737 0.35600   1 
  -3   6   7 1.05601 0.36892   1 
   2  -6  -7 3.57262 0.84171   1 
  -2   6   7 1.80646 0.70461   1 
  -2   6   7 1.88821 0.84056   1 
  -2   6   7 1.45666 1.64361   3 
   1  -6  -7 54.8317 3.03225   1 
  -1   6   7 46.4878 4.33509   3 
  -1   6   7 55.9423 2.94922   1 
  -1   6   7 66.2138 3.18092   1 
   0  -6  -7 14.8106 1.83847   1 
   0   6   7 16.0507 1.60178   1 
   0   6   7 14.7059 1.82752   1 
  -1  -6  -7 81.0074 4.66324   1 
   1   6   7 78.8254 4.62372   1 
   1   6   7 69.1342 4.28674   1 
  -2  -6  -7 1.79169 2.09603   1 
   2   6   7 -0.0033 1.89371   1 
  -9   7   7 5.77750 2.13165   2 
  -8   7   7 42.7340 4.02862   2 
  -7   7   7 13.3782 2.41779   2 
   6  -7  -7 142.931 5.56707   1 
  -6   7   7 147.779 7.90774   2 
  -6   7   7 117.810 8.66996   3 
   5  -7  -7 94.6851 3.92694   1 
  -5   7   7 93.7486 5.64573   2 
  -5   7   7 76.7566 6.37481   3 
   4  -7  -7 175.183 6.90263   1 
  -4   7   7 145.828 10.0456   3 
   3  -7  -7 46.7527 2.44187   1 
  -3   7   7 41.8169 1.83460   1 
  -3   7   7 42.3323 1.83942   1 
  -3   7   7 35.6874 4.10526   3 
   2  -7  -7 0.71089 0.87821   1 
  -2   7   7 -1.0865 0.69935   1 
  -2   7   7 0.39276 0.83084   1 
  -2   7   7 -0.4054 1.87703   3 
   1  -7  -7 3.65993 1.31430   1 
  -1   7   7 4.35649 1.72329   3 
  -1   7   7 3.33486 1.14369   1 
  -1   7   7 5.77687 1.04817   1 
   0  -7  -7 148.889 6.90166   1 
   0   7   7 140.369 6.56467   1 
   0   7   7 130.170 9.10354   3 
   0   7   7 149.436 6.71107   1 
  -1  -7  -7 16.2814 2.22140   1 
   1   7   7 13.4760 2.03621   1 
  -8   8   7 29.2950 3.13421   2 
  -7   8   7 143.597 10.0172   3 
  -7   8   7 175.147 8.90823   2 
   6  -8  -7 1.53074 0.44382   1 
  -6   8   7 1.81397 1.32986   2 
  -6   8   7 -0.5132 1.34364   3 
   5  -8  -7 11.3117 1.21006   1 
  -5   8   7 12.3161 2.25014   3 
   4  -8  -7 -0.0238 0.69753   1 
  -4   8   7 0.81778 1.88293   3 
   3  -8  -7 11.7123 1.27209   1 
  -3   8   7 6.64313 2.36206   3 
   2  -8  -7 75.5962 3.79951   1 
  -2   8   7 64.4727 5.47191   3 
  -2   8   7 72.1384 3.36133   1 
   1  -8  -7 14.8308 1.88252   1 
  -1   8   7 14.8596 1.91267   1 
  -1   8   7 10.6827 1.31286   1 
  -1   8   7 13.3496 2.83299   3 
   0   8   7 2.60662 2.56494   3 
  -7   9   7 24.0044 3.29478   3 
   6  -9  -7 23.1526 1.38451   1 
  -6   9   7 20.4784 3.05994   3 
   5  -9  -7 0.08471 0.82203   1 
  -5   9   7 -0.3056 2.15389   3 
   4  -9  -7 17.6529 1.58356   1 
  -4   9   7 12.6726 2.62255   3 
   3  -9  -7 8.64208 1.28984   1 
  -3   9   7 4.10974 1.92602   3 
  -2   9   7 39.7985 2.48932   1 
  -2   9   7 32.6964 4.47023   3 
   0  10  -8 30.3485 4.02989   3 
   0  10  -8 26.9420 2.96890   1 
   0 -10   8 26.5531 3.14007   1 
  -1  10  -8 5.95078 1.54363   1 
  -1  10  -8 5.74995 2.39541   3 
   1 -10   8 3.05585 2.23785   1 
   1 -10   8 5.30744 1.85229   2 
  -2  10  -8 6.61687 2.37854   3 
  -2  10  -8 4.77123 1.50421   1 
   2 -10   8 3.22610 2.26805   1 
  -3  10  -8 30.1590 3.90957   3 
  -3  10  -8 20.2600 2.47911   1 
   3 -10   8 24.1791 3.00166   1 
   2   9  -8 14.3109 2.77791   1 
   2   9  -8 9.53159 2.15741   3 
   2   9  -8 11.5650 1.97407   1 
  -2  -9   8 11.5332 1.83374   1 
   1   9  -8 4.01843 1.95581   1 
   1   9  -8 0.78151 1.60514   1 
   1   9  -8 -0.3220 1.77734   3 
  -1  -9   8 -0.9556 1.94000   1 
   0   9  -8 9.09579 2.41894   3 
   0   9  -8 9.36132 1.79031   1 
   0   9  -8 9.44736 1.97427   1 
   0  -9   8 11.1487 1.74303   1 
  -1   9  -8 23.3401 2.85367   3 
  -1   9  -8 22.9496 2.72794   1 
  -1   9  -8 24.8077 2.43796   1 
   1  -9   8 26.5808 3.06074   2 
   1  -9   8 22.3119 2.51963   1 
  -2   9  -8 30.5215 3.17132   1 
  -2   9  -8 31.8760 3.08910   1 
  -2   9  -8 26.8442 3.11355   3 
   2  -9   8 27.5179 2.82288   1 
  -3   9  -8 87.4849 5.77195   1 
  -3   9  -8 106.653 6.88660   3 
  -3   9  -8 108.066 5.61600   1 
   3  -9   8 103.806 5.77518   1 
  -4   9  -8 -0.0111 1.83863   3 
  -4   9  -8 0.98527 2.10647   1 
  -4   9  -8 0.39194 1.75479   1 
   4  -9   8 1.79990 1.49976   1 
   4   8  -8 105.448 7.08774   3 
   4   8  -8 95.2317 6.18160   1 
   4   8  -8 95.5217 5.72681   1 
  -4  -8   8 91.9665 6.22294   1 
   3   8  -8 0.89553 1.83264   3 
   3   8  -8 1.46418 1.97531   1 
   3   8  -8 2.58016 2.30005   1 
  -3  -8   8 -0.4321 1.93519   1 
   2   8  -8 71.8046 5.06238   3 
   2   8  -8 64.7183 4.43925   1 
   2   8  -8 63.1781 4.11150   1 
  -2  -8   8 63.1088 3.98101   1 
   1   8  -8 40.5886 3.39926   1 
   1   8  -8 46.3977 4.15204   3 
   1   8  -8 42.3819 3.26971   1 
  -1  -8   8 44.6675 3.55598   1 
   0   8  -8 1.65134 1.77555   1 
   0   8  -8 1.11441 1.45455   1 
   0   8  -8 1.05845 1.21981   3 
   0  -8   8 1.24244 1.50512   1 
   0  -8   8 0.46628 1.48526   2 
  -1   8  -8 5.47243 1.42998   1 
  -1   8  -8 4.22703 1.22791   1 
  -1   8  -8 5.89247 2.06912   3 
   1  -8   8 3.57186 1.32486   2 
   1  -8   8 5.13499 1.36181   1 
  -2   8  -8 97.5534 5.28757   1 
  -2   8  -8 105.694 6.71124   3 
  -2   8  -8 106.677 5.32252   1 
   2  -8   8 91.5491 5.14085   2 
   2  -8   8 98.6942 5.37477   1 
  -3   8  -8 3.45024 1.85038   3 
  -3   8  -8 3.84247 1.89851   1 
   3  -8   8 2.39302 1.82708   1 
  -4   8  -8 7.12089 2.19061   1 
  -4   8  -8 10.6249 1.91742   3 
   4  -8   8 8.78517 1.71668   1 
  -5   8  -8 40.4450 4.10019   3 
   5  -8   8 36.9151 3.95362   1 
   5   7  -8 1.54723 2.56241   1 
   5   7  -8 3.37983 1.96687   3 
   5   7  -8 0.18163 2.34567   1 
  -5  -7   8 0.97006 2.37704   1 
   4   7  -8 -1.3529 1.96129   1 
   4   7  -8 1.19373 1.31475   1 
   4   7  -8 -0.2600 1.63134   3 
  -4  -7   8 1.07571 1.40720   1 
   3   7  -8 9.23092 1.56532   1 
   3   7  -8 13.2300 2.37313   3 
   3   7  -8 9.20935 2.02782   1 
  -3  -7   8 9.60923 1.51246   1 
   2   7  -8 65.5172 4.00538   1 
   2   7  -8 65.3247 4.76269   3 
   2   7  -8 59.6760 4.15596   1 
  -2  -7   8 60.2084 3.59108   1 
   1   7  -8 -0.6326 1.25640   1 
   1   7  -8 0.68999 1.47531   3 
   1   7  -8 1.44522 1.54005   1 
  -1  -7   8 2.93105 1.02948   1 
   0   7  -8 5.29973 1.27328   1 
   0   7  -8 1.90330 1.33666   1 
   0   7  -8 4.46542 1.41017   3 
   0  -7   8 4.88027 1.43250   2 
   0  -7   8 4.12181 1.09688   1 
  -1   7  -8 7.23729 1.37839   1 
  -1   7  -8 5.57447 1.81731   3 
  -1   7  -8 9.58183 1.54138   1 
   1  -7   8 9.18473 1.38235   2 
   1  -7   8 6.93937 1.51152   1 
  -2   7  -8 10.5486 1.93403   1 
  -2   7  -8 9.22910 1.95627   3 
   2  -7   8 7.58934 1.05695   2 
   2  -7   8 8.59505 1.29288   1 
  -3   7  -8 17.7746 2.59798   3 
  -3   7  -8 18.9610 2.31023   1 
   3  -7   8 20.6424 2.19301   1 
  -4   7  -8 103.635 6.75019   3 
  -4   7  -8 94.9137 5.26398   1 
   4  -7   8 99.8100 5.14147   1 
  -5   7  -8 7.69303 2.18307   1 
  -5   7  -8 10.9084 1.91595   3 
   5  -7   8 10.0110 1.72359   1 
  -6   7  -8 46.9411 4.33884   3 
   6  -7   8 44.5918 3.93218   1 
   6   6  -8 98.0214 6.14348   1 
   6   6  -8 99.6126 5.75023   1 
   6   6  -8 102.013 6.47271   3 
  -6  -6   8 91.3998 5.98333   1 
   5   6  -8 39.4200 3.47468   3 
   5   6  -8 37.9693 3.95014   1 
   5   6  -8 38.8148 3.95646   1 
  -5  -6   8 39.1341 3.66594   1 
   4   6  -8 3.64834 1.77927   3 
   4   6  -8 3.08917 1.14673   1 
   4   6  -8 2.43755 1.67087   1 
  -4  -6   8 3.32140 1.52671   1 
   3   6  -8 12.8848 2.22755   3 
   3   6  -8 12.5485 1.61307   1 
   3   6  -8 10.9959 1.72864   1 
  -3  -6   8 10.8167 1.72923   1 
   2   6  -8 -0.2263 1.48530   3 
   2   6  -8 -0.7738 0.89036   1 
   2   6  -8 0.34547 0.97988   1 
  -2  -6   8 0.63756 0.89631   1 
   1   6  -8 148.190 6.89158   1 
   1   6  -8 154.709 9.01173   3 
   1   6  -8 144.090 6.75802   1 
  -1  -6   8 137.442 7.69555   2 
  -1  -6   8 145.431 6.73367   1 
   0   6  -8 7.44854 1.32410   1 
   0   6  -8 8.12570 1.94406   3 
   0  -6   8 7.81759 1.45078   2 
   0  -6   8 7.99922 1.41732   1 
  -1   6  -8 73.2138 4.92870   3 
  -1   6  -8 64.9585 4.05789   1 
   1  -6   8 69.8936 3.87942   1 
   1  -6   8 68.0945 3.89569   2 
  -2   6  -8 79.5055 4.65283   1 
  -2   6  -8 92.5095 5.81524   3 
   2  -6   8 79.3875 4.23057   2 
   2  -6   8 80.4095 4.23164   1 
  -3   6  -8 86.9118 5.74065   3 
  -3   6  -8 80.0938 4.49832   1 
   3  -6   8 86.9847 4.40213   1 
  -4   6  -8 14.9089 2.29308   1 
  -4   6  -8 17.1246 2.56124   3 
   4  -6   8 20.4278 2.26158   1 
  -5   6  -8 -1.2274 1.97385   1 
  -5   6  -8 -1.3086 1.43207   3 
   5  -6   8 2.04294 1.91006   1 
  -6   6  -8 27.5502 3.40171   3 
   6  -6   8 24.3546 3.22732   1 
   6   5  -8 17.0897 2.09222   1 
   6   5  -8 19.5849 2.63975   3 
   6   5  -8 24.7234 2.75977   1 
  -6  -5   8 20.1626 2.45937   1 
   5   5  -8 1.66374 1.51730   1 
   5   5  -8 0.04673 1.65435   1 
   5   5  -8 1.30507 1.62899   3 
  -5  -5   8 1.84994 1.44751   1 
   4   5  -8 28.3701 3.05898   3 
   4   5  -8 22.9184 2.23508   1 
   4   5  -8 23.7336 2.25691   1 
  -4  -5   8 24.2460 2.10866   1 
   3   5  -8 76.4912 4.02591   1 
   3   5  -8 83.5113 4.42109   1 
   3   5  -8 85.8638 5.57605   3 
  -3  -5   8 68.4464 4.07882   1 
   2   5  -8 4.54826 0.98213   1 
   2   5  -8 3.96283 1.23739   3 
   2   5  -8 4.36190 1.31657   1 
  -2  -5   8 2.97947 0.89056   1 
  -2  -5   8 4.02158 1.15425   2 
   1   5  -8 20.3556 2.38407   3 
   1   5  -8 20.3695 1.91788   1 
  -1  -5   8 17.1656 1.70816   1 
  -1  -5   8 17.7341 2.20670   2 
   0   5  -8 102.110 6.40309   3 
   0   5  -8 97.0597 4.98426   1 
   0  -5   8 97.4779 4.68336   1 
   0  -5   8 96.4955 5.34644   2 
  -1   5  -8 68.1540 3.67775   1 
  -1   5  -8 65.3135 4.65883   3 
   1  -5   8 61.7577 3.68371   2 
   1  -5   8 65.8706 3.43499   1 
  -2   5  -8 17.3359 2.31998   3 
  -2   5  -8 20.4272 2.09622   1 
   2  -5   8 18.7839 1.59863   2 
   2  -5   8 16.8083 1.69126   1 
  -3   5  -8 2.15184 1.16565   1 
  -3   5  -8 4.05275 1.76136   3 
   3  -5   8 3.21272 1.04659   1 
  -4   5  -8 110.065 5.92714   1 
  -4   5  -8 113.585 7.00994   3 
   4  -5   8 111.983 5.83770   1 
  -5   5  -8 77.2100 5.52659   3 
  -5   5  -8 81.4837 5.01609   1 
   5  -5   8 78.8696 5.09467   1 
  -6   5  -8 62.5290 4.48403   3 
   6  -5   8 61.5641 5.31150   1 
   7   4  -8 45.2378 4.09902   1 
   7   4  -8 51.4691 4.19356   1 
   7   4  -8 51.8348 4.06023   3 
  -7  -4   8 40.3805 3.20906   1 
   6   4  -8 0.09281 1.13220   1 
   6   4  -8 0.28861 1.62728   1 
   6   4  -8 0.26744 1.43444   3 
  -6  -4   8 -3.0166 1.37115   1 
   5   4  -8 96.5743 4.88307   1 
   5   4  -8 104.388 5.19331   1 
   5   4  -8 99.8398 6.47851   3 
  -5  -4   8 97.6210 4.99177   1 
   4   4  -8 55.5574 3.19046   1 
   4   4  -8 57.9180 4.21744   3 
   4   4  -8 58.6097 3.25083   1 
  -4  -4   8 57.2774 3.29885   1 
   3   4  -8 48.8207 2.82762   1 
   3   4  -8 45.5173 2.69803   1 
   3   4  -8 49.1777 3.71411   3 
  -3  -4   8 41.8951 3.21953   2 
  -3  -4   8 47.2341 2.85108   1 
   2   4  -8 3.64812 0.91261   1 
   2   4  -8 3.64387 1.52942   3 
   2   4  -8 4.12394 0.88085   1 
  -2  -4   8 3.68587 1.37014   2 
  -2  -4   8 3.73019 1.04286   1 
   1   4  -8 1.49436 0.82879   1 
   1   4  -8 0.32708 0.99242   3 
  -1  -4   8 0.94051 1.08300   2 
  -1  -4   8 0.71900 0.66182   1 
   0   4  -8 78.7601 4.13959   1 
   0   4  -8 76.5727 5.37943   3 
   0  -4   8 72.4638 4.19010   2 
   0  -4   8 76.7352 3.76229   1 
  -1   4  -8 62.5413 3.43164   1 
  -1   4  -8 63.2624 4.67994   3 
   1  -4   8 61.1332 3.51353   2 
   1  -4   8 59.0372 3.22655   1 
  -2   4  -8 119.870 7.59593   3 
  -2   4  -8 121.646 5.94820   1 
   2  -4   8 116.883 5.72587   1 
   2  -4   8 126.131 6.09049   2 
  -3   4  -8 96.3765 6.45812   3 
  -3   4  -8 97.5241 4.99556   1 
   3  -4   8 102.997 5.13448   1 
  -4   4  -8 3.94669 1.39682   3 
  -4   4  -8 3.95716 1.76670   1 
   4  -4   8 3.99029 1.22976   1 
  -5   4  -8 10.4578 2.19558   3 
  -5   4  -8 11.2312 2.33134   1 
   5  -4   8 9.46918 2.33151   1 
  -6   4  -8 0.61397 1.54926   3 
  -6   4  -8 -1.4066 1.67066   1 
   6  -4   8 1.45208 2.57855   1 
   7   3  -8 40.3526 3.42711   1 
   7   3  -8 43.7825 3.58410   3 
   7   3  -8 38.5469 3.47745   1 
  -7  -3   8 32.4785 3.02009   1 
   6   3  -8 -0.4803 0.85979   1 
   6   3  -8 1.39261 1.43959   3 
   6   3  -8 -0.8077 1.29387   1 
  -6  -3   8 -0.7367 1.07314   1 
   5   3  -8 171.840 9.55088   3 
   5   3  -8 164.617 7.18732   1 
   5   3  -8 164.946 7.19663   1 
  -5  -3   8 143.037 8.55912   2 
  -5  -3   8 160.572 7.16860   1 
   4   3  -8 1.98931 1.03447   1 
   4   3  -8 1.94392 0.77006   1 
   4   3  -8 0.38115 1.07787   3 
  -4  -3   8 2.52167 1.38349   2 
  -4  -3   8 0.33225 0.92968   1 
   3   3  -8 1.33170 0.69342   1 
   3   3  -8 0.37034 0.98249   1 
   3   3  -8 2.30238 1.07051   3 
  -3  -3   8 -0.0271 1.21292   2 
  -3  -3   8 1.46268 0.64198   1 
   2   3  -8 3.07445 1.52327   3 
   2   3  -8 5.03523 1.05755   1 
  -2  -3   8 4.89022 0.96269   1 
  -2  -3   8 3.65086 1.33365   2 
   1   3  -8 24.3082 1.86976   1 
   1   3  -8 20.7442 2.80259   3 
  -1  -3   8 27.7951 1.99039   1 
  -1  -3   8 25.4402 2.07428   2 
   0   3  -8 179.383 7.71610   1 
   0   3  -8 167.325 10.0690   3 
   0  -3   8 179.703 8.72939   2 
   0  -3   8 171.357 7.58447   1 
  -1   3  -8 6.76017 1.73745   3 
  -1   3  -8 7.03465 1.35804   1 
   1  -3   8 6.18886 0.99940   1 
   1  -3   8 7.72559 1.15325   2 
  -2   3  -8 0.66721 0.86042   1 
  -2   3  -8 0.81807 1.01172   3 
   2  -3   8 3.41166 1.22431   1 
  -3   3  -8 15.1700 2.08550   3 
  -3   3  -8 14.4991 1.97987   1 
   3  -3   8 14.1168 1.63776   1 
  -4   3  -8 69.1700 5.19831   3 
  -4   3  -8 70.9111 4.51973   1 
   4  -3   8 76.4199 4.19088   1 
  -5   3  -8 0.90352 1.38130   1 
  -5   3  -8 -0.1423 1.18583   3 
   5  -3   8 4.01919 2.03676   1 
  -6   3  -8 -0.8929 1.75417   3 
  -6   3  -8 3.37124 2.56360   1 
   6  -3   8 -3.1696 2.60913   1 
   8   2  -8 6.05070 1.52449   1 
   8   2  -8 7.71956 1.84006   1 
   8   2  -8 8.21955 1.82138   3 
  -8  -2   8 3.06065 2.10414   2 
  -8  -2   8 6.27442 1.41090   1 
   7   2  -8 74.0543 4.26872   1 
   7   2  -8 72.8195 4.16382   1 
   7   2  -8 80.9265 5.06661   3 
  -7  -2   8 62.9235 5.12325   2 
  -7  -2   8 72.1304 3.74196   1 
   6   2  -8 171.126 7.53695   1 
   6   2  -8 174.903 9.81979   3 
   6   2  -8 172.431 7.54965   1 
  -6  -2   8 173.266 7.43443   1 
  -6  -2   8 149.411 8.96569   2 
   5   2  -8 248.375 10.0321   1 
   5   2  -8 241.806 10.0522   1 
   5   2  -8 227.893 13.1162   3 
  -5  -2   8 221.661 11.9680   2 
  -5  -2   8 240.521 9.95068   1 
   4   2  -8 1.08108 0.97019   1 
   4   2  -8 5.09547 1.05085   1 
   4   2  -8 5.30370 1.61079   3 
  -4  -2   8 5.23591 1.20341   2 
  -4  -2   8 3.40514 0.73448   1 
   3   2  -8 86.6413 4.24103   1 
   3   2  -8 86.5507 5.72020   3 
  -3  -2   8 81.9119 5.10337   2 
  -3  -2   8 90.7856 4.03975   1 
   2   2  -8 3.47727 1.06205   3 
   2   2  -8 1.10366 0.64889   1 
  -2  -2   8 1.71863 0.83813   2 
  -2  -2   8 2.10610 0.60976   1 
   1   2  -8 230.662 13.4278   3 
   1   2  -8 244.793 10.2164   1 
  -1  -2   8 238.572 11.7253   2 
  -1  -2   8 246.451 10.0541   1 
   0   2  -8 16.0011 2.09443   3 
   0   2  -8 17.7748 1.71185   1 
   0  -2   8 17.9740 1.67785   1 
   0  -2   8 17.0737 1.82929   2 
  -1   2  -8 196.266 8.64645   1 
  -1   2  -8 186.306 11.2447   3 
   1  -2   8 204.945 8.63749   1 
   1  -2   8 206.937 9.74740   2 
  -2   2  -8 14.4762 1.70925   1 
  -2   2  -8 11.0612 2.08010   3 
   2  -2   8 11.6133 1.35584   1 
  -3   2  -8 50.9636 3.17188   1 
  -3   2  -8 47.0412 3.76094   3 
   3  -2   8 55.3294 3.45504   1 
  -4   2  -8 15.2150 2.34428   3 
  -4   2  -8 13.6895 2.21856   1 
   4  -2   8 17.1210 2.23131   1 
  -5   2  -8 -0.3848 1.17173   3 
  -5   2  -8 -0.6832 1.46025   1 
   5  -2   8 4.42546 2.16970   1 
  -6   2  -8 53.3153 4.44706   3 
   6  -2   8 51.7020 4.45184   1 
   8   1  -8 2.19884 1.50860   3 
   8   1  -8 3.85796 1.41744   1 
   8   1  -8 2.37162 1.08693   1 
  -8  -1   8 2.14107 1.38816   2 
   7   1  -8 20.0147 2.66133   3 
   7   1  -8 17.1089 1.79675   1 
   7   1  -8 22.5973 2.13103   1 
  -7  -1   8 13.9774 2.41121   2 
  -7  -1   8 18.3664 1.76416   1 
   6   1  -8 94.7556 6.28791   3 
   6   1  -8 100.077 4.75307   1 
   6   1  -8 99.7210 4.70840   1 
  -6  -1   8 103.353 4.59190   1 
  -6  -1   8 91.1055 5.99885   2 
   5   1  -8 6.30970 1.16288   1 
   5   1  -8 8.13201 1.08370   1 
   5   1  -8 6.22259 1.73034   3 
  -5  -1   8 8.51476 1.86403   2 
  -5  -1   8 12.2472 1.18394   1 
   4   1  -8 383.067 14.9162   1 
   4   1  -8 339.703 19.5717   3 
   4   1  -8 371.727 14.8502   1 
  -4  -1   8 365.247 14.7598   1 
  -4  -1   8 360.356 17.6706   2 
   3   1  -8 27.5131 1.76579   1 
   3   1  -8 24.0142 2.70189   3 
  -3  -1   8 26.5833 2.21413   2 
  -3  -1   8 26.7865 1.73800   1 
   2   1  -8 0.32176 0.84027   3 
   2   1  -8 0.24078 0.77986   1 
  -2  -1   8 1.19974 0.71067   1 
  -2  -1   8 0.00511 1.01835   2 
   1   1  -8 39.8730 2.39570   1 
   1   1  -8 36.1888 3.43526   3 
  -1  -1   8 42.2463 2.94959   2 
  -1  -1   8 45.8699 2.31750   1 
   0   1  -8 106.280 5.03759   1 
   0  -1   8 100.539 5.58162   2 
   0  -1   8 106.709 4.79514   1 
  -1   1  -8 44.6604 2.70242   1 
  -1   1  -8 38.8162 3.62300   3 
   1  -1   8 42.3503 2.56584   1 
   1  -1   8 48.3881 2.98112   2 
  -2   1  -8 15.9073 2.33298   3 
  -2   1  -8 17.8302 1.89967   1 
   2  -1   8 21.6037 1.88780   1 
  -3   1  -8 -0.3407 1.49584   3 
  -3   1  -8 6.30012 1.61327   1 
   3  -1   8 2.63596 1.33640   1 
  -4   1  -8 85.3483 5.96516   3 
  -4   1  -8 89.0304 4.86329   1 
   4  -1   8 90.2578 4.86496   1 
  -5   1  -8 18.9740 2.71746   1 
  -5   1  -8 17.1674 2.62082   3 
   5  -1   8 18.8476 2.39838   1 
   9   0  -8 3.97726 1.87008   1 
   9   0  -8 2.30630 1.53665   3 
  -9   0   8 1.65311 1.48130   2 
   8   0  -8 6.63516 1.73582   3 
   8   0  -8 5.75928 1.20905   1 
   8   0  -8 5.04130 1.10055   1 
  -8   0   8 2.18362 1.41888   2 
   7   0  -8 61.4082 4.55773   3 
   7   0  -8 65.2380 3.25566   1 
   7   0  -8 61.9826 3.32644   1 
  -7   0   8 60.9435 3.10648   1 
  -7   0   8 61.1692 4.64379   2 
   6   0  -8 318.108 12.8435   1 
   6   0  -8 325.246 12.8548   1 
   6   0  -8 294.209 16.8864   3 
  -6   0   8 320.997 12.7073   1 
  -6   0   8 298.418 15.4971   2 
   5   0  -8 11.2352 1.17684   1 
   5   0  -8 13.1797 1.27531   1 
   5   0  -8 12.2976 1.75564   3 
  -5   0   8 13.4521 1.17405   1 
  -5   0   8 11.1833 1.87455   2 
   4   0  -8 198.282 8.04062   1 
  -4   0   8 198.463 9.74629   2 
  -4   0   8 170.713 7.79772   1 
   3   0  -8 132.079 5.91225   1 
  -3   0   8 128.166 7.14708   2 
  -3   0   8 139.602 5.74653   1 
   2   0  -8 39.8974 2.54950   1 
  -2   0   8 43.1945 3.11602   2 
  -2   0   8 48.3711 2.36075   1 
   1   0  -8 30.6803 2.22716   1 
  -1   0   8 30.6119 1.94074   1 
  -1   0   8 30.8789 2.50008   2 
   0   0  -8 231.095 9.97715   1 
   0   0   8 236.648 9.90896   1 
   0   0   8 236.403 11.5072   2 
  -1   0  -8 183.179 8.21546   1 
   1   0   8 186.910 8.15742   1 
  -2   0  -8 252.988 10.9215   1 
   2   0   8 250.276 10.8651   1 
  -3   0  -8 130.095 6.06121   1 
   3   0   8 116.611 6.18566   1 
  -4   0  -8 26.4207 2.71316   1 
  -4   0  -8 23.0182 3.17691   3 
   4   0   8 29.4468 2.94398   1 
  -5   0  -8 0.77620 1.77564   3 
  -5   0  -8 3.37138 2.47575   1 
   5   0   8 0.46220 2.63332   1 
   9  -1  -8 13.3510 1.82968   1 
   9  -1  -8 17.4527 2.19220   3 
  -9   1   8 17.6663 2.52737   2 
   8  -1  -8 20.9342 2.84474   3 
   8  -1  -8 28.4249 1.99783   1 
   8  -1  -8 23.2149 2.28216   1 
  -8   1   8 17.8251 2.79509   2 
   7  -1  -8 82.5341 3.84164   1 
   7  -1  -8 78.9610 3.70972   1 
   7  -1  -8 70.2241 5.22359   3 
  -7   1   8 74.4732 5.18390   2 
   6  -1  -8 66.2842 4.98948   3 
   6  -1  -8 75.5815 3.62989   1 
   6  -1  -8 77.5993 3.56659   1 
  -6   1   8 74.7676 3.36870   1 
  -6   1   8 74.4752 4.77990   2 
   5  -1  -8 175.587 7.53980   1 
   5  -1  -8 175.093 7.53215   1 
  -5   1   8 179.767 9.40449   2 
  -5   1   8 184.533 7.38525   1 
   4  -1  -8 265.596 10.3080   1 
  -4   1   8 253.493 12.5090   2 
  -4   1   8 227.571 10.0642   1 
   3  -1  -8 145.256 6.38592   1 
  -3   1   8 139.520 7.64770   2 
  -3   1   8 154.058 6.19907   1 
   2  -1  -8 10.1624 1.20177   1 
  -2   1   8 10.6913 1.41647   2 
  -2   1   8 12.2239 0.97464   1 
   1  -1  -8 17.6138 1.76965   1 
  -1   1   8 19.6458 2.07874   2 
  -1   1   8 18.1256 1.53843   1 
   0  -1  -8 176.319 8.00183   1 
   0   1   8 191.830 9.16878   2 
   0   1   8 177.031 7.81747   1 
  -1  -1  -8 11.3877 1.51203   1 
   1   1   8 14.2001 1.50951   1 
  -2  -1  -8 9.03651 1.60374   1 
   2   1   8 10.6000 1.34866   1 
  -3  -1  -8 132.750 6.77927   1 
   3   1   8 137.203 6.59176   1 
  -4  -1  -8 18.2607 2.64899   1 
   4   1   8 21.4606 2.46914   1 
  -5  -1  -8 1.07890 2.60922   1 
   5   1   8 3.52174 3.02500   1 
   9  -2  -8 7.67575 1.89368   3 
   9  -2  -8 6.08732 1.08575   1 
   9  -2  -8 7.94343 1.43026   1 
  -9   2   8 3.22133 2.06047   2 
   8  -2  -8 163.350 6.94283   1 
   8  -2  -8 164.736 6.85274   1 
   8  -2  -8 142.567 9.19225   3 
  -8   2   8 163.842 8.92471   2 
   7  -2  -8 22.8389 1.61489   1 
   7  -2  -8 22.2998 1.75571   1 
  -7   2   8 21.2048 2.49585   2 
   6  -2  -8 0.12644 0.58857   1 
   6  -2  -8 -0.2377 0.64542   1 
  -6   2   8 -0.4643 0.40893   1 
  -6   2   8 0.29723 1.07592   2 
   5  -2  -8 149.987 6.35557   1 
  -5   2   8 151.260 6.07053   1 
  -5   2   8 142.376 7.94209   2 
   4  -2  -8 317.819 12.7253   1 
  -4   2   8 307.678 15.2768   2 
  -4   2   8 308.099 12.4452   1 
   3  -2  -8 1.83385 0.71324   1 
  -3   2   8 1.17133 1.14173   2 
  -3   2   8 1.02593 0.49255   1 
   2  -2  -8 115.357 5.25325   1 
  -2   2   8 121.882 6.40678   2 
  -2   2   8 114.172 5.06198   1 
   1  -2  -8 555.732 23.0050   1 
  -1   2   8 611.340 26.9320   2 
  -1   2   8 547.038 22.8307   1 
   0  -2  -8 111.107 5.36785   1 
   0   2   8 112.678 5.15463   1 
  -1  -2  -8 23.0311 2.00909   1 
   1   2   8 20.2955 2.17503   1 
  -2  -2  -8 30.7431 2.97582   1 
   2   2   8 28.5864 2.79151   1 
  -3  -2  -8 79.4990 4.79294   1 
   3   2   8 74.6733 4.54774   1 
  -4  -2  -8 200.629 9.41332   1 
   4   2   8 198.226 9.56723   1 
   4   2   8 209.825 9.96880   1 
   9  -3  -8 135.032 5.91799   1 
   9  -3  -8 125.203 8.09866   3 
   9  -3  -8 141.238 6.08940   1 
  -9   3   8 143.830 8.08014   2 
   8  -3  -8 20.2229 1.48630   1 
   8  -3  -8 20.1947 1.71124   1 
  -8   3   8 17.8998 2.39666   2 
   7  -3  -8 104.483 4.55014   1 
   7  -3  -8 98.3881 4.47524   1 
  -7   3   8 98.2310 6.23513   2 
   6  -3  -8 251.697 10.2491   1 
   6  -3  -8 249.761 10.2050   1 
  -6   3   8 248.936 12.7337   2 
   5  -3  -8 41.3495 2.21065   1 
  -5   3   8 40.2020 3.40309   2 
   4  -3  -8 373.138 15.0379   1 
  -4   3   8 369.129 18.0741   2 
   3  -3  -8 501.513 20.1508   1 
  -3   3   8 507.235 19.8729   1 
  -3   3   8 493.895 23.8247   2 
   2  -3  -8 29.2377 1.88006   1 
  -2   3   8 28.9333 1.69233   1 
  -2   3   8 28.2385 2.39996   2 
   1  -3  -8 1.98293 0.71825   1 
  -1   3   8 2.56265 0.78719   1 
   0  -3  -8 12.7699 1.57814   1 
   0   3   8 16.3834 1.71668   1 
  -1  -3  -8 116.936 5.83379   1 
   1   3   8 118.140 5.69625   1 
  -2  -3  -8 21.3995 2.22850   1 
   2   3   8 16.8814 2.29645   1 
  -3  -3  -8 318.248 13.7729   1 
   3   3   8 310.271 13.8394   1 
   3   3   8 329.541 14.0887   1 
   9  -4  -8 3.48077 1.05850   1 
   9  -4  -8 2.03459 0.76100   1 
  -9   4   8 1.69474 2.12692   2 
   8  -4  -8 9.34333 0.98686   1 
   8  -4  -8 7.40758 0.92645   1 
  -8   4   8 8.73746 1.87518   2 
   7  -4  -8 3.53274 0.73359   1 
   7  -4  -8 2.10682 0.63583   1 
  -7   4   8 3.20086 1.86192   2 
   6  -4  -8 3.58686 0.82438   1 
  -6   4   8 1.78532 1.48826   2 
   5  -4  -8 4.63246 0.74664   1 
  -5   4   8 3.75405 1.17137   2 
   4  -4  -8 266.643 11.0719   1 
  -4   4   8 272.786 10.6189   1 
  -4   4   8 268.193 13.4445   2 
  -4   4   8 268.864 10.6016   1 
   3  -4  -8 129.947 5.81673   1 
  -3   4   8 132.352 7.30863   2 
  -3   4   8 130.736 5.47509   1 
  -3   4   8 133.870 5.58648   1 
   2  -4  -8 3.97013 0.92536   1 
  -2   4   8 5.31662 1.22439   2 
  -2   4   8 6.09878 0.75565   1 
  -2   4   8 5.81978 0.95227   1 
   1  -4  -8 105.683 5.17387   1 
  -1   4   8 108.213 5.07890   1 
  -1   4   8 108.588 4.90515   1 
   0  -4  -8 0.43808 0.92783   1 
   0   4   8 -0.5869 1.27734   1 
   0   4   8 -0.2186 0.92926   1 
  -1  -4  -8 4.56198 1.55746   1 
   1   4   8 4.99831 1.15438   1 
  -2  -4  -8 13.1794 2.15931   1 
   2   4   8 10.2806 2.25086   1 
   2   4   8 8.45135 2.03881   1 
  -3  -4  -8 2.98256 2.43966   1 
   3   4   8 -3.4151 2.34099   1 
   9  -5  -8 145.862 6.47877   1 
  -9   5   8 169.445 9.24156   2 
   8  -5  -8 -0.0706 0.64253   1 
   8  -5  -8 -0.6156 0.61944   1 
  -8   5   8 1.07755 1.34401   2 
   7  -5  -8 0.27169 0.63610   1 
   7  -5  -8 0.85001 0.56924   1 
  -7   5   8 2.59483 1.71376   2 
   6  -5  -8 25.3347 1.66192   1 
  -6   5   8 29.3093 2.70447   2 
   5  -5  -8 1.34658 0.60668   1 
  -5   5   8 -1.1296 1.20982   2 
   4  -5  -8 135.619 5.85232   1 
  -4   5   8 134.622 7.57642   2 
   3  -5  -8 152.129 6.69201   1 
  -3   5   8 155.168 8.36991   2 
  -3   5   8 154.291 6.35381   1 
   2  -5  -8 9.77723 1.23885   1 
  -2   5   8 13.0796 1.32451   1 
  -2   5   8 9.00403 0.95482   1 
   1  -5  -8 0.15720 0.99194   1 
  -1   5   8 -0.4038 0.75410   1 
  -1   5   8 0.15373 1.05754   1 
   0  -5  -8 50.6697 3.48336   1 
   0   5   8 56.1484 3.50720   1 
   0   5   8 54.2338 3.20438   1 
  -1  -5  -8 6.97473 1.44571   1 
   1   5   8 5.88919 1.97672   1 
   1   5   8 9.08121 1.83510   1 
  -2  -5  -8 1.42187 1.50170   1 
   2   5   8 1.54216 2.04010   1 
   9  -6  -8 -0.0600 0.57027   1 
   9  -6  -8 -0.3700 0.62691   1 
  -9   6   8 2.17940 1.74722   2 
   8  -6  -8 24.0371 1.32168   1 
   8  -6  -8 26.9988 1.45014   1 
  -8   6   8 24.8749 3.10031   2 
   7  -6  -8 27.6959 1.57625   1 
   7  -6  -8 27.8680 1.49042   1 
  -7   6   8 26.6637 2.92206   2 
   6  -6  -8 18.2543 1.36703   1 
  -6   6   8 16.8688 2.25036   2 
   5  -6  -8 0.29539 0.67188   1 
  -5   6   8 -0.3203 1.48292   2 
   4  -6  -8 89.7668 4.15404   1 
  -4   6   8 91.9038 5.68310   2 
   3  -6  -8 94.3528 4.36351   1 
  -3   6   8 89.6455 3.90176   1 
   2  -6  -8 24.6556 2.05445   1 
  -2   6   8 23.9693 1.78605   1 
  -2   6   8 21.1899 1.57357   1 
   1  -6  -8 6.88166 1.48718   1 
  -1   6   8 7.91296 1.48593   1 
  -1   6   8 8.03361 1.14559   1 
   0  -6  -8 8.75953 1.53418   1 
   0   6   8 6.87576 1.42834   1 
   0   6   8 8.14457 1.80847   1 
  -1  -6  -8 1.77553 1.60866   1 
   1   6   8 3.90521 1.92759   1 
  -8   7   8 1.14375 1.95584   2 
   7  -7  -8 35.4905 1.63488   1 
   7  -7  -8 35.5281 1.63274   1 
  -7   7   8 39.3722 3.93959   2 
   6  -7  -8 97.8935 4.29265   1 
  -6   7   8 102.928 6.44913   2 
   5  -7  -8 3.23651 0.71157   1 
  -5   7   8 1.83494 1.25901   2 
   4  -7  -8 64.7219 3.20054   1 
   3  -7  -8 1.50361 0.97303   1 
  -3   7   8 -0.1723 0.43277   1 
  -3   7   8 0.80744 0.50542   1 
   2  -7  -8 66.5410 3.66431   1 
  -2   7   8 68.3489 3.27074   1 
  -2   7   8 62.0223 3.27080   1 
   1  -7  -8 15.1393 1.72529   1 
  -1   7   8 17.4745 1.84751   1 
  -1   7   8 19.9146 2.07954   1 
   0  -7  -8 23.7405 2.68315   1 
   0   7   8 20.9404 2.03666   1 
  -7   8   8 37.1028 4.11411   2 
   6  -8  -8 80.5170 3.67739   1 
  -6   8   8 90.0965 5.86330   2 
   5  -8  -8 4.31034 0.93180   1 
  -5   8   8 0.90060 2.06857   3 
   4  -8  -8 1.91101 0.81743   1 
  -4   8   8 3.62856 1.75396   3 
   3  -8  -8 2.78962 1.14131   1 
  -3   8   8 2.57574 1.85688   3 
  -2   8   8 2.84050 1.00264   1 
  -2   8   8 3.01541 1.06071   1 
  -2   8   8 3.47749 2.68664   3 
   1   9  -9 0.74469 1.88823   1 
   1   9  -9 -1.6548 1.48865   1 
   1   9  -9 1.40118 2.20170   3 
  -1  -9   9 0.06792 2.21503   1 
  -1  -9   9 -0.5098 1.37138   2 
   0   9  -9 8.36557 2.02121   1 
   0   9  -9 3.41701 2.23034   3 
   0   9  -9 3.39994 2.07291   1 
   0  -9   9 2.72700 1.78657   2 
   0  -9   9 4.59860 2.28662   1 
  -1   9  -9 22.1318 3.07999   1 
  -1   9  -9 18.4229 2.54548   1 
  -1   9  -9 18.8004 2.80110   3 
   1  -9   9 19.4381 2.20793   2 
   1  -9   9 19.4714 2.26341   1 
  -2   9  -9 -0.2013 1.72549   1 
  -2   9  -9 2.92574 2.00561   1 
  -2   9  -9 3.45472 1.63093   3 
   2  -9   9 3.47915 1.70800   1 
  -3   9  -9 2.24304 1.62280   3 
  -3   9  -9 0.20716 2.11168   1 
   3  -9   9 2.57450 2.40491   1 
   3   8  -9 11.5552 2.25943   1 
   3   8  -9 10.1811 1.94801   1 
   3   8  -9 13.2773 2.42488   3 
  -3  -8   9 12.1774 2.63050   1 
   2   8  -9 19.3510 2.88731   1 
   2   8  -9 15.7074 2.68993   3 
   2   8  -9 18.0221 2.15864   1 
  -2  -8   9 16.0541 2.03912   1 
   1   8  -9 18.4960 2.15793   1 
   1   8  -9 23.1804 2.81587   1 
   1   8  -9 25.6208 3.47863   3 
  -1  -8   9 16.3602 2.57706   2 
  -1  -8   9 23.2962 2.55647   1 
   0   8  -9 -1.1122 1.65849   1 
   0   8  -9 3.07364 2.14118   1 
   0   8  -9 0.73592 1.87565   3 
   0  -8   9 0.37731 1.51545   2 
   0  -8   9 2.18450 1.43360   1 
  -1   8  -9 0.18652 1.20433   3 
  -1   8  -9 -0.9732 1.51836   1 
  -1   8  -9 -0.0111 1.72902   1 
   1  -8   9 2.90730 1.86593   1 
   1  -8   9 -0.7333 1.28832   2 
  -2   8  -9 16.3525 2.16797   1 
  -2   8  -9 10.7533 2.16817   3 
  -2   8  -9 11.0452 2.52475   1 
   2  -8   9 10.7061 1.56036   2 
   2  -8   9 16.1719 2.31857   1 
  -3   8  -9 28.6236 3.74523   3 
  -3   8  -9 25.7938 3.13097   1 
   3  -8   9 27.3896 2.90659   1 
  -4   8  -9 13.9132 2.66369   3 
   4  -8   9 16.0975 2.81930   1 
   4   7  -9 3.37549 1.41008   3 
   4   7  -9 2.71534 1.85573   1 
   4   7  -9 2.83662 2.21407   1 
  -4  -7   9 -3.2217 1.96253   1 
   3   7  -9 0.60872 1.35793   3 
   3   7  -9 2.18586 1.51453   1 
   3   7  -9 0.12314 1.94253   1 
  -3  -7   9 0.31800 1.74175   1 
   2   7  -9 32.2455 3.07411   1 
   2   7  -9 38.0420 3.80221   3 
   2   7  -9 30.9862 2.78570   1 
  -2  -7   9 26.6854 2.60956   1 
  -2  -7   9 31.3157 3.32129   2 
   1   7  -9 -0.6786 1.60038   3 
   1   7  -9 0.05680 1.07315   1 
   1   7  -9 1.34507 1.29663   1 
  -1  -7   9 1.47101 1.53108   2 
  -1  -7   9 -1.0931 1.06286   1 
   0   7  -9 9.29589 2.16653   3 
   0   7  -9 6.28663 1.96340   1 
   0   7  -9 8.77339 1.73929   1 
   0  -7   9 9.38806 1.82872   1 
   0  -7   9 10.1750 1.70564   2 
  -1   7  -9 -3.1081 1.22361   1 
  -1   7  -9 0.20446 1.59058   3 
   1  -7   9 -0.6232 1.04148   1 
   1  -7   9 1.40648 1.17755   2 
  -2   7  -9 75.8803 5.53032   3 
  -2   7  -9 75.7834 4.35972   1 
   2  -7   9 66.2675 3.93585   2 
   2  -7   9 71.2549 4.10840   1 
  -3   7  -9 93.9847 5.37007   1 
  -3   7  -9 99.5804 6.66392   3 
   3  -7   9 103.251 5.28788   1 
  -4   7  -9 0.84330 1.67579   1 
  -4   7  -9 0.78917 1.69090   3 
   4  -7   9 -1.6208 1.86058   1 
  -5   7  -9 116.201 7.36001   3 
   5  -7   9 105.690 6.63178   1 
   5   6  -9 -0.4402 2.02485   1 
   5   6  -9 1.76896 1.70316   1 
   5   6  -9 -0.7131 1.41711   3 
  -5  -6   9 1.04476 1.46442   1 
   4   6  -9 40.5020 3.72587   1 
   4   6  -9 40.9530 4.06090   3 
   4   6  -9 39.8305 3.28752   1 
  -4  -6   9 34.3374 2.90408   1 
   3   6  -9 31.4612 3.14255   3 
   3   6  -9 31.2902 2.60377   1 
   3   6  -9 31.1241 2.79940   1 
  -3  -6   9 27.5436 2.49079   1 
  -3  -6   9 24.7205 2.77772   2 
   2   6  -9 3.86120 1.70809   1 
   2   6  -9 7.38814 1.63136   1 
   2   6  -9 2.11835 1.76194   3 
  -2  -6   9 5.49476 1.78490   2 
  -2  -6   9 4.76459 1.17750   1 
   1   6  -9 55.9594 3.61107   1 
   1   6  -9 53.2999 3.44129   1 
   1   6  -9 53.5853 4.49899   3 
  -1  -6   9 46.5824 3.73175   2 
  -1  -6   9 53.4754 3.15998   1 
   0   6  -9 34.9423 3.30939   1 
   0   6  -9 40.9459 3.77446   3 
   0  -6   9 35.9153 2.56799   1 
   0  -6   9 34.7070 2.95913   2 
  -1   6  -9 33.5595 3.28873   1 
  -1   6  -9 28.1165 3.28662   3 
   1  -6   9 28.6186 2.78992   1 
   1  -6   9 27.2283 2.33009   2 
  -2   6  -9 65.9556 4.88552   3 
  -2   6  -9 63.3628 4.32484   1 
   2  -6   9 58.9199 3.53971   2 
   2  -6   9 56.9909 3.93515   1 
  -3   6  -9 6.71357 1.64232   3 
  -3   6  -9 4.63207 2.05312   1 
   3  -6   9 5.13323 1.77143   1 
  -4   6  -9 40.1006 3.66715   3 
  -4   6  -9 41.3887 3.63141   1 
   4  -6   9 41.9000 3.27325   1 
  -5   6  -9 11.3113 2.37244   3 
   5  -6   9 14.1623 2.78316   1 
   6   5  -9 27.2426 2.65199   1 
   6   5  -9 37.6580 3.30320   1 
   6   5  -9 29.8950 3.65590   3 
  -6  -5   9 26.0856 2.80157   1 
   5   5  -9 1.86657 1.75614   1 
   5   5  -9 4.09964 1.85023   3 
   5   5  -9 0.78688 1.89346   1 
  -5  -5   9 2.02115 1.13503   1 
   4   5  -9 18.6252 2.69890   3 
   4   5  -9 22.1934 2.01680   1 
   4   5  -9 25.2443 2.35552   1 
  -4  -5   9 17.0310 2.58015   2 
  -4  -5   9 17.8733 1.97213   1 
   3   5  -9 4.67214 1.90586   3 
   3   5  -9 4.88239 1.42184   1 
   3   5  -9 7.06147 1.35010   1 
  -3  -5   9 5.31533 1.45590   2 
  -3  -5   9 6.88084 1.42057   1 
   2   5  -9 146.180 7.06404   1 
   2   5  -9 154.648 9.16606   3 
   2   5  -9 155.378 6.98164   1 
  -2  -5   9 144.000 8.02589   2 
  -2  -5   9 146.540 6.75478   1 
   1   5  -9 10.1357 1.41326   1 
   1   5  -9 8.52093 1.73902   3 
  -1  -5   9 8.68166 1.61127   2 
  -1  -5   9 8.57572 1.43633   1 
   0   5  -9 37.3217 2.87899   1 
   0   5  -9 40.6883 4.04842   3 
   0  -5   9 45.5269 2.95846   1 
   0  -5   9 39.7623 3.00661   2 
  -1   5  -9 10.1014 1.87840   3 
  -1   5  -9 10.9337 1.58678   1 
   1  -5   9 10.1012 1.59659   2 
   1  -5   9 7.69995 1.24319   1 
  -2   5  -9 21.4516 2.13102   1 
  -2   5  -9 21.2853 2.83955   3 
   2  -5   9 20.5344 2.07800   1 
   2  -5   9 21.0939 1.87617   2 
  -3   5  -9 1.83133 1.31101   1 
  -3   5  -9 1.68841 1.36078   3 
   3  -5   9 2.78004 1.16423   1 
  -4   5  -9 -0.9257 1.68593   3 
  -4   5  -9 0.63398 1.46732   1 
   4  -5   9 3.67751 2.03356   1 
  -5   5  -9 10.3185 2.17076   1 
  -5   5  -9 14.9804 2.20383   3 
   5  -5   9 10.3954 2.26403   1 
   6   4  -9 2.01697 1.77052   1 
   6   4  -9 -0.4679 1.62638   1 
   6   4  -9 0.93735 1.58963   3 
  -6  -4   9 -0.4611 1.12029   2 
  -6  -4   9 -0.4508 1.54830   1 
   5   4  -9 9.22374 1.79340   1 
   5   4  -9 8.18138 1.64161   3 
   5   4  -9 7.11818 1.77152   1 
  -5  -4   9 8.37125 1.82677   2 
  -5  -4   9 9.44493 1.24541   1 
   4   4  -9 19.3794 2.73856   3 
   4   4  -9 21.8007 2.04693   1 
   4   4  -9 21.4708 2.09990   1 
  -4  -4   9 15.8015 2.18890   2 
  -4  -4   9 17.1372 1.80617   1 
   3   4  -9 47.1947 3.33025   1 
   3   4  -9 48.8849 3.16306   1 
   3   4  -9 52.1634 4.00738   3 
  -3  -4   9 46.6492 3.02002   1 
  -3  -4   9 42.9997 3.66375   2 
   2   4  -9 54.8140 3.40746   1 
   2   4  -9 53.5156 4.44564   3 
  -2  -4   9 51.5250 3.50480   2 
  -2  -4   9 48.5029 2.88030   1 
   1   4  -9 488.615 20.0180   1 
   1   4  -9 498.877 26.2763   3 
  -1  -4   9 494.737 19.8212   1 
  -1  -4   9 465.651 23.0405   2 
   0   4  -9 68.1762 4.95889   3 
   0   4  -9 67.2991 4.09780   1 
   0  -4   9 67.7659 3.57476   1 
   0  -4   9 66.8775 4.08618   2 
  -1   4  -9 65.1075 4.78768   3 
  -1   4  -9 65.0670 3.74919   1 
   1  -4   9 64.9268 3.80440   2 
   1  -4   9 62.8868 3.69799   1 
  -2   4  -9 89.5928 4.84450   1 
  -2   4  -9 89.8124 6.31898   3 
   2  -4   9 92.6213 4.64907   1 
   2  -4   9 95.5856 4.90220   2 
  -3   4  -9 29.4223 2.80533   1 
  -3   4  -9 28.6629 3.52288   3 
   3  -4   9 31.7453 3.11720   1 
  -4   4  -9 0.11834 1.37813   1 
  -4   4  -9 1.14229 1.75034   3 
   4  -4   9 1.37218 1.92359   1 
  -5   4  -9 32.2790 3.60294   1 
  -5   4  -9 33.4247 3.88220   3 
   5  -4   9 37.1258 3.69076   1 
   7   3  -9 10.8165 2.19499   1 
   7   3  -9 8.82411 1.95593   1 
   7   3  -9 9.86309 2.15891   3 
  -7  -3   9 9.80823 1.77858   1 
  -7  -3   9 10.6542 2.16000   2 
   6   3  -9 4.13943 1.31968   3 
   6   3  -9 2.67219 1.51590   1 
   6   3  -9 1.91218 1.04871   1 
  -6  -3   9 0.93246 1.27013   1 
  -6  -3   9 5.39645 1.93622   2 
   5   3  -9 1.23895 1.25002   3 
   5   3  -9 2.40154 1.39177   1 
   5   3  -9 1.49265 0.98162   1 
  -5  -3   9 -0.4431 1.46063   2 
  -5  -3   9 -0.2838 0.65332   1 
   4   3  -9 16.6657 1.76923   1 
   4   3  -9 16.0112 1.69618   1 
   4   3  -9 18.2075 2.36454   3 
  -4  -3   9 15.7774 1.55748   1 
  -4  -3   9 17.4460 2.30001   2 
   3   3  -9 1.89174 1.07934   1 
   3   3  -9 5.36284 1.43842   3 
   3   3  -9 0.89752 1.17638   1 
  -3  -3   9 3.40157 1.04407   1 
  -3  -3   9 3.40296 1.57606   2 
   2   3  -9 13.0479 2.02300   3 
   2   3  -9 13.8639 1.64555   1 
  -2  -3   9 13.4372 1.77376   2 
  -2  -3   9 11.8164 1.47572   1 
   1   3  -9 5.62319 1.42552   1 
   1   3  -9 5.59290 1.53786   3 
  -1  -3   9 4.44634 0.90412   1 
  -1  -3   9 5.10559 1.32515   2 
   0   3  -9 213.120 12.7225   3 
   0   3  -9 219.900 9.65491   1 
   0  -3   9 219.594 10.9281   2 
   0  -3   9 232.215 9.57037   1 
  -1   3  -9 188.136 8.42197   1 
  -1   3  -9 176.657 11.0128   3 
   1  -3   9 191.000 8.25342   1 
   1  -3   9 193.161 9.31020   2 
  -2   3  -9 52.0198 4.63674   3 
  -2   3  -9 61.3856 3.63025   1 
   2  -3   9 62.4083 3.44782   1 
  -3   3  -9 13.5610 2.40992   3 
  -3   3  -9 11.5528 1.78756   1 
   3  -3   9 11.6035 1.89861   1 
  -4   3  -9 3.43452 1.59800   1 
  -4   3  -9 -1.1067 1.73262   3 
   4  -3   9 -0.2539 1.94225   1 
  -5   3  -9 14.1856 2.89814   1 
  -5   3  -9 13.9204 2.64145   3 
   5  -3   9 14.1967 2.34480   1 
   8   2  -9 43.0736 3.87500   3 
   7   2  -9 113.807 5.64096   1 
   7   2  -9 113.467 5.38319   1 
   7   2  -9 109.403 7.03715   3 
  -7  -2   9 101.196 6.60136   2 
  -7  -2   9 109.122 5.30159   1 
   6   2  -9 13.7287 2.03882   3 
   6   2  -9 13.3682 1.40676   1 
   6   2  -9 13.2989 1.80931   1 
  -6  -2   9 11.7646 1.43564   1 
  -6  -2   9 12.3620 2.30057   2 
   5   2  -9 73.1779 5.20044   3 
   5   2  -9 74.9187 4.03483   1 
   5   2  -9 82.0710 4.14034   1 
  -5  -2   9 69.1946 4.74165   2 
  -5  -2   9 78.4546 3.83871   1 
   4   2  -9 3.27408 0.86005   1 
   4   2  -9 3.74380 1.28036   3 
   4   2  -9 1.64481 0.79932   1 
  -4  -2   9 2.50086 0.92366   1 
  -4  -2   9 0.97270 1.04626   2 
   3   2  -9 65.8536 3.59821   1 
   3   2  -9 62.8268 4.84396   3 
  -3  -2   9 64.0112 4.31425   2 
  -3  -2   9 66.9343 3.28965   1 
   2   2  -9 164.217 9.72297   3 
   2   2  -9 180.453 7.45898   1 
  -2  -2   9 165.100 8.52643   2 
  -2  -2   9 148.878 7.11000   1 
   1   2  -9 -0.4535 1.46413   3 
   1   2  -9 0.45050 0.85368   1 
  -1  -2   9 -0.4522 1.07002   2 
  -1  -2   9 -0.6725 0.81301   1 
   0   2  -9 2.27284 1.32247   1 
   0   2  -9 4.54642 1.74914   3 
   0  -2   9 5.29879 1.04869   2 
   0  -2   9 4.27601 1.03270   1 
  -1   2  -9 60.1037 4.78469   3 
  -1   2  -9 59.2183 3.80455   1 
   1  -2   9 60.2477 3.51762   1 
   1  -2   9 62.8989 3.78738   2 
  -2   2  -9 58.1193 4.48406   3 
  -2   2  -9 61.9803 4.05642   1 
   2  -2   9 61.6792 3.76365   1 
  -3   2  -9 22.7013 3.11318   3 
  -3   2  -9 25.8459 2.59171   1 
   3  -2   9 24.1705 2.54325   1 
  -4   2  -9 -0.1003 1.27595   3 
  -4   2  -9 0.91853 1.59666   1 
   4  -2   9 -1.4711 2.01892   1 
  -5   2  -9 34.1163 3.69322   1 
  -5   2  -9 31.6737 3.89470   3 
   5  -2   9 34.9033 3.63691   1 
   8   1  -9 10.1960 2.18125   3 
   8   1  -9 6.46409 1.25998   1 
   8   1  -9 11.2676 2.01362   1 
  -8  -1   9 7.57716 1.32106   1 
  -8  -1   9 10.4187 2.04227   2 
   7   1  -9 1.95007 1.17315   1 
   7   1  -9 0.36944 1.19793   3 
   7   1  -9 0.39113 1.27076   1 
  -7  -1   9 0.92395 1.89422   2 
  -7  -1   9 0.57372 1.17846   1 
   6   1  -9 17.0658 1.71962   1 
   6   1  -9 18.2448 1.72382   1 
   6   1  -9 15.2263 2.47497   3 
  -6  -1   9 17.6658 1.52668   1 
  -6  -1   9 15.2857 2.26988   2 
   5   1  -9 10.3130 1.75306   3 
   5   1  -9 11.2082 1.38500   1 
   5   1  -9 13.3905 1.44737   1 
  -5  -1   9 9.08988 1.80980   2 
  -5  -1   9 12.5390 1.20228   1 
   4   1  -9 0.86139 1.04811   3 
   4   1  -9 3.34166 0.81699   1 
  -4  -1   9 2.53200 1.42883   2 
  -4  -1   9 2.32278 0.76114   1 
   3   1  -9 14.7552 2.32077   3 
   3   1  -9 15.6423 1.54764   1 
  -3  -1   9 14.7297 2.03526   2 
  -3  -1   9 16.6718 1.48840   1 
   2   1  -9 3.45131 1.52956   3 
   2   1  -9 4.09452 1.18812   1 
  -2  -1   9 5.38273 0.94859   1 
  -2  -1   9 4.85419 1.43044   2 
   1   1  -9 58.2704 3.14081   1 
   1   1  -9 47.8809 4.04176   3 
  -1  -1   9 57.8502 3.49361   2 
  -1  -1   9 55.0601 3.05575   1 
   0   1  -9 37.8387 3.51773   3 
   0   1  -9 44.9576 2.71308   1 
   0  -1   9 47.1711 3.19995   2 
   0  -1   9 46.1835 2.59741   1 
  -1   1  -9 -0.4758 1.48077   3 
  -1   1  -9 -2.1601 1.16054   1 
   1  -1   9 0.83525 1.11087   1 
  -2   1  -9 -0.6190 1.04009   3 
  -2   1  -9 0.82539 1.07294   1 
   2  -1   9 2.98406 1.33496   1 
  -3   1  -9 18.7427 2.83296   3 
  -3   1  -9 21.6762 2.63050   1 
   3  -1   9 21.4825 2.41876   1 
  -4   1  -9 25.0254 2.58222   1 
  -4   1  -9 26.2248 3.23017   3 
   4  -1   9 28.0823 2.65888   1 
   8   0  -9 39.1047 3.87704   3 
   8   0  -9 40.4357 3.10797   1 
   8   0  -9 39.6700 2.83234   1 
  -8   0   9 43.4896 3.76054   2 
   7   0  -9 31.7604 3.39192   3 
   7   0  -9 32.8975 2.32574   1 
   7   0  -9 31.7653 2.58720   1 
  -7   0   9 31.2717 3.13033   2 
  -7   0   9 28.9252 1.95885   1 
   6   0  -9 41.3433 2.56773   1 
   6   0  -9 39.3438 3.74527   3 
   6   0  -9 46.2710 2.78170   1 
  -6   0   9 32.1377 3.57639   2 
  -6   0   9 42.5991 2.43018   1 
   5   0  -9 219.210 13.9345   3 
   5   0  -9 263.422 10.6088   1 
   5   0  -9 252.392 10.5302   1 
  -5   0   9 272.888 10.4112   1 
  -5   0   9 247.586 12.7774   2 
   4   0  -9 13.3209 1.46853   1 
   4   0  -9 13.6570 2.23828   3 
  -4   0   9 15.2750 1.36200   1 
  -4   0   9 16.2491 2.15846   2 
   3   0  -9 180.012 7.76808   1 
  -3   0   9 173.617 9.17472   2 
  -3   0   9 176.923 7.49048   1 
   2   0  -9 2.70555 1.11199   1 
  -2   0   9 3.05712 1.33380   2 
  -2   0   9 4.98031 0.91111   1 
   1   0  -9 186.101 8.43147   1 
  -1   0   9 202.335 8.28303   1 
  -1   0   9 192.397 9.76259   2 
   0   0  -9 160.556 8.02314   1 
   0   0   9 191.246 9.17122   2 
   0   0   9 187.714 7.94427   1 
  -1   0  -9 10.1187 1.41582   1 
   1   0   9 11.6558 1.61723   1 
  -2   0  -9 79.6412 4.48361   1 
   2   0   9 84.6101 4.66328   1 
  -3   0  -9 204.297 13.0212   3 
  -3   0  -9 243.775 10.5931   1 
   3   0   9 244.934 10.3554   1 
  -4   0  -9 6.51281 2.46717   1 
  -4   0  -9 8.17912 2.31616   3 
   4   0   9 8.20829 2.51239   1 
   8  -1  -9 119.216 5.54671   1 
   8  -1  -9 114.818 7.55756   3 
   8  -1  -9 130.539 5.78266   1 
  -8   1   9 117.316 7.37421   2 
   7  -1  -9 3.26415 1.15608   1 
   7  -1  -9 4.76787 1.76047   3 
   7  -1  -9 5.74968 1.08224   1 
  -7   1   9 6.47668 1.88660   2 
  -7   1   9 6.01479 0.88860   1 
   6  -1  -9 76.1532 5.63676   3 
   6  -1  -9 86.1038 4.09142   1 
   6  -1  -9 85.3008 3.93140   1 
  -6   1   9 84.5735 3.74058   1 
  -6   1   9 82.4264 5.31538   2 
   5  -1  -9 50.7412 2.75466   1 
  -5   1   9 53.5300 3.83350   2 
  -5   1   9 56.0057 2.60677   1 
   4  -1  -9 439.599 18.0384   1 
  -4   1   9 427.747 21.4127   2 
  -4   1   9 465.141 17.8141   1 
   3  -1  -9 207.606 8.72518   1 
  -3   1   9 192.903 10.3683   2 
  -3   1   9 210.005 8.50234   1 
   2  -1  -9 104.081 5.06241   1 
  -2   1   9 108.404 4.77786   1 
  -2   1   9 104.040 5.87322   2 
   1  -1  -9 21.2070 2.27708   1 
  -1   1   9 27.5567 1.77444   1 
  -1   1   9 29.1043 2.62991   2 
   0  -1  -9 82.8014 4.50137   1 
   0   1   9 85.5705 4.31542   1 
  -1  -1  -9 28.0867 2.73093   1 
   1   1   9 28.4094 2.55226   1 
  -2  -1  -9 -0.6355 1.68112   1 
   2   1   9 2.13170 1.12549   1 
  -3  -1  -9 71.8059 4.60027   1 
   3   1   9 79.0569 5.01008   1 
  -4  -1  -9 4.62480 2.20180   3 
  -4  -1  -9 0.82059 2.60628   1 
   4   1   9 4.94767 2.73838   1 
   9  -2  -9 24.4777 2.60989   1 
   9  -2  -9 26.6035 3.40174   3 
   8  -2  -9 44.4495 4.19840   3 
   8  -2  -9 55.5902 3.06421   1 
   8  -2  -9 50.3408 2.84523   1 
  -8   2   9 47.1765 4.02223   2 
   7  -2  -9 35.5211 2.39784   1 
   7  -2  -9 35.8385 2.29649   1 
  -7   2   9 36.6294 3.28377   2 
   6  -2  -9 0.89522 0.84829   1 
   6  -2  -9 -0.8161 0.73053   1 
  -6   2   9 1.68156 1.16170   2 
  -6   2   9 -0.1517 0.40913   1 
   5  -2  -9 8.28541 1.06653   1 
  -5   2   9 9.77838 1.72358   2 
  -5   2   9 8.33752 0.80850   1 
   4  -2  -9 75.6047 3.74066   1 
  -4   2   9 76.3172 3.37287   1 
  -4   2   9 72.4952 4.71339   2 
   3  -2  -9 12.3298 1.35192   1 
  -3   2   9 10.1868 1.08905   1 
  -3   2   9 10.2511 1.78668   2 
   2  -2  -9 2.68401 1.09025   1 
  -2   2   9 1.55555 1.01619   2 
  -2   2   9 4.08957 0.78960   1 
   1  -2  -9 53.5597 3.21019   1 
  -1   2   9 49.4883 2.70666   1 
  -1   2   9 50.6432 3.47506   2 
   0  -2  -9 66.7966 3.77718   1 
   0   2   9 72.6186 3.66570   1 
  -1  -2  -9 16.4980 2.09243   1 
   1   2   9 20.1611 1.89051   1 
  -2  -2  -9 116.578 6.38086   1 
   2   2   9 116.773 6.11954   1 
  -3  -2  -9 9.31716 2.51997   1 
   3   2   9 4.00935 2.24012   1 
   9  -3  -9 0.05511 1.83241   3 
   9  -3  -9 2.35463 1.20340   1 
  -9   3   9 0.29024 1.93463   2 
   8  -3  -9 0.51023 0.92994   1 
   8  -3  -9 -0.8257 0.96726   1 
  -8   3   9 0.12112 1.75977   2 
   7  -3  -9 22.0512 1.85679   1 
   7  -3  -9 25.9808 2.09284   1 
  -7   3   9 24.2150 2.66829   2 
   6  -3  -9 1.77516 0.73333   1 
  -6   3   9 3.80167 1.40068   2 
   5  -3  -9 279.161 11.4985   1 
  -5   3   9 276.356 14.1245   2 
   4  -3  -9 -0.3327 0.74753   1 
  -4   3   9 -0.8307 0.97271   2 
  -4   3   9 0.38870 0.39505   1 
   3  -3  -9 178.679 7.67768   1 
  -3   3   9 180.775 9.43357   2 
  -3   3   9 172.992 7.35209   1 
   2  -3  -9 125.654 5.78657   1 
  -2   3   9 121.575 5.39854   1 
  -2   3   9 122.075 6.77873   2 
   1  -3  -9 26.1464 2.41740   1 
  -1   3   9 27.1934 1.95509   1 
   0  -3  -9 1.56459 1.47230   1 
   0   3   9 2.94995 1.14769   1 
  -1  -3  -9 3.95775 1.75300   1 
   1   3   9 7.38983 1.55521   1 
  -2  -3  -9 -2.2422 1.98437   1 
   2   3   9 1.01647 1.90308   1 
   2   3   9 -1.5702 2.01570   1 
   8  -4  -9 1.25221 0.95316   1 
   8  -4  -9 -0.5268 0.94029   1 
  -8   4   9 2.14900 2.05837   2 
   7  -4  -9 0.03562 0.89973   1 
   7  -4  -9 -0.5602 0.71011   1 
  -7   4   9 1.13920 1.09348   2 
   6  -4  -9 -0.7080 0.64109   1 
  -6   4   9 0.38881 1.17905   2 
   5  -4  -9 53.9600 2.82926   1 
  -5   4   9 55.5559 4.32231   2 
   4  -4  -9 269.426 11.2165   1 
  -4   4   9 271.093 13.6846   2 
  -4   4   9 267.975 10.7642   1 
   3  -4  -9 566.956 23.1281   1 
  -3   4   9 573.386 22.8622   1 
  -3   4   9 584.205 27.4624   2 
   2  -4  -9 2.97359 1.13865   1 
  -2   4   9 3.49571 0.76665   1 
  -2   4   9 3.72852 1.04760   1 
   1  -4  -9 6.55442 1.38878   1 
  -1   4   9 5.74610 1.38821   1 
  -1   4   9 6.75136 1.11497   1 
   0  -4  -9 -0.3695 1.08226   1 
   0   4   9 1.28080 1.52499   1 
   0   4   9 -0.1447 1.14851   1 
  -1  -4  -9 0.38412 1.84175   1 
   1   4   9 3.57851 1.59786   1 
  -2  -4  -9 0.91014 1.77476   1 
   2   4   9 -2.1237 1.43446   1 
   8  -5  -9 21.9626 1.65670   1 
   8  -5  -9 19.0156 1.76775   1 
  -8   5   9 20.2076 3.08605   2 
   7  -5  -9 -0.9508 0.73098   1 
   7  -5  -9 -0.4817 0.69558   1 
  -7   5   9 0.60521 1.22745   2 
   6  -5  -9 51.4492 2.79720   1 
  -6   5   9 51.4998 3.89490   2 
   5  -5  -9 3.86949 0.77200   1 
  -5   5   9 0.48726 1.52883   2 
   4  -5  -9 636.007 25.5534   1 
  -4   5   9 640.493 30.4526   2 
   3  -5  -9 283.635 12.0412   1 
  -3   5   9 286.717 11.6641   1 
  -3   5   9 294.160 14.6082   2 
   2  -5  -9 14.9557 1.75527   1 
  -2   5   9 16.4094 1.44342   1 
  -2   5   9 19.2715 1.84766   1 
   1  -5  -9 56.8235 3.69325   1 
  -1   5   9 57.6149 3.20909   1 
  -1   5   9 60.7397 3.57438   1 
   0  -5  -9 -0.1685 1.74336   1 
   0   5   9 -1.1541 1.70076   1 
   0   5   9 1.04879 1.24855   1 
  -1  -5  -9 14.1175 2.51977   1 
   1   5   9 8.94694 1.60228   1 
   8  -6  -9 0.52163 0.75791   1 
   8  -6  -9 0.12795 0.67299   1 
  -8   6   9 -1.2676 1.96067   2 
   7  -6  -9 0.71096 0.76246   1 
   7  -6  -9 0.15561 0.64622   1 
  -7   6   9 2.09148 1.40999   2 
   6  -6  -9 20.5339 1.74043   1 
  -6   6   9 16.3929 2.43859   2 
   5  -6  -9 79.5519 3.95737   1 
  -5   6   9 93.3718 5.77781   2 
   4  -6  -9 83.5521 3.98878   1 
  -4   6   9 78.8819 5.21537   2 
   3  -6  -9 672.856 27.0157   1 
   2  -6  -9 -2.8955 1.18776   1 
  -2   6   9 -0.8697 1.01667   1 
  -2   6   9 -0.7675 0.88748   1 
   1  -6  -9 3.99564 1.63925   1 
  -1   6   9 0.37824 1.48833   1 
  -1   6   9 0.47525 1.30127   1 
   0  -6  -9 9.20701 2.30382   1 
   0   6   9 7.40431 1.65190   1 
   7  -7  -9 0.03192 0.68469   1 
   7  -7  -9 0.29135 0.68786   1 
  -7   7   9 0.35147 1.35678   2 
   6  -7  -9 20.5252 1.53798   1 
  -6   7   9 23.9419 2.87025   2 
   5  -7  -9 23.6845 2.08031   1 
  -5   7   9 31.4687 3.41048   2 
   4  -7  -9 244.146 10.2560   1 
   3  -7  -9 5.37855 1.27761   1 
  -3   7   9 3.80225 0.60935   1 
  -3   7   9 4.35431 0.70728   1 
  -2   7   9 11.1006 1.36786   1 
   2   8 -10 1.41298 2.40733   1 
   2   8 -10 -2.1295 2.12252   3 
   2   8 -10 1.05304 2.03155   1 
  -2  -8  10 0.50835 1.62559   1 
  -2  -8  10 1.41624 2.08010   2 
   1   8 -10 63.9919 5.54642   3 
   1   8 -10 47.9456 5.23175   1 
   1   8 -10 57.2166 3.95833   1 
  -1  -8  10 51.2573 4.62553   1 
  -1  -8  10 53.1037 4.38954   2 
   0   8 -10 87.6108 6.15031   1 
   0   8 -10 97.3508 5.71859   1 
   0   8 -10 99.8109 7.02151   3 
   0  -8  10 80.2771 5.38248   2 
   0  -8  10 85.4499 5.53337   1 
  -1   8 -10 6.12319 2.37710   3 
  -1   8 -10 9.67316 2.23718   1 
  -1   8 -10 7.19860 1.77627   1 
   1  -8  10 6.09063 1.60715   2 
   1  -8  10 3.90322 2.31782   1 
  -2   8 -10 24.3123 3.52435   1 
  -2   8 -10 34.2740 4.22115   3 
   2  -8  10 33.9980 3.36293   1 
   3   7 -10 83.2935 5.92072   1 
   3   7 -10 83.4359 4.78731   1 
   3   7 -10 68.0550 5.75146   3 
  -3  -7  10 82.6083 4.70292   1 
  -3  -7  10 79.0861 5.27184   2 
   2   7 -10 7.68205 1.70297   1 
   2   7 -10 5.59319 2.14533   3 
   2   7 -10 8.88460 2.53223   1 
  -2  -7  10 6.75795 1.55999   1 
  -2  -7  10 7.25595 1.75986   2 
   1   7 -10 2.89753 2.21634   3 
   1   7 -10 3.66938 1.48468   1 
   1   7 -10 3.96674 1.71871   1 
  -1  -7  10 5.12218 1.99698   1 
  -1  -7  10 6.91124 1.94593   2 
   0   7 -10 16.3097 2.52878   3 
   0   7 -10 15.0224 2.74528   1 
   0   7 -10 18.7343 2.45555   1 
   0  -7  10 13.3530 1.87302   1 
   0  -7  10 17.6140 2.16064   2 
  -1   7 -10 11.1656 2.59368   3 
  -1   7 -10 11.7727 2.06217   1 
   1  -7  10 11.8534 1.73374   2 
   1  -7  10 10.7789 1.69946   1 
  -2   7 -10 44.2408 3.85254   1 
  -2   7 -10 41.7520 4.41377   3 
   2  -7  10 42.4711 3.05956   2 
   2  -7  10 45.3518 3.50011   1 
  -3   7 -10 5.83666 2.41438   3 
  -3   7 -10 4.06060 2.94858   1 
   3  -7  10 2.33671 2.42130   1 
   4   6 -10 3.84936 2.02311   3 
   4   6 -10 2.94946 1.61256   1 
   4   6 -10 4.99364 2.39535   1 
  -4  -6  10 4.06984 1.36396   1 
  -4  -6  10 2.94688 2.01965   2 
   3   6 -10 0.38969 1.70701   3 
   3   6 -10 -2.5280 1.73138   1 
   3   6 -10 2.01429 1.62320   1 
  -3  -6  10 1.11538 1.21575   1 
  -3  -6  10 2.41025 1.84918   2 
   2   6 -10 113.052 7.19672   3 
   2   6 -10 98.7828 5.41341   1 
   2   6 -10 101.655 5.54842   1 
  -2  -6  10 92.8821 5.85314   2 
  -2  -6  10 95.5577 5.40064   1 
   1   6 -10 28.3768 3.57317   3 
   1   6 -10 26.7775 2.61296   1 
   1   6 -10 32.2762 2.89866   1 
  -1  -6  10 27.9835 3.00668   1 
  -1  -6  10 26.6798 3.00304   2 
   0   6 -10 16.3832 2.38292   1 
   0   6 -10 10.3076 2.07167   3 
   0  -6  10 13.5139 1.87895   2 
   0  -6  10 14.1957 1.67250   1 
  -1   6 -10 112.019 7.15741   3 
  -1   6 -10 111.163 5.71811   1 
   1  -6  10 101.942 5.64537   2 
   1  -6  10 94.2465 5.63119   1 
  -2   6 -10 12.4057 2.12241   3 
  -2   6 -10 9.40306 2.00101   1 
   2  -6  10 11.2537 2.20302   1 
   2  -6  10 12.2371 1.71710   2 
  -3   6 -10 1.67407 1.89476   3 
  -3   6 -10 -2.3896 2.42382   1 
   3  -6  10 -0.6599 1.39695   1 
  -4   6 -10 4.50155 2.17340   3 
   4  -6  10 2.76208 1.84647   1 
   5   5 -10 5.92570 1.78296   1 
   5   5 -10 5.19425 2.09269   3 
   5   5 -10 6.72894 1.69452   1 
  -5  -5  10 6.48139 1.90422   2 
  -5  -5  10 4.82909 1.75529   1 
   4   5 -10 6.58073 1.74417   3 
   4   5 -10 6.57571 1.95762   1 
   4   5 -10 6.11644 2.02102   1 
  -4  -5  10 6.80655 2.17220   2 
  -4  -5  10 9.58902 1.81456   1 
   3   5 -10 5.19002 1.36875   1 
   3   5 -10 6.88069 1.51998   1 
   3   5 -10 10.4928 2.38367   3 
  -3  -5  10 6.48337 1.97641   2 
  -3  -5  10 7.18676 1.61999   1 
   2   5 -10 14.4174 2.10046   1 
   2   5 -10 15.4722 1.92900   1 
   2   5 -10 16.0508 2.65942   3 
  -2  -5  10 15.2200 1.95899   1 
  -2  -5  10 16.0742 2.03330   2 
   1   5 -10 8.83692 2.35729   3 
   1   5 -10 11.8071 2.11265   1 
  -1  -5  10 12.9691 1.75155   1 
  -1  -5  10 8.97821 1.78039   2 
   0   5 -10 8.54019 1.67542   1 
   0   5 -10 5.56477 1.77590   3 
   0  -5  10 7.52085 1.61327   2 
   0  -5  10 3.28164 1.50895   1 
  -1   5 -10 3.15297 1.37487   3 
  -1   5 -10 0.14918 1.84879   1 
   1  -5  10 1.45077 1.51900   1 
   1  -5  10 2.41695 1.11077   2 
  -2   5 -10 50.9379 4.19055   1 
  -2   5 -10 48.8500 4.28974   3 
   2  -5  10 53.2860 3.94305   1 
  -3   5 -10 11.8303 2.06997   1 
  -3   5 -10 12.1122 2.12921   3 
   3  -5  10 12.2958 1.86494   1 
  -4   5 -10 -1.5292 1.34685   3 
  -4   5 -10 1.31540 1.94993   1 
   4  -5  10 -0.7888 1.63175   1 
   6   4 -10 1.72491 2.11556   1 
   6   4 -10 2.13688 2.01981   1 
   6   4 -10 5.31947 2.22696   3 
  -6  -4  10 3.31901 2.00528   2 
  -6  -4  10 -0.3175 1.76213   1 
   5   4 -10 79.3605 4.38577   1 
   5   4 -10 84.4033 5.94208   3 
   5   4 -10 79.0118 4.87288   1 
  -5  -4  10 76.4771 4.41707   1 
  -5  -4  10 71.0551 5.52674   2 
   4   4 -10 0.75175 1.16912   1 
   4   4 -10 1.00013 1.05546   1 
   4   4 -10 0.68667 1.78627   3 
  -4  -4  10 1.56946 1.36421   1 
  -4  -4  10 -0.5201 1.04131   2 
   3   4 -10 34.2036 3.04394   1 
   3   4 -10 30.1111 3.26418   3 
   3   4 -10 32.1708 2.62501   1 
  -3  -4  10 31.1232 3.22299   2 
  -3  -4  10 35.6949 2.75181   1 
   2   4 -10 32.2035 3.14201   1 
   2   4 -10 35.4551 3.40880   3 
  -2  -4  10 33.8594 3.21821   2 
  -2  -4  10 35.2921 2.75340   1 
   1   4 -10 14.4805 1.82905   1 
   1   4 -10 14.4461 2.23051   3 
  -1  -4  10 15.2131 1.98478   2 
  -1  -4  10 14.8215 1.56999   1 
   0   4 -10 102.327 5.76412   1 
   0   4 -10 105.986 7.13039   3 
   0  -4  10 115.344 5.48975   1 
   0  -4  10 107.208 5.99675   2 
  -1   4 -10 42.8084 3.91582   1 
  -1   4 -10 47.1759 4.11012   3 
   1  -4  10 51.4430 3.15254   1 
   1  -4  10 53.3362 3.37194   2 
  -2   4 -10 60.1022 4.49474   1 
  -2   4 -10 49.3102 4.76137   3 
   2  -4  10 56.3530 3.49894   1 
  -3   4 -10 6.97703 1.86821   1 
  -3   4 -10 6.58491 2.25760   3 
   3  -4  10 0.78694 1.99982   1 
  -4   4 -10 44.2880 4.44564   3 
  -4   4 -10 46.6673 4.90303   1 
   4  -4  10 45.8729 3.79206   1 
   6   3 -10 23.4930 2.62599   1 
   6   3 -10 27.9333 2.61221   1 
   6   3 -10 25.8840 3.43169   3 
  -6  -3  10 17.6002 2.87580   2 
  -6  -3  10 20.4676 2.11914   1 
   5   3 -10 101.310 6.96402   3 
   5   3 -10 105.914 5.43650   1 
   5   3 -10 101.971 5.36419   1 
  -5  -3  10 94.2498 6.39159   2 
  -5  -3  10 102.003 5.06536   1 
   4   3 -10 49.1777 4.45406   3 
   4   3 -10 52.7820 3.57983   1 
   4   3 -10 49.0673 3.40354   1 
  -4  -3  10 50.4824 2.90264   1 
  -4  -3  10 47.5312 4.06092   2 
   3   3 -10 3.77921 1.47686   1 
   3   3 -10 1.65705 1.71127   3 
  -3  -3  10 1.77205 1.12467   2 
  -3  -3  10 2.07980 0.82058   1 
   2   3 -10 -0.3473 0.88422   1 
   2   3 -10 0.36925 1.59167   3 
  -2  -3  10 0.43164 1.02324   2 
  -2  -3  10 1.21189 1.12318   1 
   1   3 -10 26.9403 2.51077   1 
   1   3 -10 31.4923 3.17475   3 
  -1  -3  10 27.8502 2.14448   1 
  -1  -3  10 29.4286 2.81261   2 
   0   3 -10 90.2158 5.09357   1 
   0   3 -10 91.3155 6.28446   3 
   0  -3  10 91.5354 4.60414   1 
   0  -3  10 92.2134 5.27011   2 
  -1   3 -10 13.9829 2.29100   3 
  -1   3 -10 12.9792 2.11874   1 
   1  -3  10 16.3567 1.91736   2 
   1  -3  10 16.3051 1.62551   1 
  -2   3 -10 11.5518 2.46309   3 
  -2   3 -10 9.39266 2.24035   1 
   2  -3  10 10.7426 1.55852   1 
  -3   3 -10 34.3607 4.02673   3 
  -3   3 -10 35.1783 3.28293   1 
   3  -3  10 31.0954 3.04253   1 
  -4   3 -10 30.5359 3.55319   1 
  -4   3 -10 25.2494 3.16901   3 
   4  -3  10 25.0500 2.68707   1 
   7   2 -10 2.85177 1.59819   3 
   7   2 -10 3.82517 1.69392   1 
   7   2 -10 -1.5745 1.13599   1 
  -7  -2  10 1.21106 1.23185   1 
  -7  -2  10 0.19355 1.22824   2 
   6   2 -10 56.5989 3.66570   1 
   6   2 -10 50.7789 4.16073   3 
   6   2 -10 54.5226 3.64087   1 
  -6  -2  10 44.4921 3.98245   2 
  -6  -2  10 50.9860 3.16694   1 
   5   2 -10 -1.2738 1.25245   1 
   5   2 -10 -0.0609 1.64026   3 
   5   2 -10 -0.2810 0.94466   1 
  -5  -2  10 2.08135 1.65236   2 
  -5  -2  10 0.33725 0.94041   1 
   4   2 -10 1.35235 0.87216   1 
   4   2 -10 1.73687 1.79761   3 
   4   2 -10 2.08158 0.95798   1 
  -4  -2  10 1.24975 0.96274   1 
  -4  -2  10 1.43746 1.40622   2 
   3   2 -10 172.758 7.79160   1 
   3   2 -10 169.489 10.2923   3 
  -3  -2  10 155.678 9.01990   2 
  -3  -2  10 180.604 7.52727   1 
   2   2 -10 49.3501 3.32251   1 
   2   2 -10 38.7017 4.00367   3 
  -2  -2  10 46.8168 2.82245   1 
  -2  -2  10 40.8356 3.20282   2 
   1   2 -10 127.621 6.00062   1 
   1   2 -10 114.649 7.79278   3 
  -1  -2  10 123.627 6.78913   2 
  -1  -2  10 127.830 5.71679   1 
   0   2 -10 60.2506 4.97965   3 
   0   2 -10 64.3091 3.69426   1 
   0  -2  10 57.6614 3.96440   2 
   0  -2  10 63.1348 3.38630   1 
  -1   2 -10 12.6587 1.67458   1 
  -1   2 -10 9.49498 1.97039   3 
   1  -2  10 11.5375 1.70305   2 
   1  -2  10 9.83382 1.60574   1 
  -2   2 -10 9.29738 2.36377   3 
  -2   2 -10 7.56730 2.18444   1 
   2  -2  10 5.93149 1.38729   1 
  -3   2 -10 55.0741 3.95859   1 
  -3   2 -10 49.0268 4.32371   3 
   3  -2  10 51.5045 3.66383   1 
  -4   2 -10 50.7921 4.97289   3 
  -4   2 -10 61.6544 5.48268   1 
   4  -2  10 56.3608 5.16601   1 
   7   1 -10 9.16252 1.63286   1 
   7   1 -10 5.64919 1.72438   1 
   7   1 -10 5.03638 1.68497   3 
  -7  -1  10 5.49749 1.76866   2 
  -7  -1  10 4.46717 1.16941   1 
   6   1 -10 18.1288 2.71084   3 
   6   1 -10 19.4055 1.96696   1 
   6   1 -10 19.4938 1.99827   1 
  -6  -1  10 20.1033 1.84619   1 
  -6  -1  10 20.0322 2.68481   2 
   5   1 -10 4.88753 1.04774   1 
   5   1 -10 2.50101 1.38548   3 
   5   1 -10 2.42461 0.89149   1 
  -5  -1  10 2.00521 0.85931   1 
  -5  -1  10 3.17091 1.25403   2 
   4   1 -10 40.0140 4.09854   3 
   4   1 -10 44.7140 3.07310   1 
  -4  -1  10 40.1057 3.60850   2 
  -4  -1  10 48.1489 2.60951   1 
   3   1 -10 0.40326 0.81679   1 
   3   1 -10 0.68137 1.19331   3 
  -3  -1  10 -0.4964 0.81959   1 
  -3  -1  10 1.28057 1.38483   2 
   2   1 -10 79.3335 5.89457   3 
   2   1 -10 89.5488 4.52286   1 
  -2  -1  10 85.9967 5.19160   2 
  -2  -1  10 98.9139 4.41680   1 
   1   1 -10 1.73044 1.25468   3 
  -1  -1  10 4.23823 1.13974   2 
  -1  -1  10 4.08713 0.95719   1 
   0   1 -10 52.1139 3.47124   1 
   0   1 -10 37.9345 3.64766   3 
   0  -1  10 46.4290 3.13981   2 
   0  -1  10 42.7505 2.70697   1 
  -1   1 -10 3.62408 1.82046   1 
  -1   1 -10 3.14980 1.86383   3 
   1  -1  10 1.65886 1.37692   1 
  -2   1 -10 3.95796 1.46995   1 
  -2   1 -10 3.84072 1.64257   3 
   2  -1  10 6.83837 1.35940   1 
  -3   1 -10 3.75997 2.49287   1 
  -3   1 -10 2.66627 2.15144   3 
   3  -1  10 3.72868 2.27558   1 
   8   0 -10 14.7202 2.61800   3 
   8   0 -10 20.0146 2.26753   1 
  -8   0  10 13.7656 2.84984   2 
   7   0 -10 88.5977 4.59805   1 
   7   0 -10 79.4534 5.99729   3 
   7   0 -10 85.7819 4.43489   1 
  -7   0  10 84.8634 5.59215   2 
   6   0 -10 30.3353 3.52413   3 
   6   0 -10 31.8164 2.64466   1 
   6   0 -10 33.8653 2.22116   1 
  -6   0  10 29.6169 1.97602   1 
  -6   0  10 27.0622 3.31297   2 
   5   0 -10 20.5900 2.15627   1 
   5   0 -10 22.9438 2.19310   1 
   5   0 -10 19.1990 2.79568   3 
  -5   0  10 23.2728 2.88096   2 
  -5   0  10 24.6679 1.73560   1 
   4   0 -10 12.1020 1.35918   1 
   4   0 -10 14.7267 2.20055   3 
  -4   0  10 14.0585 1.94984   2 
  -4   0  10 14.9621 1.51295   1 
   3   0 -10 1.60512 0.88820   1 
  -3   0  10 1.13878 0.97569   2 
  -3   0  10 2.69444 0.78684   1 
   2   0 -10 37.9827 2.56365   1 
  -2   0  10 38.9412 2.46229   1 
  -2   0  10 41.0737 3.36740   2 
   1   0 -10 0.26806 0.93142   1 
  -1   0  10 0.41375 0.70128   1 
  -1   0  10 1.17051 1.01642   2 
   0   0 -10 15.4509 2.05874   1 
   0   0  10 13.1459 1.42642   1 
   0   0  10 17.5135 2.08183   2 
  -1   0 -10 11.6799 1.70575   1 
   1   0  10 10.7159 1.50260   1 
  -2   0 -10 1.36011 2.03167   1 
  -2   0 -10 2.39502 2.09059   3 
   2   0  10 3.01853 1.90142   1 
  -3   0 -10 30.9539 3.50915   1 
  -3   0 -10 29.3545 3.34451   3 
   3   0  10 37.3708 3.41413   1 
   8  -1 -10 35.2139 3.91514   3 
   8  -1 -10 33.0032 2.91482   1 
  -8   1  10 36.6052 4.03620   2 
   7  -1 -10 14.6737 2.52119   3 
   7  -1 -10 14.0518 1.55251   1 
   7  -1 -10 14.3407 1.71495   1 
  -7   1  10 16.7000 2.80780   2 
   6  -1 -10 -0.7815 0.92505   1 
   6  -1 -10 2.03974 1.14744   1 
   6  -1 -10 1.62132 1.21697   3 
  -6   1  10 0.71523 0.62339   1 
  -6   1  10 0.51351 1.29970   2 
   5  -1 -10 30.5856 2.29918   1 
  -5   1  10 28.6670 3.29318   2 
  -5   1  10 34.9311 1.91584   1 
   4  -1 -10 0.42224 1.05303   1 
  -4   1  10 0.77950 0.91558   2 
  -4   1  10 -0.0152 0.62645   1 
   3  -1 -10 2.36962 1.17864   1 
  -3   1  10 1.39433 1.01381   2 
  -3   1  10 -0.0172 0.70996   1 
   2  -1 -10 0.96222 1.16388   1 
  -2   1  10 1.57104 0.59239   1 
  -2   1  10 -1.0704 1.28379   2 
   1  -1 -10 17.8624 1.75978   1 
  -1   1  10 16.9038 2.27423   2 
  -1   1  10 16.5626 1.59829   1 
   0  -1 -10 65.7061 4.19645   1 
   0   1  10 69.4960 3.89479   1 
  -1  -1 -10 40.7304 3.11984   1 
   1   1  10 40.6716 3.37007   1 
  -2  -1 -10 10.0708 1.86951   1 
   2   1  10 11.5120 2.16824   1 
  -3  -1 -10 1.16449 1.98375   1 
   3   1  10 3.54808 2.53604   1 
   8  -2 -10 19.9104 2.71463   3 
   8  -2 -10 23.8056 2.44673   1 
  -8   2  10 26.4678 3.00576   2 
   7  -2 -10 27.3048 2.26178   1 
   7  -2 -10 33.4839 2.49053   1 
  -7   2  10 29.6522 3.06601   2 
   6  -2 -10 12.8861 1.30141   1 
   6  -2 -10 10.9287 1.35477   1 
  -6   2  10 9.15629 1.82776   2 
  -6   2  10 7.14258 0.77741   1 
   5  -2 -10 4.93214 1.07064   1 
  -5   2  10 2.31028 1.33715   2 
  -5   2  10 5.28835 0.66579   1 
   4  -2 -10 2.57488 0.92464   1 
  -4   2  10 3.02655 1.54573   2 
  -4   2  10 0.88391 0.59702   1 
   3  -2 -10 48.1723 3.12317   1 
  -3   2  10 50.5954 3.66365   2 
  -3   2  10 53.3157 2.66168   1 
   2  -2 -10 65.5180 3.63012   1 
  -2   2  10 68.1571 3.43175   1 
  -2   2  10 69.3623 4.64067   2 
   1  -2 -10 5.52674 1.49811   1 
  -1   2  10 2.88971 1.52943   2 
  -1   2  10 4.29826 1.08465   1 
   0  -2 -10 56.6782 3.92284   1 
   0   2  10 50.5304 3.37209   1 
  -1  -2 -10 54.0341 3.79656   1 
   1   2  10 59.6530 3.57687   1 
  -2  -2 -10 116.746 6.73502   1 
   2   2  10 103.733 5.68763   1 
   8  -3 -10 51.3563 3.07664   1 
  -8   3  10 50.1620 4.52697   2 
   7  -3 -10 33.5015 2.42840   1 
   7  -3 -10 31.8535 2.38228   1 
  -7   3  10 34.8269 3.84589   2 
   6  -3 -10 119.181 5.58288   1 
  -6   3  10 125.393 7.46834   2 
   5  -3 -10 1.64217 0.95288   1 
  -5   3  10 0.62585 0.50442   1 
  -5   3  10 1.00086 1.04591   2 
   4  -3 -10 189.220 8.45890   1 
  -4   3  10 200.659 8.02178   1 
  -4   3  10 194.107 10.4090   2 
   3  -3 -10 3.51506 1.21991   1 
  -3   3  10 2.94605 1.54096   2 
  -3   3  10 2.09769 0.69593   1 
   2  -3 -10 3.83147 1.29828   1 
  -2   3  10 1.49018 0.83552   1 
  -2   3  10 -0.5595 1.07778   2 
   1  -3 -10 9.00730 1.41897   1 
  -1   3  10 5.52461 1.17541   1 
   0  -3 -10 26.1447 2.55971   1 
   0   3  10 25.1200 2.22973   1 
  -1  -3 -10 1.17052 2.17928   1 
   1   3  10 1.03773 1.24741   1 
   8  -4 -10 1.07081 1.23201   1 
  -8   4  10 3.26811 1.54229   2 
   7  -4 -10 11.7472 1.47344   1 
   7  -4 -10 12.9008 1.30507   1 
  -7   4  10 10.3017 2.47271   2 
   6  -4 -10 1.87873 0.89505   1 
  -6   4  10 -1.5732 1.67873   2 
   5  -4 -10 12.7835 1.47335   1 
  -5   4  10 11.8378 1.98210   2 
   4  -4 -10 38.9260 2.64638   1 
  -4   4  10 39.0475 2.10041   1 
  -4   4  10 38.6157 1.94390   1 
  -4   4  10 36.5873 3.75268   2 
   3  -4 -10 31.5662 2.41295   1 
  -3   4  10 24.5426 2.01587   1 
  -3   4  10 23.7279 1.65302   1 
  -3   4  10 23.4882 2.87280   2 
   2  -4 -10 40.5175 3.14505   1 
  -2   4  10 34.3629 2.23169   1 
  -2   4  10 38.9094 2.75186   1 
   1  -4 -10 34.3874 3.25251   1 
  -1   4  10 28.3887 2.01762   1 
  -1   4  10 32.4795 3.09331   1 
   0  -4 -10 -0.2545 1.99426   1 
   0   4  10 1.23293 1.94101   1 
   0   4  10 3.23288 1.48336   1 
   7  -5 -10 53.7851 3.03686   1 
   7  -5 -10 64.1479 3.31605   1 
  -7   5  10 66.0525 5.06514   2 
   6  -5 -10 13.2102 1.39661   1 
  -6   5  10 15.8119 2.52881   2 
   5  -5 -10 4.07850 0.98383   1 
  -5   5  10 3.30430 1.96580   2 
   4  -5 -10 0.07571 1.03690   1 
  -4   5  10 0.96953 0.47336   1 
  -4   5  10 5.63388 1.97213   2 
  -4   5  10 1.83896 0.44244   1 
   3  -5 -10 22.2085 2.34021   1 
  -3   5  10 24.9549 1.83741   1 
   2  -5 -10 -0.3583 1.48113   1 
  -2   5  10 -0.8247 1.58140   1 
  -2   5  10 -0.3677 0.80938   1 
   1  -5 -10 -3.2167 1.72835   1 
  -1   5  10 0.46819 1.71191   1 
  -1   5  10 -0.9633 1.07418   1 
   6  -6 -10 40.1500 2.51762   1 
  -6   6  10 41.5200 3.70458   2 
   5  -6 -10 54.4309 3.09131   1 
  -5   6  10 58.0058 4.84291   2 
   4  -6 -10 51.2699 3.15438   1 
   3  -6 -10 69.4921 4.06972   1 
  -3   6  10 74.1485 3.47747   1 
  -2   6  10 -0.0673 0.91012   1 
  -2   6  10 2.94355 1.66390   1 
   2   7 -11 36.2703 4.12817   1 
   2   7 -11 45.4158 4.60699   1 
   2   7 -11 44.7086 5.08070   3 
  -2  -7  11 40.3746 3.60977   1 
   1   7 -11 1.89475 2.85733   1 
   1   7 -11 1.51722 2.39561   1 
   1   7 -11 -0.4799 1.58860   3 
  -1  -7  11 2.37007 1.96106   2 
  -1  -7  11 1.68627 2.24623   1 
   0   7 -11 18.6747 3.39680   1 
   0   7 -11 19.5542 2.24502   1 
   0   7 -11 14.4990 3.19281   3 
   0  -7  11 15.6151 2.19370   2 
   0  -7  11 14.7252 2.22628   1 
  -1   7 -11 27.2302 3.71911   1 
  -1   7 -11 27.1783 3.56111   3 
   1  -7  11 26.8961 2.64288   2 
   1  -7  11 23.9170 2.56366   1 
   3   6 -11 78.2742 5.34660   1 
   3   6 -11 77.7668 5.87811   1 
   3   6 -11 82.5401 6.06724   3 
  -3  -6  11 76.9911 4.98397   1 
  -3  -6  11 76.5066 5.58195   2 
   2   6 -11 74.7893 4.92607   1 
   2   6 -11 71.7843 5.60269   3 
   2   6 -11 66.5335 5.49983   1 
  -2  -6  11 66.7310 4.93118   2 
  -2  -6  11 64.2939 4.11825   1 
   1   6 -11 0.41866 2.42221   1 
   1   6 -11 2.31564 1.67841   3 
   1   6 -11 2.58198 1.60671   1 
  -1  -6  11 3.66902 1.81225   2 
  -1  -6  11 4.39266 1.93004   1 
   0   6 -11 5.87724 2.22428   3 
   0   6 -11 -1.8786 2.53660   1 
   0  -6  11 4.14108 1.58423   1 
   0  -6  11 5.58560 1.65876   2 
  -1   6 -11 45.6405 4.14192   1 
  -1   6 -11 46.0126 4.93996   3 
   1  -6  11 48.2317 3.63492   1 
   1  -6  11 47.5259 3.41086   2 
  -2   6 -11 14.7723 3.15819   1 
  -2   6 -11 10.9557 2.91609   3 
   2  -6  11 20.9498 2.85127   1 
   4   5 -11 119.639 7.85460   3 
   4   5 -11 109.050 6.32184   1 
   4   5 -11 110.670 6.05724   1 
  -4  -5  11 103.625 5.60282   1 
  -4  -5  11 109.820 7.08559   2 
   3   5 -11 43.9956 3.81090   1 
   3   5 -11 43.7326 3.41000   1 
   3   5 -11 50.9875 4.32121   3 
  -3  -5  11 46.3673 3.24391   1 
  -3  -5  11 45.5999 4.06977   2 
   2   5 -11 6.52922 2.27133   1 
   2   5 -11 -2.5941 1.18673   3 
   2   5 -11 0.16200 1.27576   1 
  -2  -5  11 -1.0108 1.63893   2 
  -2  -5  11 -0.3995 1.12465   1 
   1   5 -11 8.46971 2.13153   3 
   1   5 -11 10.6483 2.43259   1 
  -1  -5  11 8.20779 1.95305   1 
  -1  -5  11 9.77028 1.92854   2 
   0   5 -11 1.15092 2.01699   3 
   0   5 -11 2.65746 1.66380   1 
   0  -5  11 2.03071 1.14365   2 
   0  -5  11 1.32412 1.25730   1 
  -1   5 -11 -0.4203 2.35151   1 
  -1   5 -11 -0.1480 1.46469   3 
   1  -5  11 1.16752 1.43075   1 
   1  -5  11 1.45234 1.43347   2 
  -2   5 -11 162.577 10.4454   3 
  -2   5 -11 165.754 8.47847   1 
   2  -5  11 178.806 8.13635   1 
   5   4 -11 287.370 12.6912   1 
   5   4 -11 293.131 16.3886   3 
   5   4 -11 291.428 12.8831   1 
  -5  -4  11 290.052 12.4725   1 
  -5  -4  11 270.143 14.9099   2 
   4   4 -11 41.3348 3.37122   1 
   4   4 -11 46.3254 4.13787   3 
   4   4 -11 42.8412 3.23604   1 
  -4  -4  11 36.3043 3.50404   2 
  -4  -4  11 55.0674 3.54599   1 
   3   4 -11 57.3328 4.77307   3 
   3   4 -11 58.7685 4.14344   1 
   3   4 -11 57.7906 4.44121   1 
  -3  -4  11 56.6286 3.79244   1 
  -3  -4  11 55.3458 4.41377   2 
   2   4 -11 10.2498 1.76532   1 
   2   4 -11 8.28875 2.03802   3 
  -2  -4  11 9.60334 2.06215   2 
  -2  -4  11 10.7462 1.44771   1 
   1   4 -11 2.17552 1.56581   1 
   1   4 -11 0.62011 1.18597   3 
  -1  -4  11 -0.0419 1.51697   2 
  -1  -4  11 1.76578 1.40907   1 
   0   4 -11 23.0883 2.93983   3 
   0   4 -11 20.1802 2.75601   1 
   0  -4  11 17.3318 2.22503   2 
   0  -4  11 20.5351 1.97915   1 
  -1   4 -11 128.027 6.65972   1 
  -1   4 -11 129.471 8.48101   3 
   1  -4  11 127.180 6.64278   1 
   1  -4  11 134.661 7.02138   2 
  -2   4 -11 2.51723 2.26983   3 
  -2   4 -11 8.95261 2.74427   1 
   2  -4  11 4.26101 1.53723   1 
  -3   4 -11 86.9216 5.74657   1 
  -3   4 -11 84.3877 6.76629   3 
   3  -4  11 97.0686 5.37503   1 
   6   3 -11 45.1944 4.18679   1 
   6   3 -11 38.5532 3.84600   3 
   6   3 -11 38.1565 3.90832   1 
  -6  -3  11 33.9135 4.34241   2 
  -6  -3  11 38.3973 3.24234   1 
   5   3 -11 63.6903 5.52438   3 
   5   3 -11 74.1560 4.74177   1 
   5   3 -11 67.7490 4.41763   1 
  -5  -3  11 60.9500 4.64951   2 
  -5  -3  11 67.3090 3.98121   1 
   4   3 -11 9.62294 1.87819   1 
   4   3 -11 7.86027 1.88369   3 
   4   3 -11 5.46911 1.97053   1 
  -4  -3  11 6.48470 1.46666   1 
  -4  -3  11 8.55214 1.67939   2 
   3   3 -11 0.43181 1.90526   3 
   3   3 -11 3.35257 1.72463   1 
  -3  -3  11 1.98571 1.68355   2 
  -3  -3  11 1.24958 1.36066   1 
   2   3 -11 8.32837 2.02797   1 
   2   3 -11 5.48418 1.81058   3 
  -2  -3  11 11.7988 1.79989   1 
  -2  -3  11 9.37452 1.69546   2 
   1   3 -11 46.8887 4.55695   3 
   1   3 -11 47.2187 3.35228   1 
  -1  -3  11 42.1267 3.26584   2 
  -1  -3  11 40.2207 3.21587   1 
   0   3 -11 1.35123 1.44446   3 
   0   3 -11 1.74145 1.97442   1 
   0  -3  11 2.03135 1.05261   1 
   0  -3  11 2.33610 1.42537   2 
  -1   3 -11 12.2130 2.54916   3 
  -1   3 -11 13.2373 2.08188   1 
   1  -3  11 12.6483 2.08270   1 
   1  -3  11 14.7363 1.97283   2 
  -2   3 -11 46.8547 4.83406   1 
  -2   3 -11 39.4478 3.91659   3 
   2  -3  11 38.3192 3.19816   1 
  -3   3 -11 8.19496 2.17296   3 
  -3   3 -11 7.36117 2.21149   1 
   3  -3  11 8.07628 1.99839   1 
   6   2 -11 53.9085 4.00035   1 
   6   2 -11 45.2755 3.93169   1 
   6   2 -11 52.7055 4.76269   3 
  -6  -2  11 49.8777 3.18856   1 
  -6  -2  11 46.3916 4.44118   2 
   5   2 -11 157.122 7.35998   1 
   5   2 -11 153.350 9.78522   3 
   5   2 -11 153.856 7.22589   1 
  -5  -2  11 146.843 8.60423   2 
  -5  -2  11 157.721 6.90327   1 
   4   2 -11 54.5822 4.64307   3 
   4   2 -11 57.2369 3.57960   1 
  -4  -2  11 57.0836 4.41749   2 
  -4  -2  11 58.2422 3.19136   1 
   3   2 -11 4.20286 1.88068   3 
   3   2 -11 0.22612 1.70113   1 
  -3  -2  11 4.74431 1.24519   1 
  -3  -2  11 3.23920 1.35151   2 
   2   2 -11 108.410 7.61068   3 
   2   2 -11 119.237 6.20009   1 
  -2  -2  11 123.645 5.70996   1 
  -2  -2  11 119.301 6.82934   2 
   1   2 -11 106.661 5.50414   1 
   1   2 -11 101.028 7.42895   3 
  -1  -2  11 107.839 6.19113   2 
  -1  -2  11 107.650 5.35957   1 
   0   2 -11 14.6513 2.69003   3 
   0   2 -11 16.6160 2.41542   1 
   0  -2  11 20.2865 2.26132   2 
   0  -2  11 17.1001 1.81061   1 
  -1   2 -11 100.653 6.02664   1 
  -1   2 -11 96.6845 7.06823   3 
   1  -2  11 97.6514 5.06104   1 
  -2   2 -11 36.9950 3.71172   1 
  -2   2 -11 35.1581 4.31671   3 
   2  -2  11 39.2957 3.87255   1 
   7   1 -11 8.43168 2.35121   3 
   6   1 -11 53.7425 4.39961   3 
   6   1 -11 51.5745 3.74051   1 
   6   1 -11 50.5096 3.67086   1 
  -6  -1  11 53.5007 4.58636   2 
  -6  -1  11 47.3692 3.01908   1 
   5   1 -11 143.067 9.39539   3 
   5   1 -11 153.751 6.99576   1 
   5   1 -11 151.863 7.11482   1 
  -5  -1  11 152.430 8.75528   2 
  -5  -1  11 162.749 6.85078   1 
   4   1 -11 -0.1174 1.42393   1 
   4   1 -11 2.90384 1.88434   3 
  -4  -1  11 -1.0419 1.57962   2 
  -4  -1  11 1.09812 1.06090   1 
   3   1 -11 32.9454 4.11106   3 
   3   1 -11 36.1692 3.23590   1 
  -3  -1  11 35.9747 3.54578   2 
  -3  -1  11 41.2240 2.64989   1 
   2   1 -11 35.1477 2.68066   1 
   2   1 -11 29.0105 3.38299   3 
  -2  -1  11 36.6324 2.91623   2 
  -2  -1  11 32.3271 2.57794   1 
   1   1 -11 74.3855 6.15283   3 
   1   1 -11 87.0704 4.99571   1 
  -1  -1  11 86.1321 4.47430   1 
  -1  -1  11 84.3072 5.00386   2 
   0   1 -11 59.8315 3.94742   1 
   0   1 -11 59.0252 5.14918   3 
   0  -1  11 67.2037 4.32834   2 
   0  -1  11 59.0661 3.49254   1 
  -1   1 -11 33.0686 4.22433   3 
  -1   1 -11 35.2177 3.31270   1 
   1  -1  11 32.2528 2.66445   1 
  -2   1 -11 2.28459 1.82917   1 
  -2   1 -11 0.44423 1.44987   3 
   2  -1  11 -1.5113 2.01849   1 
   7   0 -11 3.08503 1.73615   1 
   7   0 -11 3.37397 1.57640   3 
  -7   0  11 7.30082 2.33681   2 
  -7   0  11 4.23328 1.05751   1 
   6   0 -11 3.19084 1.54016   3 
   6   0 -11 2.85995 1.53720   1 
   6   0 -11 3.78125 1.54390   1 
  -6   0  11 3.48390 0.96864   1 
  -6   0  11 3.18471 1.48424   2 
   5   0 -11 5.05438 1.47918   1 
   5   0 -11 4.04082 1.63489   3 
  -5   0  11 5.03943 1.58029   2 
  -5   0  11 4.30957 0.98808   1 
   4   0 -11 -0.2029 1.40623   1 
   4   0 -11 -1.1998 1.64953   3 
  -4   0  11 0.34796 0.90634   1 
  -4   0  11 0.85559 1.79784   2 
   3   0 -11 11.9393 2.53235   3 
   3   0 -11 12.5761 1.85531   1 
  -3   0  11 13.4968 1.47306   1 
  -3   0  11 17.3566 2.38975   2 
   2   0 -11 0.52573 1.06219   1 
  -2   0  11 0.61785 1.03658   1 
  -2   0  11 -0.6494 1.49813   2 
   1   0 -11 15.0670 2.16073   1 
  -1   0  11 14.6670 2.28961   2 
  -1   0  11 18.1796 1.79081   1 
   0   0 -11 2.46586 1.46296   1 
   0   0 -11 1.93174 1.82746   3 
   0   0  11 -1.3832 1.37398   1 
  -1   0 -11 3.74270 1.65613   1 
  -1   0 -11 2.96017 1.57262   3 
   1   0  11 4.54368 1.85215   1 
  -2   0 -11 41.6220 4.11870   3 
  -2   0 -11 48.9970 4.32440   1 
   2   0  11 55.8013 4.44849   1 
   7  -1 -11 15.1385 1.94397   1 
   7  -1 -11 9.91282 2.20018   3 
  -7   1  11 15.0697 2.67950   2 
   6  -1 -11 44.9968 3.09138   1 
   6  -1 -11 33.8761 3.99460   3 
   6  -1 -11 41.8032 2.96117   1 
  -6   1  11 37.9422 2.38670   1 
  -6   1  11 39.1535 4.00782   2 
   5  -1 -11 6.68878 1.50386   1 
  -5   1  11 3.76246 0.87047   1 
  -5   1  11 6.97889 1.90545   2 
   4  -1 -11 11.8823 1.53721   1 
  -4   1  11 13.4545 2.04065   2 
  -4   1  11 13.1841 1.39403   1 
   3  -1 -11 6.64195 1.60359   1 
  -3   1  11 5.90007 1.03232   1 
  -3   1  11 6.36535 1.53779   2 
   2  -1 -11 -0.9377 1.07456   1 
  -2   1  11 2.89242 1.70747   2 
  -2   1  11 2.06798 1.07998   1 
   1  -1 -11 132.789 6.69915   1 
  -1   1  11 127.284 6.11470   1 
  -1   1  11 134.083 7.33519   2 
   0  -1 -11 2.77612 2.04604   1 
  -1  -1 -11 4.83423 2.54033   1 
   1   1  11 -0.1500 1.80517   1 
   7  -2 -11 3.19405 1.77196   1 
   7  -2 -11 -3.5830 1.81695   3 
  -7   2  11 2.94075 1.57626   2 
   6  -2 -11 19.2575 1.86220   1 
  -6   2  11 21.8088 2.96361   2 
   5  -2 -11 0.22848 1.16602   1 
  -5   2  11 0.68632 1.27890   2 
  -5   2  11 1.17922 0.79907   1 
   4  -2 -11 18.0028 1.94434   1 
  -4   2  11 22.6133 2.82913   2 
  -4   2  11 21.3769 1.60654   1 
   3  -2 -11 24.4083 2.30381   1 
  -3   2  11 30.3661 3.20089   2 
  -3   2  11 24.7196 1.93929   1 
   2  -2 -11 9.46214 1.81943   1 
  -2   2  11 8.15529 1.72416   2 
  -2   2  11 10.8721 1.33304   1 
   1  -2 -11 12.2519 2.07106   1 
  -1   2  11 10.8780 1.48264   1 
   0  -2 -11 181.942 8.88242   1 
   0   2  11 176.742 8.26367   1 
  -1  -2 -11 -2.2662 2.51604   1 
   1   2  11 0.53043 1.41341   1 
   7  -3 -11 7.30714 1.50941   1 
  -7   3  11 6.74825 2.35714   2 
   6  -3 -11 2.42796 1.31042   1 
  -6   3  11 2.13346 1.94521   2 
   5  -3 -11 37.9031 2.73909   1 
  -5   3  11 36.4107 1.87907   1 
  -5   3  11 33.7665 3.82654   2 
   4  -3 -11 18.9291 1.98448   1 
  -4   3  11 20.8783 2.59717   2 
   3  -3 -11 -3.0655 1.36109   1 
  -3   3  11 0.38225 0.94777   1 
  -3   3  11 0.10760 1.18206   2 
   2  -3 -11 10.9185 1.60615   1 
  -2   3  11 13.8411 1.45051   1 
  -2   3  11 13.2263 2.31759   2 
   1  -3 -11 94.5783 5.22409   1 
  -1   3  11 93.9653 4.77328   1 
   0  -3 -11 67.4472 5.29329   1 
   0   3  11 69.5187 4.40895   1 
  -6   4  11 3.22124 1.52145   2 
   5  -4 -11 10.3826 1.85858   1 
  -5   4  11 14.7637 2.29519   2 
   4  -4 -11 -0.0734 0.90622   1 
  -4   4  11 0.25086 1.19717   2 
  -4   4  11 1.27233 1.00475   1 
  -4   4  11 -0.0499 0.69262   1 
   3  -4 -11 0.93050 1.54959   1 
  -3   4  11 0.99771 0.82968   1 
  -3   4  11 2.07803 1.29368   1 
  -3   4  11 -0.0560 1.80583   2 
   2  -4 -11 1.34419 1.85360   1 
  -2   4  11 -1.8733 1.01756   1 
  -2   4  11 -0.8576 1.64526   1 
  -5   5  11 18.3180 2.54225   2 
  -4   5  11 53.7171 4.72546   2 
  -3   5  11 1.01184 1.06832   1 
  -3   5  11 4.42005 1.21643   1 
   2   5 -12 20.1594 3.31748   3 
   2   5 -12 18.0770 2.88403   1 
   2   5 -12 23.5694 3.49967   1 
  -2  -5  12 17.6582 2.67848   2 
  -2  -5  12 23.8469 2.33197   1 
   1   5 -12 10.0992 3.06552   1 
   1   5 -12 10.4092 2.51428   3 
  -1  -5  12 13.5765 2.32170   2 
  -1  -5  12 14.4192 2.47879   1 
   0   5 -12 2.27687 2.14603   1 
   0   5 -12 5.52842 2.12888   3 
   0  -5  12 8.38923 2.00401   2 
   0  -5  12 9.73134 2.44086   1 
   4   4 -12 5.59678 2.06905   3 
   4   4 -12 11.0290 2.86428   1 
   4   4 -12 7.39604 2.38898   1 
  -4  -4  12 8.33754 1.58168   1 
   3   4 -12 3.14992 2.35578   3 
   3   4 -12 4.34937 2.25948   1 
   3   4 -12 3.14113 2.57105   1 
  -3  -4  12 4.46329 2.10327   2 
  -3  -4  12 4.77435 1.41136   1 
   2   4 -12 19.9659 2.48454   1 
   2   4 -12 18.0711 2.96133   3 
  -2  -4  12 19.6626 2.76749   2 
  -2  -4  12 19.4664 2.36468   1 
   1   4 -12 0.07148 2.18450   3 
   1   4 -12 4.38298 2.58220   1 
  -1  -4  12 0.58125 1.78585   1 
  -1  -4  12 1.27401 1.82244   2 
   0   4 -12 8.68709 2.81659   1 
   0   4 -12 5.25681 2.02763   3 
   0  -4  12 6.92232 2.22543   1 
   0  -4  12 4.57483 1.37910   2 
  -1   4 -12 31.6223 3.79465   1 
  -1   4 -12 25.9080 3.83764   3 
   1  -4  12 29.2239 3.08720   2 
   1  -4  12 27.5951 3.11730   1 
   4   3 -12 42.8330 4.13204   3 
   4   3 -12 36.1118 3.41597   1 
   4   3 -12 38.3290 3.96934   1 
  -4  -3  12 40.8670 3.32239   1 
  -4  -3  12 37.8168 3.94878   2 
   3   3 -12 35.0940 3.38975   1 
   3   3 -12 32.1970 3.88011   3 
  -3  -3  12 36.2117 3.83112   2 
  -3  -3  12 41.4855 3.43967   1 
   2   3 -12 6.62146 1.80238   1 
   2   3 -12 4.36168 1.93194   3 
  -2  -3  12 9.74390 1.90796   1 
  -2  -3  12 4.54458 2.03672   2 
   1   3 -12 8.19623 2.59569   3 
   1   3 -12 9.91900 2.03284   1 
  -1  -3  12 8.02836 2.01567   2 
  -1  -3  12 9.16724 1.60836   1 
   0   3 -12 8.33464 2.64763   1 
   0   3 -12 4.10278 2.52299   3 
   0  -3  12 7.93918 1.84528   2 
   0  -3  12 6.24313 1.93265   1 
  -1   3 -12 123.552 8.50528   3 
  -1   3 -12 132.093 7.72779   1 
   1  -3  12 125.210 6.88895   1 
   5   2 -12 40.9975 3.36218   1 
   5   2 -12 34.7460 4.43046   3 
   5   2 -12 35.8952 3.79876   1 
  -5  -2  12 41.2617 4.11299   2 
  -5  -2  12 34.3839 2.91786   1 
   4   2 -12 5.65004 1.91048   3 
   4   2 -12 1.87145 2.08322   1 
  -4  -2  12 0.21784 1.41692   1 
  -4  -2  12 2.84151 1.45508   2 
   3   2 -12 1.64544 1.48639   3 
   3   2 -12 1.89057 2.13525   1 
  -3  -2  12 0.56455 1.40637   1 
  -3  -2  12 1.01862 1.78320   2 
   2   2 -12 3.27311 1.99853   3 
   2   2 -12 5.42547 1.65427   1 
  -2  -2  12 4.45564 1.38984   2 
  -2  -2  12 7.64567 1.30113   1 
   1   2 -12 51.8923 3.90127   1 
   1   2 -12 38.1086 4.38282   3 
  -1  -2  12 55.6268 4.06763   2 
  -1  -2  12 56.2086 3.76398   1 
   0   2 -12 -0.7346 2.58003   1 
   0   2 -12 -1.2216 1.37145   3 
   0  -2  12 -2.3109 1.27678   1 
   0  -2  12 -1.5122 1.64929   2 
  -1   2 -12 4.47851 2.45355   3 
  -1   2 -12 6.15804 3.20600   1 
   1  -2  12 4.47869 1.53721   1 
   5   1 -12 67.7230 3.94876   1 
   5   1 -12 58.8560 4.25721   1 
   5   1 -12 52.8783 5.35073   3 
  -5  -1  12 58.2635 4.95906   2 
  -5  -1  12 65.2645 3.52718   1 
   4   1 -12 12.4201 2.57486   3 
   4   1 -12 12.4832 1.86395   1 
  -4  -1  12 14.3071 1.67433   1 
  -4  -1  12 12.5152 2.15783   2 
   3   1 -12 36.2994 4.42648   3 
   3   1 -12 39.6222 3.28237   1 
  -3  -1  12 43.4299 3.62775   2 
  -3  -1  12 45.2323 3.06198   1 
   2   1 -12 2.11830 2.19823   3 
   2   1 -12 4.39150 2.08864   1 
  -2  -1  12 7.64434 1.94742   2 
  -2  -1  12 3.53472 1.43453   1 
   1   1 -12 109.352 6.52320   1 
  -1  -1  12 113.670 5.77596   1 
  -1  -1  12 110.533 6.44156   2 
   0   1 -12 2.97860 2.53533   1 
   0   1 -12 0.08210 2.38464   3 
   0  -1  12 -3.3045 1.66494   1 
   0  -1  12 1.07420 1.68846   2 
   5   0 -12 18.0733 3.13380   3 
   5   0 -12 19.4033 2.35865   1 
  -5   0  12 19.7776 1.99529   1 
  -5   0  12 18.5156 2.56786   2 
   4   0 -12 117.356 8.62108   3 
   4   0 -12 129.001 6.64814   1 
  -4   0  12 132.845 5.95450   1 
  -4   0  12 134.734 7.88299   2 
   3   0 -12 2.12692 1.94819   1 
   3   0 -12 -4.1239 1.65552   3 
  -3   0  12 -0.9080 1.65192   2 
  -3   0  12 2.06622 1.22344   1 
   2   0 -12 10.4940 2.27202   1 
   2   0 -12 7.86236 2.64952   3 
  -2   0  12 11.1926 1.42731   1 
  -2   0  12 12.4488 2.34392   2 
   1   0 -12 166.181 8.07636   1 
  -1   0  12 174.461 9.23336   2 
  -1   0  12 159.487 7.74564   1 
   0   0 -12 12.1604 2.95741   3 
   0   0 -12 16.3883 2.36196   1 
   0   0  12 15.1198 1.67929   1 
   6  -1 -12 6.76563 2.57315   3 
  -6   1  12 2.64846 1.23076   1 
   5  -1 -12 65.7653 4.27083   1 
  -5   1  12 60.0045 5.08022   2 
   4  -1 -12 14.8094 2.19367   1 
  -4   1  12 13.0032 2.17878   2 
  -4   1  12 13.5602 1.61546   1 
   3  -1 -12 36.9303 3.82357   1 
  -3   1  12 49.6188 4.17880   2 
  -3   1  12 47.7793 2.87933   1 
   2  -1 -12 0.44421 1.98329   1 
  -2   1  12 3.00151 1.40706   2 
  -2   1  12 1.48413 1.32992   1 
   1  -1 -12 19.5063 2.94676   1 
  -1   1  12 20.4712 2.23376   1 
  -1   1  12 24.0848 2.82759   2 
  -5   2  12 1.02589 1.01045   1 
  -5   2  12 4.27718 2.13278   2 
   4  -2 -12 62.2584 4.35585   1 
  -4   2  12 71.9872 5.25886   2 
  -4   2  12 65.7178 3.38251   1 
   3  -2 -12 3.71580 2.00185   1 
  -3   2  12 1.79409 1.40680   2 
  -3   2  12 0.51885 1.05830   1 
   2  -2 -12 1.25693 2.17678   1 
  -2   2  12 -0.4865 1.24933   1 
  -2   2  12 -1.1268 1.95945   2 
   1  -2 -12 19.2801 2.89684   1 
  -5   3  12 3.27029 0.90698   1 
  -4   3  12 20.7106 3.03501   2 
  -4   3  12 19.6088 1.74065   1 
  -3   3  12 15.4849 2.60466   2 
   0   0   0    0.00    0.00   0 
;
_shelx_hkl_checksum              18452
#END Tags that were not found in dictionaries
loop_
_space_group_symop_operation_xyz
'x, y, z'
'-x, -y, -z'
loop_
_atom_site_label
_atom_site_type_symbol
_atom_site_fract_x
_atom_site_fract_y
_atom_site_fract_z
_atom_site_U_iso_or_equiv
_atom_site_adp_type
_atom_site_occupancy
_atom_site_site_symmetry_order
_atom_site_calc_flag
_atom_site_refinement_flags_posn
_atom_site_refinement_flags_adp
O1 O 0.94051(13) 0.83346(11) -0.23097(10) 0.0206(2) Uani 1 1 d . .
O2 O 0.68128(12) 0.86632(10) -0.23925(9) 0.0166(2) Uani 1 1 d . .
O3 O 1.14473(12) 0.82528(11) 0.05574(10) 0.0217(2) Uani 1 1 d . .
O4 O 0.92011(12) 0.62798(10) 0.09733(9) 0.0161(2) Uani 1 1 d . .
C1 C 0.82794(17) 0.83117(14) -0.16893(13) 0.0151(3) Uani 1 1 d . .
C2 C 0.82470(17) 0.79051(13) -0.03189(13) 0.0144(3) Uani 1 1 d . .
C3 C 0.68055(17) 0.78454(13) 0.02102(13) 0.0140(3) Uani 1 1 d . .
C4 C 0.53505(17) 0.82224(14) -0.05920(14) 0.0154(3) Uani 1 1 d . .
H4 H 0.4337 0.8173 -0.0242 0.018 Uiso 1 1 calc R U
C5 C 0.54149(17) 0.86465(14) -0.18402(14) 0.0159(3) Uani 1 1 d . .
C6 C 0.98253(17) 0.75330(14) 0.04354(13) 0.0146(3) Uani 1 1 d . .
C7 C 1.06153(18) 0.59635(15) 0.19609(14) 0.0193(3) Uani 1 1 d . .
H7A H 1.1525 0.6908 0.2652 0.023 Uiso 1 1 calc R U
H7B H 1.1298 0.5556 0.1438 0.023 Uiso 1 1 calc R U
C8 C 0.9620(2) 0.48060(16) 0.27237(16) 0.0252(3) Uani 1 1 d . .
H8A H 0.8923 0.5212 0.3214 0.038 Uiso 1 1 calc R U
H8B H 1.0536 0.4584 0.3423 0.038 Uiso 1 1 calc R U
H8C H 0.8751 0.3867 0.2031 0.038 Uiso 1 1 calc R U
C9 C 0.67030(17) 0.74443(14) 0.16120(13) 0.0142(3) Uani 1 1 d . .
C10 C 0.81428(18) 0.82621(14) 0.28634(14) 0.0168(3) Uani 1 1 d . .
H10 H 0.9226 0.9080 0.2828 0.020 Uiso 1 1 calc R U
C11 C 0.79965(19) 0.78847(15) 0.41604(14) 0.0189(3) Uani 1 1 d . .
H11 H 0.8970 0.8456 0.5015 0.023 Uiso 1 1 calc R U
C12 C 0.64301(19) 0.66727(15) 0.42140(14) 0.0201(3) Uani 1 1 d . .
H12 H 0.6337 0.6407 0.5102 0.024 Uiso 1 1 calc R U
C13 C 0.50061(19) 0.58534(16) 0.29697(15) 0.0206(3) Uani 1 1 d . .
H13 H 0.3941 0.5017 0.3005 0.025 Uiso 1 1 calc R U
C14 C 0.51227(18) 0.62454(15) 0.16683(14) 0.0169(3) Uani 1 1 d . .
H14 H 0.4126 0.5696 0.0820 0.020 Uiso 1 1 calc R U
C15 C 0.41077(19) 0.91954(15) -0.27434(14) 0.0200(3) Uani 1 1 d . .
H15A H 0.4772 1.0299 -0.2694 0.024 Uiso 1 1 calc R U
H15B H 0.3057 0.9064 -0.2347 0.024 Uiso 1 1 calc R U
C16 C 0.3317(2) 0.83702(17) -0.43063(15) 0.0255(3) Uani 1 1 d . .
H16A H 0.2608 0.7282 -0.4370 0.038 Uiso 1 1 calc R U
H16B H 0.4345 0.8500 -0.4712 0.038 Uiso 1 1 calc R U
H16C H 0.2489 0.8799 -0.4839 0.038 Uiso 1 1 calc R U
loop_
_atom_site_aniso_label
_atom_site_aniso_U_11
_atom_site_aniso_U_22
_atom_site_aniso_U_33
_atom_site_aniso_U_23
_atom_site_aniso_U_13
_atom_site_aniso_U_12
O1 0.0210(5) 0.0263(5) 0.0181(5) 0.0069(4) 0.0105(4) 0.0102(4)
O2 0.0181(5) 0.0192(5) 0.0138(5) 0.0046(4) 0.0056(4) 0.0082(4)
O3 0.0136(5) 0.0249(5) 0.0233(5) 0.0057(4) 0.0054(4) 0.0039(4)
O4 0.0140(4) 0.0161(4) 0.0173(5) 0.0041(4) 0.0032(4) 0.0059(4)
C1 0.0153(6) 0.0119(6) 0.0154(6) 0.0013(5) 0.0040(5) 0.0034(5)
C2 0.0143(6) 0.0120(6) 0.0138(6) 0.0007(5) 0.0038(5) 0.0026(5)
C3 0.0145(6) 0.0096(5) 0.0144(6) 0.0000(5) 0.0036(5) 0.0019(5)
C4 0.0142(6) 0.0150(6) 0.0157(6) 0.0012(5) 0.0047(5) 0.0049(5)
C5 0.0148(6) 0.0137(6) 0.0167(6) 0.0000(5) 0.0039(5) 0.0042(5)
C6 0.0162(6) 0.0148(6) 0.0114(6) -0.0001(5) 0.0057(5) 0.0044(5)
C7 0.0167(6) 0.0235(7) 0.0175(6) 0.0039(5) 0.0016(5) 0.0104(5)
C8 0.0265(7) 0.0238(7) 0.0275(8) 0.0103(6) 0.0064(6) 0.0123(6)
C9 0.0153(6) 0.0151(6) 0.0157(6) 0.0037(5) 0.0064(5) 0.0088(5)
C10 0.0167(6) 0.0154(6) 0.0177(7) 0.0029(5) 0.0059(5) 0.0054(5)
C11 0.0207(7) 0.0201(7) 0.0142(6) 0.0016(5) 0.0025(5) 0.0084(6)
C12 0.0250(7) 0.0246(7) 0.0159(7) 0.0089(5) 0.0097(6) 0.0121(6)
C13 0.0175(7) 0.0223(7) 0.0228(7) 0.0085(5) 0.0092(6) 0.0058(5)
C14 0.0143(6) 0.0191(6) 0.0163(7) 0.0034(5) 0.0042(5) 0.0059(5)
C15 0.0217(7) 0.0213(7) 0.0186(7) 0.0055(5) 0.0051(6) 0.0109(6)
C16 0.0255(7) 0.0310(8) 0.0181(7) 0.0056(6) 0.0014(6) 0.0124(6)
loop_
_atom_type_symbol
_atom_type_description
_atom_type_scat_dispersion_real
_atom_type_scat_dispersion_imag
_atom_type_scat_source
C C 0.0033 0.0016 'International Tables Vol C Tables 4.2.6.8 and 6.1.1.4'
H H 0.0000 0.0000 'International Tables Vol C Tables 4.2.6.8 and 6.1.1.4'
O O 0.0106 0.0060 'International Tables Vol C Tables 4.2.6.8 and 6.1.1.4'
loop_
_geom_angle_atom_site_label_1
_geom_angle_atom_site_label_2
_geom_angle_atom_site_label_3
_geom_angle
C5 O2 C1 122.83(10)
C6 O4 C7 116.06(10)
O1 C1 O2 116.27(11)
O1 C1 C2 127.47(12)
O2 C1 C2 116.22(11)
C3 C2 C1 120.62(11)
C3 C2 C6 123.25(11)
C1 C2 C6 116.11(11)
C2 C3 C4 119.22(11)
C2 C3 C9 123.01(11)
C4 C3 C9 117.75(11)
C5 C4 C3 120.03(12)
C5 C4 H4 120.0
C3 C4 H4 120.0
C4 C5 O2 121.01(11)
C4 C5 C15 126.77(12)
O2 C5 C15 112.18(11)
O3 C6 O4 124.06(12)
O3 C6 C2 125.13(11)
O4 C6 C2 110.81(10)
O4 C7 C8 107.06(10)
O4 C7 H7A 110.3
C8 C7 H7A 110.3
O4 C7 H7B 110.3
C8 C7 H7B 110.3
H7A C7 H7B 108.6
C7 C8 H8A 109.5
C7 C8 H8B 109.5
H8A C8 H8B 109.5
C7 C8 H8C 109.5
H8A C8 H8C 109.5
H8B C8 H8C 109.5
C14 C9 C10 119.77(12)
C14 C9 C3 119.02(11)
C10 C9 C3 121.19(11)
C11 C10 C9 120.07(12)
C11 C10 H10 120.0
C9 C10 H10 120.0
C10 C11 C12 120.15(12)
C10 C11 H11 119.9
C12 C11 H11 119.9
C13 C12 C11 119.77(12)
C13 C12 H12 120.1
C11 C12 H12 120.1
C12 C13 C14 120.46(12)
C12 C13 H13 119.8
C14 C13 H13 119.8
C13 C14 C9 119.76(12)
C13 C14 H14 120.1
C9 C14 H14 120.1
C5 C15 C16 113.85(11)
C5 C15 H15A 108.8
C16 C15 H15A 108.8
C5 C15 H15B 108.8
C16 C15 H15B 108.8
H15A C15 H15B 107.7
C15 C16 H16A 109.5
C15 C16 H16B 109.5
H16A C16 H16B 109.5
C15 C16 H16C 109.5
H16A C16 H16C 109.5
H16B C16 H16C 109.5
loop_
_geom_bond_atom_site_label_1
_geom_bond_atom_site_label_2
_geom_bond_distance
O1 C1 1.2084(16)
O2 C5 1.3627(15)
O2 C1 1.3873(15)
O3 C6 1.2042(16)
O4 C6 1.3418(15)
O4 C7 1.4508(15)
C1 C2 1.4487(17)
C2 C3 1.3715(18)
C2 C6 1.4886(17)
C3 C4 1.4286(17)
C3 C9 1.4865(17)
C4 C5 1.3426(18)
C4 H4 0.9500
C5 C15 1.4887(18)
C7 C8 1.5027(19)
C7 H7A 0.9900
C7 H7B 0.9900
C8 H8A 0.9800
C8 H8B 0.9800
C8 H8C 0.9800
C9 C14 1.3902(18)
C9 C10 1.3925(18)
C10 C11 1.3858(18)
C10 H10 0.9500
C11 C12 1.3887(19)
C11 H11 0.9500
C12 C13 1.383(2)
C12 H12 0.9500
C13 C14 1.3896(18)
C13 H13 0.9500
C14 H14 0.9500
C15 C16 1.5283(19)
C15 H15A 0.9900
C15 H15B 0.9900
C16 H16A 0.9800
C16 H16B 0.9800
C16 H16C 0.9800
loop_
_geom_torsion_atom_site_label_1
_geom_torsion_atom_site_label_2
_geom_torsion_atom_site_label_3
_geom_torsion_atom_site_label_4
_geom_torsion
C5 O2 C1 O1 178.34(10)
C5 O2 C1 C2 0.53(16)
O1 C1 C2 C3 -176.04(12)
O2 C1 C2 C3 1.49(17)
O1 C1 C2 C6 2.65(19)
O2 C1 C2 C6 -179.83(10)
C1 C2 C3 C4 -1.37(17)
C6 C2 C3 C4 -179.96(11)
C1 C2 C3 C9 -179.64(11)
C6 C2 C3 C9 1.77(18)
C2 C3 C4 C5 -0.78(18)
C9 C3 C4 C5 177.58(11)
C3 C4 C5 O2 2.82(18)
C3 C4 C5 C15 -174.60(12)
C1 O2 C5 C4 -2.73(18)
C1 O2 C5 C15 175.04(10)
C7 O4 C6 O3 11.18(17)
C7 O4 C6 C2 -168.59(10)
C3 C2 C6 O3 -136.62(14)
C1 C2 C6 O3 44.74(17)
C3 C2 C6 O4 43.15(16)
C1 C2 C6 O4 -135.49(11)
C6 O4 C7 C8 164.84(11)
C2 C3 C9 C14 -124.59(13)
C4 C3 C9 C14 57.12(16)
C2 C3 C9 C10 56.48(17)
C4 C3 C9 C10 -121.81(13)
C14 C9 C10 C11 -0.23(19)
C3 C9 C10 C11 178.70(11)
C9 C10 C11 C12 1.19(19)
C10 C11 C12 C13 -0.7(2)
C11 C12 C13 C14 -0.7(2)
C12 C13 C14 C9 1.7(2)
C10 C9 C14 C13 -1.19(19)
C3 C9 C14 C13 179.86(11)
C4 C5 C15 C16 -129.42(14)
O2 C5 C15 C16 52.98(15)
