#------------------------------------------------------------------------------
#$Date: 2016-02-16 03:10:39 +0200 (Tue, 16 Feb 2016) $
#$Revision: 176453 $
#$URL: svn://www.crystallography.net/cod/cif/7/11/18/7111803.cif $
#------------------------------------------------------------------------------
#
# This file is available in the Crystallography Open Database (COD),
# http://www.crystallography.net/
#
# All data on this site have been placed in the public domain by the
# contributors.
#
data_7111803
loop_
_publ_author_name
'Ritesh Dubey'
'Gautam R. Desiraju'
_publ_section_title
;
 Structural landscape of the 1 : 1 benzoic acid : isonicotinamide
 cocrystal
;
_journal_name_full               Chem.Commun.
_journal_page_first              1181
_journal_paper_doi               10.1039/c3cc47955b
_journal_volume                  50
_journal_year                    2014
_chemical_formula_moiety         'C6 H6 N2 O, C7 H3 F3 O2'
_chemical_formula_sum            'C13 H9 F3 N2 O3'
_chemical_formula_weight         298.22
_chemical_name_systematic
;
 ?
;
_space_group_crystal_system      triclinic
_space_group_IT_number           2
_space_group_name_Hall           '-P 1'
_space_group_name_H-M_alt        'P -1'
_symmetry_space_group_name_Hall  '-P 1'
_symmetry_space_group_name_H-M   'P -1'
_atom_sites_solution_hydrogens   difmap
_audit_creation_date             2013-09-18
_audit_creation_method
;
  Olex2 1.2
  (compiled Apr 23 2013 17:54:37, GUI svn.r4466)
;
_cell_angle_alpha                89.962(6)
_cell_angle_beta                 81.279(7)
_cell_angle_gamma                66.888(8)
_cell_formula_units_Z            2
_cell_length_a                   6.8789(12)
_cell_length_b                   7.2488(13)
_cell_length_c                   13.638(3)
_cell_measurement_reflns_used    5444
_cell_measurement_temperature    150
_cell_measurement_theta_max      27.7
_cell_measurement_theta_min      3.0
_cell_volume                     616.9(2)
_computing_cell_refinement
;
CrystalClear-SM Expert 2.0 r4 (Rigaku, 2009)
;
_computing_data_collection
;
CrystalClear-SM Expert 2.0 r4 (Rigaku, 2009)
;
_computing_data_reduction
;
CrystalClear-SM Expert 2.0 r4 (Rigaku, 2009)
;
_computing_molecular_graphics
;
O. V. Dolomanov, L. J. Bourhis, R. J. Gildea, J. A. K. Howard and H. Puschmann,
OLEX2: a complete structure solution, refinement and analysis program.
J. Appl. Cryst. (2009). 42, 339-341.
;
_computing_publication_material
;
O. V. Dolomanov, L. J. Bourhis, R. J. Gildea, J. A. K. Howard and H. Puschmann,
OLEX2: a complete structure solution, refinement and analysis program.
J. Appl. Cryst. (2009). 42, 339-341.
;
_computing_structure_refinement
;
SHELXL, G.M. Sheldrick, Acta Cryst.
(2008). A64, 112-122
;
_diffrn_ambient_temperature      150
_diffrn_detector                 CCD
_diffrn_detector_area_resol_mean 13.6612
_diffrn_measured_fraction_theta_full 0.999
_diffrn_measured_fraction_theta_max 0.999
_diffrn_measurement_details
;
scan:
    Number of images: 180
               Slice: -60.0000 - 120.0000
         Image width: 1.0000
            Exp time: 16.0000
       Rotation axis: Omega
               Omega: 0.0000
                 Chi: 54.0000
                 Phi: 0.0000
                 XTD: 49.4000
              2theta: 29.6000
scan:
    Number of images: 180
               Slice: -60.0000 - 120.0000
         Image width: 1.0000
            Exp time: 16.0000
       Rotation axis: Omega
               Omega: 0.0000
                 Chi: 54.0000
                 Phi: 120.0000
                 XTD: 49.4000
              2theta: 29.6000
scan:
    Number of images: 180
               Slice: -60.0000 - 120.0000
         Image width: 1.0000
            Exp time: 16.0000
       Rotation axis: Omega
               Omega: 0.0000
                 Chi: 54.0000
                 Phi: 240.0000
                 XTD: 49.4000
              2theta: 29.6000
;
_diffrn_measurement_device
;
XtaLABmini: Fixed Chi 2 circle
;
_diffrn_measurement_device_type
;
Rigaku Mercury375R (2x2 bin mode)
;
_diffrn_measurement_method       'profile data from \w-scans'
_diffrn_measurement_specimen_support Fiber
_diffrn_orient_matrix_type       FS_PROCESS
_diffrn_orient_matrix_UB_11      -0.138147
_diffrn_orient_matrix_UB_12      0.025189
_diffrn_orient_matrix_UB_13      -0.023877
_diffrn_orient_matrix_UB_21      0.012553
_diffrn_orient_matrix_UB_22      0.114734
_diffrn_orient_matrix_UB_23      -0.037269
_diffrn_orient_matrix_UB_31      0.080222
_diffrn_orient_matrix_UB_32      -0.093778
_diffrn_orient_matrix_UB_33      -0.059723
_diffrn_radiation_monochromator  'Graphite Monochromator'
_diffrn_radiation_type           'Mo K\a'
_diffrn_radiation_wavelength     0.71075
_diffrn_reflns_av_R_equivalents  0.0364
_diffrn_reflns_av_unetI/netI     0.0422
_diffrn_reflns_Laue_measured_fraction_full 0.999
_diffrn_reflns_Laue_measured_fraction_max 0.999
_diffrn_reflns_limit_h_max       8
_diffrn_reflns_limit_h_min       -8
_diffrn_reflns_limit_k_max       9
_diffrn_reflns_limit_k_min       -9
_diffrn_reflns_limit_l_max       17
_diffrn_reflns_limit_l_min       -17
_diffrn_reflns_number            6576
_diffrn_reflns_point_group_measured_fraction_full 0.999
_diffrn_reflns_point_group_measured_fraction_max 0.999
_diffrn_reflns_theta_full        25.242
_diffrn_reflns_theta_max         27.469
_diffrn_reflns_theta_min         3.029
_diffrn_source                   'Sealed Tube'
_diffrn_source_current           12.0
_diffrn_source_power             0.6
_diffrn_source_voltage           50.0
_exptl_absorpt_coefficient_mu    0.145
_exptl_absorpt_correction_T_max  1.000
_exptl_absorpt_correction_T_min  0.823
_exptl_absorpt_correction_type   multi-scan
_exptl_absorpt_process_details   'Jacobson, R. (1998) Private communication'
_exptl_crystal_colour            Colorless
_exptl_crystal_density_diffrn    1.605
_exptl_crystal_density_method    'not measured'
_exptl_crystal_description       Prism
_exptl_crystal_F_000             304
_exptl_crystal_size_max          0.3
_exptl_crystal_size_mid          0.2
_exptl_crystal_size_min          0.12
_refine_diff_density_max         0.344
_refine_diff_density_min         -0.281
_refine_diff_density_rms         0.059
_refine_ls_extinction_method     none
_refine_ls_goodness_of_fit_ref   1.072
_refine_ls_hydrogen_treatment    refall
_refine_ls_matrix_type           full
_refine_ls_number_parameters     226
_refine_ls_number_reflns         2820
_refine_ls_number_restraints     0
_refine_ls_restrained_S_all      1.072
_refine_ls_R_factor_all          0.0730
_refine_ls_R_factor_gt           0.0488
_refine_ls_shift/su_max          0.001
_refine_ls_shift/su_mean         0.000
_refine_ls_structure_factor_coef Fsqd
_refine_ls_weighting_details
;
 w=1/[\s^2^(Fo^2^)+(0.0516P)^2^+0.3204P]
 where P=(Fo^2^+2Fc^2^)/3
;
_refine_ls_weighting_scheme      calc
_refine_ls_wR_factor_gt          0.1155
_refine_ls_wR_factor_ref         0.1294
_reflns_Friedel_coverage         0.000
_reflns_number_gt                2053
_reflns_number_total             2820
_reflns_threshold_expression     'I > 2\s(I)'
_cod_data_source_file            c3cc47955b.txt
_cod_data_source_block           datam
_cod_original_cell_volume        616.95(19)
_cod_original_formula_sum        'C13 H9 F3 N2 O3 '
_cod_database_code               7111803
#BEGIN Tags that were not found in dictionaries:
_olex2_refinement_description
;
;
_shelx_estimated_absorpt_t_max   0.983
_shelx_estimated_absorpt_t_min   0.958
_shelx_hkl_checksum              76774
_shelx_hkl_file
;
   0   0   2    0.72    0.03
   0   0  -2    0.57    0.02
   0   0   3    9.50    0.15
   0   0   3    9.36    0.17
   0   0  -3    9.15    0.13
   0   0   4    0.57    0.06
   0   0   4    0.61    0.06
   0   0  -4    0.60    0.04
   0   0   5   19.71    0.38
   0   0   5   19.35    0.36
   0   0  -5   20.00    0.31
   0   0   6    1.01    0.08
   0   0   6    1.36    0.09
   0   0  -6    1.08    0.06
   0   0   7    9.67    0.27
   0   0   7    9.03    0.27
   0   0  -7    9.04    0.20
   0   0   8   13.56    0.38
   0   0   8   14.48    0.41
   0   0  -8   12.98    0.32
   0   0   9    1.77    0.14
   0   0   9    1.73    0.14
   0   0  -9    1.63    0.11
   0   0  10    1.38    0.15
   0   0  10    1.47    0.17
   0   0 -10    1.33    0.09
   0   0  11    6.20    0.30
   0   0  11    6.35    0.29
   0   0 -11    6.17    0.24
   0   0  12    1.46    0.18
   0   0  12    1.75    0.16
   0   0 -12    1.38    0.13
   0   0  13    1.30    0.17
   0   0 -13    0.66    0.11
   0   0  14    4.09    0.31
   0   0 -14    3.75    0.22
   0   0 -14    4.04    0.33
   0   0  15    0.25    0.14
   0   0 -15    0.09    0.10
   0   0 -15    0.33    0.13
   0   0  16    1.09    0.22
   0   0 -16    0.68    0.18
   0   0  17    1.28    0.29
   0   0 -17    1.57    0.23
   0   1 -17   -0.02    0.13
   0   1 -16    0.01    0.09
   0  -1  16    0.12    0.12
   0   1 -15    0.11    0.07
   0  -1  15   -0.07    0.11
   0   1 -14    0.54    0.11
   0  -1  14    0.40    0.11
   0  -1  14    0.54    0.15
   0   1 -13    0.23    0.09
   0  -1  13    0.37    0.12
   0  -1  13    0.33    0.13
   0   1 -12    0.92    0.12
   0  -1  12    1.18    0.16
   0  -1  12    1.03    0.15
   0   1 -11    0.05    0.07
   0  -1  11    0.09    0.07
   0  -1  11    0.16    0.09
   0   1 -10    0.17    0.06
   0  -1  10    0.17    0.08
   0  -1  10    0.30    0.09
   0   1  -9    1.45    0.11
   0  -1   9    1.24    0.17
   0  -1   9    1.51    0.11
   0   1  -8    8.37    0.23
   0  -1   8    8.07    0.29
   0  -1   8    8.30    0.24
   0   1  -7   69.99    1.15
   0  -1   7   67.39    1.13
   0  -1   7   69.36    1.33
   0   1  -6    5.35    0.15
   0  -1   6    5.73    0.15
   0  -1   6    6.44    0.21
   0   1  -5    7.61    0.16
   0  -1   5    7.42    0.16
   0  -1   5    7.86    0.22
   0   1  -4   47.28    0.63
   0  -1   4   47.17    0.70
   0  -1   4   47.14    0.58
   0   1  -3    0.13    0.03
   0  -1   3    0.36    0.04
   0  -1   2    0.19    0.02
   0  -1   2    0.19    0.02
   0  -1   1    4.16    0.06
   0  -1   1    3.01    0.06
   0  -1   0    0.00    0.01
   0  -1   0    0.01    0.01
   0   1   1    1.51    0.05
   0   1   1    1.39    0.02
   0  -1  -1    1.18    0.04
   0  -1  -1    1.30    0.02
   0   1   2    2.16    0.08
   0  -1  -2    2.20    0.05
   0  -1  -2    2.12    0.04
   0   1   3  461.55    5.71
   0  -1  -3  460.39    4.24
   0  -1  -3  461.23    4.72
   0   1   4   20.76    0.41
   0  -1  -4   20.29    0.30
   0  -1  -4   20.32    0.32
   0   1   5   18.18    0.41
   0  -1  -5   17.94    0.32
   0  -1  -5   17.87    0.33
   0   1   6    1.33    0.11
   0  -1  -6    1.26    0.08
   0  -1  -6    1.38    0.08
   0  -1  -7    0.52    0.07
   0  -1  -7    0.69    0.08
   0   1   8   29.66    0.75
   0  -1  -8   29.84    0.63
   0  -1  -8   30.90    0.68
   0   1   9    0.88    0.14
   0  -1  -9    1.15    0.12
   0  -1  -9    1.11    0.10
   0   1  10    1.07    0.17
   0  -1 -10    0.83    0.11
   0  -1 -10    1.06    0.13
   0   1  11    2.27    0.20
   0  -1 -11    1.83    0.14
   0  -1 -11    1.80    0.18
   0   1  12    0.05    0.14
   0  -1 -12    0.14    0.09
   0  -1 -12    0.34    0.11
   0   1  13   -0.13    0.12
   0  -1 -13    0.07    0.08
   0  -1 -13    0.11    0.08
   0   1  14    2.20    0.22
   0  -1 -14    2.01    0.23
   0  -1 -14    1.73    0.17
   0   1  15    0.12    0.14
   0  -1 -15   -0.03    0.11
   0   1  16    0.99    0.21
   0  -1 -16    1.29    0.23
   0   1  17    0.63    0.18
   0  -1 -17    0.35    0.18
   0  -2  17   -0.05    0.17
   0  -2  16    0.42    0.23
   0   2 -15   -0.05    0.07
   0  -2  15    0.04    0.11
   0  -2  15    0.14    0.09
   0   2 -14   -0.07    0.07
   0  -2  14    0.14    0.12
   0  -2  14    0.13    0.08
   0   2 -13    1.00    0.13
   0  -2  13    0.80    0.12
   0  -2  13    0.85    0.17
   0   2 -12   17.04    0.54
   0  -2  12   18.46    0.55
   0  -2  12   18.37    0.71
   0   2 -11   23.63    0.61
   0  -2  11   25.90    0.66
   0  -2  11   25.26    0.81
   0   2 -10    5.37    0.22
   0  -2  10    5.55    0.30
   0  -2  10    5.69    0.21
   0   2  -9    0.00    0.05
   0  -2   9   -0.13    0.08
   0  -2   9    0.06    0.05
   0   2  -8   21.74    0.51
   0  -2   8   21.27    0.45
   0  -2   8   21.19    0.58
   0   2  -7    1.06    0.09
   0  -2   7    1.09    0.10
   0  -2   7    1.24    0.07
   0   2  -6    7.48    0.20
   0  -2   6    7.15    0.24
   0  -2   6    7.34    0.17
   0   2  -5    1.61    0.09
   0  -2   5    1.77    0.07
   0   2  -4   17.03    0.35
   0  -2   4   17.19    0.27
   0  -2   4   17.23    0.36
   0  -2   3   14.55    0.21
   0  -2   3   14.90    0.29
   0  -2   3   15.15    0.29
   0   2  -2    2.07    0.06
   0  -2   2    1.96    0.08
   0   2  -1   34.03    0.50
   0  -2   1   34.13    0.43
   0  -2   1   33.79    0.51
   0   2   0   30.50    0.49
   0  -2   0   29.63    0.34
   0  -2   0   31.15    0.49
   0   2   1   10.37    0.24
   0  -2  -1   10.02    0.21
   0   2   2  112.58    1.74
   0  -2  -2  110.01    1.06
   0  -2  -2  111.69    1.54
   0   2   3    0.31    0.07
   0  -2  -3    0.45    0.03
   0  -2  -3    0.46    0.05
   0   2   4    0.68    0.08
   0  -2  -4    0.59    0.06
   0   2   5    7.28    0.24
   0  -2  -5    6.73    0.19
   0  -2  -5    7.09    0.16
   0   2   6    0.65    0.12
   0  -2  -6    1.07    0.08
   0  -2  -6    0.95    0.06
   0   2   7    0.20    0.09
   0  -2  -7    0.23    0.05
   0  -2  -7    0.23    0.05
   0   2   8    2.84    0.20
   0  -2  -8    3.06    0.15
   0  -2  -8    2.99    0.14
   0   2   9    0.18    0.11
   0  -2  -9    0.12    0.06
   0  -2  -9    0.16    0.06
   0   2  10   12.69    0.48
   0  -2 -10   12.30    0.40
   0  -2 -10   12.44    0.41
   0   2  11    5.96    0.34
   0  -2 -11    5.26    0.25
   0  -2 -11    5.74    0.27
   0   2  12    0.82    0.18
   0  -2 -12    0.74    0.12
   0  -2 -12    0.46    0.12
   0   2  13    1.65    0.23
   0  -2 -13    1.63    0.16
   0  -2 -13    1.79    0.17
   0   2  14    0.50    0.24
   0  -2 -14    0.66    0.16
   0  -2 -14    0.82    0.14
   0   2  15    0.99    0.21
   0  -2 -15    0.89    0.19
   0   2  16   -0.01    0.18
   0  -2 -16   -0.12    0.11
   0  -3  16    0.28    0.21
   0   3 -15    2.59    0.23
   0  -3  15    3.71    0.38
   0   3 -14    0.16    0.10
   0  -3  14   -0.03    0.12
   0   3 -13    0.62    0.13
   0  -3  13    0.78    0.11
   0  -3  13    0.82    0.18
   0   3 -12    2.38    0.16
   0  -3  12    2.76    0.29
   0  -3  12    2.29    0.16
   0   3 -11    0.01    0.07
   0  -3  11   -0.07    0.06
   0  -3  11   -0.06    0.10
   0   3 -10    8.66    0.34
   0  -3  10    7.63    0.38
   0  -3  10    8.32    0.26
   0   3  -9   33.99    0.83
   0  -3   9   32.58    0.68
   0  -3   9   32.77    0.92
   0   3  -8    5.91    0.24
   0  -3   8    5.87    0.28
   0  -3   8    5.39    0.17
   0   3  -7   -0.01    0.06
   0  -3   7    0.03    0.03
   0   3  -6   17.20    0.44
   0  -3   6   17.73    0.36
   0  -3   6   16.39    0.45
   0   3  -5    0.06    0.05
   0  -3   5    0.07    0.04
   0  -3   5    0.05    0.06
   0  -3   4   -0.02    0.05
   0  -3   4   -0.09    0.05
   0  -3   4    0.06    0.04
   0   3  -3    0.45    0.05
   0  -3   3    0.49    0.07
   0  -3   3    0.50    0.06
   0   3  -2   10.92    0.25
   0  -3   2   11.14    0.23
   0  -3   2   11.95    0.29
   0   3  -1    9.76    0.24
   0  -3   1    9.89    0.20
   0  -3   1    9.50    0.23
   0   3   0   17.79    0.40
   0  -3   0   17.52    0.29
   0  -3   0   17.58    0.39
   0   3   1   28.74    0.62
   0  -3  -1   28.63    0.39
   0  -3  -1   29.07    0.59
   0   3   2    9.60    0.29
   0  -3  -2    9.36    0.24
   0  -3  -2    9.10    0.15
   0   3   3    2.45    0.13
   0  -3  -3    2.02    0.06
   0  -3  -3    2.00    0.10
   0   3   4   -0.09    0.07
   0  -3  -4    0.01    0.04
   0   3   5    5.39    0.28
   0  -3  -5    5.58    0.20
   0  -3  -5    5.64    0.14
   0   3   6    7.76    0.33
   0  -3  -6    8.35    0.26
   0  -3  -6    7.91    0.19
   0   3   7    2.25    0.19
   0  -3  -7    2.22    0.15
   0  -3  -7    1.94    0.09
   0   3   8    2.11    0.21
   0  -3  -8    2.04    0.13
   0  -3  -8    2.39    0.12
   0   3   9    4.13    0.29
   0  -3  -9    4.58    0.18
   0  -3  -9    4.62    0.23
   0   3  10    0.05    0.12
   0  -3 -10    0.21    0.07
   0  -3 -10    0.13    0.08
   0   3  11    0.82    0.15
   0  -3 -11    0.37    0.12
   0  -3 -11    0.32    0.09
   0   3  12    0.29    0.16
   0  -3 -12    0.24    0.10
   0  -3 -12    0.04    0.09
   0   3  13    0.65    0.17
   0  -3 -13    0.54    0.13
   0  -3 -13    0.36    0.13
   0   3  14    0.90    0.19
   0  -3 -14    0.57    0.15
   0  -3 -14    0.35    0.15
   0   3  15   -0.06    0.19
   0  -4  16    0.22    0.20
   0   4 -15    0.28    0.12
   0  -4  15    0.38    0.22
   0   4 -14    0.06    0.11
   0  -4  14   -0.29    0.16
   0   4 -13    0.72    0.14
   0  -4  13    1.12    0.20
   0   4 -12    0.59    0.12
   0  -4  12    0.50    0.17
   0   4 -11    0.00    0.09
   0  -4  11   -0.07    0.13
   0   4 -10   11.60    0.45
   0  -4  10    9.86    0.31
   0  -4  10   10.59    0.47
   0   4  -9   35.81    0.99
   0  -4   9   34.79    1.06
   0  -4   9   34.14    0.78
   0   4  -8    0.58    0.12
   0  -4   8    0.68    0.12
   0  -4   8    0.61    0.07
   0   4  -7    0.28    0.10
   0  -4   7    0.26    0.05
   0  -4   7    0.11    0.09
   0   4  -6    0.00    0.06
   0  -4   6   -0.03    0.06
   0   4  -5    2.00    0.10
   0  -4   5    2.31    0.16
   0  -4   5    2.14    0.15
   0   4  -4    5.25    0.18
   0  -4   4    5.58    0.20
   0  -4   4    5.90    0.23
   0   4  -3   16.11    0.40
   0  -4   3   16.51    0.37
   0  -4   3   16.60    0.45
   0   4  -2    2.71    0.14
   0  -4   2    2.83    0.15
   0  -4   2    2.32    0.12
   0   4  -1   52.36    1.09
   0  -4   1   50.93    1.09
   0  -4   1   49.49    0.82
   0   4   0    1.96    0.15
   0  -4   0    2.45    0.13
   0  -4   0    1.94    0.08
   0   4   1    0.07    0.07
   0  -4  -1    0.09    0.05
   0  -4  -1    0.06    0.03
   0   4   2    1.90    0.14
   0  -4  -2    1.48    0.12
   0  -4  -2    1.51    0.07
   0   4   3    1.46    0.13
   0  -4  -3    1.24    0.11
   0   4   4    2.96    0.20
   0  -4  -4    2.57    0.09
   0  -4  -4    3.27    0.16
   0   4   5    0.52    0.11
   0  -4  -5    0.25    0.08
   0  -4  -5    0.26    0.05
   0   4   6    0.19    0.10
   0  -4  -6    0.13    0.07
   0  -4  -6    0.09    0.04
   0   4   7    0.19    0.12
   0  -4  -7    0.22    0.06
   0  -4  -7    0.31    0.08
   0   4   8   -0.16    0.11
   0  -4  -8   -0.04    0.09
   0   4   9    0.06    0.12
   0  -4  -9    0.02    0.07
   0  -4  -9    0.10    0.06
   0   4  10    1.03    0.20
   0  -4 -10    1.58    0.16
   0  -4 -10    1.02    0.11
   0   4  11    0.66    0.22
   0  -4 -11    0.44    0.10
   0  -4 -11    0.63    0.11
   0   4  12    2.00    0.28
   0  -4 -12    2.62    0.22
   0   4  13    1.79    0.26
   0  -4 -13    1.35    0.17
   0   4  14    0.24    0.22
   0   5 -14    1.84    0.25
   0  -5  14    1.73    0.31
   0   5 -13    0.42    0.14
   0  -5  13    0.50    0.18
   0   5 -12    0.07    0.14
   0  -5  12    0.36    0.15
   0   5 -11    0.18    0.12
   0  -5  11    0.46    0.15
   0   5 -10    2.53    0.25
   0  -5  10    2.63    0.29
   0   5  -9    9.02    0.39
   0  -5   9    8.44    0.39
   0   5  -8    5.82    0.24
   0   5  -8    7.17    0.34
   0  -5   8    6.14    0.34
   0   5  -7   20.03    0.66
   0   5  -7   18.43    0.52
   0  -5   7   19.07    0.60
   0   5  -6    7.94    0.38
   0   5  -6    7.42    0.27
   0  -5   6    7.97    0.31
   0   5  -5    1.97    0.13
   0  -5   5    1.57    0.16
   0  -5   5    1.51    0.16
   0   5  -4    1.88    0.14
   0  -5   4    1.59    0.19
   0  -5   4    1.71    0.12
   0   5  -3    0.55    0.10
   0  -5   3    0.36    0.08
   0  -5   3    0.26    0.10
   0   5  -2    3.74    0.20
   0  -5   2    3.38    0.21
   0  -5   2    3.21    0.14
   0   5  -1    3.72    0.22
   0  -5   1    3.60    0.14
   0  -5   1    3.79    0.20
   0   5   0    0.13    0.08
   0  -5   0    0.02    0.07
   0  -5   0    0.00    0.04
   0   5   1    0.81    0.15
   0  -5  -1    0.55    0.06
   0  -5  -1    0.83    0.11
   0   5   2    7.98    0.35
   0  -5  -2    7.87    0.31
   0  -5  -2    7.73    0.20
   0   5   3    4.43    0.25
   0  -5  -3    3.80    0.20
   0  -5  -3    3.33    0.12
   0   5   4    0.15    0.13
   0  -5  -4    0.07    0.04
   0  -5  -4    0.02    0.10
   0   5   5    3.27    0.30
   0  -5  -5    3.53    0.21
   0   5   6    2.40    0.29
   0  -5  -6    2.18    0.18
   0   5   7    0.29    0.19
   0  -5  -7    0.62    0.14
   0   5   8    0.63    0.15
   0  -5  -8    0.06    0.10
   0   5   9    0.74    0.19
   0  -5  -9    0.71    0.13
   0   5  10   -0.23    0.17
   0  -5 -10   -0.04    0.09
   0   5  11    0.16    0.14
   0  -5 -11   -0.06    0.11
   0   5  12   -0.20    0.16
   0  -5 -12   -0.09    0.13
   0   5  13    0.38    0.24
   0  -5 -13    0.20    0.16
   0   6 -13   -0.32    0.19
   0  -6  13   -0.11    0.20
   0   6 -12    0.88    0.20
   0  -6  12    1.46    0.22
   0   6 -11    1.66    0.21
   0  -6  11    1.36    0.23
   0   6 -10    0.17    0.13
   0  -6  10    0.28    0.14
   0   6  -9    1.11    0.21
   0  -6   9    1.29    0.21
   0   6  -8    0.04    0.14
   0  -6   8    0.22    0.12
   0   6  -7    1.94    0.24
   0  -6   7    1.58    0.16
   0   6  -6    7.39    0.34
   0   6  -6    8.47    0.39
   0  -6   6    8.08    0.37
   0   6  -5   14.94    0.51
   0  -6   5   14.85    0.52
   0  -6   5   14.66    0.58
   0   6  -4    2.19    0.18
   0  -6   4    2.57    0.21
   0  -6   4    1.87    0.17
   0   6  -3    0.96    0.15
   0  -6   3    1.02    0.14
   0  -6   3    0.92    0.12
   0   6  -2    0.07    0.10
   0  -6   2    0.11    0.10
   0  -6   2    0.05    0.07
   0   6  -1    3.60    0.25
   0  -6   1    3.17    0.23
   0  -6   1    2.75    0.15
   0   6   0    0.73    0.15
   0  -6   0    0.41    0.08
   0  -6   0    0.49    0.11
   0   6   1   12.61    0.52
   0  -6  -1   12.16    0.47
   0  -6  -1   10.80    0.29
   0   6   2    0.05    0.11
   0  -6  -2    0.03    0.10
   0   6   3   -0.01    0.09
   0  -6  -3   -0.01    0.08
   0   6   4    1.60    0.21
   0  -6  -4    1.79    0.18
   0   6   5    0.21    0.12
   0  -6  -5    0.10    0.10
   0   6   6    0.47    0.20
   0  -6  -6    0.68    0.13
   0   6   7    0.00    0.11
   0  -6  -7   -0.01    0.09
   0   6   8    0.02    0.17
   0  -6  -8   -0.13    0.12
   0   6   9    0.80    0.22
   0  -6  -9    0.74    0.19
   0   6  10    0.24    0.18
   0  -6 -10   -0.08    0.12
   0   6  11    0.08    0.19
   0  -6 -11    0.30    0.17
   0   7 -11    1.35    0.24
   0  -7  11    1.46    0.27
   0   7 -10    0.41    0.18
   0  -7  10    0.13    0.18
   0   7  -9    0.16    0.16
   0  -7   9    0.20    0.16
   0   7  -8    0.12    0.12
   0  -7   8    0.02    0.13
   0   7  -7    0.08    0.14
   0  -7   7    0.02    0.11
   0   7  -6    1.22    0.19
   0  -7   6    1.03    0.17
   0  -7   5    0.01    0.15
   0  -7   5   -0.12    0.08
   0   7  -4    1.03    0.18
   0  -7   4    1.50    0.20
   0  -7   4    1.45    0.14
   0   7  -3    8.94    0.46
   0  -7   3    9.04    0.48
   0  -7   3    8.77    0.36
   0   7  -2    4.54    0.33
   0  -7   2    4.45    0.32
   0  -7   2    4.32    0.23
   0   7  -1   -0.12    0.11
   0  -7   1    0.09    0.09
   0   7   0    1.22    0.20
   0  -7   0    1.04    0.22
   0   7   1    0.11    0.12
   0  -7  -1    0.22    0.12
   0   7   2    0.12    0.15
   0  -7  -2    0.05    0.13
   0   7   3    0.00    0.10
   0  -7  -3    0.01    0.11
   0   7   4    3.13    0.35
   0  -7  -4    3.20    0.31
   0   7   5    2.07    0.31
   0  -7  -5    2.00    0.24
   0   7   6    0.29    0.17
   0  -7  -6    0.16    0.17
   0   7   7    0.51    0.19
   0  -7  -7   -0.01    0.12
   0   7   8    1.08    0.25
   0  -7  -8    0.89    0.19
   0   7   9    2.21    0.34
   0  -7  -9    1.85    0.30
   0   8  -7    0.39    0.19
   0  -8   7    0.38    0.17
   0   8  -6   -0.02    0.13
   0  -8   5   -0.03    0.13
   0  -8   4   -0.14    0.15
   0  -8   3    2.31    0.26
   0   8  -2    0.47    0.19
   0  -8   2    0.89    0.23
   0   8  -1   -0.04    0.13
   0  -8   1    0.34    0.13
   0   8   0    0.23    0.15
   0  -8   0    0.38    0.17
   0   8   1    1.05    0.22
   0  -8  -1    1.35    0.28
   0   8   2    0.15    0.13
   0  -8  -2   -0.10    0.16
   0   8   3    0.42    0.17
   0  -8  -3    0.19    0.16
   0   8   4    0.12    0.16
   0  -8  -4    0.35    0.16
   0   8   5    0.09    0.16
   0  -8  -5    0.15    0.17
   1  -8  -2   -0.05    0.15
  -1   8   2   -0.13    0.14
   1  -8  -1   -0.08    0.15
   1  -8   0    0.17    0.16
   1  -8   1    0.19    0.17
   1  -8   2    1.22    0.23
   1  -8   3    0.73    0.23
  -1   8  -4    0.40    0.19
   1  -7  -7   -0.12    0.14
  -1   7   7    0.37    0.18
   1  -7  -6    0.11    0.15
  -1   7   6    0.21    0.19
   1  -7  -5    1.39    0.22
  -1   7   5    0.63    0.26
   1  -7  -4    0.54    0.18
  -1   7   4    0.62    0.22
   1  -7  -3   -0.04    0.13
  -1   7   3    0.21    0.13
   1  -7  -2    1.81    0.22
  -1   7   2    0.93    0.20
   1  -7  -1    0.39    0.16
  -1   7   1    0.47    0.17
   1  -7   0    0.26    0.15
  -1   7   0    0.36    0.15
   1  -7   1    0.23    0.16
   1  -7   1   -0.02    0.08
  -1   7  -1    0.17    0.10
   1  -7   2    0.12    0.13
   1  -7   2    0.22    0.10
  -1   7  -2   -0.08    0.11
   1  -7   3    1.94    0.28
   1  -7   3    1.68    0.19
   1  -7   4    1.65    0.17
   1  -7   4    1.94    0.23
   1  -7   5    1.81    0.20
  -1   7  -5    1.18    0.22
   1  -7   6    0.57    0.14
  -1   7  -6    0.53    0.18
   1  -7   7    1.59    0.24
  -1   7  -7    1.69    0.24
   1  -7   8   -0.12    0.11
  -1   7  -8    0.08    0.12
   1  -7   9    0.09    0.12
  -1   7  -9   -0.08    0.15
   1  -7  10    1.00    0.26
  -1   7 -10    1.43    0.24
   1  -6 -10    0.27    0.17
  -1   6  10    0.67    0.26
   1  -6  -9    0.86    0.21
  -1   6   9    1.23    0.29
   1  -6  -8    0.03    0.11
  -1   6   8   -0.06    0.14
   1  -6  -7    0.91    0.19
  -1   6   7    0.71    0.20
   1  -6  -6    0.17    0.11
  -1   6   6    0.11    0.14
   1  -6  -5    0.32    0.14
  -1   6   5    0.28    0.14
   1  -6  -4    0.29    0.12
  -1   6   4    0.14    0.14
   1  -6  -3    0.42    0.13
  -1   6   3    0.68    0.15
   1  -6  -2    1.28    0.21
   1  -6  -2    0.96    0.11
  -1   6   2    0.89    0.16
   1  -6  -1    0.78    0.15
   1  -6  -1    0.54    0.10
  -1   6   1    0.68    0.16
   1  -6   0    0.90    0.17
   1  -6   0    0.65    0.11
  -1   6   0    1.19    0.16
   1  -6   1    0.12    0.10
   1  -6   1    0.65    0.12
  -1   6  -1    0.29    0.12
   1  -6   2    0.01    0.06
   1  -6   2    0.01    0.09
  -1   6  -2   -0.08    0.08
   1  -6   3    0.01    0.09
   1  -6   3    0.34    0.11
  -1   6  -3    0.10    0.09
   1  -6   4    1.60    0.20
   1  -6   4    1.37    0.17
  -1   6  -4    1.36    0.14
   1  -6   5    0.74    0.16
  -1   6  -5    1.09    0.19
   1  -6   6   -0.03    0.10
  -1   6  -6    0.09    0.10
   1  -6   7    0.37    0.14
  -1   6  -7    0.29    0.17
   1  -6   8    0.41    0.18
  -1   6  -8    0.72    0.15
   1  -6   9    0.84    0.17
  -1   6  -9    0.93    0.22
   1  -6  10    1.44    0.24
  -1   6 -10    1.39    0.22
   1  -6  11   -0.20    0.14
  -1   6 -11   -0.23    0.18
   1  -6  12    6.77    0.55
  -1   6 -12    7.61    0.49
  -1   5  12    2.31    0.33
   1  -5 -11    0.05    0.12
  -1   5  11    0.13    0.15
   1  -5 -10    0.92    0.18
  -1   5  10    1.33    0.24
   1  -5  -9    1.67    0.20
  -1   5   9    1.50    0.30
   1  -5  -8    0.03    0.09
  -1   5   8   -0.05    0.11
   1  -5  -7    6.36    0.30
   1  -5  -7    6.87    0.36
  -1   5   7    7.87    0.44
   1  -5  -6    3.48    0.17
   1  -5  -6    3.75    0.23
  -1   5   6    4.04    0.31
   1  -5  -5    0.16    0.07
   1  -5  -5    0.19    0.09
  -1   5   5    0.22    0.15
   1  -5  -4    0.34    0.07
   1  -5  -4    0.71    0.11
  -1   5   4    0.68    0.13
   1  -5  -3    6.89    0.22
   1  -5  -3    6.45    0.32
  -1   5   3    7.03    0.34
   1  -5  -2    2.33    0.17
   1  -5  -2    2.43    0.13
  -1   5   2    2.47    0.23
   1  -5  -1    1.12    0.10
   1  -5  -1    1.35    0.15
  -1   5   1    1.23    0.14
   1  -5   0    0.46    0.09
   1  -5   0    0.39    0.12
  -1   5   0    0.84    0.13
   1  -5   1    0.01    0.06
   1  -5   1   -0.04    0.09
  -1   5  -1    0.09    0.07
   1  -5   2    2.39    0.19
   1  -5   2    2.70    0.16
  -1   5  -2    2.26    0.17
   1  -5   3    0.21    0.12
   1  -5   3    0.08    0.06
  -1   5  -3    0.10    0.07
   1  -5   4    3.46    0.18
   1  -5   4    3.04    0.23
  -1   5  -4    3.13    0.17
   1  -5   5   16.60    0.53
  -1   5  -5   16.48    0.58
  -1   5  -5   14.20    0.41
   1  -5   6    0.37    0.10
  -1   5  -6    0.39    0.11
   1  -5   7    0.09    0.10
  -1   5  -7   -0.20    0.11
   1  -5   8    5.40    0.33
  -1   5  -8    4.97    0.33
   1  -5   9    0.21    0.14
  -1   5  -9    0.09    0.13
   1  -5  10    0.09    0.13
  -1   5 -10    0.10    0.13
   1  -5  11    0.61    0.15
  -1   5 -11    0.41    0.15
   1  -5  12    0.16    0.13
  -1   5 -12    0.07    0.12
   1  -5  13    2.59    0.32
  -1   5 -13    2.82    0.27
   1  -5  14    0.22    0.18
  -1   5 -14    0.25    0.18
  -1   4  14    0.25    0.22
  -1   4  13    0.86    0.29
   1  -4 -12    0.10    0.11
  -1   4  12    0.33    0.16
   1  -4 -11    0.28    0.11
   1  -4 -11    0.20    0.10
  -1   4  11    0.23    0.15
   1  -4 -10    0.15    0.09
   1  -4 -10    0.22    0.10
  -1   4  10    0.20    0.14
   1  -4  -9    1.02    0.12
   1  -4  -9    1.29    0.15
  -1   4   9    1.03    0.25
   1  -4  -8    0.06    0.09
   1  -4  -8    0.14    0.08
  -1   4   8    0.17    0.12
   1  -4  -7    1.34    0.13
   1  -4  -7    1.53    0.11
  -1   4   7    1.58    0.20
   1  -4  -6    1.39    0.13
   1  -4  -6    1.43    0.11
  -1   4   6    1.82    0.24
   1  -4  -5    0.18    0.06
   1  -4  -5    0.25    0.07
  -1   4   5   -0.06    0.11
   1  -4  -4    3.62    0.15
   1  -4  -4    3.22    0.18
  -1   4   4    3.51    0.27
   1  -4  -3    0.51    0.09
   1  -4  -3    0.37    0.07
  -1   4   3    0.71    0.11
   1  -4  -2   11.01    0.34
   1  -4  -2   10.46    0.26
  -1   4   2   10.56    0.36
   1  -4  -1    0.53    0.07
   1  -4  -1    0.35    0.08
  -1   4   1    0.50    0.11
   1  -4   0   -0.05    0.05
   1  -4   0   -0.11    0.08
  -1   4   0    0.04    0.07
   1  -4   1   37.32    0.76
   1  -4   1   37.72    0.92
  -1   4  -1   36.68    0.84
   1  -4   2    0.41    0.07
   1  -4   2    0.89    0.10
  -1   4  -2    0.54    0.08
   1  -4   3   11.94    0.33
   1  -4   3   12.17    0.38
  -1   4  -3   11.16    0.30
   1  -4   4    4.19    0.19
  -1   4  -4    4.15    0.14
   1  -4   5    3.28    0.18
  -1   4  -5    2.75    0.18
  -1   4  -5    2.74    0.12
   1  -4   6    4.66    0.25
  -1   4  -6    4.51    0.23
   1  -4   7   25.64    0.73
  -1   4  -7   25.31    0.76
   1  -4   8   13.34    0.54
  -1   4  -8   13.75    0.48
   1  -4   9    1.71    0.17
  -1   4  -9    1.58    0.17
   1  -4  10    0.01    0.10
  -1   4 -10    0.17    0.09
   1  -4  11    0.19    0.11
  -1   4 -11    0.06    0.13
   1  -4  12    0.89    0.17
  -1   4 -12    0.46    0.17
   1  -4  13    0.76    0.24
  -1   4 -13    0.80    0.19
   1  -4  14    1.61    0.26
  -1   4 -14    1.24    0.23
   1  -4  15    0.01    0.18
  -1   4 -15    0.10    0.14
  -1   3  15    1.14    0.27
   1  -3 -14    0.74    0.14
  -1   3  14    1.09    0.24
   1  -3 -13    0.91    0.14
  -1   3  13    0.97    0.22
   1  -3 -12   -0.01    0.08
   1  -3 -12    0.19    0.10
  -1   3  12    0.21    0.18
   1  -3 -11    1.73    0.16
   1  -3 -11    2.00    0.17
  -1   3  11    1.78    0.25
   1  -3 -10    0.13    0.07
   1  -3 -10    0.02    0.06
  -1   3  10   -0.20    0.11
   1  -3  -9    0.03    0.07
   1  -3  -9    0.08    0.07
  -1   3   9   -0.02    0.11
   1  -3  -8    0.40    0.09
   1  -3  -8    0.44    0.09
  -1   3   8    0.43    0.17
   1  -3  -7    7.11    0.25
   1  -3  -7    6.78    0.23
  -1   3   7    6.81    0.34
   1  -3  -6    0.24    0.06
   1  -3  -6    0.16    0.07
  -1   3   6    0.29    0.13
   1  -3  -5    1.00    0.10
   1  -3  -5    0.94    0.08
  -1   3   5    0.87    0.13
   1  -3  -4   13.42    0.31
   1  -3  -4   13.77    0.36
  -1   3   4   13.83    0.48
   1  -3  -3   10.78    0.29
   1  -3  -3   11.31    0.26
  -1   3   3   10.82    0.38
   1  -3  -2    3.95    0.13
   1  -3  -2    3.96    0.15
  -1   3   2    3.69    0.19
   1  -3  -1   33.48    0.69
   1  -3  -1   33.66    0.59
  -1   3   1   32.97    0.71
   1  -3   0   13.14    0.33
   1  -3   0   12.05    0.25
  -1   3   0   12.62    0.32
   1  -3   1    0.39    0.07
   1  -3   1    0.53    0.05
  -1   3  -1    0.48    0.06
   1  -3   2    0.81    0.08
   1  -3   2    0.67    0.08
  -1   3  -2    0.60    0.06
   1  -3   3    5.65    0.18
   1  -3   3    5.88    0.22
  -1   3  -3    5.73    0.14
   1  -3   4   17.20    0.40
  -1   3  -4   16.46    0.43
  -1   3  -4   15.66    0.28
   1  -3   5    0.88    0.09
  -1   3  -5    0.75    0.05
  -1   3  -5    0.83    0.10
   1  -3   6    6.01    0.23
  -1   3  -6    5.93    0.22
  -1   3  -6    5.37    0.12
   1  -3   7    1.99    0.15
  -1   3  -7    2.27    0.14
   1  -3   8    3.77    0.21
  -1   3  -8    3.77    0.22
   1  -3   9   16.35    0.56
  -1   3  -9   17.92    0.55
   1  -3  10   26.29    0.88
  -1   3 -10   27.25    0.82
   1  -3  11    9.23    0.42
  -1   3 -11   10.81    0.43
   1  -3  12    2.07    0.23
  -1   3 -12    2.14    0.19
   1  -3  13    0.10    0.16
  -1   3 -13    0.08    0.09
   1  -3  14   -0.12    0.12
  -1   3 -14    0.08    0.09
   1  -3  15    0.27    0.17
  -1   3 -15    0.09    0.13
   1  -3  16    1.29    0.32
  -1   3 -16    1.75    0.22
   1  -2 -16    2.48    0.30
  -1   2  16    1.52    0.38
   1  -2 -15   -0.03    0.11
  -1   2  15    0.24    0.17
   1  -2 -14    0.31    0.16
  -1   2  14    0.54    0.20
   1  -2 -13    0.76    0.14
  -1   2  13    0.80    0.18
   1  -2 -12    0.96    0.13
   1  -2 -12    0.69    0.12
  -1   2  12    0.80    0.20
   1  -2 -11    3.32    0.18
   1  -2 -11    3.79    0.24
  -1   2  11    3.48    0.30
   1  -2 -10    1.96    0.14
   1  -2 -10    2.08    0.13
  -1   2  10    1.97    0.21
   1  -2  -9    0.75    0.09
   1  -2  -9    0.54    0.09
  -1   2   9    0.64    0.17
   1  -2  -8    6.20    0.22
   1  -2  -8    6.01    0.21
  -1   2   8    6.70    0.36
   1  -2  -7    4.47    0.18
   1  -2  -7    3.73    0.15
  -1   2   7    3.95    0.23
   1  -2  -6    0.06    0.04
   1  -2  -6    0.03    0.04
  -1   2   6   -0.04    0.07
   1  -2  -5    5.73    0.16
   1  -2  -5    5.79    0.17
  -1   2   5    5.69    0.27
   1  -2  -4    3.85    0.11
   1  -2  -4    4.19    0.13
  -1   2   4    3.97    0.18
   1  -2  -3    1.36    0.07
   1  -2  -3    1.36    0.08
  -1   2   3    1.64    0.11
   1  -2  -2   14.90    0.27
   1  -2  -2   14.27    0.29
  -1   2   2   14.98    0.34
   1  -2  -1    0.75    0.05
   1  -2  -1    0.67    0.05
  -1   2   1    0.67    0.06
   1  -2   0    8.71    0.18
   1  -2   0    9.44    0.21
  -1   2   0    8.46    0.19
   1  -2   1    0.75    0.05
   1  -2   1    0.34    0.06
  -1   2  -1    0.58    0.05
   1  -2   2   18.30    0.37
   1  -2   2   18.34    0.34
  -1   2  -2   17.55    0.26
   1  -2   3  182.94    2.61
  -1   2  -3  187.08    2.91
   1  -2   4   17.88    0.39
  -1   2  -4   17.46    0.39
   1  -2   5    8.86    0.12
   1  -2   5    9.78    0.27
  -1   2  -5    8.88    0.24
   1  -2   6    4.11    0.16
  -1   2  -6    3.84    0.15
   1  -2   7    7.57    0.26
   1  -2   7    7.24    0.13
  -1   2  -7    7.59    0.26
   1  -2   8    0.04    0.03
   1  -2   8   -0.07    0.09
  -1   2  -8    0.14    0.06
   1  -2   9    0.19    0.08
   1  -2   9    0.06    0.04
  -1   2  -9   -0.03    0.08
   1  -2  10    0.26    0.06
   1  -2  10    0.38    0.12
  -1   2 -10    0.41    0.09
   1  -2  11   31.25    0.89
   1  -2  11   28.01    0.61
  -1   2 -11   30.43    0.80
   1  -2  12   12.57    0.36
   1  -2  12   14.57    0.55
  -1   2 -12   12.48    0.43
   1  -2  13    0.27    0.14
  -1   2 -13    0.24    0.10
   1  -2  14    3.39    0.35
  -1   2 -14    2.72    0.24
   1  -2  15    1.30    0.23
  -1   2 -15    1.20    0.19
   1  -2  16   -0.12    0.13
  -1   2 -16   -0.01    0.09
   1  -2  17   -0.16    0.16
   1  -1 -16    1.71    0.21
  -1   1  16    1.30    0.25
   1  -1 -15    2.47    0.24
  -1   1  15    2.21    0.27
   1  -1 -14    0.07    0.09
  -1   1  14   -0.04    0.11
   1  -1 -13   -0.01    0.11
  -1   1  13    0.05    0.10
   1  -1 -12    3.58    0.21
   1  -1 -12    2.80    0.16
  -1   1  12    3.81    0.27
   1  -1 -11    0.37    0.07
   1  -1 -11    0.59    0.12
  -1   1  11    0.55    0.14
   1  -1 -10    2.09    0.16
   1  -1 -10    1.60    0.10
  -1   1  10    1.99    0.19
   1  -1  -9    3.31    0.17
   1  -1  -9    3.23    0.13
  -1   1   9    4.41    0.30
   1  -1  -8    0.21    0.07
   1  -1  -8    0.02    0.04
  -1   1   8    0.18    0.11
   1  -1  -7   14.72    0.36
   1  -1  -7   13.98    0.29
  -1   1   7   16.04    0.46
   1  -1  -6    5.72    0.18
   1  -1  -6    5.22    0.13
  -1   1   6    5.47    0.22
   1  -1  -5   14.03    0.25
   1  -1  -5   13.52    0.31
  -1   1   5   14.42    0.37
   1  -1  -4    4.93    0.13
   1  -1  -4    4.63    0.10
  -1   1   4    4.72    0.17
   1  -1  -3    0.40    0.04
   1  -1  -3    0.52    0.04
  -1   1   3    0.47    0.07
   1  -1  -2    5.03    0.10
   1  -1  -2    4.97    0.11
  -1   1   2    5.09    0.14
   1  -1  -1   21.66    0.32
   1  -1  -1   21.16    0.29
  -1   1   1   20.73    0.34
   1  -1   0    2.65    0.07
   1  -1   0    2.42    0.08
  -1   1   0    2.41    0.08
   1  -1   1   44.79    0.57
  -1   1  -1   45.01    0.43
  -1   1  -1   44.58    0.60
   1  -1   2   47.20    0.63
  -1   1  -2   45.99    0.66
   1  -1   3   16.34    0.28
  -1   1  -3   15.68    0.28
   1  -1   4    9.69    0.09
   1  -1   4    9.60    0.22
  -1   1  -4    9.73    0.21
   1  -1   5    2.42    0.11
  -1   1  -5    1.75    0.11
   1  -1   6    9.24    0.15
   1  -1   6    9.21    0.26
  -1   1  -6   10.13    0.25
   1  -1   7    1.85    0.12
   1  -1   7    1.73    0.07
  -1   1  -7    1.76    0.11
   1  -1   8   18.44    0.35
   1  -1   8   18.17    0.49
  -1   1  -8   17.87    0.44
   1  -1   9    2.21    0.10
   1  -1   9    2.43    0.15
  -1   1  -9    2.26    0.15
   1  -1  10    0.52    0.07
   1  -1  10    0.39    0.10
  -1   1 -10    0.49    0.10
   1  -1  11   18.35    0.48
   1  -1  11   18.86    0.67
  -1   1 -11   18.43    0.54
   1  -1  12    1.73    0.24
   1  -1  12    2.20    0.15
  -1   1 -12    2.24    0.19
   1  -1  13    0.55    0.11
   1  -1  13    0.57    0.14
  -1   1 -13    0.29    0.11
   1  -1  14    5.37    0.32
  -1   1 -14    4.84    0.29
   1  -1  15    0.04    0.09
   1  -1  15    0.07    0.14
  -1   1 -15    0.10    0.10
   1  -1  16    0.22    0.14
  -1   1 -16    0.05    0.12
   1  -1  17    1.63    0.32
   1   0 -16    1.41    0.23
  -1   0  16    1.29    0.24
   1   0 -15    0.08    0.15
  -1   0  15    0.13    0.12
   1   0 -14    0.54    0.14
  -1   0  14    0.34    0.14
   1   0 -13    2.61    0.21
  -1   0  13    2.20    0.26
   1   0 -12    1.99    0.13
   1   0 -12    2.52    0.19
  -1   0  12    2.21    0.20
   1   0 -11    0.43    0.10
  -1   0  11    0.35    0.14
   1   0 -10    1.39    0.09
   1   0 -10    1.45    0.16
  -1   0  10    1.41    0.14
   1   0  -9    5.56    0.17
   1   0  -9    5.62    0.23
  -1   0   9    5.68    0.25
   1   0  -8   22.88    0.42
   1   0  -8   23.38    0.57
  -1   0   8   23.51    0.64
   1   0  -7    1.68    0.12
   1   0  -7    1.87    0.07
  -1   0   7    1.98    0.14
   1   0  -6    2.86    0.12
  -1   0   6    2.17    0.13
   1   0  -5   15.63    0.33
  -1   0   5   14.75    0.34
   1   0  -4   22.33    0.39
   1   0  -4   20.85    0.22
  -1   0   4   21.52    0.42
   1   0  -3    4.04    0.05
   1   0  -3    4.13    0.11
  -1   0   3    4.10    0.12
   1   0  -2    0.26    0.01
   1   0  -2    0.16    0.03
  -1   0   2    0.43    0.05
  -1   0   2    0.27    0.01
   1   0  -1    1.67    0.04
  -1   0   1    1.60    0.03
  -1   0   1    1.56    0.05
  -1   0   1    1.54    0.03
   1   0   0   48.29    0.51
  -1   0   0   47.93    0.41
  -1   0   0   48.88    0.45
   1   0   1    1.60    0.03
   1   0   1    1.73    0.04
  -1   0  -1    1.74    0.03
  -1   0  -1    1.56    0.04
   1   0   2   15.30    0.20
  -1   0  -2   15.64    0.22
   1   0   3   69.57    0.84
  -1   0  -3   70.84    0.91
   1   0   4   14.97    0.26
  -1   0  -4   15.00    0.28
   1   0   5    3.56    0.10
   1   0   5    3.59    0.14
  -1   0  -5    3.61    0.11
   1   0   6    3.02    0.12
   1   0   6    2.70    0.10
  -1   0  -6    2.74    0.11
   1   0   7    0.64    0.07
   1   0   7    0.66    0.06
  -1   0  -7    0.69    0.07
   1   0   8    4.36    0.16
   1   0   8    4.89    0.18
  -1   0  -8    4.64    0.18
   1   0   9    1.60    0.12
   1   0   9    1.10    0.15
  -1   0  -9    1.28    0.12
   1   0  10   12.44    0.40
   1   0  10   10.96    0.38
  -1   0 -10   11.39    0.34
   1   0  11    0.20    0.09
   1   0  11    0.18    0.10
  -1   0 -11    0.26    0.09
   1   0  12    1.53    0.20
   1   0  12    1.94    0.17
  -1   0 -12    1.88    0.17
   1   0  13   22.12    0.73
   1   0  13   22.34    0.71
  -1   0 -13   21.48    0.67
   1   0  14   18.25    0.66
   1   0  14   17.69    0.70
  -1   0 -14   17.26    0.64
   1   0  15    1.00    0.18
   1   0  15    1.06    0.17
  -1   0 -15    0.77    0.17
   1   0  16    0.60    0.20
   1   0  16    0.75    0.14
  -1   0 -16    0.32    0.15
   1   0  17    0.10    0.13
   1   1 -17    0.17    0.17
  -1  -1  17    0.19    0.18
   1   1 -16    1.10    0.23
  -1  -1  16    0.65    0.18
   1   1 -15    1.07    0.19
  -1  -1  15    1.18    0.22
   1   1 -14    2.89    0.28
  -1  -1  14    2.14    0.21
   1   1 -13    0.04    0.10
  -1  -1  13    0.04    0.09
   1   1 -12    5.36    0.21
   1   1 -12    5.58    0.31
  -1  -1  12    5.59    0.31
   1   1 -11    0.37    0.14
   1   1 -11    0.43    0.07
  -1  -1  11    0.47    0.10
   1   1 -10    0.42    0.09
   1   1 -10    0.36    0.06
  -1  -1  10    0.27    0.09
   1   1  -9    1.20    0.08
  -1  -1   9    1.69    0.12
   1   1  -8    0.76    0.06
  -1  -1   8    0.72    0.12
  -1  -1   8    0.86    0.11
   1   1  -7    0.16    0.04
  -1  -1   7    0.24    0.06
  -1  -1   7    0.11    0.06
   1   1  -6   76.27    0.93
  -1  -1   6   75.10    1.38
  -1  -1   6   77.45    1.36
   1   1  -5   21.31    0.28
  -1  -1   5   21.58    0.42
  -1  -1   5   24.91    0.52
   1   1  -4   -0.01    0.02
  -1  -1   4   -0.07    0.04
  -1  -1   4   -0.03    0.03
   1   1  -3   17.22    0.30
   1   1  -3   18.12    0.17
   1   1  -2   34.05    0.46
  -1  -1   2   35.99    0.48
  -1  -1   2   34.74    0.29
   1   1  -1  189.30    1.77
  -1  -1   1  189.73    1.94
  -1  -1   1  189.33    1.40
  -1  -1   0    0.62    0.03
  -1  -1   0    0.73    0.02
   1   1   1    0.18    0.01
  -1  -1  -1    0.21    0.02
  -1  -1  -1    0.19    0.01
   1   1   2    3.22    0.08
   1   1   2    3.30    0.05
  -1  -1  -2    3.49    0.09
   1   1   3   11.37    0.15
   1   1   3   11.44    0.22
  -1  -1  -3   11.60    0.21
   1   1   4    3.51    0.13
   1   1   4    3.83    0.09
  -1  -1  -4    3.74    0.11
   1   1   5    0.57    0.06
  -1  -1  -5    0.63    0.06
   1   1   6    6.71    0.21
   1   1   6    6.50    0.17
  -1  -1  -6    6.47    0.19
   1   1   7    1.90    0.11
   1   1   7    2.27    0.12
  -1  -1  -7    2.41    0.13
   1   1   8    5.17    0.22
   1   1   8    5.67    0.21
  -1  -1  -8    5.31    0.18
   1   1   9   37.75    0.86
   1   1   9   38.51    0.94
  -1  -1  -9   37.71    0.87
   1   1  10    0.52    0.09
   1   1  10    0.48    0.10
  -1  -1 -10    0.42    0.11
   1   1  11    0.19    0.10
   1   1  11    0.09    0.11
  -1  -1 -11    0.17    0.08
   1   1  12   -0.08    0.09
   1   1  12    0.08    0.09
  -1  -1 -12    0.02    0.06
   1   1  13   -0.18    0.08
   1   1  13    0.03    0.11
  -1  -1 -13    0.03    0.07
   1   1  14    0.69    0.18
   1   1  14    0.61    0.14
  -1  -1 -14    0.77    0.15
   1   1  15    0.93    0.19
  -1  -1 -15    0.39    0.10
  -1  -1 -15    0.38    0.12
   1   1  16    2.79    0.24
  -1  -1 -16    2.09    0.22
  -1  -1 -16    2.32    0.30
   1   1  17    0.26    0.18
  -1  -1 -17    0.52    0.19
   1   2 -16    0.12    0.20
  -1  -2  16    0.39    0.16
   1   2 -15    2.02    0.26
  -1  -2  15    2.31    0.25
   1   2 -14    1.24    0.21
  -1  -2  14    1.38    0.19
  -1  -2  13    1.85    0.17
   1   2 -12    3.03    0.17
  -1  -2  12    3.49    0.23
  -1  -2  12    3.22    0.25
   1   2 -11    5.90    0.23
  -1  -2  11    5.59    0.30
  -1  -2  11    6.67    0.29
   1   2 -10    0.12    0.06
  -1  -2  10    0.05    0.10
  -1  -2  10    0.28    0.09
   1   2  -9    4.02    0.16
  -1  -2   9    4.86    0.24
  -1  -2   9    4.21    0.20
   1   2  -8    2.06    0.10
  -1  -2   8    2.18    0.17
  -1  -2   8    2.20    0.13
   1   2  -7    3.82    0.12
  -1  -2   7    4.10    0.16
  -1  -2   7    3.93    0.19
   1   2  -6   32.23    0.53
  -1  -2   6   33.79    0.65
  -1  -2   6   32.50    0.70
   1   2  -5    4.61    0.11
  -1  -2   5    5.17    0.21
  -1  -2   5    5.01    0.16
  -1  -2   4    0.04    0.04
  -1  -2   3   27.19    0.45
  -1  -2   3   27.35    0.45
  -1  -2   3   26.85    0.38
  -1  -2   2   14.25    0.25
  -1  -2   2   14.59    0.23
  -1  -2   2   14.15    0.25
  -1  -2   1   -0.01    0.02
  -1  -2   1    0.01    0.02
  -1  -2   0    0.65    0.04
  -1  -2   0    0.58    0.03
   1   2   1    1.67    0.07
  -1  -2  -1    1.59    0.06
   1   2   2 1379.29   18.24
   1   2   3   13.56    0.32
  -1  -2  -3   15.07    0.29
   1   2   4    3.65    0.15
  -1  -2  -4    3.72    0.12
   1   2   5   16.78    0.43
   1   2   5   16.25    0.25
  -1  -2  -5   17.07    0.38
   1   2   6    0.40    0.04
   1   2   6    0.45    0.10
  -1  -2  -6    0.36    0.06
   1   2   7    3.90    0.13
   1   2   7    3.61    0.21
  -1  -2  -7    3.92    0.18
   1   2   8    1.95    0.15
   1   2   8    1.61    0.11
  -1  -2  -8    1.81    0.12
   1   2   9    4.61    0.25
   1   2   9    4.57    0.19
  -1  -2  -9    4.57    0.21
   1   2  10    1.82    0.18
  -1  -2 -10    2.25    0.17
   1   2  11    0.20    0.12
  -1  -2 -11    0.00    0.08
  -1  -2 -11    0.15    0.08
   1   2  12    0.73    0.15
  -1  -2 -12    1.01    0.11
  -1  -2 -12    0.83    0.12
   1   2  13    2.26    0.21
  -1  -2 -13    2.31    0.18
  -1  -2 -13    2.27    0.21
   1   2  14    1.24    0.19
  -1  -2 -14    1.34    0.18
  -1  -2 -14    0.95    0.17
   1   2  15   -0.05    0.13
  -1  -2 -15    0.16    0.09
  -1  -2 -15   -0.02    0.09
   1   2  16    2.49    0.30
  -1  -2 -16    3.20    0.30
  -1  -2 -16    2.57    0.27
   1   2  17    0.25    0.14
  -1  -2 -17   -0.04    0.15
   1   3 -16    0.44    0.20
  -1  -3  15    0.30    0.14
  -1  -3  14   -0.10    0.11
  -1  -3  14   -0.03    0.16
   1   3 -13    0.17    0.09
  -1  -3  13    0.12    0.14
  -1  -3  13    0.34    0.11
   1   3 -12    0.44    0.09
  -1  -3  12    0.45    0.09
  -1  -3  12    0.23    0.15
   1   3 -11    0.04    0.07
  -1  -3  11    0.39    0.13
  -1  -3  11   -0.02    0.08
   1   3 -10    1.44    0.11
  -1  -3  10    1.65    0.17
  -1  -3  10    1.29    0.14
   1   3  -9    0.50    0.08
  -1  -3   9    0.20    0.10
  -1  -3   9    0.26    0.09
   1   3  -8    0.63    0.08
  -1  -3   8    0.56    0.12
  -1  -3   8    0.78    0.08
   1   3  -7    3.12    0.13
  -1  -3   7    3.24    0.14
  -1  -3   7    3.23    0.18
   1   3  -6   21.59    0.47
  -1  -3   6   21.43    0.53
  -1  -3   6   21.94    0.48
  -1  -3   5   38.23    0.72
  -1  -3   5   37.56    0.80
  -1  -3   5   37.29    0.71
  -1  -3   4    0.12    0.05
  -1  -3   4    0.12    0.04
  -1  -3   4    0.05    0.04
  -1  -3   3    0.66    0.06
  -1  -3   3    0.68    0.06
  -1  -3   2   50.22    0.85
  -1  -3   2   50.81    0.85
  -1  -3   2   50.52    0.78
   1   3  -1    0.04    0.04
  -1  -3   1   -0.03    0.03
   1   3   0    5.58    0.17
  -1  -3   0    5.49    0.15
  -1  -3   0    5.47    0.10
   1   3   1    0.33    0.06
  -1  -3  -1    0.46    0.05
   1   3   2    1.59    0.11
  -1  -3  -2    1.84    0.11
   1   3   3    3.06    0.18
  -1  -3  -3    2.97    0.13
   1   3   4    1.67    0.13
  -1  -3  -4    1.99    0.11
   1   3   5  256.10    4.96
  -1  -3  -5  253.09    4.37
  -1  -3  -5  250.83    2.52
   1   3   6    0.65    0.15
  -1  -3  -6    0.93    0.04
  -1  -3  -6    0.82    0.11
   1   3   7    3.21    0.20
  -1  -3  -7    3.60    0.16
  -1  -3  -7    2.96    0.10
   1   3   8    0.02    0.07
  -1  -3  -8   -0.03    0.06
  -1  -3  -8    0.00    0.03
   1   3   9    0.56    0.13
  -1  -3  -9    0.47    0.07
  -1  -3  -9    0.49    0.09
   1   3  10    5.93    0.33
  -1  -3 -10    5.55    0.30
  -1  -3 -10    5.48    0.21
   1   3  11    0.88    0.19
  -1  -3 -11    0.70    0.10
  -1  -3 -11    0.77    0.14
   1   3  12    0.52    0.19
  -1  -3 -12    0.63    0.11
  -1  -3 -12    0.52    0.11
   1   3  13    0.78    0.19
  -1  -3 -13    0.98    0.13
  -1  -3 -13    1.36    0.19
   1   3  14    0.29    0.17
  -1  -3 -14    0.53    0.12
  -1  -3 -14    0.22    0.15
   1   3  15    0.10    0.12
  -1  -3 -15    0.11    0.12
  -1  -3 -15   -0.10    0.09
   1   3  16    0.38    0.19
  -1  -3 -16    0.14    0.17
  -1  -4  15    0.25    0.18
  -1  -4  14    0.74    0.18
   1   4 -13    0.23    0.11
  -1  -4  13    0.00    0.17
  -1  -4  13    0.21    0.10
   1   4 -12    0.39    0.11
  -1  -4  12    0.78    0.19
  -1  -4  12    0.21    0.11
   1   4 -11    0.00    0.07
  -1  -4  11   -0.09    0.09
  -1  -4  11    0.02    0.07
   1   4 -10    9.60    0.37
  -1  -4  10    9.75    0.42
  -1  -4  10    9.53    0.34
   1   4  -9    9.64    0.35
  -1  -4   9   10.17    0.42
  -1  -4   9    9.89    0.33
   1   4  -8    3.66    0.19
  -1  -4   8    3.91    0.28
  -1  -4   8    3.72    0.18
   1   4  -7    0.02    0.07
  -1  -4   7   -0.04    0.05
  -1  -4   7    0.56    0.10
  -1  -4   6   14.41    0.43
  -1  -4   6   15.20    0.40
  -1  -4   5    0.09    0.06
  -1  -4   5    0.01    0.07
  -1  -4   5    0.15    0.07
  -1  -4   4    4.71    0.16
  -1  -4   4    4.78    0.17
  -1  -4   4    4.20    0.17
   1   4  -3    1.84    0.09
  -1  -4   3    3.14    0.15
   1   4  -2   14.55    0.39
  -1  -4   2   14.13    0.29
  -1  -4   2   14.56    0.37
   1   4  -1    7.81    0.27
  -1  -4   1    7.89    0.17
  -1  -4   1    8.19    0.24
   1   4   0    0.11    0.06
  -1  -4   0    0.15    0.03
  -1  -4   0    0.43    0.07
   1   4   1    0.61    0.09
  -1  -4  -1    0.65    0.09
   1   4   2   10.87    0.39
  -1  -4  -2   10.14    0.30
   1   4   3    2.55    0.18
  -1  -4  -3    2.74    0.14
   1   4   4   51.82    1.33
  -1  -4  -4   50.86    1.16
   1   4   5    1.24    0.18
  -1  -4  -5    1.19    0.11
   1   4   6   -0.04    0.09
  -1  -4  -6    0.09    0.08
   1   4   7    3.06    0.24
  -1  -4  -7    2.93    0.18
   1   4   8    2.98    0.27
  -1  -4  -8    2.37    0.10
  -1  -4  -8    3.18    0.20
   1   4   9    0.58    0.15
  -1  -4  -9    0.49    0.12
  -1  -4  -9    0.34    0.05
   1   4  10    2.28    0.29
  -1  -4 -10    2.48    0.19
   1   4  11   -0.26    0.14
  -1  -4 -11   -0.08    0.11
   1   4  12    3.03    0.29
  -1  -4 -12    2.69    0.27
   1   4  13    1.67    0.28
  -1  -4 -13    2.39    0.21
   1   4  14    0.32    0.19
  -1  -4 -14    0.77    0.18
   1   4  15    1.37    0.27
  -1  -4 -15    1.56    0.21
  -1  -5  14    0.21    0.16
   1   5 -13    2.64    0.25
  -1  -5  13    2.42    0.29
   1   5 -12    0.01    0.12
  -1  -5  12    0.22    0.13
   1   5 -11    2.60    0.22
  -1  -5  11    2.09    0.27
  -1  -5  11    2.02    0.18
   1   5 -10    0.19    0.10
  -1  -5  10    0.39    0.10
  -1  -5  10    0.74    0.15
   1   5  -9    0.87    0.14
  -1  -5   9    0.76    0.15
  -1  -5   9    0.56    0.11
   1   5  -8    7.35    0.34
  -1  -5   8    7.09    0.28
  -1  -5   8    7.03    0.34
   1   5  -7   29.21    0.85
  -1  -5   7   29.46    0.88
  -1  -5   7   30.50    0.79
  -1  -5   6    7.32    0.35
  -1  -5   6    8.22    0.31
  -1  -5   6    8.19    0.35
   1   5  -5    4.01    0.21
  -1  -5   5    3.75    0.21
  -1  -5   5    3.54    0.21
   1   5  -4    3.61    0.20
  -1  -5   4    3.51    0.18
  -1  -5   4    3.55    0.22
   1   5  -3   -0.02    0.06
  -1  -5   3    0.00    0.08
  -1  -5   3   -0.03    0.04
   1   5  -2    0.13    0.07
  -1  -5   2    0.08    0.08
  -1  -5   2    0.09    0.05
   1   5  -1    0.01    0.08
  -1  -5   1    0.04    0.04
  -1  -5   1    0.17    0.07
   1   5   0    6.66    0.30
  -1  -5   0    6.49    0.17
  -1  -5   0    6.28    0.28
   1   5   1    1.35    0.14
  -1  -5  -1    1.42    0.14
  -1  -5  -1    1.18    0.06
   1   5   2    3.97    0.25
  -1  -5  -2    3.78    0.20
   1   5   3    7.73    0.36
  -1  -5  -3    8.74    0.36
   1   5   4    3.27    0.24
  -1  -5  -4    3.42    0.19
   1   5   5    0.47    0.15
  -1  -5  -5    0.12    0.10
   1   5   6    2.51    0.20
  -1  -5  -6    0.56    0.14
   1   5   7   12.99    0.56
  -1  -5  -7   12.60    0.52
   1   5   8    2.13    0.25
  -1  -5  -8    2.04    0.18
   1   5   9    0.34    0.17
  -1  -5  -9    0.19    0.10
   1   5  10    0.94    0.21
  -1  -5 -10    1.01    0.19
   1   5  11    0.27    0.16
  -1  -5 -11    0.25    0.12
   1   5  12    0.73    0.21
  -1  -5 -12    0.51    0.16
   1   5  13    0.19    0.14
  -1  -5 -13   -0.07    0.11
   1   5  14    0.21    0.21
  -1  -5 -14    0.01    0.16
  -1  -6  13    0.18    0.20
   1   6 -12   -0.20    0.11
  -1  -6  12    0.04    0.13
   1   6 -11    0.32    0.12
  -1  -6  11    0.18    0.14
   1   6 -10    0.23    0.14
  -1  -6  10    0.49    0.16
   1   6  -9    0.17    0.11
   1   6  -9    0.07    0.09
  -1  -6   9    0.20    0.14
   1   6  -8    3.22    0.24
   1   6  -8    3.26    0.25
  -1  -6   8    3.26    0.23
   1   6  -7   16.21    0.61
   1   6  -7   16.26    0.59
  -1  -6   7   16.90    0.63
   1   6  -6    1.67    0.17
  -1  -6   6    1.49    0.21
  -1  -6   6    1.40    0.19
   1   6  -5    0.70    0.14
  -1  -6   5    0.76    0.11
  -1  -6   5    1.08    0.14
   1   6  -4    0.92    0.14
  -1  -6   4    0.55    0.11
  -1  -6   4    0.97    0.15
   1   6  -3    0.03    0.08
  -1  -6   3   -0.17    0.11
  -1  -6   3   -0.07    0.06
   1   6  -2    1.47    0.18
  -1  -6   2    1.21    0.10
  -1  -6   2    1.37    0.18
   1   6  -1    8.10    0.40
  -1  -6   1    7.98    0.36
  -1  -6   1    6.81    0.21
   1   6   0    0.15    0.10
  -1  -6   0    0.29    0.08
  -1  -6   0    0.05    0.04
   1   6   1    7.87    0.38
  -1  -6  -1    7.83    0.37
   1   6   2    0.51    0.17
  -1  -6  -2    0.78    0.14
   1   6   3    0.01    0.11
  -1  -6  -3   -0.07    0.08
   1   6   4    0.53    0.17
  -1  -6  -4    0.23    0.14
   1   6   5    0.75    0.21
  -1  -6  -5    0.78    0.17
   1   6   6    0.64    0.16
  -1  -6  -6    0.47    0.16
   1   6   7    0.00    0.13
  -1  -6  -7    0.16    0.10
   1   6   8    0.52    0.16
  -1  -6  -8    0.32    0.13
   1   6   9   -0.20    0.14
  -1  -6  -9    0.01    0.10
   1   6  10    0.78    0.21
  -1  -6 -10    0.65    0.16
   1   6  11    0.88    0.21
  -1  -6 -11    0.05    0.19
   1   6  12   -0.21    0.19
  -1  -6 -12    0.06    0.14
   1   7 -11    0.29    0.19
  -1  -7  11    0.56    0.19
   1   7 -10    0.15    0.19
  -1  -7  10    0.68    0.15
   1   7  -9    0.32    0.14
  -1  -7   9    0.13    0.16
   1   7  -8    1.51    0.22
  -1  -7   8    1.96    0.20
   1   7  -7    2.85    0.25
   1   7  -7    2.50    0.25
  -1  -7   7    3.00    0.26
   1   7  -6    0.57    0.15
  -1  -7   6    0.54    0.12
  -1  -7   6    0.28    0.15
   1   7  -5   13.95    0.58
  -1  -7   5   12.86    0.52
  -1  -7   5   14.36    0.60
   1   7  -4    8.50    0.45
  -1  -7   4    7.75    0.41
  -1  -7   4    7.47    0.34
   1   7  -3    0.08    0.14
  -1  -7   3    0.27    0.10
  -1  -7   3    0.56    0.12
   1   7  -2    0.28    0.14
  -1  -7   2    0.21    0.08
  -1  -7   2    0.25    0.12
   1   7  -1    0.00    0.11
  -1  -7   1   -0.01    0.08
   1   7   0    0.49    0.16
  -1  -7   0    0.33    0.13
   1   7   1    1.54    0.26
  -1  -7  -1    1.49    0.18
   1   7   2    0.02    0.14
  -1  -7  -2    0.08    0.10
   1   7   3    0.35    0.19
  -1  -7  -3    0.47    0.16
   1   7   4    2.82    0.30
  -1  -7  -4    2.87    0.25
   1   7   5    0.28    0.14
  -1  -7  -5   -0.03    0.14
   1   7   6   -0.20    0.15
  -1  -7  -6    0.00    0.12
   1   7   7    0.71    0.27
  -1  -7  -7    0.97    0.22
   1   7   8    0.54    0.24
  -1  -7  -8    0.22    0.19
   1   7   9    0.07    0.14
  -1  -7  -9   -0.06    0.13
   1   7  10    0.20    0.17
  -1  -7 -10    0.02    0.13
   1   8  -8    0.06    0.14
  -1  -8   8   -0.03    0.09
   1   8  -7    0.95    0.23
  -1  -8   7    0.57    0.19
  -1  -8   6    0.13    0.13
  -1  -8   6    0.05    0.12
  -1  -8   5    1.36    0.23
   1   8  -4    2.65    0.31
  -1  -8   4    2.93    0.33
   1   8  -3    3.84    0.36
  -1  -8   3    3.93    0.40
   1   8  -2    1.67    0.22
  -1  -8   2    1.55    0.29
   1   8  -1    0.93    0.23
  -1  -8   1    1.17    0.25
   1   8   0    0.52    0.22
  -1  -8   0    0.63    0.16
   1   8   1    0.67    0.18
  -1  -8  -1    0.21    0.18
   1   8   2    0.27    0.19
  -1  -8  -2    0.18    0.17
   1   8   3    3.19    0.34
  -1  -8  -3    3.17    0.37
   1   8   4   -0.22    0.15
  -1  -8  -4    0.17    0.14
   1   8   5    0.29    0.19
  -1  -8  -5    0.41    0.16
   1   8   6    0.02    0.20
  -1  -8  -6    0.09    0.16
   1   8   7   -0.15    0.17
  -1  -8  -7   -0.08    0.17
   1   9  -1    3.72    0.38
  -1  -9   1    3.61    0.38
   1   9   0    2.14    0.31
  -1  -9   0    2.15    0.29
   2  -7  -4    4.02    0.35
  -2   7   4    3.64    0.39
   2  -7  -3    3.45    0.40
  -2   7   3    3.52    0.32
   2  -7  -2    0.59    0.20
  -2   7   2    0.74    0.21
   2  -7  -1    1.15    0.24
  -2   7   1    1.30    0.23
   2  -7   0    0.52    0.23
   2  -7   1    1.17    0.22
   2  -7   2    0.05    0.11
  -2   7  -2    0.01    0.09
   2  -7   3    0.06    0.09
  -2   7  -3   -0.04    0.12
   2  -7   4   -0.01    0.10
  -2   7  -4    0.01    0.13
   2  -7   5    0.86    0.21
  -2   7  -5    1.37    0.22
   2  -7   6    0.38    0.15
  -2   7  -6    0.52    0.23
   2  -7   7    0.93    0.23
  -2   7  -7    1.13    0.23
   2  -6  -8    0.25    0.17
  -2   6   8    0.26    0.17
   2  -6  -7   -0.01    0.12
  -2   6   7    0.41    0.18
   2  -6  -6   -0.08    0.15
  -2   6   6   -0.17    0.14
   2  -6  -5    0.58    0.18
  -2   6   5    0.31    0.20
   2  -6  -4    0.55    0.15
  -2   6   4    0.61    0.16
   2  -6  -3    0.11    0.09
   2  -6  -3    0.02    0.14
  -2   6   3    0.11    0.14
   2  -6  -2    0.39    0.17
   2  -6  -2    0.44    0.11
  -2   6   2    0.33    0.16
   2  -6  -1    6.14    0.31
   2  -6  -1    6.67    0.44
  -2   6   1    5.59    0.32
   2  -6   0    0.97    0.12
   2  -6   0    0.75    0.18
  -2   6   0    0.60    0.14
   2  -6   1    0.07    0.09
   2  -6   1    0.05    0.12
  -2   6  -1    0.12    0.10
   2  -6   2    0.09    0.09
   2  -6   2    0.28    0.15
   2  -6   3    0.25    0.13
  -2   6  -3    0.21    0.13
   2  -6   4    2.77    0.24
  -2   6  -4    2.28    0.25
   2  -6   5    1.06    0.15
  -2   6  -5    1.09    0.24
   2  -6   6    0.74    0.15
  -2   6  -6    0.57    0.19
   2  -6   7    1.92    0.22
  -2   6  -7    1.89    0.28
   2  -6   8    0.21    0.13
  -2   6  -8    0.21    0.18
   2  -6   9    0.42    0.17
  -2   6  -9    1.07    0.23
   2  -6  10    3.91    0.41
  -2   6 -10    4.33    0.43
   2  -6  11   -0.07    0.12
  -2   6 -11    0.13    0.14
  -2   5  10    0.17    0.17
   2  -5  -9   -0.05    0.11
  -2   5   9   -0.03    0.14
   2  -5  -8    0.02    0.11
  -2   5   8    0.24    0.14
   2  -5  -7    0.11    0.09
   2  -5  -7    0.14    0.10
  -2   5   7   -0.30    0.15
   2  -5  -6   -0.04    0.08
   2  -5  -6   -0.11    0.10
  -2   5   6   -0.12    0.12
   2  -5  -5    0.24    0.10
   2  -5  -5    0.17    0.15
  -2   5   5    0.74    0.14
   2  -5  -4    0.83    0.12
   2  -5  -4    0.66    0.15
  -2   5   4    1.31    0.19
   2  -5  -3    0.36    0.09
   2  -5  -3    0.52    0.12
  -2   5   3    0.47    0.13
   2  -5  -2    1.41    0.18
   2  -5  -2    0.93    0.11
  -2   5   2    1.02    0.17
   2  -5  -1   -0.08    0.07
   2  -5  -1   -0.01    0.08
  -2   5   1    0.03    0.09
   2  -5   0    3.30    0.28
   2  -5   0    3.29    0.20
  -2   5   0    3.62    0.24
   2  -5   1    2.00    0.18
   2  -5   1    1.77    0.14
  -2   5  -1    1.89    0.17
   2  -5   2   -0.10    0.11
   2  -5   2    0.14    0.09
  -2   5  -2    0.22    0.08
   2  -5   3   -0.01    0.08
  -2   5  -3   -0.07    0.06
  -2   5  -3    0.00    0.09
   2  -5   4    1.33    0.14
  -2   5  -4    1.39    0.17
   2  -5   5    2.16    0.18
  -2   5  -5    1.99    0.20
   2  -5   6    2.97    0.25
  -2   5  -6    2.87    0.28
   2  -5   7    5.54    0.31
  -2   5  -7    5.79    0.33
   2  -5   8    1.12    0.21
  -2   5  -8    1.01    0.17
   2  -5   9    2.99    0.32
  -2   5  -9    3.45    0.28
   2  -5  10   -0.06    0.15
  -2   5 -10   -0.11    0.16
   2  -5  11    0.56    0.21
  -2   5 -11    0.39    0.17
   2  -5  12    1.65    0.29
  -2   5 -12    1.17    0.28
   2  -5  13    1.97    0.27
  -2   5 -13    2.02    0.27
  -2   4  12    3.86    0.52
   2  -4 -11    0.37    0.13
  -2   4  11    0.02    0.25
   2  -4 -10    0.01    0.09
  -2   4  10   -0.08    0.13
   2  -4  -9    0.16    0.10
   2  -4  -9    0.16    0.10
  -2   4   9    0.38    0.15
   2  -4  -8    0.59    0.13
   2  -4  -8    0.85    0.13
  -2   4   8    0.86    0.19
   2  -4  -7    1.67    0.17
   2  -4  -7    1.81    0.14
  -2   4   7    1.97    0.25
   2  -4  -6    0.97    0.12
   2  -4  -6    0.76    0.14
  -2   4   6    0.96    0.16
   2  -4  -5    2.78    0.20
   2  -4  -5    2.67    0.17
  -2   4   5    2.60    0.22
   2  -4  -4   -0.01    0.05
   2  -4  -4    0.00    0.09
  -2   4   4   -0.08    0.10
   2  -4  -3    0.14    0.07
   2  -4  -3   -0.02    0.06
  -2   4   3   -0.10    0.08
   2  -4  -2    0.00    0.06
   2  -4  -2   -0.02    0.07
  -2   4   2    0.12    0.09
   2  -4  -1    0.04    0.08
   2  -4  -1    0.09    0.06
  -2   4   1    0.24    0.08
   2  -4   0    2.88    0.18
   2  -4   0    2.87    0.17
  -2   4   0    3.05    0.19
   2  -4   1    0.96    0.13
   2  -4   1    1.21    0.12
  -2   4  -1    0.92    0.12
   2  -4   2    4.44    0.26
   2  -4   2    4.06    0.21
  -2   4  -2    3.76    0.18
   2  -4   3    0.17    0.09
  -2   4  -3    0.13    0.09
  -2   4  -3    0.18    0.06
   2  -4   4    0.74    0.10
  -2   4  -4    0.48    0.14
   2  -4   5    0.28    0.10
  -2   4  -5    0.09    0.09
   2  -4   6    1.95    0.17
  -2   4  -6    2.07    0.18
   2  -4   7    0.92    0.14
  -2   4  -7    0.72    0.13
   2  -4   8    0.40    0.14
  -2   4  -8    0.32    0.12
   2  -4   9    1.31    0.18
  -2   4  -9    1.25    0.21
   2  -4  10    0.07    0.17
  -2   4 -10    0.53    0.13
   2  -4  11    1.11    0.24
  -2   4 -11    1.32    0.22
   2  -4  12    1.76    0.25
  -2   4 -12    2.52    0.24
   2  -4  13   -0.17    0.13
  -2   4 -13    0.01    0.15
   2  -4  14    6.39    0.52
  -2   4 -14    6.70    0.43
   2  -4  15    1.56    0.35
  -2   4 -15    1.56    0.29
  -2   3  14    1.91    0.30
   2  -3 -13    3.38    0.31
  -2   3  13    3.09    0.37
   2  -3 -12    1.16    0.17
  -2   3  12    1.34    0.30
   2  -3 -11   -0.06    0.07
  -2   3  11    0.33    0.16
   2  -3 -10    6.04    0.32
   2  -3 -10    5.47    0.26
  -2   3  10    7.22    0.46
   2  -3  -9    0.02    0.07
   2  -3  -9    0.03    0.08
  -2   3   9    0.22    0.12
   2  -3  -8    3.52    0.21
   2  -3  -8    3.68    0.18
  -2   3   8    3.97    0.34
   2  -3  -7    2.28    0.17
   2  -3  -7    2.55    0.16
  -2   3   7    2.40    0.23
   2  -3  -6    0.93    0.11
   2  -3  -6    0.50    0.09
  -2   3   6    0.80    0.14
   2  -3  -5   20.20    0.54
   2  -3  -5   19.18    0.51
  -2   3   5   20.84    0.72
   2  -3  -4   13.99    0.40
   2  -3  -4   14.15    0.42
  -2   3   4   14.16    0.49
   2  -3  -3   -0.12    0.07
   2  -3  -3   -0.06    0.05
  -2   3   3    0.03    0.09
   2  -3  -2    3.50    0.16
   2  -3  -2    3.47    0.14
  -2   3   2    3.66    0.21
   2  -3  -1    8.53    0.27
   2  -3  -1    8.76    0.28
  -2   3   1    8.77    0.28
   2  -3   0    0.46    0.08
   2  -3   0    0.54    0.08
  -2   3   0    0.35    0.07
   2  -3   1    6.31    0.24
   2  -3   1    6.32    0.20
  -2   3  -1    6.76    0.21
   2  -3   2    8.42    0.26
  -2   3  -2    8.44    0.28
  -2   3  -2    8.34    0.22
   2  -3   3    0.47    0.08
  -2   3  -3    0.72    0.09
  -2   3  -3    0.53    0.06
   2  -3   4    3.04    0.17
  -2   3  -4    3.35    0.17
   2  -3   5    1.85    0.13
  -2   3  -5    1.93    0.14
   2  -3   6    0.84    0.11
  -2   3  -6    0.54    0.11
   2  -3   7   16.45    0.52
  -2   3  -7   17.14    0.56
   2  -3   8    0.12    0.12
  -2   3  -8    0.10    0.10
   2  -3   9    0.87    0.17
  -2   3  -9    1.11    0.14
   2  -3  10    5.68    0.32
  -2   3 -10    6.25    0.32
   2  -3  11    1.02    0.20
  -2   3 -11    1.00    0.18
   2  -3  12    0.55    0.15
  -2   3 -12    0.17    0.15
   2  -3  13    2.82    0.26
  -2   3 -13    3.04    0.25
   2  -3  14    0.08    0.12
  -2   3 -14   -0.01    0.13
   2  -3  15    2.39    0.30
  -2   3 -15    2.21    0.28
   2  -3  16    0.32    0.18
  -2   3 -16    0.26    0.15
   2  -2 -15    2.03    0.29
  -2   2  15    1.94    0.30
   2  -2 -14    2.83    0.28
  -2   2  14    2.70    0.34
   2  -2 -13    4.68    0.29
  -2   2  13    4.81    0.39
   2  -2 -12    0.06    0.11
  -2   2  12    0.02    0.16
   2  -2 -11    1.79    0.17
  -2   2  11    2.26    0.24
   2  -2 -10    2.70    0.18
  -2   2  10    3.27    0.27
   2  -2  -9    0.59    0.11
   2  -2  -9    0.48    0.07
  -2   2   9    0.52    0.19
   2  -2  -8    0.58    0.08
   2  -2  -8    0.67    0.12
  -2   2   8    0.67    0.16
   2  -2  -7    2.39    0.14
   2  -2  -7    1.93    0.12
  -2   2   7    3.00    0.25
   2  -2  -6    0.36    0.07
   2  -2  -6    0.35    0.07
  -2   2   6    0.43    0.11
   2  -2  -5    4.83    0.17
   2  -2  -5    5.06    0.17
  -2   2   5    4.79    0.24
   2  -2  -4   10.05    0.24
   2  -2  -4    9.60    0.26
  -2   2   4   10.42    0.37
   2  -2  -3    0.07    0.05
   2  -2  -3    0.31    0.06
  -2   2   3    0.15    0.09
   2  -2  -2   28.07    0.56
   2  -2  -2   28.46    0.59
  -2   2   2   27.88    0.62
   2  -2  -1    4.18    0.15
   2  -2  -1    4.21    0.14
  -2   2   1    3.87    0.16
   2  -2   0   21.30    0.44
   2  -2   0   21.40    0.45
  -2   2   0   21.73    0.43
   2  -2   1    2.89    0.11
  -2   2  -1    2.95    0.11
  -2   2  -1    3.02    0.13
   2  -2   2    0.23    0.05
  -2   2  -2    0.18    0.04
  -2   2  -2    0.19    0.05
   2  -2   3   53.42    1.00
  -2   2  -3   52.48    1.03
  -2   2  -3   51.16    0.58
   2  -2   4    0.11    0.06
  -2   2  -4    0.18    0.06
   2  -2   5    9.36    0.28
  -2   2  -5    9.41    0.31
   2  -2   6   20.21    0.53
  -2   2  -6   19.93    0.53
   2  -2   7    7.07    0.27
  -2   2  -7    7.22    0.27
   2  -2   8    7.95    0.34
  -2   2  -8    7.83    0.33
   2  -2   9   15.28    0.50
  -2   2  -9   14.32    0.52
   2  -2  10   13.49    0.49
  -2   2 -10   12.95    0.45
   2  -2  11    0.33    0.17
  -2   2 -11    0.69    0.14
   2  -2  12    0.18    0.13
  -2   2 -12    0.23    0.10
   2  -2  13    0.24    0.16
  -2   2 -13    0.33    0.13
   2  -2  14    0.69    0.20
  -2   2 -14    0.27    0.12
   2  -2  15    0.47    0.21
  -2   2 -15    0.20    0.12
   2  -2  16    1.01    0.25
  -2   2 -16    0.50    0.19
   2  -2  17    0.75    0.26
  -2   2 -17    0.39    0.19
   2  -1 -15    0.32    0.17
  -2   1  15    0.15    0.18
   2  -1 -14   -0.07    0.11
  -2   1  14   -0.03    0.14
   2  -1 -13    2.28    0.22
  -2   1  13    2.28    0.30
   2  -1 -12    3.61    0.25
  -2   1  12    3.88    0.32
   2  -1 -11    4.76    0.27
  -2   1  11    5.18    0.39
   2  -1 -10    0.54    0.13
  -2   1  10    0.69    0.14
   2  -1  -9    3.94    0.23
  -2   1   9    4.46    0.28
   2  -1  -8    1.42    0.07
   2  -1  -8    1.98    0.13
  -2   1   8    1.72    0.21
   2  -1  -7    0.11    0.06
  -2   1   7   -0.14    0.10
   2  -1  -6    0.08    0.06
   2  -1  -6    0.18    0.04
  -2   1   6    0.27    0.10
   2  -1  -5   26.02    0.58
   2  -1  -5   25.97    0.43
  -2   1   5   26.21    0.66
   2  -1  -4    0.19    0.03
   2  -1  -4    0.30    0.06
  -2   1   4    0.21    0.07
   2  -1  -3    0.27    0.06
   2  -1  -3    0.31    0.04
  -2   1   3    0.31    0.06
   2  -1  -2   37.61    0.57
   2  -1  -2   37.47    0.67
  -2   1   2   38.11    0.72
   2  -1  -1    8.28    0.19
   2  -1  -1    8.91    0.20
  -2   1   1    8.22    0.20
   2  -1   0    5.35    0.15
  -2   1   0    5.16    0.13
  -2   1   0    5.44    0.13
   2  -1   1   78.24    1.20
  -2   1  -1   76.37    0.90
  -2   1  -1   75.69    1.12
   2  -1   2    4.20    0.13
  -2   1  -2    4.05    0.14
  -2   1  -2    4.06    0.07
   2  -1   3   13.91    0.30
  -2   1  -3   13.53    0.32
   2  -1   4    7.44    0.21
  -2   1  -4    7.18    0.21
   2  -1   5    5.81    0.20
  -2   1  -5    6.28    0.20
   2  -1   6   35.32    0.76
  -2   1  -6   35.26    0.76
   2  -1   7    1.45    0.11
  -2   1  -7    1.74    0.12
   2  -1   8    7.63    0.28
  -2   1  -8    7.05    0.29
   2  -1   9    0.04    0.03
  -2   1  -9    0.08    0.07
   2  -1  10    1.13    0.07
   2  -1  10    1.35    0.15
  -2   1 -10    1.19    0.13
   2  -1  11    8.90    0.24
   2  -1  11    9.79    0.39
  -2   1 -11    9.85    0.41
   2  -1  12   31.18    0.99
  -2   1 -12   31.63    0.96
   2  -1  13    5.06    0.31
  -2   1 -13    4.63    0.31
   2  -1  14    0.67    0.17
  -2   1 -14    0.61    0.17
   2  -1  15    0.78    0.21
  -2   1 -15    0.37    0.15
   2  -1  16   -0.07    0.16
  -2   1 -16   -0.04    0.12
   2  -1  17    0.15    0.15
  -2   1 -17    0.16    0.15
   2   0 -16    1.04    0.22
  -2   0  16    1.31    0.31
   2   0 -15    0.33    0.14
  -2   0  15    0.19    0.17
   2   0 -14    5.92    0.44
  -2   0  14    7.05    0.50
   2   0 -13    1.70    0.19
  -2   0  13    1.46    0.22
   2   0 -12    1.02    0.18
  -2   0  12    1.21    0.18
   2   0 -11    0.30    0.10
  -2   0  11    0.29    0.14
   2   0 -10    2.31    0.21
  -2   0  10    3.07    0.24
   2   0  -9    8.23    0.31
  -2   0   9    8.39    0.35
   2   0  -8   -0.06    0.08
  -2   0   8   -0.10    0.08
   2   0  -7   -0.01    0.05
  -2   0   7    0.04    0.07
   2   0  -6   10.69    0.30
  -2   0   6   10.16    0.31
   2   0  -5    6.50    0.20
  -2   0   5    6.65    0.24
   2   0  -4    0.37    0.02
   2   0  -4    0.61    0.06
  -2   0   4    0.38    0.06
   2   0  -3   21.76    0.40
  -2   0   3   20.28    0.20
  -2   0   3   21.46    0.42
   2   0  -2   53.57    0.85
  -2   0   2   54.69    0.88
   2   0  -1    0.63    0.05
  -2   0   1    0.69    0.03
  -2   0   1    0.65    0.05
   2   0   0   40.66    0.62
  -2   0   0   39.56    0.55
  -2   0   0   39.15    0.50
   2   0   1    0.98    0.06
  -2   0  -1    1.01    0.04
  -2   0  -1    1.08    0.06
   2   0   2   12.35    0.23
  -2   0  -2   12.78    0.25
  -2   0  -2   12.60    0.17
   2   0   3    4.44    0.12
  -2   0  -3    4.74    0.13
  -2   0  -3    4.47    0.07
   2   0   4   60.34    0.96
  -2   0  -4   59.48    1.00
   2   0   5  165.60    2.45
   2   0   5  162.07    1.76
  -2   0  -5  164.84    2.55
   2   0   6   14.51    0.25
   2   0   6   14.92    0.33
  -2   0  -6   14.75    0.35
   2   0   7    0.87    0.09
  -2   0  -7    1.09    0.10
   2   0   8   -0.05    0.05
   2   0   8   -0.04    0.04
  -2   0  -8    0.16    0.06
   2   0   9    7.40    0.27
   2   0   9    7.44    0.22
  -2   0  -9    8.09    0.28
   2   0  10   -0.07    0.07
   2   0  10    0.02    0.07
  -2   0 -10    0.00    0.09
   2   0  11    0.17    0.08
   2   0  11    0.17    0.07
  -2   0 -11   -0.14    0.09
   2   0  12    2.41    0.22
   2   0  12    1.11    0.13
   2   0  13   14.36    0.55
   2   0  13   13.77    0.47
  -2   0 -13   14.15    0.52
   2   0  14    8.14    0.36
   2   0  14    8.98    0.50
  -2   0 -14    8.92    0.39
   2   0  15    2.47    0.29
  -2   0 -15    2.53    0.25
   2   0  16    3.08    0.29
  -2   0 -16    3.61    0.27
   2   0  17    1.19    0.21
  -2   0 -17    1.11    0.23
   2   1 -16    0.02    0.14
  -2  -1  16    0.22    0.15
   2   1 -15   -0.02    0.14
  -2  -1  15   -0.06    0.15
   2   1 -14    1.07    0.20
  -2  -1  14    0.84    0.18
   2   1 -13    5.08    0.31
  -2  -1  13    3.57    0.28
   2   1 -12    0.13    0.11
  -2  -1  12    0.15    0.11
   2   1 -11    2.77    0.24
  -2  -1  11    2.48    0.24
   2   1 -10    6.82    0.31
  -2  -1  10    6.16    0.30
   2   1  -9    5.86    0.27
  -2  -1   9    5.72    0.30
   2   1  -8    5.72    0.28
  -2  -1   8    6.06    0.28
   2   1  -7   13.76    0.41
  -2  -1   7   14.93    0.42
   2   1  -6    1.35    0.11
  -2  -1   6    1.71    0.11
   2   1  -5   17.91    0.40
  -2  -1   5   15.12    0.39
   2   1  -4    9.16    0.24
  -2  -1   4    8.86    0.23
   2   1  -3   33.46    0.61
  -2  -1   3   32.27    0.61
   2   1  -2    0.78    0.06
  -2  -1   2    0.77    0.06
   2   1  -1    3.10    0.08
  -2  -1   1    2.92    0.09
  -2  -1   1    3.14    0.06
   2   1   0    9.38    0.18
  -2  -1   0    9.28    0.18
  -2  -1   0    9.47    0.15
   2   1   1   15.17    0.24
  -2  -1  -1   15.22    0.25
  -2  -1  -1   15.23    0.24
   2   1   2    2.32    0.06
  -2  -1  -2    2.51    0.08
  -2  -1  -2    2.71    0.08
   2   1   3   21.28    0.32
   2   1   3   21.06    0.35
  -2  -1  -3   21.15    0.39
   2   1   4   38.17    0.64
   2   1   4   37.40    0.57
  -2  -1  -4   38.07    0.68
   2   1   5    5.59    0.15
   2   1   5    5.30    0.14
  -2  -1  -5    5.03    0.16
   2   1   6    2.93    0.12
   2   1   6    2.94    0.12
  -2  -1  -6    3.00    0.13
   2   1   7    0.41    0.07
   2   1   7    0.61    0.07
  -2  -1  -7    0.48    0.07
   2   1   8   23.55    0.54
   2   1   8   24.02    0.55
  -2  -1  -8   23.40    0.57
   2   1   9    3.87    0.19
   2   1   9    4.15    0.20
  -2  -1  -9    3.90    0.19
   2   1  10    4.03    0.22
   2   1  10    4.48    0.22
  -2  -1 -10    4.05    0.21
   2   1  11    1.46    0.14
   2   1  11    1.72    0.18
  -2  -1 -11    1.68    0.17
   2   1  12    0.54    0.13
   2   1  12    0.15    0.09
  -2  -1 -12    0.65    0.13
   2   1  13    6.78    0.33
   2   1  13    6.66    0.34
  -2  -1 -13    6.44    0.37
   2   1  14   -0.09    0.09
   2   1  14    0.08    0.12
  -2  -1 -14   -0.13    0.11
   2   1  15    0.80    0.16
   2   1  15    0.77    0.17
  -2  -1 -15    0.68    0.17
   2   1  16    5.67    0.39
   2   1  16    4.52    0.35
  -2  -1 -16    4.71    0.31
   2   1  17    1.19    0.24
  -2  -1 -17    0.97    0.22
   2   2 -16    0.02    0.20
  -2  -2  16    0.34    0.15
   2   2 -15    0.18    0.15
  -2  -2  15    0.38    0.14
   2   2 -14    2.44    0.27
  -2  -2  14    2.92    0.25
   2   2 -13    0.00    0.11
  -2  -2  13   -0.06    0.11
   2   2 -12    1.82    0.19
  -2  -2  12    1.96    0.19
   2   2 -11    3.94    0.25
  -2  -2  11    3.68    0.24
   2   2 -10    3.55    0.26
  -2  -2  10    3.87    0.21
   2   2  -9    0.31    0.08
  -2  -2   9    0.08    0.10
   2   2  -8    2.81    0.18
   2   2  -8    2.32    0.08
  -2  -2   8    2.71    0.15
   2   2  -7    0.54    0.04
   2   2  -7    0.87    0.10
  -2  -2   7    0.77    0.10
   2   2  -6   11.76    0.33
   2   2  -6   10.56    0.18
  -2  -2   6   11.27    0.33
   2   2  -5    1.61    0.11
  -2  -2   5    1.73    0.12
   2   2  -4    2.69    0.11
  -2  -2   4    2.67    0.06
  -2  -2   4    2.77    0.12
   2   2  -3   32.66    0.59
  -2  -2   3   31.59    0.60
  -2  -2   3   32.07    0.39
   2   2  -2   22.34    0.38
  -2  -2   2   23.59    0.45
  -2  -2   2   22.63    0.30
   2   2  -1    0.12    0.04
  -2  -2   1    0.18    0.03
  -2  -2   1    0.18    0.04
   2   2   0    0.64    0.04
  -2  -2   0    0.62    0.05
  -2  -2   0    0.64    0.06
   2   2   1    5.79    0.10
  -2  -2  -1    5.68    0.15
  -2  -2  -1    5.82    0.14
   2   2   2    0.20    0.05
   2   2   2    0.22    0.02
  -2  -2  -2    0.28    0.04
   2   2   3    6.22    0.17
   2   2   3    5.70    0.10
  -2  -2  -3    6.11    0.17
   2   2   4    0.17    0.06
   2   2   4    0.32    0.03
  -2  -2  -4    0.22    0.06
   2   2   5   16.09    0.27
   2   2   5   16.92    0.40
  -2  -2  -5   16.05    0.37
   2   2   6    8.66    0.19
   2   2   6    8.32    0.27
  -2  -2  -6    8.32    0.27
   2   2   7   -0.02    0.06
   2   2   7   -0.01    0.04
  -2  -2  -7    0.05    0.05
   2   2   8    0.03    0.08
   2   2   8    0.09    0.06
  -2  -2  -8    0.02    0.07
   2   2   9    0.61    0.09
   2   2   9    0.45    0.10
  -2  -2  -9    0.50    0.09
   2   2  10    1.28    0.13
   2   2  10    1.33    0.14
  -2  -2 -10    0.91    0.15
   2   2  11    0.01    0.07
   2   2  11    0.18    0.11
  -2  -2 -11   -0.01    0.09
   2   2  12    3.56    0.23
   2   2  12    3.15    0.26
  -2  -2 -12    3.38    0.22
   2   2  13    0.56    0.16
   2   2  13    0.69    0.12
  -2  -2 -13    0.81    0.13
   2   2  14    0.06    0.09
   2   2  14   -0.01    0.09
  -2  -2 -14   -0.04    0.10
   2   2  15    8.95    0.50
   2   2  15    8.12    0.46
  -2  -2 -15    9.00    0.45
   2   2  16    9.63    0.59
  -2  -2 -16    9.02    0.49
  -2  -2 -16    8.44    0.46
   2   2  17   -0.06    0.10
  -2  -2 -17    0.08    0.12
  -2  -2 -17    0.00    0.11
   2   3 -16    1.40    0.25
  -2  -3  16    0.93    0.24
   2   3 -15    0.14    0.13
  -2  -3  15   -0.12    0.12
   2   3 -14    0.28    0.16
  -2  -3  14    0.41    0.16
   2   3 -13    1.90    0.22
  -2  -3  13    2.02    0.20
   2   3 -12    1.16    0.19
  -2  -3  12    1.00    0.15
   2   3 -11    0.38    0.14
  -2  -3  11    0.59    0.13
   2   3 -10    5.28    0.28
   2   3 -10    4.37    0.16
  -2  -3  10    4.76    0.24
   2   3  -9    0.11    0.04
   2   3  -9    0.05    0.08
  -2  -3   9    0.00    0.09
   2   3  -8    2.26    0.10
   2   3  -8    2.51    0.18
  -2  -3   8    2.70    0.15
   2   3  -7    0.07    0.04
   2   3  -7    0.03    0.05
  -2  -3   7    0.02    0.06
   2   3  -6    0.01    0.04
   2   3  -6    0.09    0.04
  -2  -3   6    0.18    0.06
   2   3  -5    0.20    0.06
  -2  -3   5   -0.01    0.05
  -2  -3   5    0.13    0.04
   2   3  -4   69.28    1.31
  -2  -3   4   66.96    1.28
  -2  -3   4   68.49    1.06
   2   3  -3   34.83    0.67
  -2  -3   3   34.00    0.57
  -2  -3   3   33.44    0.68
   2   3  -2    5.93    0.17
  -2  -3   2    6.66    0.19
  -2  -3   2    6.16    0.16
   2   3  -1    2.21    0.08
  -2  -3   1    2.00    0.09
  -2  -3   1    2.28    0.12
  -2  -3   0    6.41    0.18
  -2  -3   0    6.56    0.19
   2   3   1    9.56    0.28
  -2  -3  -1    9.79    0.24
   2   3   2    0.04    0.05
  -2  -3  -2    0.09    0.04
   2   3   3    0.29    0.07
  -2  -3  -3    0.28    0.06
   2   3   4    5.72    0.22
  -2  -3  -4    5.58    0.20
   2   3   5    0.75    0.10
  -2  -3  -5    0.72    0.08
   2   3   6    2.21    0.18
  -2  -3  -6    2.45    0.16
   2   3   7    0.51    0.10
   2   3   7    0.40    0.06
  -2  -3  -7    0.55    0.10
   2   3   8   -0.23    0.11
   2   3   8    0.10    0.05
  -2  -3  -8    0.14    0.08
   2   3   9    0.00    0.08
   2   3   9    0.01    0.05
  -2  -3  -9    0.10    0.08
   2   3  10    0.07    0.14
   2   3  10    0.25    0.07
  -2  -3 -10    0.34    0.11
   2   3  11    7.88    0.38
  -2  -3 -11    7.90    0.35
   2   3  12   -0.26    0.12
  -2  -3 -12   -0.11    0.11
  -2  -3 -12   -0.03    0.08
   2   3  13    0.10    0.15
  -2  -3 -13    0.18    0.09
  -2  -3 -13    0.08    0.10
   2   3  14    0.16    0.09
  -2  -3 -14   -0.07    0.08
  -2  -3 -14   -0.05    0.08
   2   3  15    0.01    0.15
  -2  -3 -15    0.00    0.13
  -2  -3 -15    0.10    0.10
   2   3  16    0.23    0.16
  -2  -3 -16    0.35    0.18
   2   4 -15    0.40    0.17
  -2  -4  15    0.04    0.15
   2   4 -14    0.26    0.16
  -2  -4  14   -0.09    0.12
   2   4 -13    1.87    0.24
  -2  -4  13    1.57    0.21
   2   4 -12    0.86    0.19
  -2  -4  12    1.23    0.14
   2   4 -11    2.86    0.16
  -2  -4  11    3.91    0.22
   2   4 -10    2.44    0.15
  -2  -4  10    2.59    0.26
  -2  -4  10    2.28    0.17
   2   4  -9   11.00    0.34
  -2  -4   9   11.69    0.39
  -2  -4   9   11.10    0.49
   2   4  -8    0.59    0.08
  -2  -4   8    0.54    0.12
  -2  -4   8    0.62    0.09
   2   4  -7    0.09    0.06
  -2  -4   7    0.21    0.08
  -2  -4   7   -0.07    0.09
  -2  -4   6    2.97    0.15
  -2  -4   6    3.11    0.20
  -2  -4   6    2.88    0.15
  -2  -4   5    0.27    0.06
  -2  -4   5    0.29    0.09
  -2  -4   5    0.15    0.05
  -2  -4   4   17.62    0.48
  -2  -4   4   19.40    0.46
  -2  -4   4   18.13    0.47
  -2  -4   3    0.63    0.09
  -2  -4   3    0.86    0.09
  -2  -4   3    0.47    0.08
  -2  -4   2    0.10    0.05
  -2  -4   2   -0.06    0.04
  -2  -4   2    0.08    0.05
   2   4  -1   12.33    0.25
  -2  -4   1   11.74    0.33
  -2  -4   1   11.65    0.32
   2   4   0   14.74    0.23
   2   4   0   15.96    0.43
  -2  -4   0   15.71    0.37
   2   4   1    0.15    0.02
   2   4   1    0.04    0.08
  -2  -4  -1    0.15    0.05
   2   4   2    2.26    0.16
  -2  -4  -2    2.09    0.12
   2   4   3    3.85    0.23
  -2  -4  -3    3.61    0.19
   2   4   4  197.86    4.35
  -2  -4  -4  202.18    3.90
   2   4   5    3.33    0.23
  -2  -4  -5    4.21    0.20
   2   4   6    0.95    0.15
  -2  -4  -6    0.89    0.12
   2   4   7    6.30    0.33
  -2  -4  -7    5.10    0.25
   2   4   8    0.39    0.14
  -2  -4  -8    0.50    0.11
   2   4   9    0.27    0.18
  -2  -4  -9    0.48    0.13
   2   4  10    1.39    0.22
  -2  -4 -10    0.94    0.15
   2   4  11    1.29    0.23
  -2  -4 -11    1.08    0.17
   2   4  12    0.51    0.15
  -2  -4 -12    0.28    0.13
   2   4  13    0.03    0.17
  -2  -4 -13    0.16    0.14
   2   4  14    0.44    0.18
  -2  -4 -14    0.53    0.16
   2   4  15    0.30    0.19
  -2  -4 -15    0.05    0.14
   2   5 -14    0.36    0.19
   2   5 -13    2.29    0.25
  -2  -5  13    1.67    0.21
  -2  -5  12    0.09    0.10
  -2  -5  12   -0.02    0.12
   2   5 -11   -0.02    0.08
  -2  -5  11    0.11    0.10
  -2  -5  11    0.18    0.14
   2   5 -10    0.67    0.13
  -2  -5  10    1.11    0.14
  -2  -5  10    0.89    0.19
   2   5  -9    0.02    0.07
  -2  -5   9    0.04    0.08
  -2  -5   9    0.06    0.11
   2   5  -8    0.89    0.11
  -2  -5   8    0.69    0.13
  -2  -5   8    0.96    0.17
   2   5  -7    0.68    0.09
  -2  -5   7    0.74    0.12
  -2  -5   7    0.54    0.15
  -2  -5   6    1.34    0.14
  -2  -5   6    1.31    0.12
  -2  -5   6    1.28    0.13
  -2  -5   5    1.14    0.13
  -2  -5   5    0.97    0.14
  -2  -5   5    1.23    0.13
  -2  -5   4   12.18    0.38
  -2  -5   4   12.46    0.39
  -2  -5   4   12.46    0.42
  -2  -5   3    7.50    0.23
  -2  -5   3    7.41    0.28
  -2  -5   3    6.84    0.25
   2   5  -2    2.59    0.20
  -2  -5   2    2.64    0.13
  -2  -5   2    2.74    0.16
   2   5  -1    1.94    0.15
  -2  -5   1    1.44    0.09
  -2  -5   1    1.62    0.12
   2   5   0   13.35    0.48
   2   5   0   12.81    0.25
  -2  -5   0   12.47    0.41
   2   5   1    0.15    0.08
  -2  -5  -1    0.08    0.06
   2   5   2    3.36    0.21
  -2  -5  -2    2.91    0.16
   2   5   3    2.65    0.21
  -2  -5  -3    2.67    0.17
   2   5   4    1.64    0.20
  -2  -5  -4    1.35    0.13
   2   5   5    1.01    0.17
  -2  -5  -5    1.59    0.18
   2   5   6    0.43    0.19
  -2  -5  -6    0.59    0.14
   2   5   7   78.18    2.37
  -2  -5  -7   78.06    2.08
   2   5   8    0.16    0.20
  -2  -5  -8    0.52    0.12
   2   5   9    0.28    0.18
  -2  -5  -9    0.70    0.13
   2   5  10    0.65    0.17
  -2  -5 -10    0.66    0.15
   2   5  11    0.51    0.22
  -2  -5 -11    0.61    0.15
   2   5  12    0.65    0.21
  -2  -5 -12    0.87    0.17
   2   5  13    0.29    0.18
  -2  -5 -13    0.27    0.14
   2   5  14    0.11    0.21
  -2  -5 -14    0.21    0.18
  -2  -6  12    0.31    0.16
   2   6 -11    0.29    0.14
  -2  -6  11    0.32    0.18
  -2  -6  11    0.44    0.13
   2   6 -10    0.40    0.10
  -2  -6  10    0.41    0.16
  -2  -6  10    0.19    0.10
   2   6  -9    0.49    0.14
  -2  -6   9    0.19    0.18
  -2  -6   9    0.51    0.11
   2   6  -8    3.82    0.26
  -2  -6   8    3.95    0.29
  -2  -6   8    3.64    0.25
  -2  -6   7    0.48    0.12
  -2  -6   7    0.80    0.15
  -2  -6   7    0.75    0.14
  -2  -6   6    0.63    0.12
  -2  -6   6    0.79    0.11
  -2  -6   6    0.63    0.12
   2   6  -5    0.26    0.12
  -2  -6   5    0.23    0.11
  -2  -6   5    0.09    0.10
   2   6  -4    3.21    0.21
  -2  -6   4    3.05    0.19
  -2  -6   4    3.04    0.24
   2   6  -3   -0.05    0.10
  -2  -6   3   -0.01    0.07
  -2  -6   3   -0.12    0.07
   2   6  -2    1.12    0.17
  -2  -6   2    1.54    0.11
  -2  -6   2    1.27    0.14
   2   6  -1    2.06    0.22
  -2  -6   1    2.22    0.11
  -2  -6   1    2.20    0.16
   2   6   0    4.55    0.31
  -2  -6   0    3.62    0.22
   2   6   1    2.75    0.27
  -2  -6  -1    2.24    0.22
   2   6   2    0.00    0.09
  -2  -6  -2   -0.05    0.07
   2   6   3    0.86    0.17
  -2  -6  -3    0.95    0.14
   2   6   4    1.30    0.19
  -2  -6  -4    1.45    0.16
   2   6   5    0.05    0.12
  -2  -6  -5    0.05    0.11
   2   6   6   14.49    0.70
  -2  -6  -6   12.57    0.53
   2   6   7    0.98    0.20
  -2  -6  -7    0.79    0.16
   2   6   8    0.02    0.15
  -2  -6  -8    0.08    0.10
   2   6   9    0.81    0.21
  -2  -6  -9    0.63    0.16
   2   6  10    4.87    0.41
  -2  -6 -10    5.06    0.42
   2   6  11    0.05    0.21
  -2  -6 -11    0.21    0.14
   2   6  12    1.05    0.25
  -2  -6 -12    0.90    0.22
   2   6  13    0.00    0.17
  -2  -6 -13    0.09    0.14
  -2  -7  11    0.18    0.17
   2   7 -10    0.01    0.12
  -2  -7  10   -0.11    0.14
   2   7  -9    1.63    0.25
   2   7  -9    1.97    0.22
  -2  -7   9    2.05    0.27
   2   7  -8    0.03    0.12
   2   7  -8    0.00    0.12
  -2  -7   8    0.12    0.12
   2   7  -7    1.22    0.21
  -2  -7   7    1.37    0.18
  -2  -7   7    1.33    0.17
   2   7  -6    2.66    0.22
  -2  -7   6    2.22    0.26
  -2  -7   6    2.16    0.22
   2   7  -5   16.00    0.65
  -2  -7   5   14.17    0.53
  -2  -7   5   14.62    0.59
   2   7  -4    2.93    0.28
  -2  -7   4    2.47    0.19
  -2  -7   4    3.21    0.24
   2   7  -3    3.62    0.27
  -2  -7   3    2.68    0.19
  -2  -7   3    3.54    0.24
   2   7  -2    0.07    0.12
  -2  -7   2    0.13    0.09
   2   7  -1    0.19    0.14
  -2  -7   1    0.01    0.12
   2   7   0    0.06    0.11
  -2  -7   0   -0.02    0.07
   2   7   1    0.35    0.14
  -2  -7  -1    0.16    0.11
   2   7   2    3.14    0.27
  -2  -7  -2    2.77    0.23
   2   7   3    0.35    0.15
  -2  -7  -3   -0.04    0.10
   2   7   4    1.08    0.20
  -2  -7  -4    1.18    0.22
   2   7   5    1.62    0.27
  -2  -7  -5    2.06    0.26
   2   7   6    0.13    0.16
  -2  -7  -6    0.35    0.14
   2   7   7    0.16    0.23
  -2  -7  -7    0.49    0.19
   2   7   8    0.65    0.26
  -2  -7  -8    0.43    0.17
   2   7   9    8.60    0.70
  -2  -7  -9   10.27    0.64
   2   7  10    0.33    0.27
  -2  -7 -10    0.42    0.18
   2   7  11   -0.07    0.19
  -2  -7 -11    0.03    0.13
   2   8  -9    0.36    0.15
  -2  -8   9   -0.08    0.16
   2   8  -8    0.12    0.15
  -2  -8   8    0.33    0.13
   2   8  -7    0.00    0.11
  -2  -8   7    0.07    0.11
  -2  -8   7   -0.06    0.13
   2   8  -6    0.47    0.18
  -2  -8   6    0.24    0.16
  -2  -8   6    0.32    0.14
   2   8  -5    4.39    0.40
  -2  -8   5    4.64    0.34
   2   8  -4    1.20    0.21
  -2  -8   4    1.50    0.24
   2   8  -3    0.97    0.24
  -2  -8   3    0.82    0.19
   2   8  -2    1.68    0.23
  -2  -8   2    1.41    0.27
   2   8  -1    0.10    0.21
  -2  -8   1    0.68    0.18
   2   8   0   -0.08    0.16
  -2  -8   0    0.12    0.13
   2   8   1    1.59    0.25
  -2  -8  -1    1.00    0.19
   2   8   2    0.18    0.15
  -2  -8  -2    0.06    0.15
   2   8   3    1.75    0.26
  -2  -8  -3    1.14    0.26
   2   8   4    0.58    0.22
  -2  -8  -4    0.03    0.17
   2   8   5    0.09    0.19
  -2  -8  -5    0.05    0.17
   2   8   6   -0.04    0.15
  -2  -8  -6   -0.05    0.13
   2   8   7    0.47    0.22
  -2  -8  -7    0.43    0.19
   2   8   8    0.17    0.20
  -2  -8  -8   -0.31    0.15
  -2  -9   4   -0.16    0.16
   2   9  -3    5.31    0.52
  -2  -9   3    5.31    0.42
   2   9  -2    3.80    0.45
  -2  -9   2    3.15    0.37
   2   9  -1   -0.01    0.15
  -2  -9   1   -0.14    0.17
   2   9   0    0.24    0.18
  -2  -9   0    0.20    0.16
   2   9   1   -0.09    0.19
  -2  -9  -1   -0.04    0.16
   2   9   2   -0.13    0.17
  -2  -9  -2   -0.10    0.18
   2   9   3    0.55    0.20
  -2  -9  -3    0.15    0.22
   3  -6  -5    0.14    0.14
  -3   6   5   -0.13    0.17
   3  -6  -4    2.82    0.29
  -3   6   4    2.99    0.34
   3  -6  -3   -0.03    0.10
   3  -6  -3   -0.04    0.11
  -3   6   3    0.04    0.10
   3  -6  -2    1.56    0.28
   3  -6  -2    1.73    0.21
  -3   6   2    1.60    0.24
   3  -6  -1    6.17    0.38
  -3   6   1    6.03    0.39
   3  -6   0    0.28    0.16
  -3   6   0    0.64    0.16
   3  -6   1    0.91    0.19
  -3   6  -1    0.75    0.19
   3  -6   2    1.43    0.18
  -3   6  -2    2.58    0.25
   3  -6   3    2.44    0.23
  -3   6  -3    2.15    0.27
   3  -6   4    0.64    0.16
  -3   6  -4    0.73    0.24
   3  -6   5    0.14    0.11
  -3   6  -5    0.00    0.13
   3  -6   6    0.34    0.13
  -3   6  -6    0.13    0.19
   3  -6   7    0.65    0.18
  -3   6  -7    0.77    0.20
   3  -6   8    0.10    0.11
  -3   6  -8   -0.20    0.15
   3  -6   9    0.88    0.23
  -3   6  -9    1.23    0.24
  -3   5   8    0.31    0.19
   3  -5  -7    0.69    0.18
   3  -5  -7    0.66    0.14
  -3   5   7    0.72    0.21
   3  -5  -6    0.29    0.13
   3  -5  -6    0.36    0.15
  -3   5   6    0.42    0.21
   3  -5  -5    4.63    0.35
   3  -5  -5    3.97    0.30
  -3   5   5    4.78    0.40
   3  -5  -4    4.45    0.29
   3  -5  -4    4.38    0.32
  -3   5   4    3.94    0.35
   3  -5  -3    2.89    0.23
   3  -5  -3    3.49    0.31
  -3   5   3    3.10    0.25
   3  -5  -2    6.96    0.36
   3  -5  -2    7.24    0.44
  -3   5   2    7.72    0.41
   3  -5  -1   13.71    0.49
   3  -5  -1   14.01    0.63
  -3   5   1   13.49    0.53
   3  -5   0    1.23    0.18
  -3   5   0    1.13    0.17
  -3   5   0    1.05    0.17
   3  -5   1    2.79    0.22
  -3   5  -1    2.44    0.28
  -3   5  -1    2.13    0.19
   3  -5   2    1.65    0.18
  -3   5  -2    1.88    0.21
   3  -5   3    1.36    0.20
  -3   5  -3    1.94    0.24
   3  -5   4    0.59    0.13
  -3   5  -4    0.56    0.15
   3  -5   5    0.12    0.10
  -3   5  -5    0.00    0.13
   3  -5   6    0.98    0.21
  -3   5  -6    1.03    0.18
   3  -5   7    1.78    0.23
  -3   5  -7    1.07    0.21
   3  -5   8    0.43    0.15
  -3   5  -8    0.29    0.16
   3  -5   9    1.45    0.24
  -3   5  -9    2.18    0.31
   3  -5  10    2.85    0.36
  -3   5 -10    3.87    0.40
   3  -5  11    0.70    0.22
  -3   5 -11    0.27    0.22
   3  -5  12    0.67    0.25
  -3   5 -12    0.46    0.25
  -3   4  11   -0.09    0.17
   3  -4 -10    0.86    0.20
  -3   4  10    1.19    0.30
   3  -4  -9    0.61    0.16
  -3   4   9    0.34    0.20
   3  -4  -8    1.68    0.20
  -3   4   8    1.72    0.28
   3  -4  -7    0.27    0.11
   3  -4  -7    0.04    0.09
  -3   4   7    0.21    0.14
   3  -4  -6    0.07    0.09
   3  -4  -6    0.18    0.11
  -3   4   6    0.20    0.16
   3  -4  -5    0.13    0.10
   3  -4  -5    0.17    0.09
  -3   4   5    0.23    0.16
   3  -4  -4    0.54    0.12
   3  -4  -4    0.39    0.13
  -3   4   4    0.42    0.14
   3  -4  -3    1.15    0.13
   3  -4  -3    1.01    0.18
  -3   4   3    1.48    0.17
   3  -4  -2    1.15    0.14
   3  -4  -2    1.12    0.12
  -3   4   2    1.21    0.17
   3  -4  -1    4.01    0.24
   3  -4  -1    3.66    0.23
  -3   4   1    4.35    0.26
   3  -4   0    0.92    0.14
  -3   4   0    0.92    0.14
  -3   4   0    0.81    0.14
   3  -4   1   20.36    0.63
  -3   4  -1   21.54    0.70
  -3   4  -1   22.60    0.64
   3  -4   2    7.70    0.32
  -3   4  -2    8.21    0.35
  -3   4  -2    7.32    0.28
   3  -4   3    0.39    0.12
  -3   4  -3    0.33    0.13
   3  -4   4    0.06    0.09
  -3   4  -4    0.36    0.12
   3  -4   5    0.03    0.08
  -3   4  -5    0.01    0.10
   3  -4   6    4.09    0.27
  -3   4  -6    4.16    0.32
   3  -4   7    1.93    0.22
  -3   4  -7    2.66    0.22
   3  -4   8    0.23    0.16
  -3   4  -8    0.60    0.15
   3  -4   9    2.49    0.26
  -3   4  -9    2.43    0.28
   3  -4  10    0.03    0.14
  -3   4 -10    0.01    0.13
   3  -4  11    2.16    0.24
  -3   4 -11    1.53    0.29
   3  -4  12    4.52    0.35
  -3   4 -12    4.36    0.40
   3  -4  13    0.13    0.17
  -3   4 -13    0.15    0.15
   3  -4  14    0.96    0.28
  -3   4 -14    1.75    0.26
   3  -3 -12    3.60    0.30
  -3   3  12    4.16    0.48
   3  -3 -11    1.14    0.17
  -3   3  11    1.05    0.23
   3  -3 -10    0.08    0.12
  -3   3  10    0.35    0.18
   3  -3  -9    0.89    0.14
  -3   3   9    0.81    0.20
   3  -3  -8    0.24    0.10
  -3   3   8    0.28    0.14
   3  -3  -7    0.13    0.09
   3  -3  -7    0.08    0.11
  -3   3   7    0.57    0.13
   3  -3  -6    0.05    0.10
   3  -3  -6    0.25    0.09
  -3   3   6    0.23    0.13
   3  -3  -5    2.24    0.17
   3  -3  -5    2.46    0.19
  -3   3   5    2.40    0.22
   3  -3  -4    2.00    0.16
   3  -3  -4    1.65    0.16
  -3   3   4    1.64    0.23
   3  -3  -3    0.06    0.08
   3  -3  -3    0.09    0.08
  -3   3   3    0.07    0.09
   3  -3  -2    3.68    0.22
   3  -3  -2    3.87    0.20
  -3   3   2    3.69    0.26
   3  -3  -1    0.22    0.09
  -3   3   1    0.28    0.08
   3  -3   0    1.58    0.16
  -3   3   0    1.97    0.16
  -3   3   0    1.75    0.15
   3  -3   1    0.09    0.07
  -3   3  -1   -0.03    0.08
   3  -3   2    1.59    0.15
  -3   3  -2    2.07    0.18
  -3   3  -2    1.87    0.10
   3  -3   3    4.58    0.21
  -3   3  -3    4.17    0.23
  -3   3  -3    3.77    0.12
   3  -3   4    0.29    0.11
  -3   3  -4    0.27    0.08
   3  -3   5    0.46    0.13
  -3   3  -5    0.36    0.10
   3  -3   6    1.99    0.16
  -3   3  -6    2.29    0.18
   3  -3   7    0.82    0.17
  -3   3  -7    0.90    0.14
   3  -3   8    0.94    0.20
  -3   3  -8    1.79    0.19
   3  -3   9   11.51    0.54
  -3   3  -9   11.15    0.55
   3  -3  10    1.65    0.25
  -3   3 -10    1.88    0.24
   3  -3  11    2.21    0.25
  -3   3 -11    2.48    0.23
   3  -3  12    0.26    0.17
  -3   3 -12    0.15    0.13
   3  -3  13    0.91    0.21
  -3   3 -13    0.84    0.18
   3  -3  14    1.20    0.22
  -3   3 -14    0.68    0.20
   3  -3  15    2.77    0.34
  -3   3 -15    4.02    0.33
   3  -2 -13    0.07    0.13
  -3   2  13    0.30    0.20
   3  -2 -12    0.07    0.16
  -3   2  12    0.44    0.17
   3  -2 -11   10.24    0.54
  -3   2  11    9.61    0.57
   3  -2 -10    9.72    0.47
  -3   2  10   10.00    0.57
   3  -2  -9    3.34    0.22
  -3   2   9    3.43    0.28
   3  -2  -8    0.05    0.11
  -3   2   8    0.42    0.12
   3  -2  -7    0.31    0.08
   3  -2  -7    0.12    0.07
  -3   2   7    0.10    0.11
   3  -2  -6    0.42    0.08
   3  -2  -6    0.61    0.10
  -3   2   6    0.61    0.16
   3  -2  -5    2.93    0.17
   3  -2  -5    3.22    0.15
  -3   2   5    2.87    0.23
   3  -2  -4    4.54    0.21
   3  -2  -4    4.83    0.19
  -3   2   4    5.33    0.29
   3  -2  -3    4.52    0.21
   3  -2  -3    4.49    0.18
  -3   2   3    4.49    0.24
   3  -2  -2    0.37    0.07
  -3   2   2    0.41    0.08
  -3   2   2    0.20    0.04
   3  -2  -1    0.37    0.09
  -3   2   1    0.36    0.07
  -3   2   1    0.34    0.07
   3  -2   0    3.99    0.19
  -3   2   0    4.12    0.16
  -3   2   0    4.02    0.16
   3  -2   1    3.99    0.17
  -3   2  -1    3.82    0.14
  -3   2  -1    4.09    0.16
   3  -2   2    3.23    0.15
  -3   2  -2    3.28    0.17
   3  -2   3   -0.02    0.06
  -3   2  -3   -0.03    0.06
   3  -2   4    5.35    0.22
  -3   2  -4    5.65    0.26
   3  -2   5    0.96    0.12
  -3   2  -5    0.92    0.11
   3  -2   6    1.53    0.13
  -3   2  -6    1.39    0.14
   3  -2   7    1.04    0.11
  -3   2  -7    0.55    0.13
   3  -2   8    0.55    0.14
  -3   2  -8    0.46    0.12
   3  -2   9    4.84    0.27
  -3   2  -9    5.08    0.30
   3  -2  10    1.08    0.16
  -3   2 -10    1.06    0.18
   3  -2  11    3.00    0.25
  -3   2 -11    3.13    0.27
   3  -2  12    0.10    0.13
  -3   2 -12    0.23    0.13
   3  -2  13    0.60    0.21
  -3   2 -13    0.47    0.16
   3  -2  14    1.83    0.26
  -3   2 -14    1.99    0.27
   3  -2  15    0.07    0.14
  -3   2 -15    0.09    0.15
   3  -2  16    2.97    0.42
  -3   2 -16    3.33    0.36
   3  -1 -14    0.30    0.19
  -3   1  14    0.56    0.25
   3  -1 -13    0.73    0.21
  -3   1  13    1.03    0.22
   3  -1 -12    4.33    0.29
  -3   1  12    4.54    0.36
   3  -1 -11    3.91    0.27
  -3   1  11    4.64    0.34
   3  -1 -10    2.93    0.20
  -3   1  10    3.05    0.32
   3  -1  -9    0.48    0.13
  -3   1   9    0.72    0.15
   3  -1  -8   16.54    0.54
  -3   1   8   17.09    0.63
   3  -1  -7    1.18    0.12
  -3   1   7    1.19    0.18
   3  -1  -6    5.87    0.27
   3  -1  -6    5.05    0.15
  -3   1   6    5.75    0.27
   3  -1  -5    0.70    0.06
   3  -1  -5    0.80    0.10
  -3   1   5    1.00    0.11
   3  -1  -4    8.43    0.28
  -3   1   4    8.35    0.30
  -3   1   4    7.96    0.18
   3  -1  -3   25.12    0.59
  -3   1   3   25.61    0.61
  -3   1   3   25.01    0.46
   3  -1  -2   29.61    0.67
  -3   1   2   27.90    0.62
  -3   1   2   28.95    0.53
   3  -1  -1    0.92    0.10
  -3   1   1    1.01    0.09
  -3   1   1    0.94    0.06
   3  -1   0   10.30    0.28
  -3   1   0   10.05    0.25
  -3   1   0    9.78    0.24
   3  -1   1    1.38    0.09
  -3   1  -1    1.36    0.07
  -3   1  -1    1.66    0.10
   3  -1   2    0.03    0.05
  -3   1  -2    0.10    0.04
  -3   1  -2    0.18    0.05
   3  -1   3    5.17    0.18
  -3   1  -3    5.59    0.10
  -3   1  -3    5.80    0.19
   3  -1   4   13.23    0.36
  -3   1  -4   13.41    0.36
   3  -1   5    3.32    0.19
  -3   1  -5    3.46    0.19
   3  -1   6    1.33    0.15
  -3   1  -6    1.60    0.14
   3  -1   7    6.30    0.26
  -3   1  -7    6.29    0.29
   3  -1   8   -0.01    0.08
  -3   1  -8    0.11    0.09
   3  -1   9    7.54    0.35
  -3   1  -9    7.93    0.36
   3  -1  10    0.11    0.09
  -3   1 -10    0.03    0.08
   3  -1  11    2.01    0.19
  -3   1 -11    2.27    0.17
   3  -1  12    2.09    0.20
  -3   1 -12    1.71    0.18
   3  -1  13    0.43    0.15
  -3   1 -13    0.41    0.16
   3  -1  14    0.09    0.14
  -3   1 -14    0.03    0.10
   3  -1  15    3.02    0.28
  -3   1 -15    2.95    0.25
   3  -1  16    0.24    0.20
  -3   1 -16    0.30    0.14
   3  -1  17    0.93    0.27
  -3   1 -17    0.60    0.21
   3   0 -15    0.46    0.21
  -3   0  15    0.27    0.25
   3   0 -14    0.13    0.10
  -3   0  14   -0.24    0.13
   3   0 -13    2.37    0.26
  -3   0  13    3.10    0.31
   3   0 -12    4.38    0.31
  -3   0  12    4.97    0.36
   3   0 -11   12.27    0.52
  -3   0  11   12.65    0.58
   3   0 -10    2.07    0.21
  -3   0  10    2.04    0.22
   3   0  -9    3.30    0.27
  -3   0   9    3.27    0.29
   3   0  -8   13.37    0.47
  -3   0   8   11.65    0.47
   3   0  -7    2.43    0.19
  -3   0   7    2.68    0.18
   3   0  -6    0.64    0.09
  -3   0   6    0.59    0.11
   3   0  -5    1.87    0.13
  -3   0   5    1.72    0.14
   3   0  -4    0.36    0.07
  -3   0   4    0.33    0.02
  -3   0   4    0.30    0.08
   3   0  -3   16.83    0.40
  -3   0   3   16.91    0.42
  -3   0   3   16.43    0.24
   3   0  -2   15.03    0.35
  -3   0   2   14.35    0.34
  -3   0   2   14.74    0.24
   3   0  -1    0.31    0.06
  -3   0   1    0.25    0.05
  -3   0   1    0.25    0.04
   3   0   0   76.94    1.35
  -3   0   0   76.22    1.21
  -3   0   0   75.20    1.10
   3   0   1   17.65    0.39
  -3   0  -1   18.03    0.33
  -3   0  -1   17.89    0.35
   3   0   2    8.35    0.22
  -3   0  -2    8.12    0.22
  -3   0  -2    9.02    0.18
   3   0   3    2.49    0.11
  -3   0  -3    2.73    0.08
  -3   0  -3    2.93    0.12
   3   0   4    0.14    0.06
  -3   0  -4   -0.01    0.06
  -3   0  -4    0.06    0.02
   3   0   5   25.37    0.57
  -3   0  -5   24.81    0.57
   3   0   6    2.88    0.16
  -3   0  -6    2.66    0.14
   3   0   7    0.38    0.04
   3   0   7    0.41    0.08
  -3   0  -7    0.35    0.10
   3   0   8   14.24    0.40
   3   0   8   12.79    0.27
  -3   0  -8   13.65    0.42
   3   0   9    4.44    0.24
   3   0   9    3.75    0.13
  -3   0  -9    4.19    0.22
   3   0  10    4.35    0.15
   3   0  10    5.14    0.28
  -3   0 -10    5.13    0.29
   3   0  11    1.78    0.17
  -3   0 -11    2.10    0.18
   3   0  12    7.68    0.34
  -3   0 -12    7.92    0.36
   3   0  13    0.01    0.09
  -3   0 -13   -0.14    0.12
   3   0  14    0.89    0.15
  -3   0 -14    0.86    0.16
   3   0  15    0.26    0.15
  -3   0 -15    0.43    0.16
   3   0  16   -0.02    0.15
  -3   0 -16   -0.12    0.12
   3   0  17    0.04    0.13
  -3   0 -17    0.05    0.14
   3   1 -15    0.04    0.16
  -3  -1  15    0.47    0.17
   3   1 -14    0.30    0.18
  -3  -1  14    0.38    0.17
   3   1 -13    0.01    0.10
  -3  -1  13   -0.02    0.11
   3   1 -12    0.18    0.13
  -3  -1  12    0.62    0.15
   3   1 -11    3.14    0.24
  -3  -1  11    3.35    0.30
   3   1 -10    9.78    0.43
  -3  -1  10   10.28    0.44
   3   1  -9    7.04    0.34
  -3  -1   9    7.40    0.34
   3   1  -8    4.46    0.23
  -3  -1   8    4.43    0.25
   3   1  -7    2.13    0.15
  -3  -1   7    2.05    0.19
   3   1  -6    6.99    0.28
  -3  -1   6    7.26    0.31
   3   1  -5    0.08    0.06
  -3  -1   5   -0.01    0.06
   3   1  -4    0.61    0.08
  -3  -1   4    0.58    0.08
   3   1  -3   27.81    0.57
  -3  -1   3   28.55    0.62
   3   1  -2    0.08    0.05
  -3  -1   2    0.24    0.05
  -3  -1   2    0.12    0.02
   3   1  -1    0.06    0.04
  -3  -1   1    0.03    0.04
  -3  -1   1    0.05    0.02
   3   1   0   47.54    0.82
  -3  -1   0   46.61    0.80
  -3  -1   0   46.13    0.66
   3   1   1    0.04    0.04
  -3  -1  -1   -0.02    0.04
  -3  -1  -1    0.04    0.03
   3   1   2   -0.02    0.03
  -3  -1  -2    0.02    0.03
  -3  -1  -2   -0.03    0.04
   3   1   3   35.19    0.63
  -3  -1  -3   34.78    0.55
  -3  -1  -3   35.65    0.68
   3   1   4    0.04    0.04
   3   1   4   -0.04    0.03
  -3  -1  -4    0.08    0.05
   3   1   5   14.78    0.33
   3   1   5   15.54    0.33
  -3  -1  -5   15.78    0.39
   3   1   6   10.99    0.28
   3   1   6   10.85    0.26
  -3  -1  -6   10.89    0.32
   3   1   7    4.05    0.16
   3   1   7    4.39    0.16
  -3  -1  -7    3.80    0.21
   3   1   8   22.87    0.52
   3   1   8   23.09    0.59
  -3  -1  -8   24.93    0.66
   3   1   9    1.29    0.14
   3   1   9    1.32    0.11
  -3  -1  -9    1.66    0.17
   3   1  10    2.15    0.15
   3   1  10    2.54    0.18
  -3  -1 -10    2.90    0.19
   3   1  11    0.88    0.11
   3   1  11    0.56    0.13
  -3  -1 -11    0.62    0.13
   3   1  12    0.47    0.11
   3   1  12    0.55    0.13
  -3  -1 -12    0.72    0.13
   3   1  13    4.04    0.24
   3   1  13    4.77    0.30
  -3  -1 -13    5.48    0.33
   3   1  14   16.36    0.68
   3   1  14   15.35    0.57
  -3  -1 -14   16.86    0.70
   3   1  15    1.53    0.21
  -3  -1 -15    1.65    0.21
   3   1  16    0.02    0.11
  -3  -1 -16    0.07    0.12
   3   1  17    1.02    0.23
  -3  -1 -17    0.69    0.18
   3   2 -15   -0.02    0.18
  -3  -2  15    0.28    0.18
   3   2 -14    2.63    0.28
  -3  -2  14    3.19    0.35
   3   2 -13    0.06    0.13
  -3  -2  13    0.33    0.13
   3   2 -12    6.89    0.42
  -3  -2  12    6.86    0.44
   3   2 -11    2.55    0.23
  -3  -2  11    2.79    0.23
   3   2 -10    0.68    0.14
  -3  -2  10    0.89    0.13
   3   2  -9   -0.02    0.10
  -3  -2   9   -0.14    0.11
   3   2  -8    7.94    0.34
  -3  -2   8    8.53    0.36
   3   2  -7   15.37    0.47
  -3  -2   7   17.20    0.55
   3   2  -6    5.69    0.22
  -3  -2   6    5.49    0.23
   3   2  -5    0.44    0.09
  -3  -2   5    0.34    0.08
   3   2  -4    5.86    0.20
  -3  -2   4    5.13    0.20
   3   2  -3    0.27    0.05
  -3  -2   3    0.30    0.06
  -3  -2   3    0.25    0.02
   3   2  -2    0.30    0.06
  -3  -2   2    0.63    0.06
   3   2  -1   15.98    0.32
  -3  -2   1   16.07    0.37
  -3  -2   1   15.22    0.25
   3   2   0   74.29    1.13
  -3  -2   0   74.13    1.05
  -3  -2   0   73.02    1.28
   3   2   1    0.23    0.05
  -3  -2  -1    0.03    0.06
  -3  -2  -1    0.21    0.05
   3   2   2   32.80    0.53
  -3  -2  -2   33.05    0.60
  -3  -2  -2   33.14    0.60
   3   2   3    7.03    0.16
  -3  -2  -3    7.54    0.22
   3   2   4    3.70    0.14
   3   2   4    3.73    0.11
  -3  -2  -4    3.96    0.15
   3   2   5    3.43    0.12
   3   2   5    3.89    0.16
  -3  -2  -5    3.43    0.18
   3   2   6   43.02    0.75
   3   2   6   43.62    0.96
  -3  -2  -6   42.33    0.95
   3   2   7   38.72    0.89
   3   2   7   38.21    0.73
  -3  -2  -7   39.39    0.91
   3   2   8    2.64    0.14
   3   2   8    2.66    0.18
  -3  -2  -8    2.13    0.16
   3   2   9    0.38    0.09
   3   2   9    0.74    0.12
  -3  -2  -9    0.60    0.13
   3   2  10    0.78    0.13
   3   2  10    1.15    0.15
  -3  -2 -10    1.27    0.16
   3   2  11    5.21    0.24
   3   2  11    4.73    0.28
  -3  -2 -11    4.75    0.30
   3   2  12    0.06    0.09
   3   2  12    0.03    0.08
  -3  -2 -12   -0.05    0.08
   3   2  13   -0.01    0.10
   3   2  13    0.02    0.09
  -3  -2 -13    0.09    0.09
   3   2  14    0.77    0.17
   3   2  14    0.64    0.14
  -3  -2 -14    1.13    0.15
   3   2  15    3.36    0.29
   3   2  15    3.54    0.28
  -3  -2 -15    3.52    0.35
   3   2  16    3.06    0.30
   3   2  16    2.67    0.25
  -3  -2 -16    3.47    0.29
  -3  -2 -17    3.28    0.31
   3   3 -15    0.78    0.19
  -3  -3  15    0.39    0.22
   3   3 -14    0.00    0.12
  -3  -3  14    0.07    0.11
   3   3 -13    0.08    0.15
  -3  -3  13    0.34    0.13
   3   3 -12    0.96    0.19
  -3  -3  12    0.23    0.13
   3   3 -11    5.22    0.33
  -3  -3  11    4.82    0.29
   3   3 -10    0.60    0.18
  -3  -3  10    0.72    0.15
   3   3  -9    9.27    0.44
  -3  -3   9    7.83    0.39
   3   3  -8    1.83    0.17
  -3  -3   8    1.86    0.19
   3   3  -7    8.55    0.36
  -3  -3   7    7.89    0.32
   3   3  -6    3.85    0.23
  -3  -3   6    3.63    0.21
   3   3  -5   11.86    0.34
  -3  -3   5   12.12    0.37
  -3  -3   5   11.79    0.22
   3   3  -4    6.37    0.21
  -3  -3   4    7.18    0.24
  -3  -3   4    6.39    0.14
   3   3  -3    3.10    0.14
  -3  -3   3    3.38    0.10
  -3  -3   3    3.59    0.16
   3   3  -2    4.15    0.13
  -3  -3   2    4.13    0.12
  -3  -3   2    3.96    0.16
   3   3  -1   19.83    0.39
  -3  -3   1   18.57    0.45
  -3  -3   1   17.92    0.34
   3   3   0    3.98    0.12
  -3  -3   0    3.83    0.15
  -3  -3   0    3.83    0.12
   3   3   1    0.00    0.03
  -3  -3  -1    0.03    0.03
  -3  -3  -1    0.10    0.04
   3   3   2    1.51    0.06
  -3  -3  -2    1.68    0.10
   3   3   3    0.34    0.07
   3   3   3    0.26    0.03
  -3  -3  -3    0.29    0.06
   3   3   4    3.09    0.17
   3   3   4    2.69    0.08
  -3  -3  -4    3.10    0.15
   3   3   5    5.53    0.23
   3   3   5    4.92    0.11
  -3  -3  -5    5.32    0.23
   3   3   6   11.12    0.37
  -3  -3  -6   10.35    0.35
   3   3   7    0.29    0.05
   3   3   7    0.72    0.12
  -3  -3  -7    0.12    0.10
   3   3   8    0.57    0.11
   3   3   8    0.51    0.06
  -3  -3  -8    0.49    0.10
   3   3   9    0.08    0.09
   3   3   9    0.03    0.05
  -3  -3  -9   -0.18    0.07
   3   3  10   15.53    0.43
   3   3  10   16.28    0.62
  -3  -3 -10   15.59    0.62
   3   3  11    3.13    0.18
   3   3  11    3.39    0.26
  -3  -3 -11    3.16    0.23
   3   3  12    0.50    0.12
   3   3  12    0.30    0.10
  -3  -3 -12    0.32    0.12
   3   3  13   -0.16    0.09
   3   3  13    0.02    0.12
  -3  -3 -13   -0.04    0.11
   3   3  14    0.73    0.19
   3   3  14    0.53    0.14
  -3  -3 -14    0.66    0.16
   3   3  15    1.88    0.28
  -3  -3 -15    2.25    0.24
   3   3  16   -0.02    0.14
  -3  -3 -16   -0.03    0.14
   3   4 -14    0.09    0.15
  -3  -4  14    0.11    0.15
   3   4 -13    0.11    0.15
  -3  -4  13    0.23    0.15
   3   4 -12    1.66    0.24
  -3  -4  12    2.09    0.21
   3   4 -11    0.06    0.14
  -3  -4  11    0.28    0.13
   3   4 -10    2.30    0.22
  -3  -4  10    2.28    0.22
   3   4  -9    3.47    0.24
  -3  -4   9    3.57    0.26
   3   4  -8    3.72    0.22
  -3  -4   8    3.80    0.25
   3   4  -7    0.90    0.11
   3   4  -7    0.74    0.08
  -3  -4   7    0.61    0.13
   3   4  -6    2.03    0.14
  -3  -4   6    1.96    0.15
  -3  -4   6    1.83    0.10
   3   4  -5    0.39    0.08
  -3  -4   5    0.19    0.06
  -3  -4   5    0.25    0.07
   3   4  -4    0.11    0.06
  -3  -4   4    0.03    0.08
  -3  -4   4    0.01    0.04
   3   4  -3    0.42    0.07
  -3  -4   3    0.07    0.06
  -3  -4   3   -0.07    0.05
   3   4  -2    3.08    0.13
  -3  -4   2    3.07    0.18
  -3  -4   2    3.12    0.13
   3   4  -1    7.99    0.20
  -3  -4   1    8.71    0.25
  -3  -4   1    8.42    0.27
   3   4   0    5.56    0.14
  -3  -4   0    5.37    0.22
  -3  -4   0    5.59    0.19
   3   4   1    0.19    0.07
   3   4   1    0.11    0.03
  -3  -4  -1    0.21    0.06
   3   4   2    1.37    0.12
  -3  -4  -2    1.39    0.10
   3   4   3    3.55    0.20
  -3  -4  -3    3.77    0.20
   3   4   4    2.91    0.18
  -3  -4  -4    2.54    0.18
   3   4   5    8.06    0.33
  -3  -4  -5    7.95    0.30
   3   4   6    0.52    0.12
  -3  -4  -6    0.64    0.12
   3   4   7    0.38    0.12
  -3  -4  -7    0.50    0.13
   3   4   8    1.08    0.20
  -3  -4  -8    0.87    0.17
   3   4   9    0.09    0.10
  -3  -4  -9    0.00    0.08
   3   4  10    0.28    0.12
  -3  -4 -10    0.15    0.10
   3   4  11    0.34    0.15
  -3  -4 -11    0.06    0.10
   3   4  12    0.54    0.18
  -3  -4 -12    0.22    0.13
   3   4  13    0.44    0.21
  -3  -4 -13    0.70    0.15
   3   4  14    1.29    0.26
  -3  -4 -14    0.97    0.23
   3   4  15    0.30    0.17
  -3  -4 -15    0.38    0.20
   3   4  16    0.35    0.18
  -3  -4 -16   -0.12    0.17
   3   5 -14    0.12    0.16
  -3  -5  14    0.26    0.15
   3   5 -13   -0.05    0.14
  -3  -5  13    0.21    0.12
   3   5 -12    0.33    0.14
  -3  -5  12    0.06    0.14
   3   5 -11    1.63    0.21
  -3  -5  11    1.56    0.21
   3   5 -10    0.23    0.14
  -3  -5  10    0.17    0.13
   3   5  -9    0.84    0.15
  -3  -5   9    0.82    0.13
   3   5  -8    1.44    0.12
   3   5  -8    1.30    0.15
  -3  -5   8    1.38    0.15
   3   5  -7    0.48    0.12
  -3  -5   7    0.91    0.14
   3   5  -6    1.52    0.15
  -3  -5   6    1.33    0.13
  -3  -5   6    1.09    0.12
   3   5  -5    0.44    0.10
  -3  -5   5    0.22    0.09
  -3  -5   5    0.29    0.09
   3   5  -4    0.13    0.05
  -3  -5   4    0.08    0.08
  -3  -5   4   -0.07    0.05
   3   5  -3    0.12    0.07
  -3  -5   3    0.21    0.06
  -3  -5   3    0.03    0.09
   3   5  -2   20.61    0.48
  -3  -5   2   20.57    0.56
  -3  -5   2   21.22    0.63
   3   5  -1   10.20    0.24
  -3  -5   1   11.41    0.33
  -3  -5   1   11.91    0.42
   3   5   0    5.70    0.28
  -3  -5   0    5.92    0.23
   3   5   1    0.01    0.07
  -3  -5  -1    0.02    0.05
   3   5   2    0.08    0.08
  -3  -5  -2    0.01    0.06
   3   5   3    0.09    0.09
  -3  -5  -3    0.08    0.07
   3   5   4    0.24    0.15
  -3  -5  -4    0.46    0.10
   3   5   5    0.14    0.10
  -3  -5  -5   -0.06    0.07
   3   5   6    4.04    0.27
  -3  -5  -6    3.33    0.22
   3   5   7    0.02    0.11
  -3  -5  -7    0.09    0.10
   3   5   8    0.63    0.16
  -3  -5  -8    0.64    0.16
   3   5   9    0.02    0.13
  -3  -5  -9   -0.02    0.08
   3   5  10    0.16    0.17
  -3  -5 -10    0.10    0.11
   3   5  11    0.49    0.21
  -3  -5 -11    0.37    0.15
   3   5  12    0.00    0.18
  -3  -5 -12    0.34    0.14
   3   5  13    1.01    0.22
  -3  -5 -13    1.09    0.25
   3   5  14   -0.16    0.19
  -3  -5 -14   -0.05    0.13
   3   5  15    0.08    0.17
  -3  -5 -15    0.08    0.17
   3   6 -13    0.89    0.23
  -3  -6  13    0.39    0.19
   3   6 -12   -0.04    0.14
  -3  -6  12   -0.02    0.12
   3   6 -11    0.83    0.19
  -3  -6  11    0.99    0.19
   3   6 -10    0.22    0.13
  -3  -6  10    0.41    0.12
   3   6  -9    2.84    0.22
   3   6  -9    3.23    0.30
  -3  -6   9    2.40    0.25
   3   6  -8    2.14    0.23
   3   6  -8    1.69    0.18
  -3  -6   8    1.73    0.19
   3   6  -7    9.23    0.43
  -3  -6   7    8.57    0.41
  -3  -6   7    8.84    0.37
   3   6  -6    1.20    0.13
  -3  -6   6    1.03    0.16
  -3  -6   6    0.63    0.12
   3   6  -5    0.50    0.10
  -3  -6   5    0.25    0.10
  -3  -6   5    0.30    0.09
   3   6  -4    1.52    0.11
  -3  -6   4    1.37    0.18
  -3  -6   4    1.20    0.13
   3   6  -3    0.13    0.09
   3   6  -3    0.53    0.09
  -3  -6   3    0.93    0.12
   3   6  -2    2.75    0.13
   3   6  -2    3.48    0.27
  -3  -6   2    2.66    0.20
   3   6  -1    0.12    0.11
   3   6  -1    0.08    0.04
  -3  -6   1    0.05    0.07
   3   6   0    0.01    0.11
  -3  -6   0    0.06    0.09
   3   6   1    3.04    0.28
  -3  -6  -1    3.23    0.19
   3   6   2    8.90    0.48
  -3  -6  -2    7.52    0.38
   3   6   3   -0.02    0.12
  -3  -6  -3    0.14    0.10
   3   6   4    1.39    0.18
  -3  -6  -4    0.73    0.13
   3   6   5    1.23    0.21
  -3  -6  -5    1.38    0.17
   3   6   6   22.35    0.94
  -3  -6  -6   24.07    0.88
   3   6   7    0.25    0.14
  -3  -6  -7   -0.01    0.14
   3   6   8    0.12    0.15
  -3  -6  -8    0.24    0.12
   3   6   9    0.98    0.25
  -3  -6  -9    0.72    0.21
   3   6  10   -0.09    0.12
  -3  -6 -10    0.06    0.10
   3   6  11    0.10    0.18
  -3  -6 -11    0.24    0.17
   3   6  12    0.27    0.19
  -3  -6 -12    0.31    0.16
   3   6  13    0.27    0.23
  -3  -6 -13    0.06    0.18
   3   7 -11    3.26    0.33
  -3  -7  11    2.13    0.29
   3   7 -10    0.13    0.15
  -3  -7  10    0.05    0.11
   3   7  -9   -0.11    0.13
   3   7  -9   -0.07    0.11
  -3  -7   9    0.07    0.11
   3   7  -8    0.16    0.10
   3   7  -8    0.10    0.11
  -3  -7   8   -0.11    0.13
   3   7  -7    0.37    0.12
  -3  -7   7    0.48    0.14
  -3  -7   7    0.16    0.15
   3   7  -6   -0.03    0.07
   3   7  -6   -0.02    0.10
  -3  -7   6    0.03    0.11
   3   7  -5    0.97    0.20
   3   7  -5    0.85    0.14
  -3  -7   5    0.78    0.16
   3   7  -4    1.39    0.15
   3   7  -4    2.03    0.25
  -3  -7   4    1.98    0.21
   3   7  -3    0.10    0.11
   3   7  -3    0.09    0.07
  -3  -7   3    0.12    0.09
   3   7  -2    2.76    0.29
  -3  -7   2    2.41    0.19
   3   7  -1    0.83    0.17
  -3  -7   1    1.00    0.14
   3   7   0    1.80    0.22
  -3  -7   0    1.63    0.20
   3   7   1    2.28    0.29
  -3  -7  -1    2.17    0.19
   3   7   2    1.70    0.23
  -3  -7  -2    1.43    0.17
   3   7   3    0.39    0.17
  -3  -7  -3    0.04    0.14
   3   7   4    0.88    0.19
  -3  -7  -4    0.58    0.15
   3   7   5    2.09    0.33
  -3  -7  -5    1.72    0.21
   3   7   6    1.06    0.22
  -3  -7  -6    0.83    0.22
   3   7   7    0.42    0.21
  -3  -7  -7    0.23    0.14
   3   7   8    0.30    0.18
  -3  -7  -8    0.14    0.14
   3   7   9   17.80    0.98
  -3  -7  -9   18.16    0.87
   3   7  10    0.45    0.27
  -3  -7 -10    0.30    0.21
   3   7  11   -0.09    0.16
  -3  -7 -11    0.16    0.14
   3   8  -9    0.12    0.13
   3   8  -8    0.00    0.15
   3   8  -8   -0.02    0.10
   3   8  -7    0.44    0.22
  -3  -8   7    0.82    0.19
   3   8  -6    1.23    0.28
  -3  -8   6    1.74    0.21
   3   8  -5    0.43    0.17
  -3  -8   5    0.27    0.17
   3   8  -4    0.02    0.16
  -3  -8   4    0.07    0.14
   3   8  -3    0.39    0.17
  -3  -8   3    0.32    0.13
   3   8  -2   -0.24    0.15
  -3  -8   2    0.07    0.10
   3   8  -1    0.02    0.16
  -3  -8   1    0.04    0.10
   3   8   0    0.24    0.22
  -3  -8   0    0.46    0.17
   3   8   1    1.18    0.29
  -3  -8  -1    1.22    0.18
   3   8   2    0.73    0.24
  -3  -8  -2    0.45    0.16
   3   8   3   -0.37    0.22
  -3  -8  -3   -0.21    0.13
   3   8   4    0.32    0.22
  -3  -8  -4    0.37    0.15
   3   8   5    0.99    0.27
  -3  -8  -5    0.76    0.20
   3   8   6    0.31    0.27
  -3  -8  -6    0.36    0.21
   3   8   7   -0.09    0.18
  -3  -8  -7    0.07    0.12
   3   8   8    2.01    0.47
  -3  -8  -8    2.98    0.33
   3   8   9    0.50    0.31
  -3  -8  -9    0.41    0.21
   3   9  -5    0.52    0.22
  -3  -9   5    0.73    0.19
   3   9  -4    0.60    0.20
  -3  -9   4   -0.10    0.19
   3   9  -3    6.36    0.53
  -3  -9   3    5.91    0.44
   3   9  -2    0.05    0.24
  -3  -9   2    0.37    0.16
   3   9  -1    1.37    0.27
  -3  -9   1    1.22    0.22
   3   9   0   -0.03    0.19
  -3  -9   0   -0.02    0.14
   3   9   1    0.06    0.16
  -3  -9  -1    0.03    0.12
   3   9   2    0.11    0.20
  -3  -9  -2   -0.20    0.16
   3   9   3    0.22    0.21
  -3  -9  -3    0.32    0.20
   3   9   4    0.51    0.27
  -3  -9  -4    0.73    0.24
   4  -6   0    0.25    0.14
   4  -6   1   -0.19    0.14
  -4   6  -1    0.13    0.14
   4  -6   2    0.06    0.16
  -4   6  -2    0.16    0.17
   4  -6   3    0.31    0.19
  -4   6  -3    0.32    0.21
   4  -6   4   -0.09    0.15
  -4   6  -4    0.02    0.17
   4  -5  -5    0.08    0.14
  -4   5   5    0.26    0.18
   4  -5  -4    2.19    0.26
  -4   5   4    1.55    0.28
  -4   5   4    1.52    0.27
   4  -5  -3   -0.03    0.11
  -4   5   3   -0.05    0.10
  -4   5   3    0.10    0.13
   4  -5  -2    0.71    0.17
  -4   5   2    0.33    0.18
  -4   5   2    0.46    0.16
   4  -5  -1    0.83    0.18
  -4   5   1    0.45    0.20
   4  -5   0    1.02    0.20
  -4   5   0    1.03    0.19
   4  -5   1    1.36    0.21
  -4   5  -1    0.82    0.20
   4  -5   2    0.25    0.12
  -4   5  -2    0.28    0.13
   4  -5   3    0.52    0.15
  -4   5  -3    0.47    0.16
   4  -5   4    0.39    0.19
  -4   5  -4    0.63    0.16
   4  -5   5    0.86    0.20
  -4   5  -5    0.75    0.18
   4  -5   6    0.13    0.14
  -4   5  -6    0.29    0.15
   4  -5   7    1.09    0.20
  -4   5  -7    0.68    0.26
   4  -5   8   -0.20    0.13
  -4   5  -8    0.10    0.15
   4  -5   9   -0.05    0.17
  -4   5  -9    0.18    0.19
   4  -5  10    0.10    0.16
  -4   5 -10   -0.03    0.14
   4  -4  -8    0.64    0.16
  -4   4   8    0.77    0.26
   4  -4  -7    1.78    0.21
  -4   4   7    1.84    0.30
   4  -4  -6    0.20    0.15
  -4   4   6    0.32    0.14
   4  -4  -5    1.39    0.19
  -4   4   5    2.05    0.26
  -4   4   5    1.44    0.21
   4  -4  -4    8.39    0.44
  -4   4   4    7.87    0.48
  -4   4   4    8.78    0.45
   4  -4  -3    0.17    0.13
  -4   4   3    0.29    0.14
  -4   4   3    0.23    0.11
   4  -4  -2    4.92    0.29
  -4   4   2    4.79    0.33
  -4   4   2    4.67    0.32
   4  -4  -1    0.31    0.14
  -4   4   1    0.40    0.13
  -4   4   1    0.44    0.12
   4  -4   0    2.52    0.20
  -4   4   0    2.01    0.20
  -4   4   0    2.53    0.21
   4  -4   1    9.83    0.47
  -4   4  -1    9.75    0.43
   4  -4   2    1.93    0.19
  -4   4  -2    1.69    0.18
   4  -4   3    2.89    0.23
  -4   4  -3    2.86    0.24
   4  -4   4    5.63    0.37
  -4   4  -4    5.62    0.38
   4  -4   5    2.18    0.27
  -4   4  -5    2.54    0.23
   4  -4   6    0.88    0.17
  -4   4  -6    0.98    0.19
   4  -4   7    0.59    0.20
  -4   4  -7    0.55    0.16
   4  -4   8    0.96    0.18
  -4   4  -8    0.66    0.19
   4  -4   9    0.14    0.13
  -4   4  -9    0.22    0.15
   4  -4  10    0.22    0.16
  -4   4 -10    0.27    0.17
   4  -4  11    1.58    0.30
  -4   4 -11    1.16    0.25
   4  -4  12    0.01    0.16
  -4   4 -12    0.06    0.17
   4  -3 -10    0.96    0.22
  -4   3  10    0.99    0.24
   4  -3  -9    1.03    0.18
  -4   3   9    1.32    0.24
   4  -3  -8    0.36    0.16
  -4   3   8    0.38    0.16
   4  -3  -7    0.29    0.12
  -4   3   7    0.31    0.18
   4  -3  -6    0.81    0.14
  -4   3   6    0.59    0.16
   4  -3  -5    1.86    0.18
  -4   3   5    1.59    0.24
  -4   3   5    1.69    0.16
   4  -3  -4    0.79    0.12
  -4   3   4    1.06    0.19
  -4   3   4    0.96    0.14
   4  -3  -3   10.83    0.44
  -4   3   3   11.12    0.46
  -4   3   3   11.13    0.43
   4  -3  -2    7.01    0.34
  -4   3   2    7.21    0.36
  -4   3   2    7.77    0.35
   4  -3  -1   13.94    0.54
  -4   3   1   14.41    0.51
  -4   3   1   15.47    0.55
   4  -3   0    5.78    0.32
  -4   3   0    5.70    0.25
  -4   3   0    5.41    0.29
   4  -3   1   32.97    1.00
  -4   3  -1   32.89    0.96
   4  -3   2    1.40    0.14
  -4   3  -2    0.97    0.10
  -4   3  -2    1.25    0.14
   4  -3   3    3.89    0.24
  -4   3  -3    4.26    0.24
   4  -3   4    3.93    0.28
  -4   3  -4    4.92    0.30
   4  -3   5    0.43    0.15
  -4   3  -5    0.52    0.12
   4  -3   6    0.70    0.14
  -4   3  -6    0.74    0.17
   4  -3   7    0.21    0.11
  -4   3  -7    0.18    0.12
   4  -3   8    3.87    0.30
  -4   3  -8    4.60    0.30
   4  -3   9    0.78    0.19
  -4   3  -9    0.66    0.17
   4  -3  10    0.81    0.17
  -4   3 -10   -0.09    0.15
   4  -3  11    2.32    0.27
  -4   3 -11    2.54    0.27
   4  -3  12    3.50    0.38
  -4   3 -12    2.88    0.36
   4  -3  13    0.25    0.16
  -4   3 -13    0.08    0.15
   4  -3  14    0.24    0.17
  -4   3 -14    0.19    0.16
   4  -2 -12    0.38    0.15
  -4   2  12    0.01    0.24
   4  -2 -11   -0.04    0.16
  -4   2  11    0.48    0.20
   4  -2 -10    1.68    0.25
  -4   2  10    1.88    0.31
   4  -2  -9    0.06    0.11
  -4   2   9    0.18    0.14
   4  -2  -8    3.77    0.31
  -4   2   8    3.52    0.30
   4  -2  -7    2.36    0.25
  -4   2   7    2.79    0.28
   4  -2  -6    2.90    0.22
  -4   2   6    2.81    0.22
   4  -2  -5    0.00    0.09
  -4   2   5    0.41    0.10
  -4   2   5    0.08    0.06
   4  -2  -4    0.00    0.07
  -4   2   4    0.14    0.09
  -4   2   4   -0.03    0.05
   4  -2  -3    0.10    0.10
  -4   2   3    0.12    0.08
  -4   2   3    0.12    0.07
   4  -2  -2    0.59    0.12
  -4   2   2    0.25    0.09
  -4   2   2    0.53    0.09
   4  -2  -1    2.71    0.21
  -4   2   1    2.21    0.16
  -4   2   1    2.23    0.14
   4  -2   0    4.25    0.22
  -4   2   0    4.79    0.21
  -4   2   0    4.24    0.19
   4  -2   1   14.06    0.46
  -4   2  -1   13.35    0.36
  -4   2  -1   14.40    0.45
   4  -2   2    0.37    0.11
  -4   2  -2    0.32    0.06
  -4   2  -2    0.44    0.11
   4  -2   3   41.33    1.08
  -4   2  -3   37.52    0.67
  -4   2  -3   43.83    1.07
   4  -2   4   33.45    0.96
  -4   2  -4   35.11    0.98
   4  -2   5    1.49    0.16
  -4   2  -5    2.02    0.18
   4  -2   6    0.23    0.10
  -4   2  -6    0.19    0.13
   4  -2   7    1.09    0.18
  -4   2  -7    1.04    0.16
   4  -2   8    4.38    0.25
  -4   2  -8    3.98    0.25
   4  -2   9    3.37    0.26
  -4   2  -9    3.56    0.30
   4  -2  10    0.75    0.16
  -4   2 -10    0.72    0.17
   4  -2  11    0.91    0.19
  -4   2 -11    1.01    0.21
   4  -2  12    0.00    0.11
  -4   2 -12    0.06    0.10
   4  -2  13    2.70    0.29
  -4   2 -13    2.82    0.28
   4  -2  14    2.40    0.29
  -4   2 -14    2.59    0.33
   4  -2  15    0.25    0.20
  -4   2 -15    0.65    0.18
   4  -1 -13    0.00    0.16
  -4   1  13    0.05    0.15
   4  -1 -12    0.20    0.14
  -4   1  12   -0.16    0.14
   4  -1 -11    0.42    0.17
  -4   1  11    0.24    0.19
   4  -1 -10    6.39    0.37
  -4   1  10    7.43    0.47
   4  -1  -9    3.12    0.28
  -4   1   9    3.23    0.35
   4  -1  -8   -0.02    0.09
  -4   1   8    0.19    0.11
   4  -1  -7    1.60    0.17
  -4   1   7    1.65    0.19
   4  -1  -6    0.07    0.07
  -4   1   6   -0.04    0.08
   4  -1  -5    0.02    0.08
  -4   1   5    0.10    0.09
   4  -1  -4    0.07    0.07
  -4   1   4    0.18    0.08
  -4   1   4    0.04    0.04
   4  -1  -3    9.47    0.34
  -4   1   3    9.23    0.24
  -4   1   3   10.33    0.35
   4  -1  -2    8.69    0.32
  -4   1   2    9.53    0.34
  -4   1   2    9.06    0.25
   4  -1  -1    1.50    0.13
  -4   1   1    1.31    0.10
  -4   1   1    1.22    0.10
   4  -1   0    4.58    0.21
  -4   1   0    4.37    0.18
  -4   1   0    4.36    0.18
   4  -1   1    0.07    0.06
  -4   1  -1    0.05    0.05
  -4   1  -1   -0.03    0.06
   4  -1   2    2.41    0.17
  -4   1  -2    2.46    0.10
  -4   1  -2    2.47    0.16
   4  -1   3    0.88    0.10
  -4   1  -3    0.91    0.06
  -4   1  -3    1.05    0.10
   4  -1   4    0.06    0.07
  -4   1  -4    0.15    0.07
   4  -1   5    8.67    0.32
  -4   1  -5    8.47    0.36
   4  -1   6    2.51    0.17
  -4   1  -6    2.24    0.17
   4  -1   7    0.13    0.08
  -4   1  -7   -0.04    0.08
   4  -1   8    0.78    0.12
  -4   1  -8    0.70    0.14
   4  -1   9    0.02    0.09
  -4   1  -9    0.07    0.08
   4  -1  10   -0.08    0.09
  -4   1 -10    0.06    0.11
   4  -1  11    9.91    0.50
  -4   1 -11    9.06    0.42
   4  -1  12    0.80    0.21
  -4   1 -12    0.66    0.20
   4  -1  13    0.73    0.21
  -4   1 -13    0.99    0.17
   4  -1  14    0.99    0.20
  -4   1 -14    0.06    0.15
   4  -1  15   -0.08    0.14
  -4   1 -15    0.21    0.13
   4  -1  16    1.27    0.28
  -4   1 -16    1.35    0.28
   4   0 -13    1.48    0.22
  -4   0  13    1.26    0.26
   4   0 -12    0.05    0.12
  -4   0  12    0.21    0.15
   4   0 -11    0.50    0.18
  -4   0  11    0.53    0.20
   4   0 -10   -0.13    0.13
  -4   0  10   -0.12    0.13
   4   0  -9   14.87    0.61
  -4   0   9   14.98    0.70
   4   0  -8   18.07    0.65
  -4   0   8   17.32    0.67
   4   0  -7   14.52    0.57
  -4   0   7   14.48    0.60
   4   0  -6    0.42    0.10
  -4   0   6    0.53    0.11
   4   0  -5   -0.09    0.07
  -4   0   5    0.12    0.08
   4   0  -4    0.31    0.08
  -4   0   4    0.35    0.09
   4   0  -3    2.72    0.17
  -4   0   3    2.95    0.15
  -4   0   3    2.38    0.09
   4   0  -2   11.34    0.35
  -4   0   2   11.31    0.33
  -4   0   2   10.21    0.23
   4   0  -1    2.99    0.16
  -4   0   1    2.92    0.15
  -4   0   1    2.82    0.11
   4   0   0    0.44    0.09
  -4   0   0    0.24    0.06
  -4   0   0    0.38    0.06
   4   0   1    2.71    0.17
  -4   0  -1    2.58    0.12
  -4   0  -1    2.74    0.13
   4   0   2    5.77    0.22
  -4   0  -2    6.23    0.18
  -4   0  -2    6.65    0.22
   4   0   3   19.71    0.51
  -4   0  -3   20.13    0.39
  -4   0  -3   19.20    0.48
   4   0   4    1.37    0.11
  -4   0  -4    1.39    0.06
  -4   0  -4    1.41    0.11
   4   0   5    2.12    0.08
   4   0   5    2.31    0.14
  -4   0  -5    2.31    0.16
   4   0   6    0.80    0.10
   4   0   6    0.37    0.05
  -4   0  -6    0.38    0.11
   4   0   7    0.92    0.13
  -4   0  -7    0.43    0.10
   4   0   8    1.10    0.13
  -4   0  -8    1.19    0.14
   4   0   9    0.59    0.13
  -4   0  -9    0.99    0.14
   4   0  10    0.30    0.11
  -4   0 -10    0.54    0.14
   4   0  11    2.84    0.22
  -4   0 -11    2.71    0.26
   4   0  12    1.01    0.18
  -4   0 -12    1.02    0.21
   4   0  13    2.86    0.28
  -4   0 -13    2.18    0.23
   4   0  14    2.09    0.26
  -4   0 -14    1.74    0.22
   4   0  15   -0.08    0.10
  -4   0 -15    0.03    0.13
   4   0  16    1.00    0.21
  -4   0 -16    1.12    0.24
   4   1 -14   -0.14    0.17
  -4  -1  14    0.05    0.13
   4   1 -13    0.54    0.21
  -4  -1  13    0.36    0.18
   4   1 -12    0.14    0.16
  -4  -1  12   -0.02    0.15
   4   1 -11    0.27    0.14
  -4  -1  11    0.22    0.14
   4   1 -10    7.55    0.42
  -4  -1  10    7.02    0.41
   4   1  -9    2.76    0.25
  -4  -1   9    3.31    0.26
   4   1  -8    4.77    0.29
  -4  -1   8    5.24    0.29
   4   1  -7    1.44    0.16
  -4  -1   7    2.12    0.21
   4   1  -6   32.22    0.89
  -4  -1   6   33.43    0.94
   4   1  -5    7.74    0.33
  -4  -1   5    8.02    0.35
   4   1  -4    0.79    0.11
  -4  -1   4    0.87    0.13
   4   1  -3   -0.03    0.06
  -4  -1   3   -0.01    0.02
  -4  -1   3   -0.01    0.05
   4   1  -2   18.73    0.48
  -4  -1   2   19.13    0.48
  -4  -1   2   19.14    0.32
   4   1  -1    8.97    0.28
  -4  -1   1    8.94    0.26
  -4  -1   1    8.70    0.19
   4   1   0   21.76    0.52
  -4  -1   0   21.66    0.50
  -4  -1   0   21.45    0.43
   4   1   1    2.76    0.13
  -4  -1  -1    2.56    0.11
  -4  -1  -1    2.39    0.10
   4   1   2    9.58    0.28
  -4  -1  -2    9.86    0.26
  -4  -1  -2    9.19    0.27
   4   1   3    0.18    0.06
  -4  -1  -3    0.26    0.04
  -4  -1  -3    0.17    0.07
   4   1   4    0.50    0.08
  -4  -1  -4    0.34    0.05
  -4  -1  -4    0.33    0.07
   4   1   5    0.26    0.06
   4   1   5    0.37    0.06
  -4  -1  -5    0.20    0.08
   4   1   6    2.07    0.14
   4   1   6    1.96    0.10
  -4  -1  -6    2.21    0.14
   4   1   7    3.41    0.14
   4   1   7    3.36    0.16
  -4  -1  -7    3.40    0.20
   4   1   8    1.06    0.09
   4   1   8    1.29    0.14
  -4  -1  -8    0.90    0.16
   4   1   9    4.60    0.24
  -4  -1  -9    4.68    0.27
   4   1  10    0.23    0.08
   4   1  10    0.04    0.06
  -4  -1 -10    0.02    0.12
   4   1  11    1.42    0.12
   4   1  11    1.52    0.16
  -4  -1 -11    1.71    0.18
   4   1  12    0.04    0.09
  -4  -1 -12   -0.05    0.09
   4   1  13    3.05    0.22
  -4  -1 -13    2.68    0.26
   4   1  14    0.19    0.11
  -4  -1 -14    0.31    0.16
   4   1  15    0.21    0.12
  -4  -1 -15    0.13    0.16
   4   1  16    0.04    0.12
  -4  -1 -16   -0.03    0.13
   4   2 -14    0.25    0.14
  -4  -2  14   -0.11    0.18
   4   2 -13    0.13    0.19
  -4  -2  13    0.48    0.16
   4   2 -12    0.30    0.19
  -4  -2  12    0.51    0.19
   4   2 -11    0.96    0.21
  -4  -2  11    1.17    0.24
   4   2 -10    5.78    0.33
  -4  -2  10    6.37    0.41
   4   2  -9   12.43    0.57
  -4  -2   9   14.04    0.57
   4   2  -8    4.45    0.30
  -4  -2   8    4.67    0.31
   4   2  -7    2.56    0.18
  -4  -2   7    1.99    0.23
   4   2  -6   24.17    0.72
  -4  -2   6   20.47    0.65
   4   2  -5    8.14    0.32
  -4  -2   5    7.24    0.33
   4   2  -4    0.10    0.06
  -4  -2   4    0.00    0.07
   4   2  -3    1.08    0.10
  -4  -2   3    1.22    0.11
   4   2  -2    0.24    0.06
  -4  -2   2    0.21    0.07
  -4  -2   2    0.22    0.03
   4   2  -1   19.99    0.46
  -4  -2   1   19.69    0.49
  -4  -2   1   19.24    0.35
   4   2   0    2.67    0.14
  -4  -2   0    2.50    0.12
  -4  -2   0    2.76    0.10
   4   2   1    0.39    0.06
  -4  -2  -1    0.60    0.08
  -4  -2  -1    0.42    0.07
   4   2   2   44.83    0.88
  -4  -2  -2   44.69    0.89
  -4  -2  -2   44.79    0.89
   4   2   3   16.75    0.39
  -4  -2  -3   17.39    0.43
  -4  -2  -3   18.03    0.41
   4   2   4    0.11    0.05
   4   2   4    0.08    0.03
  -4  -2  -4    0.07    0.06
   4   2   5    0.12    0.05
   4   2   5    0.31    0.06
  -4  -2  -5    0.18    0.07
   4   2   6    0.77    0.09
   4   2   6    0.56    0.07
  -4  -2  -6    0.92    0.11
   4   2   7    4.87    0.18
   4   2   7    4.92    0.21
  -4  -2  -7    5.14    0.25
   4   2   8    2.31    0.15
   4   2   8    2.13    0.14
  -4  -2  -8    1.96    0.18
   4   2   9    0.71    0.11
   4   2   9    0.80    0.10
  -4  -2  -9    0.68    0.16
   4   2  10    2.64    0.18
   4   2  10    2.16    0.15
  -4  -2 -10    3.25    0.25
   4   2  11    0.40    0.09
   4   2  11    0.57    0.12
  -4  -2 -11    0.63    0.16
   4   2  12    0.63    0.14
   4   2  12    1.03    0.14
  -4  -2 -12    0.84    0.16
   4   2  13    0.19    0.10
   4   2  13   -0.09    0.10
  -4  -2 -13    0.12    0.14
   4   2  14    2.25    0.22
   4   2  14    2.56    0.24
  -4  -2 -14    2.40    0.26
   4   2  15    0.27    0.14
  -4  -2 -15    0.20    0.18
   4   2  16    1.19    0.19
  -4  -2 -16    1.50    0.23
   4   3 -14    1.19    0.24
  -4  -3  14    1.28    0.25
   4   3 -13    1.06    0.26
  -4  -3  13    1.16    0.24
   4   3 -12    0.33    0.17
  -4  -3  12   -0.01    0.16
   4   3 -11    0.04    0.12
  -4  -3  11    0.08    0.11
   4   3 -10    1.65    0.22
  -4  -3  10    1.02    0.18
   4   3  -9    3.66    0.25
  -4  -3   9    3.57    0.26
   4   3  -8   12.24    0.53
  -4  -3   8   12.18    0.47
   4   3  -7    5.73    0.29
  -4  -3   7    6.36    0.30
   4   3  -6   10.59    0.38
  -4  -3   6    9.87    0.39
   4   3  -5    0.63    0.11
  -4  -3   5    0.55    0.11
   4   3  -4    3.62    0.19
  -4  -3   4    3.45    0.19
   4   3  -3    1.19    0.12
  -4  -3   3    1.12    0.06
  -4  -3   3    0.99    0.11
   4   3  -2    0.50    0.07
  -4  -3   2    0.76    0.08
  -4  -3   2    0.59    0.06
   4   3  -1    8.73    0.24
  -4  -3   1    8.34    0.27
  -4  -3   1    7.92    0.20
   4   3   0    0.06    0.03
  -4  -3   0   -0.05    0.04
  -4  -3   0   -0.04    0.04
   4   3   1    0.20    0.05
  -4  -3  -1    0.12    0.06
  -4  -3  -1    0.17    0.06
   4   3   2   24.83    0.50
  -4  -3  -2   25.37    0.60
  -4  -3  -2   25.11    0.61
   4   3   3    1.30    0.08
  -4  -3  -3    1.53    0.11
  -4  -3  -3    1.47    0.12
   4   3   4    1.74    0.08
   4   3   4    1.80    0.12
  -4  -3  -4    1.83    0.13
   4   3   5    2.60    0.11
   4   3   5    2.73    0.15
  -4  -3  -5    2.67    0.18
   4   3   6    0.13    0.05
   4   3   6    0.08    0.07
  -4  -3  -6   -0.11    0.09
   4   3   7    3.06    0.13
   4   3   7    3.39    0.18
  -4  -3  -7    3.51    0.20
   4   3   8    4.43    0.25
   4   3   8    3.52    0.15
  -4  -3  -8    3.99    0.22
   4   3   9    2.89    0.21
   4   3   9    2.16    0.14
  -4  -3  -9    2.18    0.20
   4   3  10    7.40    0.27
   4   3  10    7.98    0.37
  -4  -3 -10    7.44    0.36
   4   3  11    0.51    0.10
   4   3  11    0.57    0.15
  -4  -3 -11    0.64    0.14
   4   3  12    0.03    0.09
   4   3  12    0.28    0.09
  -4  -3 -12    0.02    0.11
   4   3  13    0.57    0.14
   4   3  13    0.72    0.14
  -4  -3 -13    0.94    0.16
   4   3  14    0.08    0.14
  -4  -3 -14    0.25    0.13
   4   3  15    1.26    0.23
  -4  -3 -15    1.62    0.27
  -4  -3 -16    4.57    0.40
   4   4 -13   -0.07    0.15
  -4  -4  13    0.01    0.12
   4   4 -12    5.14    0.36
  -4  -4  12    4.97    0.40
   4   4 -11    0.00    0.11
  -4  -4  11   -0.04    0.10
   4   4 -10    2.78    0.24
  -4  -4  10    2.98    0.28
   4   4  -9    1.24    0.17
  -4  -4   9    1.50    0.21
   4   4  -8    0.72    0.15
  -4  -4   8    0.51    0.13
   4   4  -7   -0.01    0.11
  -4  -4   7    0.20    0.11
   4   4  -6    9.31    0.37
  -4  -4   6    9.84    0.43
   4   4  -5   16.38    0.49
  -4  -4   5   15.63    0.53
  -4  -4   5   14.63    0.33
   4   4  -4   11.69    0.39
  -4  -4   4   11.00    0.27
  -4  -4   4   11.49    0.40
   4   4  -3    0.48    0.09
  -4  -4   3    0.54    0.07
  -4  -4   3    0.72    0.12
   4   4  -2    1.90    0.11
  -4  -4   2    1.92    0.13
  -4  -4   2    1.61    0.09
   4   4  -1    1.18    0.09
  -4  -4   1    1.26    0.12
  -4  -4   1    1.35    0.10
   4   4   0    0.01    0.04
  -4  -4   0   -0.10    0.05
  -4  -4   0   -0.09    0.07
   4   4   1    1.57    0.09
  -4  -4  -1    1.87    0.12
  -4  -4  -1    2.02    0.13
   4   4   2   25.41    0.48
  -4  -4  -2   27.35    0.68
   4   4   3    0.24    0.05
   4   4   3    0.36    0.08
  -4  -4  -3    0.13    0.09
   4   4   4   13.91    0.48
  -4  -4  -4   14.63    0.44
   4   4   5    7.41    0.31
   4   4   5    6.51    0.16
  -4  -4  -5    7.54    0.29
   4   4   6    0.22    0.04
   4   4   6    0.29    0.11
  -4  -4  -6    0.31    0.11
   4   4   7    0.55    0.16
  -4  -4  -7    0.58    0.14
   4   4   8   13.16    0.54
  -4  -4  -8   13.30    0.51
   4   4   9    5.69    0.36
  -4  -4  -9    5.28    0.36
   4   4  10   -0.05    0.11
  -4  -4 -10    0.06    0.11
   4   4  11    0.76    0.19
  -4  -4 -11    0.55    0.16
   4   4  12    0.36    0.19
  -4  -4 -12    0.55    0.15
   4   4  13    2.18    0.25
  -4  -4 -13    2.59    0.25
   4   4  14   -0.14    0.12
  -4  -4 -14    0.03    0.16
   4   4  15    0.07    0.14
  -4  -4 -15   -0.05    0.14
   4   5 -13    0.37    0.18
  -4  -5  13    0.42    0.17
   4   5 -12    0.11    0.16
  -4  -5  12    0.12    0.16
   4   5 -11    0.64    0.16
  -4  -5  11    0.61    0.16
   4   5 -10   -0.14    0.11
  -4  -5  10    0.01    0.10
   4   5  -9    4.62    0.30
  -4  -5   9    4.79    0.35
   4   5  -8    1.10    0.19
  -4  -5   8    1.07    0.16
   4   5  -7    7.28    0.38
  -4  -5   7    7.20    0.36
   4   5  -6    0.11    0.10
  -4  -5   6    0.03    0.09
  -4  -5   6    0.13    0.06
   4   5  -5    3.39    0.21
  -4  -5   5    3.32    0.24
  -4  -5   5    3.37    0.16
   4   5  -4    0.03    0.08
  -4  -5   4    0.16    0.06
  -4  -5   4    0.08    0.10
   4   5  -3    1.89    0.14
  -4  -5   3    2.28    0.18
  -4  -5   3    2.31    0.14
   4   5  -2    8.81    0.28
  -4  -5   2    8.11    0.28
  -4  -5   2    8.43    0.37
   4   5  -1    0.00    0.04
  -4  -5   1    0.16    0.06
  -4  -5   1    0.01    0.09
  -4  -5   0    5.35    0.25
   4   5   1    4.44    0.29
  -4  -5  -1    4.07    0.22
   4   5   2    0.97    0.13
  -4  -5  -2    0.85    0.13
   4   5   3    0.46    0.12
  -4  -5  -3    0.52    0.12
   4   5   4    0.47    0.11
  -4  -5  -4    0.31    0.10
   4   5   5    1.02    0.16
  -4  -5  -5    1.20    0.17
   4   5   6    0.68    0.16
  -4  -5  -6    0.79    0.13
   4   5   7    2.13    0.23
  -4  -5  -7    3.01    0.24
   4   5   8    0.99    0.22
  -4  -5  -8    1.37    0.17
   4   5   9    0.03    0.12
  -4  -5  -9    0.07    0.10
   4   5  10    0.14    0.17
  -4  -5 -10    0.19    0.12
   4   5  11    0.06    0.14
  -4  -5 -11    0.26    0.15
   4   5  12    5.05    0.40
  -4  -5 -12    5.07    0.37
   4   5  13    0.93    0.26
  -4  -5 -13    1.33    0.22
   4   5  14   -0.07    0.18
  -4  -5 -14   -0.09    0.17
   4   6 -12    0.19    0.17
  -4  -6  12    0.22    0.14
   4   6 -11    0.38    0.17
  -4  -6  11    0.24    0.14
   4   6 -10    0.17    0.17
  -4  -6  10    0.32    0.13
   4   6  -9    0.01    0.16
  -4  -6   9   -0.27    0.14
   4   6  -8    1.35    0.18
  -4  -6   8    1.44    0.19
   4   6  -7    2.39    0.23
  -4  -6   7    2.12    0.21
  -4  -6   7    2.23    0.17
   4   6  -6    2.59    0.22
  -4  -6   6    2.16    0.18
  -4  -6   6    2.54    0.21
   4   6  -5    0.02    0.07
  -4  -6   5    0.12    0.07
  -4  -6   5    0.08    0.09
   4   6  -4    0.43    0.10
  -4  -6   4    0.56    0.15
  -4  -6   4    0.48    0.11
   4   6  -3   -0.15    0.07
  -4  -6   3   -0.06    0.08
  -4  -6   3    0.13    0.11
   4   6  -2    1.85    0.11
  -4  -6   2    2.26    0.17
  -4  -6   2    1.75    0.19
   4   6  -1    0.02    0.04
   4   6  -1   -0.11    0.08
  -4  -6   1   -0.01    0.07
   4   6   0    2.27    0.26
  -4  -6   0    2.32    0.16
   4   6   1    0.30    0.11
  -4  -6  -1    0.19    0.09
   4   6   2    1.04    0.20
  -4  -6  -2    1.33    0.17
   4   6   3    0.09    0.11
  -4  -6  -3   -0.07    0.09
   4   6   4    1.25    0.19
  -4  -6  -4    0.91    0.15
   4   6   5    2.05    0.23
  -4  -6  -5    1.74    0.19
   4   6   6    0.67    0.18
  -4  -6  -6    0.69    0.16
   4   6   7    3.29    0.39
  -4  -6  -7    3.52    0.27
   4   6   8   -0.20    0.14
  -4  -6  -8    0.18    0.12
   4   6   9    0.06    0.21
  -4  -6  -9    0.33    0.13
   4   6  10    0.33    0.18
  -4  -6 -10    0.03    0.13
   4   6  11   -0.12    0.17
  -4  -6 -11    0.12    0.12
   4   6  12    0.10    0.19
  -4  -6 -12    0.08    0.13
   4   6  13    0.03    0.15
  -4  -6 -13    0.01    0.13
   4   7 -10    0.05    0.14
  -4  -7  10    0.00    0.11
   4   7  -9    0.72    0.20
  -4  -7   9    0.51    0.19
   4   7  -8    0.06    0.11
  -4  -7   8    0.04    0.10
   4   7  -7    0.29    0.17
  -4  -7   7    0.47    0.14
  -4  -7   7    0.70    0.15
   4   7  -6    0.05    0.10
  -4  -7   6    0.02    0.10
  -4  -7   6    0.12    0.10
   4   7  -5    2.34    0.20
  -4  -7   5    2.42    0.27
  -4  -7   5    2.38    0.22
   4   7  -4    0.01    0.07
  -4  -7   4    0.05    0.10
  -4  -7   4    0.05    0.09
   4   7  -3    0.03    0.12
   4   7  -3    0.09    0.07
  -4  -7   3    0.17    0.11
   4   7  -2    0.13    0.13
  -4  -7   2    0.24    0.11
   4   7  -1    0.11    0.11
  -4  -7   1   -0.03    0.10
   4   7   0    5.87    0.38
  -4  -7   0    5.35    0.33
   4   7   1    0.77    0.19
  -4  -7  -1    0.93    0.14
   4   7   2    2.17    0.25
  -4  -7  -2    2.14    0.19
   4   7   3   -0.07    0.13
  -4  -7  -3   -0.01    0.10
   4   7   4   -0.07    0.16
  -4  -7  -4   -0.06    0.11
   4   7   5    0.15    0.15
  -4  -7  -5    0.06    0.12
   4   7   6    0.16    0.16
  -4  -7  -6    0.16    0.14
   4   7   7    0.11    0.20
  -4  -7  -7    0.16    0.14
   4   7   8    1.89    0.32
  -4  -7  -8    2.20    0.32
   4   7   9   -0.14    0.15
  -4  -7  -9    0.16    0.13
   4   7  10    0.01    0.15
  -4  -7 -10   -0.03    0.13
   4   7  11    0.09    0.19
  -4  -7 -11    0.22    0.21
  -4  -8   8    0.29    0.19
   4   8  -7    1.02    0.22
  -4  -8   7    0.83    0.16
   4   8  -6    1.01    0.28
  -4  -8   6    1.27    0.21
   4   8  -5    3.77    0.39
  -4  -8   5    3.68    0.28
   4   8  -4    0.78    0.20
  -4  -8   4    0.65    0.19
   4   8  -3    0.09    0.19
  -4  -8   3    0.18    0.11
   4   8  -2    0.33    0.16
  -4  -8   2    0.08    0.14
   4   8  -1    0.68    0.21
  -4  -8   1    0.67    0.18
   4   8   0   -0.10    0.16
  -4  -8   0    0.05    0.09
   4   8   1    0.24    0.19
  -4  -8  -1    0.06    0.11
   4   8   2    0.02    0.15
  -4  -8  -2    0.13    0.13
   4   8   3    1.04    0.24
  -4  -8  -3    0.88    0.18
   4   8   4    3.07    0.35
  -4  -8  -4    2.83    0.29
   4   8   5    0.11    0.16
  -4  -8  -5    0.01    0.13
   4   8   6    0.02    0.19
  -4  -8  -6   -0.04    0.13
   4   8   7    0.01    0.17
  -4  -8  -7    0.18    0.15
   4   8   8    2.48    0.39
  -4  -8  -8    2.71    0.32
   4   8   9    0.00    0.17
  -4  -8  -9   -0.08    0.16
   4   9  -4    0.05    0.20
  -4  -9   4   -0.16    0.15
   4   9  -3    0.32    0.25
  -4  -9   3    0.30    0.16
   4   9  -2    0.71    0.27
  -4  -9   2    1.35    0.23
   4   9  -1   -0.07    0.19
  -4  -9   1   -0.13    0.16
   4   9   0    0.30    0.22
  -4  -9   0    0.36    0.18
   4   9   1    0.22    0.22
  -4  -9  -1    0.04    0.12
   4   9   2    0.31    0.23
  -4  -9  -2    0.46    0.16
   4   9   3    1.11    0.28
  -4  -9  -3    0.86    0.21
   4   9   4   -0.10    0.21
  -4  -9  -4   -0.03    0.14
   4   9   5    0.27    0.26
  -4  -9  -5    0.16    0.21
   5  -5   0    1.71    0.28
   5  -5   1    0.60    0.20
  -5   5  -1    0.21    0.18
   5  -5   2    0.71    0.19
  -5   5  -2    1.24    0.26
   5  -5   3    0.08    0.14
  -5   5  -3    0.26    0.16
   5  -5   4    2.63    0.32
  -5   5  -4    3.44    0.35
   5  -4  -5    1.17    0.20
  -5   4   5    1.27    0.22
   5  -4  -4    0.34    0.17
  -5   4   4    0.05    0.17
   5  -4  -3    0.16    0.15
  -5   4   3    0.59    0.18
  -5   4   3    0.70    0.17
   5  -4  -2    0.12    0.13
  -5   4   2   -0.08    0.12
  -5   4   2   -0.17    0.12
   5  -4  -1    0.22    0.17
  -5   4   1    0.72    0.17
   5  -4   0    1.84    0.25
  -5   4   0    1.90    0.21
   5  -4   1    2.14    0.27
  -5   4  -1    2.08    0.26
   5  -4   2    0.00    0.13
  -5   4  -2   -0.04    0.10
   5  -4   3    0.10    0.12
  -5   4  -3    0.15    0.16
   5  -4   4    0.40    0.14
  -5   4  -4    0.22    0.19
   5  -4   5    0.28    0.20
  -5   4  -5    0.61    0.20
   5  -4   6    0.11    0.11
  -5   4  -6   -0.08    0.12
   5  -4   7    2.32    0.28
  -5   4  -7    2.74    0.29
   5  -4   8    0.20    0.20
  -5   4  -8    0.29    0.20
   5  -4   9    0.79    0.23
  -5   4  -9    1.83    0.30
   5  -4  10    4.43    0.39
  -5   4 -10    4.24    0.42
   5  -3  -8    0.03    0.11
  -5   3   8   -0.08    0.13
   5  -3  -7    1.01    0.24
  -5   3   7    1.27    0.24
   5  -3  -6    0.03    0.15
  -5   3   6    0.17    0.17
   5  -3  -5    1.80    0.21
  -5   3   5    1.45    0.23
   5  -3  -4    0.53    0.18
  -5   3   4    0.78    0.20
   5  -3  -3   -0.08    0.10
  -5   3   3   -0.06    0.10
  -5   3   3    0.25    0.09
   5  -3  -2    3.58    0.26
  -5   3   2    3.00    0.24
  -5   3   2    3.14    0.24
   5  -3  -1   -0.10    0.09
  -5   3   1    0.06    0.10
  -5   3   1    0.12    0.09
  -5   3   0    0.00    0.08
  -5   3   0   -0.09    0.10
   5  -3   1    0.16    0.10
  -5   3  -1    0.01    0.10
   5  -3   2    0.37    0.14
  -5   3  -2    0.09    0.11
   5  -3   3    0.44    0.14
  -5   3  -3    0.29    0.16
   5  -3   4    1.31    0.20
  -5   3  -4    1.73    0.22
   5  -3   5    0.34    0.17
  -5   3  -5    0.67    0.15
   5  -3   6    0.53    0.19
  -5   3  -6    0.47    0.16
   5  -3   7    0.66    0.17
  -5   3  -7    0.74    0.21
   5  -3   8   -0.04    0.10
  -5   3  -8    0.08    0.13
   5  -3   9    0.83    0.24
  -5   3  -9    0.84    0.24
   5  -3  10   -0.11    0.13
  -5   3 -10    0.02    0.12
   5  -3  11   -0.06    0.16
  -5   3 -11   -0.03    0.15
   5  -3  12    0.05    0.14
  -5   3 -12    0.05    0.18
   5  -2  -9    2.32    0.32
  -5   2   9    2.26    0.31
   5  -2  -8    0.03    0.12
  -5   2   8   -0.22    0.17
   5  -2  -7    0.90    0.19
  -5   2   7    0.52    0.23
   5  -2  -6    0.64    0.19
  -5   2   6    0.68    0.20
   5  -2  -5    3.15    0.26
  -5   2   5    3.81    0.28
   5  -2  -4    0.35    0.15
  -5   2   4    0.41    0.15
   5  -2  -3    1.97    0.21
  -5   2   3    1.90    0.21
  -5   2   3    1.74    0.14
   5  -2  -2   10.03    0.45
  -5   2   2   10.44    0.43
  -5   2   2   10.15    0.39
   5  -2  -1    1.39    0.17
  -5   2   1    1.92    0.14
  -5   2   1    1.79    0.17
   5  -2   0    3.43    0.24
  -5   2   0    3.56    0.19
  -5   2   0    3.70    0.24
   5  -2   1    0.71    0.16
  -5   2  -1    0.65    0.10
  -5   2  -1    0.71    0.13
   5  -2   2    2.37    0.22
  -5   2  -2    2.33    0.14
  -5   2  -2    2.28    0.21
   5  -2   3    5.31    0.30
  -5   2  -3    5.93    0.29
   5  -2   4    1.87    0.18
  -5   2  -4    1.93    0.18
   5  -2   5    3.61    0.25
  -5   2  -5    3.73    0.24
   5  -2   6    8.47    0.42
  -5   2  -6    9.77    0.43
   5  -2   7    1.06    0.20
  -5   2  -7    0.63    0.15
   5  -2   8    1.28    0.23
  -5   2  -8    1.77    0.19
   5  -2   9    0.17    0.19
  -5   2  -9    0.70    0.16
   5  -2  10    0.40    0.15
  -5   2 -10    0.27    0.15
   5  -2  11   -0.24    0.14
  -5   2 -11    0.03    0.16
   5  -2  12    0.46    0.17
  -5   2 -12    0.03    0.14
   5  -2  13    0.67    0.21
  -5   2 -13    0.19    0.19
   5  -1 -11    0.54    0.19
  -5   1  11   -0.05    0.19
   5  -1 -10    0.74    0.25
  -5   1  10    1.44    0.30
   5  -1  -9    0.25    0.15
  -5   1   9    0.03    0.14
   5  -1  -8    0.97    0.18
  -5   1   8    1.33    0.21
   5  -1  -7    2.34    0.24
  -5   1   7    2.62    0.26
   5  -1  -6    0.68    0.15
  -5   1   6    0.74    0.16
   5  -1  -5    0.50    0.12
  -5   1   5    0.33    0.13
   5  -1  -4    0.54    0.12
  -5   1   4    0.63    0.12
   5  -1  -3    2.42    0.20
  -5   1   3    2.76    0.23
  -5   1   3    2.35    0.15
   5  -1  -2    4.66    0.28
  -5   1   2    4.00    0.21
  -5   1   2    3.93    0.18
   5  -1  -1   10.37    0.40
  -5   1   1   10.15    0.33
  -5   1   1   10.62    0.38
   5  -1   0    7.69    0.35
  -5   1   0    7.50    0.29
  -5   1   0    7.75    0.29
   5  -1   1   29.53    0.92
  -5   1  -1   28.59    0.70
  -5   1  -1   31.09    0.78
   5  -1   2    0.63    0.12
  -5   1  -2    0.39    0.07
  -5   1  -2    0.47    0.11
   5  -1   3   39.75    1.10
  -5   1  -3   35.41    0.75
  -5   1  -3   38.86    0.98
   5  -1   4    0.63    0.13
  -5   1  -4    0.72    0.13
   5  -1   5    3.66    0.23
  -5   1  -5    3.81    0.22
   5  -1   6    4.58    0.30
  -5   1  -6    4.59    0.26
   5  -1   7    0.16    0.11
  -5   1  -7    0.48    0.11
   5  -1   8   -0.02    0.08
  -5   1  -8    0.01    0.09
   5  -1   9    0.12    0.10
  -5   1  -9   -0.02    0.10
   5  -1  10    4.79    0.36
  -5   1 -10    4.18    0.28
   5  -1  11    0.15    0.14
  -5   1 -11    0.01    0.11
   5  -1  12    0.25    0.17
  -5   1 -12    0.12    0.13
   5  -1  13    1.97    0.31
  -5   1 -13    2.30    0.26
   5  -1  14    0.94    0.26
  -5   1 -14    1.05    0.27
   5   0 -12    0.60    0.20
  -5   0  12    0.54    0.27
   5   0 -11    0.06    0.16
  -5   0  11    0.29    0.18
   5   0 -10    0.07    0.10
  -5   0  10   -0.04    0.12
   5   0  -9    0.15    0.11
  -5   0   9   -0.01    0.15
   5   0  -8    1.16    0.18
  -5   0   8    0.77    0.22
   5   0  -7    0.91    0.19
  -5   0   7    0.77    0.16
   5   0  -6    4.23    0.31
  -5   0   6    4.73    0.33
   5   0  -5    6.09    0.32
  -5   0   5    7.06    0.34
   5   0  -4    2.54    0.19
  -5   0   4    2.49    0.22
   5   0  -3    0.50    0.11
  -5   0   3    0.69    0.14
   5   0  -2    0.43    0.11
  -5   0   2    0.13    0.10
  -5   0   2    0.20    0.06
   5   0  -1    0.18    0.09
  -5   0   1   -0.07    0.07
  -5   0   1   -0.07    0.05
   5   0   0    0.33    0.10
  -5   0   0    0.52    0.09
  -5   0   0    0.29    0.08
   5   0   1    3.94    0.24
  -5   0  -1    3.94    0.18
  -5   0  -1    3.98    0.19
   5   0   2   10.38    0.41
  -5   0  -2   10.23    0.31
  -5   0  -2   10.50    0.35
   5   0   3   14.32    0.47
  -5   0  -3   14.22    0.35
  -5   0  -3   14.28    0.44
   5   0   4    0.42    0.10
  -5   0  -4    0.46    0.06
  -5   0  -4    0.46    0.12
   5   0   5   33.10    0.90
  -5   0  -5   31.93    0.86
  -5   0  -5   29.45    0.59
   5   0   6   51.98    1.32
  -5   0  -6   48.82    1.26
   5   0   7    2.87    0.19
  -5   0  -7    3.10    0.25
   5   0   8   -0.15    0.08
  -5   0  -8    0.11    0.08
   5   0   9    1.47    0.16
  -5   0  -9    1.74    0.17
   5   0  10    2.00    0.23
  -5   0 -10    1.51    0.25
   5   0  11    1.85    0.21
  -5   0 -11    2.11    0.26
   5   0  12    0.55    0.19
  -5   0 -12    0.74    0.16
   5   0  13    0.01    0.14
  -5   0 -13   -0.12    0.12
   5   0  14   -0.04    0.14
  -5   0 -14    0.09    0.12
   5   0  15    2.41    0.31
  -5   0 -15    1.63    0.31
   5   1 -12    0.08    0.16
  -5  -1  12   -0.15    0.14
   5   1 -11    0.43    0.15
  -5  -1  11    0.40    0.18
   5   1 -10    0.77    0.19
  -5  -1  10    0.12    0.21
   5   1  -9    0.05    0.14
  -5  -1   9    0.15    0.15
   5   1  -8    4.75    0.32
  -5  -1   8    4.82    0.33
   5   1  -7    5.03    0.35
  -5  -1   7    5.54    0.36
   5   1  -6   -0.13    0.11
  -5  -1   6   -0.03    0.10
   5   1  -5    1.59    0.16
  -5  -1   5    1.55    0.20
   5   1  -4    0.72    0.11
  -5  -1   4    0.42    0.10
   5   1  -3    1.06    0.12
  -5  -1   3    1.34    0.15
   5   1  -2    0.60    0.11
  -5  -1   2    0.78    0.10
  -5  -1   2    0.68    0.07
   5   1  -1    9.85    0.35
  -5  -1   1    9.51    0.32
  -5  -1   1    8.90    0.24
   5   1   0    9.52    0.35
  -5  -1   0    9.52    0.31
  -5  -1   0   10.24    0.28
   5   1   1    5.83    0.24
  -5  -1  -1    5.55    0.23
  -5  -1  -1    5.40    0.21
   5   1   2    1.36    0.15
  -5  -1  -2    1.43    0.10
  -5  -1  -2    1.11    0.12
   5   1   3    1.15    0.13
  -5  -1  -3    0.86    0.09
  -5  -1  -3    0.82    0.10
   5   1   4    2.31    0.17
  -5  -1  -4    2.82    0.18
  -5  -1  -4    2.58    0.13
   5   1   5    4.89    0.24
  -5  -1  -5    4.62    0.23
  -5  -1  -5    4.58    0.17
   5   1   6    2.54    0.13
   5   1   6    3.15    0.20
  -5  -1  -6    3.12    0.20
   5   1   7    6.59    0.30
   5   1   7    6.79    0.24
  -5  -1  -7    6.65    0.31
   5   1   8    6.93    0.28
   5   1   8    5.58    0.21
  -5  -1  -8    6.90    0.31
   5   1   9    1.99    0.18
  -5  -1  -9    1.68    0.19
   5   1  10    0.79    0.13
  -5  -1 -10    0.83    0.18
   5   1  11   -0.13    0.09
  -5  -1 -11   -0.07    0.11
   5   1  12    1.30    0.21
  -5  -1 -12    1.10    0.23
   5   1  13    5.13    0.32
  -5  -1 -13    5.18    0.34
   5   1  14    0.16    0.12
  -5  -1 -14    0.14    0.14
   5   1  15    0.06    0.12
  -5  -1 -15   -0.05    0.12
   5   2 -12    0.79    0.22
  -5  -2  12    0.65    0.20
   5   2 -11    1.19    0.20
  -5  -2  11    0.94    0.21
   5   2 -10    0.08    0.14
  -5  -2  10    0.08    0.12
   5   2  -9    0.64    0.16
  -5  -2   9    0.37    0.18
   5   2  -8    1.03    0.17
  -5  -2   8    0.60    0.15
   5   2  -7   10.25    0.43
  -5  -2   7    9.83    0.45
   5   2  -6   13.03    0.52
  -5  -2   6   13.04    0.52
   5   2  -5   20.30    0.67
  -5  -2   5   20.60    0.69
   5   2  -4    0.51    0.10
  -5  -2   4    0.17    0.10
   5   2  -3    0.44    0.11
  -5  -2   3    0.50    0.12
   5   2  -2    0.06    0.07
  -5  -2   2    0.00    0.03
  -5  -2   2    0.10    0.08
   5   2  -1    0.41    0.09
  -5  -2   1    0.95    0.11
  -5  -2   1    0.41    0.06
   5   2   0    8.92    0.30
  -5  -2   0    8.84    0.30
  -5  -2   0    8.61    0.25
   5   2   1    1.11    0.10
  -5  -2  -1    1.07    0.10
  -5  -2  -1    1.04    0.10
   5   2   2    2.98    0.16
  -5  -2  -2    2.78    0.16
  -5  -2  -2    2.89    0.14
   5   2   3    5.63    0.22
  -5  -2  -3    5.97    0.25
  -5  -2  -3    5.80    0.23
   5   2   4    0.66    0.11
  -5  -2  -4    0.69    0.10
  -5  -2  -4    0.66    0.08
   5   2   5   16.26    0.47
   5   2   5   17.84    0.50
  -5  -2  -5   16.51    0.53
   5   2   6    0.58    0.10
   5   2   6    0.72    0.10
  -5  -2  -6    0.72    0.14
   5   2   7    4.25    0.21
   5   2   7    4.52    0.22
  -5  -2  -7    4.92    0.24
   5   2   8    2.27    0.15
   5   2   8    2.03    0.16
  -5  -2  -8    2.25    0.23
   5   2   9    0.16    0.07
   5   2   9    0.04    0.08
  -5  -2  -9    0.05    0.10
   5   2  10    0.61    0.13
   5   2  10    0.76    0.12
  -5  -2 -10    1.00    0.15
   5   2  11    0.08    0.08
   5   2  11    0.06    0.08
  -5  -2 -11    0.07    0.11
   5   2  12    0.94    0.14
  -5  -2 -12    0.76    0.22
   5   2  13    0.77    0.14
  -5  -2 -13    0.72    0.18
   5   2  14    0.29    0.14
  -5  -2 -14    0.05    0.18
   5   2  15    0.72    0.19
  -5  -2 -15    0.98    0.21
   5   3 -12    0.08    0.15
  -5  -3  12    0.04    0.14
   5   3 -11   -0.03    0.13
  -5  -3  11   -0.01    0.14
   5   3 -10   -0.05    0.15
  -5  -3  10   -0.03    0.15
   5   3  -9   -0.05    0.11
  -5  -3   9    0.10    0.11
   5   3  -8    7.24    0.40
  -5  -3   8    6.17    0.37
   5   3  -7    0.32    0.17
  -5  -3   7    0.54    0.13
   5   3  -6    4.73    0.27
  -5  -3   6    5.11    0.29
   5   3  -5    1.83    0.19
  -5  -3   5    2.11    0.18
   5   3  -4   32.93    0.92
  -5  -3   4   33.85    0.98
   5   3  -3   13.87    0.46
  -5  -3   3   13.58    0.47
   5   3  -2    2.01    0.16
  -5  -3   2    2.38    0.17
  -5  -3   2    2.33    0.09
   5   3  -1    0.13    0.07
  -5  -3   1    0.04    0.06
  -5  -3   1   -0.01    0.04
   5   3   0   10.47    0.33
  -5  -3   0   11.17    0.40
  -5  -3   0   10.91    0.30
   5   3   1    0.53    0.10
  -5  -3  -1    0.55    0.12
  -5  -3  -1    0.73    0.09
   5   3   2    4.43    0.19
  -5  -3  -2    3.94    0.18
  -5  -3  -2    4.71    0.20
   5   3   3    1.56    0.11
  -5  -3  -3    2.03    0.15
  -5  -3  -3    1.67    0.13
   5   3   4    3.70    0.18
  -5  -3  -4    3.91    0.19
   5   3   5    0.08    0.07
  -5  -3  -5    0.10    0.08
   5   3   6    0.48    0.08
   5   3   6    0.24    0.11
  -5  -3  -6    0.36    0.10
   5   3   7    0.16    0.07
   5   3   7    0.04    0.10
  -5  -3  -7    0.22    0.09
   5   3   8    0.53    0.09
   5   3   8    0.47    0.12
  -5  -3  -8    0.37    0.12
   5   3   9    0.88    0.12
   5   3   9    1.19    0.11
  -5  -3  -9    0.77    0.15
   5   3  10    1.55    0.15
   5   3  10    1.69    0.19
  -5  -3 -10    2.02    0.24
   5   3  11    0.72    0.12
   5   3  11    0.56    0.14
  -5  -3 -11    0.41    0.16
   5   3  12   -0.01    0.07
   5   3  12    0.03    0.10
  -5  -3 -12    0.07    0.11
   5   3  13    0.30    0.09
   5   3  13    0.08    0.11
  -5  -3 -13    0.10    0.13
  -5  -3 -14   -0.01    0.12
  -5  -3 -15    2.70    0.36
   5   4 -12    0.40    0.21
  -5  -4  12    0.36    0.18
   5   4 -11    0.15    0.17
  -5  -4  11    0.20    0.15
   5   4 -10    0.37    0.15
  -5  -4  10    0.19    0.14
   5   4  -9    0.14    0.14
  -5  -4   9    0.03    0.14
   5   4  -8    4.58    0.30
  -5  -4   8    4.34    0.35
   5   4  -7    6.28    0.39
  -5  -4   7    5.84    0.35
   5   4  -6    2.33    0.20
  -5  -4   6    2.04    0.19
   5   4  -5    1.69    0.20
  -5  -4   5    1.68    0.18
   5   4  -4   16.10    0.51
  -5  -4   4   17.17    0.62
   5   4  -3    8.54    0.34
  -5  -4   3    8.70    0.23
  -5  -4   3    8.86    0.36
   5   4  -2    0.54    0.10
  -5  -4   2    0.51    0.13
  -5  -4   2    0.53    0.07
   5   4  -1    1.55    0.13
  -5  -4   1    2.01    0.17
  -5  -4   1    1.59    0.10
   5   4   0    0.70    0.09
  -5  -4   0    0.79    0.13
  -5  -4   0    0.56    0.09
   5   4   1    6.00    0.22
  -5  -4  -1    6.67    0.24
  -5  -4  -1    5.83    0.26
   5   4   2   -0.06    0.05
  -5  -4  -2    0.11    0.07
  -5  -4  -2    0.14    0.07
   5   4   3    1.82    0.12
  -5  -4  -3    1.88    0.16
   5   4   4    8.10    0.24
   5   4   4    8.62    0.35
  -5  -4  -4    8.42    0.33
   5   4   5    4.17    0.15
   5   4   5    4.42    0.24
  -5  -4  -5    5.08    0.28
   5   4   6    0.18    0.12
   5   4   6    0.19    0.05
  -5  -4  -6    0.36    0.11
   5   4   7   -0.03    0.04
   5   4   7    0.10    0.09
  -5  -4  -7    0.04    0.07
   5   4   8    0.37    0.12
   5   4   8    0.24    0.07
  -5  -4  -8    0.27    0.12
   5   4   9    1.20    0.19
  -5  -4  -9    1.01    0.21
   5   4  10    1.63    0.21
  -5  -4 -10    0.95    0.23
   5   4  11    0.46    0.17
  -5  -4 -11    0.24    0.15
   5   4  12    0.24    0.15
  -5  -4 -12    0.33    0.18
   5   4  13   -0.02    0.14
  -5  -4 -13    0.21    0.14
   5   4  14    0.12    0.15
  -5  -4 -14    0.12    0.16
  -5  -4 -15   -0.02    0.13
   5   5 -12    1.21    0.24
  -5  -5  12    1.53    0.25
   5   5 -11    0.85    0.19
  -5  -5  11    0.93    0.25
   5   5 -10    0.12    0.13
  -5  -5  10    0.13    0.13
   5   5  -9   -0.04    0.14
  -5  -5   9   -0.09    0.11
   5   5  -8    1.61    0.24
  -5  -5   8    1.70    0.26
   5   5  -7    2.21    0.24
  -5  -5   7    2.47    0.23
   5   5  -6    7.67    0.36
  -5  -5   6    6.97    0.37
   5   5  -5    4.17    0.24
  -5  -5   5    2.98    0.25
   5   5  -4    7.54    0.35
  -5  -5   4    6.17    0.22
  -5  -5   4    6.79    0.38
   5   5  -3    3.37    0.17
  -5  -5   3    3.51    0.27
  -5  -5   3    3.27    0.16
   5   5  -2    0.21    0.08
  -5  -5   2    0.20    0.11
  -5  -5   2    0.34    0.08
   5   5  -1    4.86    0.20
  -5  -5   1    5.29    0.22
  -5  -5   1    5.55    0.30
   5   5   0    0.06    0.06
  -5  -5   0    0.01    0.07
  -5  -5   0    0.25    0.08
   5   5   1    0.53    0.07
  -5  -5  -1    0.56    0.11
  -5  -5  -1    0.78    0.15
   5   5   2    0.05    0.10
   5   5   2    0.06    0.05
  -5  -5  -2    0.11    0.09
   5   5   3    0.01    0.04
   5   5   3   -0.03    0.11
  -5  -5  -3    0.28    0.09
   5   5   4    9.63    0.42
  -5  -5  -4    8.55    0.36
   5   5   5    0.46    0.13
  -5  -5  -5    0.50    0.12
   5   5   6    1.89    0.21
  -5  -5  -6    1.42    0.17
   5   5   7    0.20    0.12
  -5  -5  -7    0.04    0.10
   5   5   8    0.72    0.17
  -5  -5  -8    0.66    0.15
   5   5   9    0.17    0.14
  -5  -5  -9    0.20    0.13
   5   5  10    0.27    0.19
  -5  -5 -10    0.58    0.19
   5   5  11    0.76    0.25
  -5  -5 -11    1.07    0.23
   5   5  12    1.70    0.28
  -5  -5 -12    1.72    0.28
   5   5  13    0.32    0.16
  -5  -5 -13    0.01    0.16
   5   5  14    0.19    0.15
  -5  -5 -14   -0.27    0.16
   5   6 -11    0.08    0.15
  -5  -6  11    0.21    0.15
   5   6 -10    4.30    0.35
  -5  -6  10    3.93    0.34
   5   6  -9   -0.07    0.14
  -5  -6   9   -0.04    0.12
   5   6  -8    0.48    0.17
  -5  -6   8    0.24    0.18
   5   6  -7    0.11    0.16
  -5  -6   7    0.46    0.14
   5   6  -6    0.27    0.11
  -5  -6   6    0.40    0.14
   5   6  -5   -0.01    0.07
  -5  -6   5   -0.08    0.09
  -5  -6   5    0.10    0.06
   5   6  -4    6.32    0.32
  -5  -6   4    5.54    0.25
  -5  -6   4    6.17    0.35
   5   6  -3   10.65    0.37
  -5  -6   3    9.86    0.38
  -5  -6   3   11.07    0.50
   5   6  -2    7.00    0.27
  -5  -6   2    7.53    0.32
  -5  -6   2    8.15    0.44
   5   6  -1    0.20    0.06
  -5  -6   1    0.22    0.08
  -5  -6   1    0.15    0.11
   5   6   0    1.04    0.09
  -5  -6   0    1.41    0.14
  -5  -6   0    1.40    0.17
   5   6   1    1.10    0.18
  -5  -6  -1    1.19    0.13
   5   6   2    0.24    0.12
  -5  -6  -2    0.16    0.12
   5   6   3   -0.08    0.11
  -5  -6  -3   -0.04    0.08
   5   6   4    4.64    0.33
  -5  -6  -4    4.19    0.26
   5   6   5    0.29    0.15
  -5  -6  -5    0.06    0.11
   5   6   6    4.07    0.36
  -5  -6  -6    4.09    0.32
   5   6   7    3.41    0.34
  -5  -6  -7    3.93    0.30
   5   6   8    0.07    0.14
  -5  -6  -8    0.17    0.13
   5   6   9    0.35    0.17
  -5  -6  -9   -0.04    0.13
   5   6  10    2.53    0.30
  -5  -6 -10    1.92    0.28
   5   6  11    0.91    0.25
  -5  -6 -11    1.26    0.27
   5   6  12    0.05    0.13
  -5  -6 -12   -0.08    0.15
   5   6  13    0.12    0.19
  -5  -6 -13    0.29    0.17
   5   7  -9    0.75    0.22
  -5  -7   9    0.74    0.19
   5   7  -8    0.09    0.14
  -5  -7   8    0.16    0.16
   5   7  -7    4.01    0.34
  -5  -7   7    3.63    0.30
   5   7  -6    0.76    0.14
  -5  -7   6    0.78    0.17
   5   7  -5    2.86    0.21
  -5  -7   5    3.06    0.28
  -5  -7   5    2.87    0.23
   5   7  -4    0.54    0.13
  -5  -7   4    0.86    0.20
  -5  -7   4    0.46    0.13
   5   7  -3    0.76    0.12
  -5  -7   3    1.08    0.15
  -5  -7   3    0.60    0.17
   5   7  -2    0.20    0.12
  -5  -7   2    0.45    0.10
   5   7  -1    0.07    0.13
  -5  -7   1    0.02    0.09
   5   7   0    5.52    0.39
  -5  -7   0    5.37    0.32
   5   7   1    1.31    0.22
  -5  -7  -1    1.67    0.17
   5   7   2   -0.05    0.10
  -5  -7  -2    0.07    0.10
   5   7   3    0.90    0.20
  -5  -7  -3    0.69    0.14
   5   7   4   -0.08    0.14
  -5  -7  -4    0.18    0.13
   5   7   5    0.12    0.15
  -5  -7  -5    0.14    0.16
   5   7   6    0.54    0.22
  -5  -7  -6    0.17    0.19
   5   7   7    1.03    0.24
  -5  -7  -7    1.19    0.21
   5   7   8    0.14    0.16
  -5  -7  -8    0.06    0.14
   5   7   9    1.31    0.25
  -5  -7  -9    1.30    0.23
   5   7  10   -0.04    0.24
  -5  -7 -10   -0.38    0.21
   5   7  11   -0.04    0.17
  -5  -7 -11   -0.13    0.16
  -5  -8   7    0.10    0.15
  -5  -8   6    0.36    0.18
   5   8  -5    0.15    0.14
  -5  -8   5    0.51    0.15
   5   8  -4    1.40    0.25
  -5  -8   4    1.06    0.16
   5   8  -3    0.02    0.14
  -5  -8   3    0.04    0.11
   5   8  -2    0.06    0.13
  -5  -8   2   -0.10    0.10
   5   8  -1    0.49    0.21
  -5  -8   1    0.22    0.12
   5   8   0    1.50    0.32
  -5  -8   0    1.79    0.24
   5   8   1    0.17    0.13
  -5  -8  -1   -0.16    0.12
   5   8   2    0.41    0.24
  -5  -8  -2    0.20    0.16
   5   8   3    0.40    0.20
  -5  -8  -3    0.13    0.14
   5   8   4    0.30    0.20
  -5  -8  -4    0.12    0.17
   5   8   5   -0.07    0.16
  -5  -8  -5   -0.01    0.12
   5   8   6    0.61    0.23
  -5  -8  -6    0.29    0.18
   5   8   7    0.24    0.30
  -5  -8  -7    0.54    0.21
   5   8   8    0.14    0.21
  -5  -8  -8    0.33    0.23
   5   9  -3    1.81    0.31
  -5  -9   3    1.52    0.26
   5   9  -2    0.01    0.25
  -5  -9   2    0.41    0.18
   5   9  -1   -0.12    0.17
  -5  -9   1    0.16    0.13
   5   9   0    0.04    0.22
  -5  -9   0    0.06    0.11
   5   9   1    0.01    0.19
  -5  -9  -1    0.11    0.13
   5   9   2    1.55    0.32
  -5  -9  -2    1.10    0.27
   5   9   3   -0.04    0.18
  -5  -9  -3    0.01    0.11
   5   9   4    0.08    0.30
  -5  -9  -4    0.47    0.18
   6  -3  -4    0.17    0.15
  -6   3   4    0.30    0.17
   6  -3  -3    0.35    0.18
  -6   3   3    0.14    0.16
   6  -3  -2    0.54    0.17
   6  -3  -1    0.25    0.16
  -6   3   1    0.08    0.11
   6  -3   0    0.98    0.22
  -6   3   0    1.16    0.22
   6  -3   1   -0.09    0.12
  -6   3  -1    0.36    0.14
   6  -3   2    2.35    0.31
  -6   3  -2    2.92    0.30
   6  -3   3    0.84    0.22
  -6   3  -3    0.72    0.18
   6  -3   4    2.46    0.28
  -6   3  -4    2.53    0.27
   6  -3   5    1.22    0.22
  -6   3  -5    1.31    0.26
   6  -3   6    4.11    0.40
  -6   3  -6    3.68    0.32
   6  -3   7    0.38    0.18
  -6   3  -7    0.33    0.17
   6  -3   8    0.80    0.21
  -6   3  -8    0.72    0.21
   6  -3   9    4.34    0.48
  -6   3  -9    4.48    0.48
   6  -2  -6   -0.20    0.16
  -6   2   6    0.07    0.17
   6  -2  -5   -0.20    0.15
  -6   2   5    0.01    0.13
   6  -2  -4    0.06    0.12
  -6   2   4    0.11    0.11
   6  -2  -3    0.72    0.18
  -6   2   3    0.40    0.18
   6  -2  -2    0.85    0.17
  -6   2   2    0.82    0.15
   6  -2  -1    0.14    0.12
  -6   2   1    0.47    0.11
  -6   2   1    0.14    0.12
   6  -2   0    0.23    0.12
  -6   2   0    0.15    0.10
  -6   2   0    0.18    0.12
   6  -2   1    1.43    0.20
  -6   2  -1    1.09    0.15
   6  -2   2    2.48    0.23
  -6   2  -2    1.97    0.20
   6  -2   3    3.85    0.29
  -6   2  -3    4.28    0.27
   6  -2   4    0.37    0.14
  -6   2  -4    0.16    0.15
   6  -2   5    0.07    0.18
  -6   2  -5    0.44    0.15
   6  -2   6    0.19    0.12
  -6   2  -6    0.10    0.15
   6  -2   7    0.72    0.18
  -6   2  -7    0.60    0.17
   6  -2   8   -0.19    0.20
  -6   2  -8    0.82    0.19
   6  -2   9    4.73    0.36
  -6   2  -9    4.43    0.40
   6  -2  10    0.77    0.19
  -6   2 -10    0.27    0.17
   6  -2  11    0.47    0.23
  -6   2 -11    0.42    0.19
   6  -1  -8    0.16    0.15
  -6   1   8    0.17    0.17
   6  -1  -7    0.09    0.12
  -6   1   7   -0.04    0.13
   6  -1  -6    0.85    0.22
  -6   1   6    0.62    0.22
   6  -1  -5    1.26    0.20
  -6   1   5    1.38    0.24
   6  -1  -4    1.54    0.21
  -6   1   4    1.69    0.23
   6  -1  -3    0.95    0.17
  -6   1   3    1.55    0.17
   6  -1  -2    0.13    0.14
  -6   1   2    0.20    0.10
   6  -1  -1    0.71    0.16
  -6   1   1    0.66    0.13
  -6   1   1    0.81    0.11
   6  -1   0    3.19    0.25
  -6   1   0    2.96    0.20
  -6   1   0    2.74    0.19
   6  -1   1    0.70    0.16
  -6   1  -1    0.64    0.13
  -6   1  -1    0.55    0.11
   6  -1   2    0.23    0.12
  -6   1  -2    0.11    0.07
  -6   1  -2    0.23    0.11
   6  -1   3    0.63    0.14
  -6   1  -3    0.61    0.12
   6  -1   4    0.03    0.09
  -6   1  -4    0.02    0.08
   6  -1   5    0.19    0.12
  -6   1  -5    0.23    0.14
   6  -1   6    2.20    0.22
  -6   1  -6    2.02    0.23
   6  -1   7    0.16    0.15
  -6   1  -7    0.19    0.12
   6  -1   8    0.46    0.16
  -6   1  -8    0.24    0.16
   6  -1   9    0.15    0.17
  -6   1  -9    0.36    0.13
   6  -1  10    0.36    0.17
  -6   1 -10    0.04    0.14
   6  -1  11    0.14    0.17
  -6   1 -11    0.16    0.15
   6  -1  12    0.20    0.14
  -6   1 -12    0.09    0.19
   6  -1  13    0.16    0.16
  -6   1 -13    0.14    0.19
   6   0  -9    0.18    0.15
  -6   0   9    0.37    0.20
   6   0  -8    0.29    0.15
  -6   0   8   -0.17    0.16
   6   0  -7    3.39    0.29
  -6   0   7    3.26    0.31
   6   0  -6    0.13    0.11
  -6   0   6   -0.04    0.14
   6   0  -5    0.93    0.18
  -6   0   5    1.76    0.22
   6   0  -4    0.24    0.14
  -6   0   4    0.11    0.11
   6   0  -3    2.82    0.23
  -6   0   3    3.12    0.24
   6   0  -2    2.08    0.24
  -6   0   2    2.01    0.17
   6   0  -1    0.78    0.16
  -6   0   1    1.09    0.12
  -6   0   1    0.94    0.10
   6   0   0    5.00    0.30
  -6   0   0    5.25    0.26
  -6   0   0    4.64    0.21
   6   0   1    1.38    0.16
  -6   0  -1    1.51    0.14
  -6   0  -1    1.34    0.13
   6   0   2    0.86    0.15
  -6   0  -2    1.00    0.11
  -6   0  -2    0.82    0.13
   6   0   3    0.19    0.15
  -6   0  -3    0.50    0.09
  -6   0  -3    0.37    0.08
   6   0   4    2.25    0.19
  -6   0  -4    2.19    0.19
   6   0   5    0.96    0.19
  -6   0  -5    1.01    0.17
   6   0   6    0.54    0.13
  -6   0  -6    0.69    0.15
   6   0   7    1.87    0.22
  -6   0  -7    1.44    0.21
   6   0   8    5.39    0.34
  -6   0  -8    5.48    0.33
   6   0   9   -0.05    0.10
  -6   0  -9    0.05    0.09
   6   0  10    1.34    0.20
  -6   0 -10    1.92    0.21
   6   0  11   -0.06    0.10
  -6   0 -11    0.02    0.13
   6   0  12    0.27    0.15
  -6   0 -12    0.03    0.14
   6   0  13    0.00    0.13
  -6   0 -13    0.01    0.12
   6   0  14   -0.01    0.15
  -6   0 -14   -0.01    0.16
   6   1 -10    0.16    0.13
  -6  -1  10   -0.14    0.16
   6   1  -9    0.39    0.14
  -6  -1   9    0.07    0.16
   6   1  -8    2.07    0.27
  -6  -1   8    1.61    0.25
   6   1  -7    0.14    0.13
  -6  -1   7    0.35    0.17
   6   1  -6    1.00    0.17
  -6  -1   6    0.98    0.21
   6   1  -5    3.02    0.25
  -6  -1   5    2.81    0.23
   6   1  -4    0.99    0.18
  -6  -1   4    1.00    0.18
   6   1  -3    0.40    0.12
  -6  -1   3    0.48    0.14
   6   1  -2    0.15    0.13
  -6  -1   2    0.25    0.10
   6   1  -1    2.46    0.18
  -6  -1   1    1.96    0.16
  -6  -1   1    1.83    0.12
   6   1   0    7.34    0.34
  -6  -1   0    8.06    0.31
  -6  -1   0    7.66    0.27
   6   1   1    2.19    0.18
  -6  -1  -1    1.50    0.15
  -6  -1  -1    1.71    0.14
   6   1   2    7.00    0.36
  -6  -1  -2    6.64    0.28
  -6  -1  -2    7.25    0.29
   6   1   3   26.51    0.86
  -6  -1  -3   24.74    0.67
  -6  -1  -3   23.71    0.69
   6   1   4    0.95    0.16
  -6  -1  -4    0.99    0.12
  -6  -1  -4    0.75    0.10
   6   1   5   20.97    0.71
  -6  -1  -5   21.87    0.72
  -6  -1  -5   21.05    0.55
   6   1   6   -0.23    0.11
   6   1   6   -0.02    0.07
  -6  -1  -6   -0.09    0.09
   6   1   7    3.05    0.24
  -6  -1  -7    3.24    0.26
   6   1   8    1.75    0.21
  -6  -1  -8    1.73    0.23
   6   1   9    1.03    0.17
  -6  -1  -9    0.64    0.19
   6   1  10    0.57    0.13
  -6  -1 -10    0.28    0.14
   6   1  11    0.75    0.14
  -6  -1 -11    0.05    0.16
   6   1  12    1.67    0.24
  -6  -1 -12    1.91    0.27
   6   1  13    0.17    0.13
  -6  -1 -13    0.20    0.14
   6   1  14    0.10    0.12
  -6  -1 -14   -0.03    0.16
   6   2 -11    0.31    0.17
  -6  -2  11    0.12    0.18
   6   2 -10    0.24    0.20
  -6  -2  10    0.31    0.21
   6   2  -9    1.11    0.24
  -6  -2   9    1.03    0.22
   6   2  -8    0.21    0.16
  -6  -2   8    0.20    0.15
   6   2  -7   -0.13    0.11
  -6  -2   7    0.02    0.11
   6   2  -6    0.63    0.13
  -6  -2   6    0.01    0.13
   6   2  -5    4.25    0.27
  -6  -2   5    4.92    0.34
   6   2  -4    1.53    0.20
  -6  -2   4    1.58    0.21
   6   2  -3    4.57    0.28
  -6  -2   3    4.40    0.26
   6   2  -2    2.55    0.19
  -6  -2   2    2.17    0.20
   6   2  -1    1.96    0.16
  -6  -2   1    2.13    0.16
  -6  -2   1    1.47    0.12
   6   2   0    0.74    0.12
  -6  -2   0    0.60    0.14
  -6  -2   0    0.82    0.09
   6   2   1    0.27    0.11
  -6  -2  -1    0.16    0.10
  -6  -2  -1    0.26    0.08
   6   2   2    0.17    0.11
  -6  -2  -2    0.11    0.09
  -6  -2  -2    0.20    0.09
   6   2   3    4.75    0.25
  -6  -2  -3    4.86    0.25
  -6  -2  -3    5.06    0.25
   6   2   4    7.63    0.35
  -6  -2  -4    7.01    0.33
  -6  -2  -4    7.62    0.28
   6   2   5    7.16    0.30
  -6  -2  -5    7.54    0.36
  -6  -2  -5    7.95    0.31
   6   2   6    2.56    0.20
   6   2   6    2.74    0.18
  -6  -2  -6    2.60    0.19
   6   2   7    9.80    0.41
   6   2   7    8.86    0.35
  -6  -2  -7    9.36    0.45
   6   2   8   36.74    1.02
   6   2   8   32.56    0.98
  -6  -2  -8   36.03    1.14
   6   2   9    1.60    0.18
  -6  -2  -9    1.55    0.24
   6   2  10    0.04    0.08
  -6  -2 -10    0.01    0.13
   6   2  11    0.61    0.13
  -6  -2 -11    0.77    0.20
   6   2  12    0.39    0.13
  -6  -2 -12    0.67    0.21
   6   2  13    0.53    0.16
  -6  -2 -13    0.41    0.17
   6   2  14   -0.11    0.10
  -6  -2 -14    0.31    0.14
   6   3 -11    1.08    0.24
  -6  -3  11    1.25    0.31
   6   3 -10    0.86    0.23
  -6  -3  10    0.82    0.21
   6   3  -9    1.29    0.26
  -6  -3   9    0.96    0.26
   6   3  -8   -0.11    0.14
  -6  -3   8    0.16    0.12
   6   3  -7    0.60    0.16
  -6  -3   7    0.73    0.17
   6   3  -6    1.35    0.22
  -6  -3   6    1.29    0.24
   6   3  -5    3.59    0.25
  -6  -3   5    3.65    0.27
   6   3  -4    0.05    0.10
  -6  -3   4    0.06    0.09
   6   3  -3    1.04    0.16
  -6  -3   3    1.06    0.18
   6   3  -2    0.10    0.08
  -6  -3   2    0.18    0.11
   6   3  -1    1.79    0.16
  -6  -3   1    2.35    0.17
  -6  -3   1    1.70    0.11
   6   3   0    2.92    0.21
  -6  -3   0    3.26    0.19
  -6  -3   0    2.72    0.17
   6   3   1    2.54    0.20
  -6  -3  -1    2.52    0.18
  -6  -3  -1    2.40    0.16
   6   3   2    1.67    0.14
  -6  -3  -2    1.57    0.15
  -6  -3  -2    1.42    0.14
   6   3   3    2.90    0.18
  -6  -3  -3    2.86    0.21
  -6  -3  -3    3.28    0.21
   6   3   4    0.14    0.09
  -6  -3  -4    0.23    0.09
  -6  -3  -4    0.21    0.09
   6   3   5    1.59    0.14
   6   3   5    1.80    0.19
  -6  -3  -5    1.68    0.16
   6   3   6    2.53    0.18
   6   3   6    2.03    0.17
  -6  -3  -6    2.69    0.22
   6   3   7    6.47    0.33
   6   3   7    6.40    0.28
  -6  -3  -7    6.35    0.33
   6   3   8    2.94    0.20
   6   3   8    3.41    0.25
  -6  -3  -8    3.48    0.25
   6   3   9    2.38    0.22
   6   3   9    1.99    0.18
  -6  -3  -9    2.39    0.27
   6   3  10    5.18    0.31
   6   3  10    5.01    0.27
  -6  -3 -10    4.81    0.35
   6   3  11    4.94    0.31
   6   3  11    4.99    0.33
  -6  -3 -11    5.99    0.41
   6   3  12    0.31    0.10
  -6  -3 -12    0.42    0.16
  -6  -3 -13    0.11    0.14
  -6  -3 -14    1.04    0.23
   6   4 -10    1.08    0.20
  -6  -4  10    0.85    0.21
   6   4  -9    0.32    0.15
  -6  -4   9    0.11    0.17
   6   4  -8    0.73    0.17
  -6  -4   8    1.06    0.24
   6   4  -7    0.15    0.14
  -6  -4   7    0.06    0.12
   6   4  -6    3.61    0.28
  -6  -4   6    3.63    0.27
   6   4  -5    3.88    0.25
  -6  -4   5    3.95    0.28
   6   4  -4    3.23    0.22
  -6  -4   4    3.66    0.25
   6   4  -3    9.33    0.38
  -6  -4   3   10.00    0.42
   6   4  -2    0.01    0.09
  -6  -4   2    0.20    0.10
   6   4  -1    0.74    0.11
  -6  -4   1    0.69    0.12
   6   4   0    0.29    0.09
  -6  -4   0    0.35    0.13
  -6  -4   0    0.14    0.08
   6   4   1    0.04    0.08
  -6  -4  -1    0.01    0.07
  -6  -4  -1    0.06    0.07
   6   4   2    2.87    0.18
  -6  -4  -2    2.58    0.16
  -6  -4  -2    2.64    0.19
   6   4   3    0.66    0.11
  -6  -4  -3    0.69    0.14
  -6  -4  -3    1.11    0.13
   6   4   4    2.10    0.20
   6   4   4    2.04    0.16
  -6  -4  -4    2.26    0.18
   6   4   5    3.08    0.26
   6   4   5    2.57    0.14
  -6  -4  -5    3.34    0.25
   6   4   6    0.24    0.08
   6   4   6    0.32    0.11
  -6  -4  -6    0.35    0.14
   6   4   7    5.98    0.32
   6   4   7    5.83    0.25
  -6  -4  -7    6.69    0.34
   6   4   8    0.89    0.11
   6   4   8    1.40    0.20
  -6  -4  -8    1.07    0.17
   6   4   9    2.19    0.17
   6   4   9    2.93    0.26
  -6  -4  -9    2.43    0.24
   6   4  10    5.65    0.35
  -6  -4 -10    5.86    0.39
   6   4  11    0.10    0.14
  -6  -4 -11    0.05    0.17
   6   4  12    0.39    0.15
  -6  -4 -12    0.89    0.19
  -6  -4 -13   -0.04    0.17
  -6  -4 -14    0.43    0.25
   6   5 -10    0.01    0.21
  -6  -5  10    0.33    0.19
   6   5  -9    1.14    0.22
  -6  -5   9    0.73    0.22
   6   5  -8    0.12    0.13
  -6  -5   8    0.32    0.14
   6   5  -7    0.54    0.17
  -6  -5   7    0.49    0.19
   6   5  -6    2.53    0.22
  -6  -5   6    2.28    0.25
   6   5  -5    0.16    0.12
  -6  -5   5    0.13    0.11
   6   5  -4    2.16    0.19
  -6  -5   4    2.19    0.26
   6   5  -3    0.42    0.12
  -6  -5   3    0.43    0.14
   6   5  -2   16.02    0.52
  -6  -5   2   17.02    0.65
  -6  -5   2   15.33    0.46
   6   5  -1    7.94    0.34
  -6  -5   1    8.56    0.33
  -6  -5   1    9.24    0.42
   6   5   0    5.18    0.22
  -6  -5   0    5.10    0.23
  -6  -5   0    5.70    0.33
   6   5   1    0.24    0.09
  -6  -5  -1    0.50    0.11
  -6  -5  -1    0.74    0.12
   6   5   2    1.72    0.14
  -6  -5  -2    2.11    0.16
  -6  -5  -2    2.01    0.20
   6   5   3   -0.03    0.11
   6   5   3   -0.04    0.05
  -6  -5  -3    0.08    0.07
   6   5   4    0.73    0.14
   6   5   4    0.42    0.08
  -6  -5  -4    0.47    0.14
   6   5   5    0.62    0.15
  -6  -5  -5    0.51    0.16
   6   5   6    1.34    0.22
  -6  -5  -6    1.15    0.16
   6   5   7    0.27    0.14
  -6  -5  -7   -0.06    0.09
   6   5   8    0.21    0.14
  -6  -5  -8    0.01    0.11
   6   5   9    0.30    0.14
  -6  -5  -9   -0.12    0.11
   6   5  10    2.08    0.28
  -6  -5 -10    1.91    0.28
   6   5  11    0.53    0.18
  -6  -5 -11   -0.13    0.19
   6   5  12    1.57    0.23
  -6  -5 -12    1.07    0.25
   6   5  13    0.23    0.21
  -6  -5 -13    0.42    0.18
   6   6  -9    0.18    0.14
  -6  -6   9    0.00    0.14
   6   6  -8    0.03    0.12
  -6  -6   8    0.02    0.12
   6   6  -7    0.51    0.20
  -6  -6   7    0.48    0.16
   6   6  -6    1.13    0.19
  -6  -6   6    1.17    0.24
   6   6  -5    1.26    0.18
  -6  -6   5    1.40    0.22
   6   6  -4    0.12    0.08
  -6  -6   4    0.04    0.15
   6   6  -3    0.86    0.14
  -6  -6   3    0.76    0.17
   6   6  -2    5.25    0.27
  -6  -6   2    5.62    0.27
  -6  -6   2    5.99    0.35
   6   6  -1    5.63    0.26
  -6  -6   1    5.61    0.29
  -6  -6   1    6.30    0.35
   6   6   0    0.60    0.10
  -6  -6   0    0.74    0.14
  -6  -6   0    1.02    0.16
  -6  -6  -1    1.69    0.19
   6   6   2    1.44    0.22
  -6  -6  -2    1.34    0.15
   6   6   3    0.36    0.16
  -6  -6  -3    0.53    0.12
   6   6   4    0.34    0.15
  -6  -6  -4    0.23    0.14
   6   6   5    1.15    0.21
  -6  -6  -5    0.95    0.21
   6   6   6    0.96    0.24
  -6  -6  -6    1.06    0.18
   6   6   7    0.81    0.21
  -6  -6  -7    0.32    0.20
   6   6   8   -0.10    0.12
  -6  -6  -8    0.01    0.12
   6   6   9    0.01    0.14
  -6  -6  -9    0.17    0.13
   6   6  10    0.24    0.17
  -6  -6 -10   -0.04    0.17
   6   6  11    0.00    0.13
  -6  -6 -11   -0.02    0.13
   6   6  12    0.38    0.20
  -6  -6 -12    0.52    0.20
   6   7  -7    0.65    0.20
  -6  -7   7    0.42    0.18
   6   7  -6    0.83    0.19
  -6  -7   6    1.18    0.25
   6   7  -5    0.64    0.16
  -6  -7   5    0.88    0.23
   6   7  -4    1.50    0.18
  -6  -7   4    1.77    0.29
  -6  -7   3    0.77    0.14
  -6  -7   3    0.98    0.19
  -6  -7   2    1.89    0.19
  -6  -7   2    1.87    0.30
  -6  -7   1    1.84    0.20
  -6  -7   1    1.76    0.24
   6   7   0    0.20    0.16
  -6  -7   0    0.08    0.11
   6   7   1    5.35    0.46
  -6  -7  -1    5.54    0.35
   6   7   2    1.87    0.24
  -6  -7  -2    0.99    0.17
   6   7   3   -0.22    0.14
  -6  -7  -3    0.04    0.14
   6   7   4    0.20    0.16
  -6  -7  -4    0.11    0.13
   6   7   5    0.12    0.18
  -6  -7  -5   -0.12    0.11
   6   7   6    2.58    0.32
  -6  -7  -6    2.27    0.26
   6   7   7    0.09    0.15
  -6  -7  -7   -0.12    0.12
   6   7   8    0.44    0.22
  -6  -7  -8    1.04    0.24
   6   7   9    0.07    0.20
  -6  -7  -9    0.07    0.15
   6   7  10    0.23    0.23
  -6  -7 -10    0.24    0.18
  -6  -8   5    0.09    0.19
  -6  -8   4    0.24    0.21
   6   8  -3    0.11    0.18
   6   8  -2    2.01    0.32
  -6  -8   2    2.10    0.24
   6   8  -1    4.53    0.48
  -6  -8   1    4.13    0.33
   6   8   0    3.98    0.37
  -6  -8   0    2.86    0.31
   6   8   1    0.11    0.18
  -6  -8  -1    0.20    0.15
   6   8   2    0.98    0.26
  -6  -8  -2    1.39    0.20
   6   8   3   -0.02    0.16
  -6  -8  -3    0.09    0.14
   6   8   4    0.48    0.28
  -6  -8  -4    0.41    0.16
   6   8   5    0.02    0.20
  -6  -8  -5    0.03    0.12
   6   8   6    0.14    0.21
  -6  -8  -6    0.35    0.22
   6   8   7    1.05    0.29
  -6  -8  -7    0.27    0.21
   7  -2  -1    0.45    0.17
   7  -2   0   -0.06    0.13
   7  -2   1    0.13    0.17
   7  -2   2    2.71    0.35
  -7   2  -2    2.48    0.29
   7  -2   3    0.27    0.18
  -7   2  -3    0.06    0.15
   7  -2   4    0.12    0.20
  -7   2  -4    0.22    0.13
   7  -2   5    2.26    0.27
  -7   2  -5    2.27    0.26
   7  -2   6    0.94    0.19
  -7   2  -6    0.16    0.17
   7  -2   7   -0.08    0.16
  -7   2  -7    0.01    0.11
   7  -1  -4    1.36    0.24
  -7   1   4    1.61    0.22
   7  -1  -3    0.19    0.13
  -7   1   3    0.00    0.14
   7  -1  -2    0.43    0.19
  -7   1   2    0.33    0.16
   7  -1  -1    0.62    0.16
  -7   1   1    0.75    0.14
   7  -1   0    1.10    0.19
   7  -1   1    0.13    0.14
  -7   1  -1    0.14    0.10
   7  -1   2    1.10    0.20
  -7   1  -2    0.44    0.15
   7  -1   3   -0.10    0.13
  -7   1  -3    0.10    0.10
   7  -1   4    2.57    0.25
  -7   1  -4    2.61    0.22
   7  -1   5    1.59    0.29
  -7   1  -5    1.92    0.21
   7  -1   6    2.54    0.28
  -7   1  -6    2.28    0.23
   7  -1   7    2.16    0.27
  -7   1  -7    2.32    0.24
   7  -1   8    2.65    0.35
  -7   1  -8    2.46    0.27
   7  -1   9    0.04    0.12
  -7   1  -9   -0.08    0.12
   7  -1  10    0.38    0.18
  -7   1 -10    0.47    0.22
   7   0  -6    0.06    0.16
  -7   0   6    0.22    0.15
   7   0  -5    0.42    0.17
  -7   0   5    0.25    0.15
   7   0  -4   -0.07    0.12
  -7   0   4   -0.01    0.14
   7   0  -3    0.48    0.14
  -7   0   3    0.14    0.12
   7   0  -2    0.18    0.12
  -7   0   2   -0.01    0.13
   7   0  -1    0.02    0.11
  -7   0   1   -0.08    0.09
   7   0   0    0.50    0.16
  -7   0   0    0.69    0.14
   7   0   1    0.67    0.16
  -7   0  -1    0.61    0.13
  -7   0  -1    0.47    0.10
   7   0   2    0.40    0.17
  -7   0  -2    0.10    0.10
  -7   0  -2    0.69    0.13
   7   0   3    1.85    0.22
  -7   0  -3    1.83    0.20
   7   0   4    1.14    0.18
  -7   0  -4    1.16    0.18
   7   0   5    4.06    0.31
  -7   0  -5    4.87    0.28
   7   0   6    0.37    0.15
  -7   0  -6    0.41    0.16
   7   0   7    0.80    0.18
  -7   0  -7    0.81    0.20
   7   0   8    0.13    0.11
  -7   0  -8   -0.16    0.12
   7   0   9    1.31    0.22
  -7   0  -9    1.73    0.26
   7   0  10    0.01    0.13
  -7   0 -10    0.21    0.13
   7   0  11    4.10    0.36
  -7   0 -11    3.94    0.34
   7   1  -7    0.22    0.17
  -7  -1   7   -0.05    0.14
   7   1  -6    0.46    0.16
  -7  -1   6    0.03    0.15
   7   1  -5   -0.14    0.13
  -7  -1   5   -0.05    0.13
   7   1  -4    0.72    0.17
  -7  -1   4    0.99    0.20
   7   1  -3    0.70    0.16
  -7  -1   3    0.62    0.18
   7   1  -2    3.80    0.33
  -7  -1   2    3.33    0.26
   7   1  -1    0.87    0.20
  -7  -1   1    1.01    0.14
   7   1   0    0.04    0.10
  -7  -1   0   -0.01    0.09
   7   1   1    2.19    0.25
  -7  -1  -1    1.73    0.19
  -7  -1  -1    2.02    0.16
   7   1   2    1.33    0.19
  -7  -1  -2    1.26    0.13
  -7  -1  -2    1.35    0.16
   7   1   3    0.90    0.16
  -7  -1  -3    0.94    0.14
  -7  -1  -3    1.19    0.13
   7   1   4    0.25    0.14
  -7  -1  -4   -0.05    0.11
  -7  -1  -4    0.26    0.09
   7   1   5    0.41    0.17
  -7  -1  -5    0.79    0.15
   7   1   6    0.76    0.14
  -7  -1  -6    0.31    0.12
   7   1   7    1.03    0.21
  -7  -1  -7    1.17    0.20
   7   1   8    0.98    0.18
  -7  -1  -8    1.38    0.19
   7   1   9    0.08    0.10
  -7  -1  -9   -0.03    0.10
   7   1  10    0.04    0.12
  -7  -1 -10    0.05    0.11
   7   1  11    0.12    0.13
  -7  -1 -11    0.17    0.14
   7   1  12    0.27    0.14
  -7  -1 -12    0.06    0.16
   7   2  -8    0.16    0.16
  -7  -2   8    0.23    0.16
   7   2  -7    0.79    0.20
  -7  -2   7    0.36    0.23
   7   2  -6    0.25    0.16
  -7  -2   6    0.55    0.19
   7   2  -5    2.53    0.26
  -7  -2   5    2.44    0.26
   7   2  -4    0.18    0.11
  -7  -2   4    0.08    0.15
   7   2  -3    1.55    0.20
  -7  -2   3    1.59    0.19
   7   2  -2   -0.06    0.14
  -7  -2   2    0.25    0.11
   7   2  -1    0.29    0.12
  -7  -2   1    0.47    0.12
   7   2   0    1.91    0.23
  -7  -2   0    1.88    0.21
  -7  -2   0    1.85    0.15
   7   2   1   -0.14    0.08
  -7  -2  -1    0.07    0.09
  -7  -2  -1    0.05    0.07
   7   2   2    1.45    0.21
  -7  -2  -2    1.78    0.17
  -7  -2  -2    1.57    0.18
   7   2   3    0.44    0.11
  -7  -2  -3    0.23    0.12
  -7  -2  -3    0.25    0.11
   7   2   4   -0.14    0.11
  -7  -2  -4   -0.06    0.07
  -7  -2  -4    0.08    0.08
   7   2   5    0.19    0.10
  -7  -2  -5    0.08    0.12
  -7  -2  -5    0.11    0.09
   7   2   6    1.31    0.18
   7   2   6    1.72    0.18
  -7  -2  -6    1.81    0.18
   7   2   7   -0.17    0.10
  -7  -2  -7    0.14    0.09
   7   2   8    0.13    0.11
  -7  -2  -8   -0.06    0.12
   7   2   9    0.13    0.13
  -7  -2  -9    0.11    0.12
   7   2  10    0.80    0.19
  -7  -2 -10    1.06    0.19
   7   2  11    0.01    0.11
  -7  -2 -11    0.25    0.16
   7   2  12    0.95    0.21
  -7  -2 -12    0.91    0.27
   7   3  -8   -0.11    0.13
  -7  -3   8    0.31    0.15
   7   3  -7    0.54    0.20
  -7  -3   7    0.47    0.22
   7   3  -6    1.20    0.21
  -7  -3   6    1.08    0.20
   7   3  -5    0.02    0.11
  -7  -3   5   -0.22    0.15
   7   3  -4    0.60    0.19
  -7  -3   4    0.87    0.16
   7   3  -3    1.61    0.18
  -7  -3   3    1.30    0.22
   7   3  -2    0.45    0.13
  -7  -3   2    0.40    0.13
   7   3  -1    0.72    0.15
  -7  -3   1    0.28    0.12
   7   3   0    0.02    0.11
  -7  -3   0    0.17    0.11
  -7  -3   0    0.06    0.07
   7   3   1    0.88    0.16
  -7  -3  -1    0.67    0.13
  -7  -3  -1    0.77    0.13
   7   3   2    6.66    0.33
  -7  -3  -2    6.20    0.35
  -7  -3  -2    6.00    0.29
   7   3   3    0.20    0.10
  -7  -3  -3    0.16    0.10
  -7  -3  -3    0.25    0.11
   7   3   4    4.53    0.26
  -7  -3  -4    4.01    0.25
  -7  -3  -4    4.46    0.28
   7   3   5    8.82    0.41
   7   3   5    7.08    0.38
  -7  -3  -5    8.51    0.39
   7   3   6    1.30    0.18
   7   3   6    1.22    0.17
  -7  -3  -6    0.98    0.16
   7   3   7    6.36    0.31
   7   3   7    5.91    0.36
  -7  -3  -7    6.42    0.36
   7   3   8   -0.02    0.10
   7   3   8   -0.02    0.09
  -7  -3  -8   -0.04    0.10
   7   3   9    2.03    0.19
  -7  -3  -9    2.48    0.25
   7   3  10    0.37    0.13
  -7  -3 -10    0.04    0.14
   7   3  11    0.60    0.17
  -7  -3 -11    1.28    0.20
  -7  -3 -12    0.72    0.25
   7   4  -8    0.14    0.12
  -7  -4   8   -0.09    0.14
   7   4  -7    1.16    0.20
  -7  -4   7    1.11    0.23
   7   4  -6    0.54    0.15
  -7  -4   6    0.10    0.20
   7   4  -5   -0.06    0.10
  -7  -4   5    0.04    0.10
   7   4  -4    0.01    0.10
  -7  -4   4   -0.02    0.09
   7   4  -3    5.04    0.31
  -7  -4   3    6.56    0.41
   7   4  -2    0.15    0.12
  -7  -4   2    0.09    0.11
   7   4  -1    1.62    0.16
  -7  -4   1    1.51    0.18
   7   4   0    2.07    0.18
  -7  -4   0    2.83    0.22
  -7  -4   0    2.29    0.17
   7   4   1    1.88    0.19
  -7  -4  -1    1.48    0.15
  -7  -4  -1    1.61    0.17
   7   4   2    0.81    0.16
  -7  -4  -2    0.96    0.14
  -7  -4  -2    1.00    0.14
   7   4   3    0.34    0.10
  -7  -4  -3    0.44    0.10
  -7  -4  -3    0.18    0.14
   7   4   4    0.03    0.10
  -7  -4  -4    0.14    0.09
  -7  -4  -4   -0.02    0.09
   7   4   5    4.48    0.29
   7   4   5    3.32    0.24
  -7  -4  -5    4.18    0.31
   7   4   6    1.84    0.23
   7   4   6    1.70    0.16
  -7  -4  -6    1.26    0.22
   7   4   7    2.23    0.26
   7   4   7    2.40    0.17
  -7  -4  -7    2.13    0.27
   7   4   8    2.04    0.20
   7   4   8    2.38    0.27
  -7  -4  -8    2.53    0.25
   7   4   9    1.29    0.19
  -7  -4  -9    1.64    0.23
   7   4  10   12.94    0.68
  -7  -4 -10   14.28    0.71
  -7  -4 -11    0.33    0.17
  -7  -4 -12    0.22    0.21
   7   5  -8    1.31    0.26
  -7  -5   8    1.43    0.27
   7   5  -7    0.72    0.22
  -7  -5   7    0.30    0.19
   7   5  -6    0.12    0.13
  -7  -5   6   -0.07    0.15
   7   5  -5    0.19    0.14
  -7  -5   5    0.23    0.18
   7   5  -4    0.10    0.10
  -7  -5   4    0.16    0.12
   7   5  -3    1.54    0.17
  -7  -5   3    1.49    0.25
   7   5  -2    0.06    0.10
  -7  -5   2    0.04    0.11
   7   5  -1    0.50    0.14
  -7  -5   1    0.67    0.15
   7   5   0    0.16    0.11
  -7  -5   0    0.08    0.08
  -7  -5   0    0.25    0.11
   7   5   1    0.65    0.14
  -7  -5  -1    0.80    0.13
  -7  -5  -1    0.88    0.19
   7   5   2    1.90    0.19
  -7  -5  -2    2.74    0.22
  -7  -5  -2    2.34    0.24
   7   5   3    0.58    0.11
  -7  -5  -3    0.55    0.13
   7   5   4   -0.07    0.15
   7   5   4    0.10    0.09
  -7  -5  -4    0.20    0.12
   7   5   5    0.14    0.14
  -7  -5  -5    0.30    0.14
   7   5   6    0.23    0.13
  -7  -5  -6   -0.13    0.09
   7   5   7    0.86    0.24
  -7  -5  -7    1.06    0.18
   7   5   8    1.46    0.29
  -7  -5  -8    1.59    0.26
   7   5   9    4.03    0.40
  -7  -5  -9    4.34    0.35
   7   5  10    1.21    0.28
  -7  -5 -10    1.97    0.26
   7   5  11    0.42    0.22
  -7  -5 -11    0.68    0.25
   7   6  -7    0.11    0.18
  -7  -6   7    0.24    0.19
   7   6  -6    0.70    0.22
  -7  -6   6    0.81    0.21
   7   6  -5    0.43    0.17
  -7  -6   5    0.48    0.22
   7   6  -4    3.67    0.29
  -7  -6   4    3.70    0.39
   7   6  -3    1.10    0.18
  -7  -6   3    0.85    0.19
   7   6  -2    0.18    0.10
  -7  -6   2    0.40    0.14
   7   6  -1    1.67    0.18
  -7  -6   1    1.99    0.23
   7   6   0    0.30    0.12
  -7  -6   0    0.54    0.12
  -7  -6   0    0.28    0.15
  -7  -6  -1    0.26    0.12
  -7  -6  -1    0.00    0.13
   7   6   2    0.53    0.18
  -7  -6  -2    0.39    0.14
   7   6   3    0.19    0.14
  -7  -6  -3    0.08    0.11
   7   6   4    0.41    0.19
  -7  -6  -4    0.81    0.18
   7   6   5    1.08    0.21
  -7  -6  -5    0.85    0.21
   7   6   6    0.87    0.23
  -7  -6  -6    0.66    0.22
   7   6   7    0.27    0.22
  -7  -6  -7    0.17    0.17
   7   6   8    0.50    0.24
  -7  -6  -8    0.40    0.21
   7   6   9    1.87    0.27
  -7  -6  -9    1.56    0.25
   7   6  10    0.89    0.28
  -7  -6 -10    0.86    0.27
  -7  -7   5    0.14    0.16
  -7  -7   4    0.82    0.20
  -7  -7   3    0.42    0.17
  -7  -7   2    0.63    0.23
  -7  -7   1    0.26    0.16
   7   7   0    0.48    0.23
  -7  -7   0    5.28    0.28
   7   7   1    3.17    0.36
  -7  -7  -1    2.70    0.27
   7   7   2    2.70    0.34
  -7  -7  -2    2.82    0.26
   7   7   3    0.24    0.18
  -7  -7  -3    0.40    0.14
   7   7   4    0.40    0.21
  -7  -7  -4    0.15    0.17
   7   7   5   -0.13    0.14
  -7  -7  -5    0.06    0.15
   7   7   6    0.33    0.18
  -7  -7  -6   -0.01    0.17
   7   7   7    0.26    0.23
  -7  -7  -7    0.09    0.15
   7   7   8    0.45    0.29
  -7  -7  -8    0.61    0.19
   7   8  -1    0.09    0.18
   7   8   0    1.98    0.34
  -7  -8   0    0.88    0.22
   7   8   1    2.52    0.33
  -7  -8  -1    1.88    0.23
   7   8   2    0.08    0.21
  -7  -8  -2    0.54    0.15
   7   8   3    1.55    0.30
  -7  -8  -3    1.09    0.21
   7   8   4    1.24    0.32
  -7  -8  -4    1.32    0.25
   8   0  -1    0.13    0.15
   8   0   0    1.07    0.27
   8   0   1    0.82    0.21
   8   0   2   -0.18    0.14
   8   0   3    0.59    0.23
   8   0   4    2.71    0.35
  -8   0  -4    2.29    0.27
   8   0   5    0.45    0.17
  -8   0  -5    0.37    0.18
   8   0   6    0.52    0.24
  -8   0  -6    0.51    0.20
   8   1  -3    0.09    0.13
  -8  -1   3   -0.14    0.12
   8   1  -2    0.24    0.20
  -8  -1   2    0.50    0.18
   8   1  -1    0.00    0.16
  -8  -1   1    0.40    0.12
   8   1   0    0.39    0.17
  -8  -1   0    0.26    0.15
   8   1   1    0.98    0.18
  -8  -1  -1    0.58    0.16
   8   1   2    0.34    0.16
   8   1   3    0.74    0.22
  -8  -1  -3    0.66    0.15
   8   1   4    0.19    0.15
  -8  -1  -4    0.35    0.14
   8   1   5    0.09    0.10
  -8  -1  -5   -0.08    0.09
   8   1   6    1.92    0.30
  -8  -1  -6    1.81    0.22
   8   1   7    2.61    0.35
  -8  -1  -7    3.01    0.27
   8   1   8    0.92    0.25
  -8  -1  -8    0.93    0.23
   8   2  -4    0.75    0.18
  -8  -2   4    0.42    0.22
   8   2  -3   -0.05    0.15
  -8  -2   3   -0.03    0.14
   8   2  -2    0.17    0.13
  -8  -2   2    0.14    0.15
   8   2  -1    0.20    0.16
  -8  -2   1    0.06    0.14
   8   2   0    0.21    0.13
  -8  -2   0   -0.05    0.12
   8   2   1    0.31    0.16
  -8  -2  -1    0.54    0.13
   8   2   2    0.10    0.14
  -8  -2  -2    0.11    0.09
   8   2   3    1.10    0.18
  -8  -2  -3    1.17    0.17
  -8  -2  -3    0.91    0.17
   8   2   4    0.32    0.13
  -8  -2  -4    0.24    0.14
   8   2   5    1.56    0.21
  -8  -2  -5    1.66    0.22
   8   2   6    0.01    0.11
  -8  -2  -6    0.06    0.10
   8   2   7    3.07    0.34
  -8  -2  -7    2.94    0.28
   8   2   8    0.55    0.17
  -8  -2  -8    0.64    0.17
   8   2   9    0.56    0.18
  -8  -2  -9    0.83    0.24
   8   3  -5   -0.04    0.15
  -8  -3   5    0.03    0.12
   8   3  -4    0.21    0.15
  -8  -3   4    0.27    0.14
   8   3  -3    1.10    0.18
  -8  -3   3    0.88    0.20
   8   3  -2    0.12    0.13
  -8  -3   2    0.16    0.12
   8   3  -1    0.08    0.09
  -8  -3   1   -0.08    0.09
   8   3   0    2.51    0.24
  -8  -3   0    2.94    0.25
   8   3   1    0.98    0.21
  -8  -3  -1    0.97    0.20
   8   3   2    0.28    0.14
  -8  -3  -2    0.03    0.13
   8   3   3    1.30    0.22
  -8  -3  -3    1.03    0.19
  -8  -3  -3    1.57    0.19
   8   3   4    0.09    0.14
  -8  -3  -4    0.02    0.09
  -8  -3  -4    0.25    0.12
   8   3   5    0.24    0.12
  -8  -3  -5    0.38    0.12
   8   3   6    0.86    0.18
  -8  -3  -6    0.63    0.16
   8   3   7    0.43    0.16
  -8  -3  -7    0.35    0.18
   8   3   8   -0.12    0.10
  -8  -3  -8    0.12    0.14
   8   3   9    0.21    0.14
  -8  -3  -9    0.47    0.19
   8   3  10    0.27    0.19
  -8  -3 -10    0.90    0.19
   8   4  -5    0.34    0.17
  -8  -4   5    0.45    0.17
   8   4  -4    0.99    0.20
  -8  -4   4    1.00    0.21
   8   4  -3    1.29    0.26
  -8  -4   3    1.83    0.24
   8   4  -2    0.12    0.15
  -8  -4   2    0.18    0.13
   8   4  -1    1.11    0.23
  -8  -4   1    1.53    0.20
   8   4   0   -0.02    0.09
  -8  -4   0   -0.02    0.10
   8   4   1    0.06    0.09
  -8  -4  -1   -0.02    0.10
   8   4   2    0.54    0.14
  -8  -4  -2    0.76    0.15
  -8  -4  -2    0.62    0.15
   8   4   3    0.17    0.14
  -8  -4  -3    0.33    0.14
  -8  -4  -3    0.22    0.13
   8   4   4    0.67    0.14
  -8  -4  -4    0.52    0.14
  -8  -4  -4    0.63    0.19
   8   4   5    0.17    0.08
   8   4   5   -0.05    0.11
  -8  -4  -5   -0.22    0.12
   8   4   6    0.65    0.17
   8   4   6    0.66    0.17
  -8  -4  -6    0.87    0.20
   8   4   7    0.05    0.12
   8   4   7   -0.01    0.15
  -8  -4  -7    0.15    0.14
  -8  -4  -8    0.22    0.15
  -8  -4  -9   -0.02    0.12
   8   5  -4    0.04    0.14
  -8  -5   4    0.30    0.15
   8   5  -3   -0.01    0.14
  -8  -5   3    0.17    0.13
   8   5  -2    0.94    0.22
  -8  -5   2    1.53    0.26
   8   5  -1    0.07    0.11
  -8  -5   1    0.16    0.12
   8   5   0    0.27    0.12
  -8  -5   0   -0.04    0.13
   8   5   1   -0.10    0.09
  -8  -5  -1    0.06    0.12
   8   5   2    0.08    0.11
  -8  -5  -2   -0.12    0.10
  -8  -5  -2   -0.07    0.13
   8   5   3    0.02    0.10
  -8  -5  -3    0.10    0.12
  -8  -5  -3    0.04    0.15
   8   5   4    1.78    0.22
   8   5   4    2.32    0.32
  -8  -5  -4    1.58    0.20
   8   5   5    0.80    0.24
  -8  -5  -5    1.00    0.17
   8   5   6    1.44    0.24
  -8  -5  -6    1.00    0.24
   8   5   7    1.90    0.35
  -8  -5  -7    2.12    0.30
   8   5   8    0.25    0.22
  -8  -5  -8    0.21    0.19
  -8  -5  -9    1.21    0.24
   8   6  -3   -0.02    0.13
  -8  -6   3   -0.11    0.14
   8   6  -2    0.09    0.13
  -8  -6   2    0.15    0.14
   8   6  -1    2.66    0.27
  -8  -6   1    3.23    0.34
  -8  -6   0    0.03    0.13
  -8  -6  -1    0.25    0.16
  -8  -6  -2    1.15    0.19
   8   6   3    0.38    0.19
  -8  -6  -3    0.21    0.16
   8   6   4    0.60    0.26
  -8  -6  -4    0.56    0.20
   8   6   5    0.26    0.22
  -8  -6  -5    1.13    0.22
   8   6   6    0.07    0.14
  -8  -6  -6   -0.03    0.13
   8   6   7    2.67    0.39
  -8  -6  -7    1.62    0.32
  -8  -7   0   -0.31    0.22
   8   7   1    0.05    0.17
   8   7   2    0.81    0.26
   8   7   3   -0.04    0.21
  -8  -7  -3    0.18    0.15
   8   7   4    0.78    0.30
  -8  -7  -4    0.70    0.19
   0   0   0    0.00    0.00
;
_shelx_res_checksum              56999
_shelx_res_file
;
TITL datam in P-1
CELL 0.71073 6.8789 7.2488 13.6384 89.962 81.279 66.888
ZERR 2 0.0012 0.0013 0.0025 0.006 0.007 0.008
LATT 1

SFAC C H N O F
UNIT 26 18 4 6 6

L.S. 10
PLAN  20
SIZE 0.12 0.2 0.3
TEMP -123.15
BOND $H
fmap 2
acta
MERG 2
REM <HKL>F:/Experimental%20DATA/Structural%20Landscape/Coformer%20Modification
REM /IsoNicotinamide/Full%20data/345fbaIsoNicAmd_ETOH_2/345fbaIsoNicAmd_ETOH_2
REM /345fbaIsoNicAmd_ETOH_2/345fbaIsoNicAmd_ETOH_2/datam.hkl</HKL>

WGHT    0.051600    0.320400
FVAR       0.18721
H10   2    0.053548    0.379161    0.788955    11.00000    0.01854
H2A   2   -0.074874    0.852569    0.436896    11.00000    0.03351
H2B   2   -0.314638    0.966455    0.445474    11.00000    0.02764
H3    2    0.650948   -0.050406    0.922104    11.00000    0.02905
H11   2   -0.230509    0.586591    0.709626    11.00000    0.02702
H13   2    0.461054    0.513661    0.597989    11.00000    0.03033
H12   2    0.188274    0.715129    0.517031    11.00000    0.03424
H5    2    1.187359   -0.044775    0.750362    11.00000    0.02970
H1    2    0.454108    0.293476    0.754032    11.00000    0.09796
C1    1    0.759983    0.116503    0.758814    11.00000    0.02359    0.02386 =
         0.01959    0.00195   -0.00263   -0.00909
C2    1    1.240255   -0.211301    0.868565    11.00000    0.01770    0.02772 =
         0.03295   -0.00251   -0.00489   -0.00475
C3    1    0.800928   -0.087195    0.908467    11.00000    0.01939    0.02748 =
         0.02247    0.00123   -0.00328   -0.00720
C4    1    0.897348   -0.022457    0.825676    11.00000    0.02155    0.02189 =
         0.01928    0.00053   -0.00408   -0.00755
C5    1    1.118958   -0.085651    0.805448    11.00000    0.02380    0.02714 =
         0.02198    0.00043   -0.00096   -0.01027
C6    1    1.147938   -0.276184    0.950533    11.00000    0.03068    0.02285 =
         0.02658    0.00249   -0.01351   -0.00522
C7    1    0.928766   -0.213614    0.969094    11.00000    0.03159    0.02704 =
         0.02021    0.00439   -0.00447   -0.01242
O1    4    0.556588    0.184810    0.795269    11.00000    0.01979    0.04991 =
         0.02740    0.01597   -0.00431   -0.00261
O2    4    0.833882    0.159381    0.679558    11.00000    0.03064    0.03507 =
         0.02546    0.01029   -0.00342   -0.01482
F1    5    0.840409   -0.277071    1.049943    11.00000    0.04415    0.04733 =
         0.02668    0.01821   -0.00811   -0.02137
F2    5    1.267805   -0.394831    1.012934    11.00000    0.03941    0.03787 =
         0.04243    0.01335   -0.02243   -0.00603
F3    5    1.454540   -0.273695    0.852031    11.00000    0.01902    0.05654 =
         0.04995    0.00836   -0.00803   -0.00708
C8    1   -0.052610    0.676630    0.602962    11.00000    0.02071    0.01918 =
         0.01856    0.00180   -0.00363   -0.00526
C9    1   -0.243095    0.811186    0.558347    11.00000    0.02245    0.02063 =
         0.02061    0.00359   -0.00455   -0.00749
C10   1    0.078677    0.452161    0.727724    11.00000    0.02954    0.02618 =
         0.02031    0.00510   -0.00640   -0.00998
C11   1   -0.091676    0.575144    0.684635    11.00000    0.02086    0.02468 =
         0.02017    0.00375   -0.00351   -0.00756
C12   1    0.157198    0.653082    0.569114    11.00000    0.02467    0.02526 =
         0.02163    0.00610   -0.00373   -0.01110
C13   1    0.317530    0.529577    0.617210    11.00000    0.02056    0.02982 =
         0.02685    0.00284   -0.00434   -0.00830
N1    3    0.280471    0.428720    0.695474    11.00000    0.02388    0.02537 =
         0.02320    0.00329   -0.00823   -0.00566
N2    3   -0.206485    0.887649    0.472165    11.00000    0.01809    0.02782 =
         0.02311    0.00967   -0.00478   -0.00426
O3    4   -0.424799    0.845239    0.602704    11.00000    0.01819    0.04146 =
         0.03079    0.01798   -0.00350   -0.00535
HKLF 4

REM  datam in P-1
REM R1 =  0.0488 for    2053 Fo > 4sig(Fo)  and  0.0730 for all    2820 data
REM    226 parameters refined using      0 restraints

END

WGHT      0.0516      0.3204

REM Highest difference peak  0.344,  deepest hole -0.281,  1-sigma level  0.059
Q1    1   0.8301  0.0620  0.7965  11.00000  0.05    0.34
Q2    1  -0.1417  0.7438  0.5766  11.00000  0.05    0.34
Q3    1   0.4839  0.2432  0.7602  11.00000  0.05    0.32
Q4    1   0.3732  0.3563  0.7168  11.00000  0.05    0.27
Q5    1  -0.0070  0.5315  0.7192  11.00000  0.05    0.27
Q6    1  -0.3077  0.6388  0.7428  11.00000  0.05    0.23
Q7    1   0.2332  0.5925  0.5978  11.00000  0.05    0.23
Q8    1  -0.5469  0.9194  0.5838  11.00000  0.05    0.22
Q9    1   0.1512  0.4746  0.6976  11.00000  0.05    0.22
Q10   1   0.9980 -0.3758  1.0731  11.00000  0.05    0.21
Q11   1   1.4006 -0.4841  1.0196  11.00000  0.05    0.21
Q12   1   1.1802 -0.1385  0.8458  11.00000  0.05    0.21
Q13   1   1.0342 -0.2144  0.9744  11.00000  0.05    0.21
Q14   1   0.8583 -0.1452  0.9435  11.00000  0.05    0.21
Q15   1   0.7138  0.2591  0.6597  11.00000  0.05    0.20
Q16   1   0.9018  0.2495  0.7019  11.00000  0.05    0.20
Q17   1   0.0869  0.5864  0.5616  11.00000  0.05    0.20
Q18   1   0.9717  0.1061  0.6436  11.00000  0.05    0.20
Q19   1   1.1949 -0.3273  0.9875  11.00000  0.05    0.20
Q20   1   0.5067  0.4125  0.5847  11.00000  0.05    0.19
;
_shelx_space_group_comment
;
The symmetry employed for this shelxl refinement is uniquely defined
by the following loop, which should always be used as a source of
symmetry information in preference to the above space-group names.
They are only intended as comments.
;
_shelxl_version_number           2013-2
#END Tags that were not found in dictionaries
loop_
_space_group_symop_operation_xyz
'x, y, z'
'-x, -y, -z'
loop_
_atom_site_label
_atom_site_type_symbol
_atom_site_fract_x
_atom_site_fract_y
_atom_site_fract_z
_atom_site_U_iso_or_equiv
_atom_site_adp_type
_atom_site_occupancy
_atom_site_site_symmetry_order
_atom_site_calc_flag
H10 H 0.054(3) 0.379(3) 0.7890(16) 0.019(5) Uiso 1 1 d
H2A H -0.075(4) 0.853(4) 0.4369(19) 0.034(7) Uiso 1 1 d
H2B H -0.315(4) 0.966(4) 0.4455(18) 0.028(6) Uiso 1 1 d
H3 H 0.651(4) -0.050(4) 0.9221(17) 0.029(6) Uiso 1 1 d
H11 H -0.231(4) 0.587(3) 0.7096(17) 0.027(6) Uiso 1 1 d
H13 H 0.461(4) 0.514(4) 0.5980(18) 0.030(6) Uiso 1 1 d
H12 H 0.188(4) 0.715(4) 0.5170(19) 0.034(7) Uiso 1 1 d
H5 H 1.187(4) -0.045(4) 0.7504(19) 0.030(6) Uiso 1 1 d
H1 H 0.454(6) 0.293(6) 0.754(3) 0.098(13) Uiso 1 1 d
C1 C 0.7600(3) 0.1165(3) 0.75881(15) 0.0226(4) Uani 1 1 d
C2 C 1.2403(3) -0.2113(3) 0.86857(17) 0.0274(5) Uani 1 1 d
C3 C 0.8009(3) -0.0872(3) 0.90847(16) 0.0238(5) Uani 1 1 d
C4 C 0.8973(3) -0.0225(3) 0.82568(15) 0.0212(4) Uani 1 1 d
C5 C 1.1190(3) -0.0857(3) 0.80545(16) 0.0246(5) Uani 1 1 d
C6 C 1.1479(3) -0.2762(3) 0.95053(16) 0.0274(5) Uani 1 1 d
C7 C 0.9288(4) -0.2136(3) 0.96909(15) 0.0260(5) Uani 1 1 d
O1 O 0.5566(2) 0.1848(3) 0.79527(12) 0.0359(4) Uani 1 1 d
O2 O 0.8339(2) 0.1594(2) 0.67956(11) 0.0300(4) Uani 1 1 d
F1 F 0.8404(2) -0.2771(2) 1.04994(10) 0.0381(4) Uani 1 1 d
F2 F 1.2678(2) -0.3948(2) 1.01293(11) 0.0411(4) Uani 1 1 d
F3 F 1.4545(2) -0.2737(2) 0.85203(11) 0.0441(4) Uani 1 1 d
C8 C -0.0526(3) 0.6766(3) 0.60296(14) 0.0203(4) Uani 1 1 d
C9 C -0.2431(3) 0.8112(3) 0.55835(15) 0.0215(4) Uani 1 1 d
C10 C 0.0787(3) 0.4522(3) 0.72772(16) 0.0254(5) Uani 1 1 d
C11 C -0.0917(3) 0.5751(3) 0.68463(15) 0.0224(4) Uani 1 1 d
C12 C 0.1572(3) 0.6531(3) 0.56911(16) 0.0235(4) Uani 1 1 d
C13 C 0.3175(3) 0.5296(3) 0.61721(16) 0.0262(5) Uani 1 1 d
N1 N 0.2805(3) 0.4287(3) 0.69547(13) 0.0250(4) Uani 1 1 d
N2 N -0.2065(3) 0.8876(3) 0.47217(14) 0.0244(4) Uani 1 1 d
O3 O -0.4248(2) 0.8452(2) 0.60270(12) 0.0323(4) Uani 1 1 d
loop_
_atom_site_aniso_label
_atom_site_aniso_U_11
_atom_site_aniso_U_22
_atom_site_aniso_U_33
_atom_site_aniso_U_23
_atom_site_aniso_U_13
_atom_site_aniso_U_12
C1 0.0236(10) 0.0239(11) 0.0196(10) 0.0020(8) -0.0026(8) -0.0091(8)
C2 0.0177(10) 0.0277(12) 0.0329(12) -0.0025(9) -0.0049(9) -0.0048(8)
C3 0.0194(10) 0.0275(11) 0.0225(10) 0.0012(9) -0.0033(8) -0.0072(8)
C4 0.0216(10) 0.0219(10) 0.0193(10) 0.0005(8) -0.0041(8) -0.0075(8)
C5 0.0238(11) 0.0271(11) 0.0220(11) 0.0004(9) -0.0010(9) -0.0103(9)
C6 0.0307(11) 0.0229(11) 0.0266(11) 0.0025(9) -0.0135(9) -0.0052(9)
C7 0.0316(11) 0.0270(11) 0.0202(10) 0.0044(9) -0.0045(9) -0.0124(9)
O1 0.0198(8) 0.0499(11) 0.0274(8) 0.0160(8) -0.0043(7) -0.0026(7)
O2 0.0306(8) 0.0351(9) 0.0255(8) 0.0103(7) -0.0034(7) -0.0148(7)
F1 0.0442(8) 0.0473(9) 0.0267(7) 0.0182(6) -0.0081(6) -0.0214(7)
F2 0.0394(8) 0.0379(8) 0.0424(9) 0.0134(7) -0.0224(7) -0.0060(6)
F3 0.0190(7) 0.0565(10) 0.0500(9) 0.0084(7) -0.0080(6) -0.0071(6)
C8 0.0207(10) 0.0192(10) 0.0186(10) 0.0018(8) -0.0036(8) -0.0053(8)
C9 0.0224(10) 0.0206(10) 0.0206(10) 0.0036(8) -0.0045(8) -0.0075(8)
C10 0.0295(11) 0.0262(11) 0.0203(10) 0.0051(9) -0.0064(9) -0.0100(9)
C11 0.0209(10) 0.0247(11) 0.0202(10) 0.0038(8) -0.0035(8) -0.0076(8)
C12 0.0247(11) 0.0253(11) 0.0216(10) 0.0061(9) -0.0037(9) -0.0111(9)
C13 0.0206(10) 0.0298(12) 0.0268(11) 0.0028(9) -0.0043(9) -0.0083(9)
N1 0.0239(9) 0.0254(9) 0.0232(9) 0.0033(7) -0.0082(7) -0.0057(7)
N2 0.0181(9) 0.0278(10) 0.0231(9) 0.0097(8) -0.0048(8) -0.0043(7)
O3 0.0182(7) 0.0415(10) 0.0308(8) 0.0180(7) -0.0035(6) -0.0054(7)
loop_
_atom_type_symbol
_atom_type_description
_atom_type_scat_dispersion_real
_atom_type_scat_dispersion_imag
_atom_type_scat_source
C C 0.0033 0.0016 'International Tables Vol C Tables 4.2.6.8 and 6.1.1.4'
H H 0.0000 0.0000 'International Tables Vol C Tables 4.2.6.8 and 6.1.1.4'
N N 0.0061 0.0033 'International Tables Vol C Tables 4.2.6.8 and 6.1.1.4'
O O 0.0106 0.0060 'International Tables Vol C Tables 4.2.6.8 and 6.1.1.4'
F F 0.0171 0.0103 'International Tables Vol C Tables 4.2.6.8 and 6.1.1.4'
loop_
_geom_angle_atom_site_label_1
_geom_angle_atom_site_label_2
_geom_angle_atom_site_label_3
_geom_angle
O1 C1 C4 112.66(17)
O2 C1 C4 122.75(18)
O2 C1 O1 124.59(19)
C5 C2 C6 121.64(19)
F3 C2 C5 120.5(2)
F3 C2 C6 117.9(2)
C4 C3 H3 121.7(15)
C7 C3 H3 119.5(15)
C7 C3 C4 118.79(19)
C3 C4 C1 119.52(18)
C5 C4 C1 120.17(19)
C5 C4 C3 120.32(19)
C2 C5 H5 119.3(15)
C2 C5 C4 118.8(2)
C4 C5 H5 121.9(15)
C7 C6 C2 118.8(2)
F2 C6 C2 121.0(2)
F2 C6 C7 120.1(2)
C3 C7 C6 121.6(2)
F1 C7 C3 120.17(19)
F1 C7 C6 118.24(19)
C1 O1 H1 116(2)
C11 C8 C9 117.45(18)
C11 C8 C12 118.32(19)
C12 C8 C9 124.20(18)
N2 C9 C8 118.12(18)
O3 C9 C8 118.97(18)
O3 C9 N2 122.90(19)
C11 C10 H10 120.4(12)
N1 C10 H10 116.6(12)
N1 C10 C11 122.99(19)
C8 C11 H11 121.0(14)
C10 C11 H11 120.0(14)
C10 C11 C8 118.95(19)
C8 C12 H12 120.8(16)
C13 C12 H12 120.1(16)
C13 C12 C8 119.0(2)
C12 C13 H13 121.5(15)
N1 C13 H13 115.7(15)
N1 C13 C12 122.8(2)
C10 N1 C13 117.94(18)
H2A N2 H2B 118(2)
C9 N2 H2A 122.7(16)
C9 N2 H2B 119.4(15)
loop_
_geom_bond_atom_site_label_1
_geom_bond_atom_site_label_2
_geom_bond_distance
C1 C4 1.501(3)
C1 O1 1.302(2)
C1 O2 1.217(2)
C2 C5 1.374(3)
C2 C6 1.376(3)
C2 F3 1.343(2)
C3 H3 0.95(2)
C3 C4 1.397(3)
C3 C7 1.372(3)
C4 C5 1.391(3)
C5 H5 0.94(2)
C6 C7 1.375(3)
C6 F2 1.341(2)
C7 F1 1.346(2)
O1 H1 1.06(4)
C8 C9 1.509(3)
C8 C11 1.385(3)
C8 C12 1.389(3)
C9 N2 1.331(3)
C9 O3 1.232(2)
C10 H10 1.02(2)
C10 C11 1.379(3)
C10 N1 1.334(3)
C11 H11 0.94(2)
C12 H12 0.88(3)
C12 C13 1.375(3)
C13 H13 0.94(2)
C13 N1 1.342(3)
N2 H2A 0.90(3)
N2 H2B 0.87(3)
