#------------------------------------------------------------------------------
#$Date: 2018-03-15 18:33:54 +0200 (Thu, 15 Mar 2018) $
#$Revision: 206958 $
#$URL: file:///home/coder/svn-repositories/cod/cif/7/11/17/7111799.cif $
#------------------------------------------------------------------------------
#
# This file is available in the Crystallography Open Database (COD),
# http://www.crystallography.net/
#
# All data on this site have been placed in the public domain by the
# contributors.
#
data_7111799
loop_
_publ_author_name
'Ritesh Dubey'
'Gautam R. Desiraju'
_publ_section_title
;
 Structural landscape of the 1 : 1 benzoic acid : isonicotinamide
 cocrystal
;
_journal_name_full               Chem.Commun.
_journal_page_first              1181
_journal_paper_doi               10.1039/c3cc47955b
_journal_volume                  50
_journal_year                    2014
_chemical_formula_sum            'C13 H9 F3 N2 O3'
_chemical_formula_weight         298.22
_chemical_name_systematic
;
 ?
;
_space_group_crystal_system      triclinic
_space_group_IT_number           2
_space_group_name_Hall           '-P 1'
_space_group_name_H-M_alt        'P -1'
_symmetry_space_group_name_Hall  '-P 1'
_symmetry_space_group_name_H-M   'P -1'
_atom_sites_solution_hydrogens   difmap
_audit_creation_method           SHELXL-2013
_cell_angle_alpha                98.435(8)
_cell_angle_beta                 93.169(8)
_cell_angle_gamma                97.474(7)
_cell_formula_units_Z            2
_cell_length_a                   3.8198(6)
_cell_length_b                   7.5011(9)
_cell_length_c                   21.814(3)
_cell_measurement_temperature    100(2)
_cell_volume                     611.25(15)
_computing_structure_refinement  'SHELXL-2013 (Sheldrick, 2013)'
_diffrn_ambient_temperature      100(2)
_diffrn_measured_fraction_theta_full 0.998
_diffrn_measured_fraction_theta_max 0.998
_diffrn_radiation_type           MoK\a
_diffrn_radiation_wavelength     0.71073
_diffrn_reflns_av_R_equivalents  0.0393
_diffrn_reflns_av_unetI/netI     0.0557
_diffrn_reflns_Laue_measured_fraction_full 0.998
_diffrn_reflns_Laue_measured_fraction_max 0.998
_diffrn_reflns_limit_h_max       4
_diffrn_reflns_limit_h_min       -4
_diffrn_reflns_limit_k_max       9
_diffrn_reflns_limit_k_min       -9
_diffrn_reflns_limit_l_max       27
_diffrn_reflns_limit_l_min       -26
_diffrn_reflns_number            7504
_diffrn_reflns_point_group_measured_fraction_full 0.998
_diffrn_reflns_point_group_measured_fraction_max 0.998
_diffrn_reflns_theta_full        25.242
_diffrn_reflns_theta_max         26.998
_diffrn_reflns_theta_min         1.893
_exptl_absorpt_coefficient_mu    0.146
_exptl_absorpt_correction_T_max  0.993
_exptl_absorpt_correction_T_min  0.958
_exptl_absorpt_correction_type   multi-scan
_exptl_absorpt_process_details   'Jacobson, R. (1998) Private communication'
_exptl_crystal_density_diffrn    1.620
_exptl_crystal_F_000             304
_exptl_crystal_size_max          0.300
_exptl_crystal_size_mid          0.150
_exptl_crystal_size_min          0.050
_refine_diff_density_max         0.247
_refine_diff_density_min         -0.303
_refine_diff_density_rms         0.071
_refine_ls_extinction_method     none
_refine_ls_goodness_of_fit_ref   0.963
_refine_ls_hydrogen_treatment    refall
_refine_ls_matrix_type           full
_refine_ls_number_parameters     226
_refine_ls_number_reflns         2662
_refine_ls_number_restraints     0
_refine_ls_restrained_S_all      0.963
_refine_ls_R_factor_all          0.0808
_refine_ls_R_factor_gt           0.0487
_refine_ls_shift/su_max          0.000
_refine_ls_shift/su_mean         0.000
_refine_ls_structure_factor_coef Fsqd
_refine_ls_weighting_details
;
 w=1/[\s^2^(Fo^2^)+(0.0759P)^2^]
 where P=(Fo^2^+2Fc^2^)/3
;
_refine_ls_weighting_scheme      calc
_refine_ls_wR_factor_gt          0.1151
_refine_ls_wR_factor_ref         0.1288
_reflns_Friedel_coverage         0.000
_reflns_number_gt                1814
_reflns_number_total             2662
_reflns_threshold_expression     'I > 2\s(I)'
_cod_data_source_file            c3cc47955b.txt
_cod_data_source_block           shelx
_cod_depositor_comments
;

2018-02-22
Z value and formula fixed to values more according to usual
chemical conventions.                 miguel
;
_cod_original_formula_sum            'C26 H18 F6 N4 O6'
_cod_original_formula_weight         596.44
_cod_original_formula_units_Z            1
_cod_original_cell_volume        611.26(14)
_cod_database_code               7111799
#BEGIN Tags that were not found in dictionaries:
_shelx_space_group_comment
;
The symmetry employed for this shelxl refinement is uniquely defined
by the following loop, which should always be used as a source of
symmetry information in preference to the above space-group names.
They are only intended as comments.
;
_shelx_estimated_absorpt_t_min   0.958
_shelx_estimated_absorpt_t_max   0.993
_shelxl_version_number           2013-2
_shelx_res_file
;
TITL new_0, in P-1 #2
CELL  0.71073   3.8198   7.5011  21.8143   98.435   93.169   97.474
ZERR     1.00   0.0006   0.0009   0.0026    0.008    0.008    0.007
LATT   1
SFAC  C    H    N    O    F
UNIT  26   18   4    6    6
MERG   2
OMIT     0.00  54.00
FMAP   2
PLAN   10
SIZE     0.050   0.150   0.300
ACTA
BOND $H
L.S.  10
TEMP  -173.00
WGHT    0.075900
FVAR       0.22953
F1    5    0.649572    0.861556    0.304266    11.00000    0.04198    0.01323 =
         0.02811    0.00509    0.00806    0.00174
F2    5    0.403781    0.276140    0.359314    11.00000    0.03886    0.01332 =
         0.03063    0.00733    0.00555    0.00424
O1    4    0.822087    0.346817    0.269556    11.00000    0.03144    0.01638 =
         0.02302   -0.00013    0.00135    0.01079
F3    5    0.206740    0.786106    0.494938    11.00000    0.04256    0.03452 =
         0.02316   -0.00467    0.01025    0.00591
O2    4    0.592322    0.546175    0.218198    11.00000    0.03774    0.02117 =
         0.02001    0.00489    0.00400    0.01047
C1    1    0.535761    0.563651    0.327170    11.00000    0.01842    0.01455 =
         0.01954    0.00257    0.00061    0.00301
C3    1    0.428983    0.829418    0.399564    11.00000    0.02729    0.01655 =
         0.02386   -0.00340   -0.00082    0.00382
C2    1    0.533818    0.749558    0.343914    11.00000    0.02523    0.01539 =
         0.01912    0.00409    0.00115    0.00095
C5    1    0.301858    0.528070    0.427181    11.00000    0.02473    0.02232 =
         0.02039    0.00646    0.00150    0.00174
C7    1    0.654989    0.482708    0.265546    11.00000    0.02093    0.01238 =
         0.02105    0.00063   -0.00067    0.00109
C6    1    0.416818    0.458132    0.371249    11.00000    0.02191    0.01374 =
         0.02394    0.00235   -0.00247    0.00179
C4    1    0.313943    0.714228    0.439877    11.00000    0.02663    0.02937 =
         0.01702   -0.00367    0.00394    0.00550
O3    4    0.671548    0.282354   -0.003703    11.00000    0.03457    0.01600 =
         0.01800    0.00257    0.00285    0.00684
N1    3    0.953277   -0.156301   -0.180370    11.00000    0.02104    0.01004 =
         0.02248    0.00054    0.00203    0.00186
N2    3    0.512305    0.421683   -0.083997    11.00000    0.02695    0.01287 =
         0.02061   -0.00035    0.00234    0.00627
C13   1    0.635163    0.285487   -0.060076    11.00000    0.01935    0.01245 =
         0.02083    0.00132    0.00365    0.00010
C9    1    0.771409    0.138070   -0.167002    11.00000    0.02289    0.01413 =
         0.02235    0.00396    0.00136    0.00300
C10   1    0.735666    0.130173   -0.104788    11.00000    0.01612    0.01267 =
         0.01912    0.00018    0.00089   -0.00010
C11   1    0.802288   -0.025522   -0.081238    11.00000    0.01972    0.01436 =
         0.01872    0.00326   -0.00043   -0.00121
C8    1    0.879183   -0.008497   -0.203459    11.00000    0.02334    0.01668 =
         0.02059    0.00299    0.00434    0.00315
C12   1    0.914316   -0.165434   -0.120200    11.00000    0.02481    0.01266 =
         0.02296    0.00290    0.00097    0.00223
H11   2    0.767294   -0.037029   -0.038252    11.00000    0.01383
H3    2    0.433921    0.961967    0.409133    11.00000    0.03322
H8    2    0.916412   -0.013869   -0.247452    11.00000    0.01866
H9    2    0.733686    0.240560   -0.185746    11.00000    0.02192
H5    2    0.219111    0.449431    0.453893    11.00000    0.03781
H2A   2    0.446695    0.514578   -0.056923    11.00000    0.02554
H12   2    0.979211   -0.280185   -0.105278    11.00000    0.03537
H1    2    0.927867    0.280691    0.221664    11.00000    0.05765
H2B   2    0.476252    0.416299   -0.127334    11.00000    0.06081
HKLF    4

REM  new_0, in P-1 #2
REM R1 =  0.0487 for    1814 Fo > 4sig(Fo)  and  0.0808 for all    2662 data
REM    226 parameters refined using      0 restraints

END

WGHT      0.0754      0.0000

REM Highest difference peak  0.247,  deepest hole -0.303,  1-sigma level  0.071
Q1    1   0.5764  0.5286  0.3008  11.00000  0.05    0.25
Q2    1   0.6522  0.2008 -0.0885  11.00000  0.05    0.24
Q3    1   0.7197  0.3063 -0.2374  11.00000  0.05    0.24
Q4    1   1.3220 -0.0551 -0.2319  11.00000  0.05    0.22
Q5    1   0.8063  0.5015 -0.1013  11.00000  0.05    0.22
Q6    1   0.8203  0.2148 -0.2700  11.00000  0.05    0.22
Q7    1   1.1666 -0.0344 -0.2580  11.00000  0.05    0.21
Q8    1   1.0417  0.3690 -0.2015  11.00000  0.05    0.21
Q9    1   0.6980  0.8590  0.4483  11.00000  0.05    0.21
Q10   1   1.0639  0.2186 -0.1285  11.00000  0.05    0.21
;
_shelx_res_checksum              81080
_shelx_hkl_file
;
  -1   0   0  179.89    2.82
  -2   0   0    3.42    0.49
  -2   0   0    2.58    0.21
  -2   0   0    3.46    0.24
  -3   0   0    0.16    0.15
  -3   0   0    0.02    0.42
  -4   0   0    0.42    0.19
  -4   0   0   -0.49    0.55
  -4   1   0    0.18    0.17
  -4   1   0   -0.15    0.50
  -3   1   0   18.95    1.09
  -3   1   0   18.90    0.51
  -3   1   0   18.39    0.52
  -2   1   0   16.61    0.92
  -1   1   0   17.51    0.39
  -1   1   0   17.99    0.74
  -1   1   0   18.48    0.36
   0  -1   0   19.22    0.45
   0  -1   0   18.87    0.49
   0  -1   0   18.84    0.41
   0  -1   0   18.32    0.44
   0   1   0   18.80    0.45
   0   1   0   18.91    0.49
   0   1   0   18.55    0.45
   0   1   0   18.53    0.46
  -1  -1   0  354.88    5.02
  -1  -1   0  356.73    4.38
  -1  -1   0  347.33    4.50
   1   1   0  347.33    4.41
   1   1   0  355.39    4.13
   1   1   0  357.13    4.64
  -2  -1   0    5.13    0.33
  -2  -1   0    5.60    0.56
   2   1   0    5.05    0.35
  -3  -1   0   24.93    0.75
  -3  -1   0   24.58    1.19
   3   1   0   25.14    0.72
  -4  -1   0   -0.36    0.53
  -4  -1   0    0.18    0.22
  -5  -1   0    0.61    0.32
  -5  -1   0    0.78    0.85
  -4   2   0    6.32    0.41
  -3   2   0    0.23    0.20
  -2   2   0   13.99    0.43
  -2   2   0   13.20    0.48
   1  -2   0    2.96    0.26
   1  -2   0    3.21    0.23
   1  -2   0    3.29    0.25
  -1   2   0    2.56    0.29
   0  -2   0   19.40    0.55
   0  -2   0   18.35    0.62
   0  -2   0   18.11    0.60
   0  -2   0   18.58    0.66
   0   2   0   17.71    0.61
   0   2   0   20.22    0.67
   0   2   0   17.89    0.69
   0   2   0   18.73    0.62
  -1  -2   0    6.14    0.40
  -1  -2   0    6.28    0.38
  -1  -2   0    6.19    0.44
  -1  -2   0    6.54    0.46
   1   2   0    6.86    0.47
   1   2   0    6.36    0.44
   1   2   0    6.36    0.44
  -2  -2   0   -0.13    0.16
  -2  -2   0    0.33    0.31
   2   2   0    0.31    0.22
  -3  -2   0    7.80    0.90
  -3  -2   0    6.63    0.55
  -4  -2   0    3.92    0.49
  -4  -2   0    4.66    0.89
  -5  -2   0    0.97    0.93
  -5  -2   0    1.24    0.42
  -4   3   0    0.68    0.25
  -3   3   0    2.07    0.34
   2  -3   0   10.38    0.51
  -2   3   0    9.72    0.49
  -2   3   0    9.27    0.54
   1  -3   0   61.65    1.15
   1  -3   0   60.92    1.26
   1  -3   0   59.31    1.20
  -1   3   0   61.20    1.21
  -1   3   0   61.22    1.33
  -1   3   0   62.81    1.17
   0  -3   0   59.51    1.32
   0  -3   0   60.80    1.23
   0  -3   0   59.41    1.36
   0  -3   0   55.58    1.23
   0   3   0   58.79    1.35
   0   3   0   59.09    1.31
  -1  -3   0    1.15    0.24
  -1  -3   0    1.64    0.32
  -1  -3   0    1.74    0.33
   1   3   0    1.43    0.30
   1   3   0    1.41    0.32
   1   3   0    1.50    0.31
  -2  -3   0   -0.35    0.26
  -2  -3   0   -0.05    0.18
   2   3   0   -0.07    0.23
   2   3   0   -0.34    0.28
   2   3   0   -0.18    0.21
  -3  -3   0    5.18    0.55
  -3  -3   0    5.95    0.82
  -4  -3   0    0.65    0.34
  -4  -3   0    0.30    0.66
  -4   4   0    6.13    0.55
  -3   4   0    2.28    0.40
   2  -4   0    1.65    0.33
  -2   4   0    2.22    0.41
   1  -4   0   32.73    0.99
   1  -4   0   32.07    1.00
   1  -4   0   33.66    0.93
  -1   4   0   32.90    1.10
  -1   4   0   32.82    1.00
  -1   4   0   33.89    0.95
   0  -4   0   20.33    0.82
   0  -4   0   19.74    0.87
   0  -4   0   20.07    0.75
   0  -4   0   21.63    0.85
   0   4   0   20.08    0.82
   0   4   0   21.29    0.90
   0   4   0   21.65    0.90
  -1  -4   0    6.86    0.60
  -1  -4   0    5.69    0.53
  -1  -4   0    6.29    0.61
   1   4   0    4.64    0.56
   1   4   0    6.32    0.64
  -2  -4   0    1.61    0.37
  -2  -4   0    1.21    0.44
  -3  -4   0    5.21    0.75
  -3  -4   0    5.16    0.59
  -4  -4   0   -0.79    0.30
  -4  -4   0   -0.97    0.67
  -4   5   0   11.19    0.73
  -3   5   0   13.62    0.86
   2  -5   0    3.10    0.47
  -2   5   0    3.22    0.52
   1  -5   0   24.22    0.98
   1  -5   0   25.23    1.01
   1  -5   0   26.00    0.92
  -1   5   0   24.59    0.99
  -1   5   0   22.86    1.03
  -1   5   0   24.52    0.92
   0  -5   0    4.33    0.56
   0  -5   0    4.35    0.54
   0  -5   0    5.35    0.62
   0  -5   0    5.80    0.60
   0   5   0    5.87    0.61
   0   5   0    6.90    0.73
   0   5   0    5.97    0.67
  -1  -5   0    6.37    0.60
  -1  -5   0    7.13    0.65
  -1  -5   0    5.46    0.67
   1   5   0    5.18    0.69
   1   5   0    5.77    0.71
  -2  -5   0    4.51    0.55
  -2  -5   0    4.05    0.50
  -2  -5   0    4.40    0.57
  -2  -5   0    5.01    0.69
  -3  -5   0   14.85    1.31
  -3  -5   0   16.49    0.99
  -4  -5   0   17.24    1.11
  -4   6   0    1.30    0.41
  -3   6   0    5.87    0.73
   2  -6   0    1.85    0.42
  -2   6   0    2.46    0.52
   1  -6   0   22.00    0.96
   1  -6   0   23.73    1.06
   1  -6   0   24.65    1.18
  -1   6   0   24.02    1.01
  -1   6   0   25.03    1.21
  -1   6   0   22.99    1.12
   0  -6   0    5.87    0.68
   0  -6   0    6.30    0.68
   0   6   0    7.52    0.82
   0   6   0    7.52    0.80
  -1  -6   0    8.43    0.77
  -1  -6   0    8.02    0.74
   1   6   0    8.20    0.91
   1   6   0    7.22    0.82
  -2  -6   0    3.80    0.60
  -2  -6   0    5.47    0.77
  -2  -6   0    3.66    0.53
  -3  -6   0   11.15    1.17
  -3  -6   0    8.92    0.95
  -4  -6   0    4.89    0.77
  -4   7   0   -0.14    0.34
  -3   7   0    2.67    0.53
  -2   7   0    6.62    0.83
   1  -7   0    6.71    0.75
  -1   7   0    7.08    0.85
  -1   7   0    6.59    0.78
   0  -7   0   44.28    1.66
   0  -7   0   45.76    1.51
   0   7   0   45.80    1.74
   0   7   0   46.98    1.77
  -1  -7   0    9.11    0.89
  -1  -7   0    9.59    0.91
   1   7   0   10.42    1.11
  -2  -7   0   -0.12    0.31
  -2  -7   0   -0.06    0.32
  -2  -7   0    0.11    0.47
  -3  -7   0    0.31    0.43
  -4   8   0   -0.31    0.41
  -3   8   0   -0.21    0.34
  -2   8   0   -0.05    0.39
  -1   8   0    5.41    0.79
  -1   8   0    4.76    0.83
   0  -8   0    1.04    0.46
   0   8   0    0.55    0.61
   0   8   0    0.96    0.55
  -1  -8   0    0.28    0.38
  -1  -8   0    0.65    0.49
   1   8   0    0.31    0.51
  -2  -8   0   13.58    1.08
  -2  -8   0   11.12    0.86
  -3  -8   0    0.43    0.46
  -3   9   0    0.14    0.42
  -2   9   0    0.74    0.49
  -1   9   0    0.70    0.62
  -1   9   0    0.28    0.53
   0  -9   0    0.09    0.51
   0   9   0    0.95    0.65
   0   9   0    0.84    0.73
  -1  -9   0   -0.33    0.33
  -1  -9   0   -0.25    0.47
  -2  -9   0   -0.20    0.46
  -2  -9   0   -0.03    0.50
  -2  10   0    3.66    0.77
  -1  10   0    1.60    0.73
  -1  10   0    1.21    0.67
   0  10   0    3.60    0.92
  -1 -10   0   -0.26    0.46
  -1 -10   0    0.06    0.49
  -1 -10   1    0.29    0.52
  -1 -10   1    0.49    0.55
   0  10  -1    2.06    0.84
  -1  10  -1   -0.22    0.50
  -1  10  -1    0.87    0.63
  -2  10  -1    1.51    0.64
  -2  -9   1    0.52    0.47
  -2  -9   1    0.46    0.53
  -1  -9   1   -0.09    0.45
  -1  -9   1    0.10    0.38
   0   9  -1   -0.32    0.52
   0   9  -1    0.06    0.60
   0  -9   1   -0.12    0.38
  -1   9  -1    0.86    0.57
  -1   9  -1    0.72    0.57
  -2   9  -1    0.63    0.52
  -3   9  -1    0.77    0.46
  -3  -8   1    1.36    0.60
  -2  -8   1   -0.18    0.40
  -2  -8   1    0.60    0.55
  -2  -8   1   -0.10    0.41
   1   8  -1   10.52    1.14
  -1  -8   1    9.41    0.95
  -1  -8   1    9.11    0.95
   0   8  -1   -0.02    0.53
   0   8  -1   -0.62    0.46
   0  -8   1   -0.12    0.31
  -1   8  -1   -0.49    0.42
  -1   8  -1   -0.16    0.42
  -2   8  -1    1.09    0.52
  -3   8  -1    0.80    0.46
  -4   8  -1    0.45    0.41
  -3  -7   1   -0.04    0.36
  -2  -7   1    0.16    0.48
  -2  -7   1   -0.31    0.32
  -2  -7   1   -0.19    0.31
   1   7  -1    3.11    0.66
  -1  -7   1    5.69    0.74
  -1  -7   1    3.61    0.58
   0   7  -1   23.99    1.34
   0   7  -1   23.88    1.26
   0  -7   1   22.58    1.10
   0  -7   1   23.17    1.22
  -1   7  -1    3.84    0.68
  -1   7  -1    2.61    0.60
   1  -7   1    3.22    0.56
  -2   7  -1   10.46    1.01
  -3   7  -1    0.08    0.31
  -4   7  -1    0.51    0.40
  -4  -6   1    1.61    0.57
  -3  -6   1    0.39    0.38
  -3  -6   1    0.42    0.56
  -2  -6   1    2.74    0.61
  -2  -6   1    0.52    0.32
  -2  -6   1    0.40    0.34
   1   6  -1    5.99    0.80
   1   6  -1    5.87    0.82
  -1  -6   1    7.13    0.71
  -1  -6   1    5.71    0.63
   0   6  -1   15.40    0.98
   0   6  -1   12.91    0.95
   0  -6   1   14.31    0.92
   0  -6   1   14.50    0.81
  -1   6  -1   26.22    1.26
  -1   6  -1   28.21    1.05
  -1   6  -1   27.58    1.17
   1  -6   1   30.10    1.10
   1  -6   1   28.26    1.24
  -2   6  -1   20.15    1.08
  -3   6  -1    2.48    0.48
  -4   6  -1    0.79    0.42
  -4  -5   1    0.07    0.42
  -3  -5   1   17.08    1.31
  -3  -5   1   18.35    1.03
  -2  -5   1    1.70    0.38
  -2  -5   1    1.42    0.40
  -2  -5   1    0.82    0.31
  -2  -5   1    0.81    0.45
   1   5  -1    2.97    0.49
   1   5  -1    2.39    0.53
  -1  -5   1    2.12    0.44
  -1  -5   1    2.16    0.39
  -1  -5   1    2.40    0.43
   0   5  -1    1.04    0.43
   0   5  -1    1.48    0.40
   0   5  -1    1.40    0.37
   0  -5   1    2.41    0.46
   0  -5   1    1.42    0.36
   0  -5   1    1.35    0.36
  -1   5  -1    1.74    0.41
  -1   5  -1    2.17    0.40
  -1   5  -1    1.09    0.42
   1  -5   1    1.20    0.36
   1  -5   1    0.98    0.34
   1  -5   1    1.35    0.33
  -2   5  -1    1.56    0.40
  -3   5  -1    7.33    0.66
  -4   5  -1    0.32    0.30
  -5   5  -1   -0.20    0.32
  -4  -4   1    0.50    0.77
  -4  -4   1   -0.25    0.35
  -3  -4   1    0.83    0.34
  -3  -4   1    0.50    0.44
  -2  -4   1    1.34    0.44
  -2  -4   1    0.78    0.30
   1   4  -1    1.51    0.36
   1   4  -1    1.24    0.37
  -1  -4   1    1.00    0.33
  -1  -4   1    1.30    0.31
  -1  -4   1    1.60    0.32
   0   4  -1    4.68    0.50
   0   4  -1    4.32    0.51
   0   4  -1    3.28    0.46
   0  -4   1    3.97    0.44
   0  -4   1    3.93    0.44
   0  -4   1    4.21    0.52
   0  -4   1    4.21    0.43
  -1   4  -1   72.13    1.55
  -1   4  -1   73.36    1.73
  -1   4  -1   71.31    1.48
   1  -4   1   71.58    1.46
   1  -4   1   71.62    1.55
   1  -4   1   72.04    1.63
  -2   4  -1    1.28    0.32
   2  -4   1    1.38    0.31
   2  -4   1    1.27    0.21
  -3   4  -1    6.35    0.58
  -4   4  -1    1.56    0.37
  -5  -3   1    0.10    0.40
  -4  -3   1    1.70    0.78
  -4  -3   1    0.82    0.35
  -3  -3   1    0.11    0.26
  -3  -3   1    0.30    0.43
   2   3  -1   13.01    0.64
   2   3  -1   14.10    0.69
  -2  -3   1   14.62    0.63
  -2  -3   1   14.04    0.82
   1   3  -1    2.50    0.39
   1   3  -1    1.65    0.32
   1   3  -1    2.11    0.33
  -1  -3   1    2.18    0.36
  -1  -3   1    2.42    0.33
  -1  -3   1    1.69    0.27
   0   3  -1    0.08    0.26
   0   3  -1    0.25    0.26
   0   3  -1    0.02    0.21
   0  -3   1    0.05    0.23
   0  -3   1    0.14    0.24
   0  -3   1   -0.20    0.18
   0  -3   1    0.08    0.21
  -1   3  -1    2.00    0.32
  -1   3  -1    1.20    0.31
  -1   3  -1    1.27    0.26
   1  -3   1    1.05    0.27
   1  -3   1    1.69    0.24
   1  -3   1    1.32    0.29
  -2   3  -1   -0.20    0.18
   2  -3   1    0.00    0.21
  -3   3  -1   -0.40    0.18
  -4   3  -1    0.39    0.22
  -5  -2   1   -0.04    0.37
  -5  -2   1    0.23    0.83
  -4  -2   1    1.42    0.70
  -4  -2   1    1.80    0.37
  -3  -2   1   40.24    1.57
  -3  -2   1   39.65    1.07
   2   2  -1   65.99    1.27
  -2  -2   1   65.04    1.74
  -2  -2   1   66.69    1.29
   1   2  -1    1.78    0.27
   1   2  -1    1.59    0.27
   1   2  -1    1.96    0.27
  -1  -2   1    1.72    0.34
  -1  -2   1    1.55    0.29
  -1  -2   1    1.53    0.23
   0   2  -1   -0.13    0.20
   0   2  -1    0.00    0.19
   0   2  -1   -0.04    0.23
   0   2  -1   -0.11    0.22
   0  -2   1   -0.01    0.18
   0  -2   1    0.14    0.22
   0  -2   1    0.06    0.17
   0  -2   1   -0.03    0.22
  -1   2  -1   11.18    0.50
   1  -2   1   12.04    0.46
   1  -2   1   11.62    0.40
   1  -2   1   11.81    0.49
  -2   2  -1    0.41    0.18
  -3   2  -1    0.50    0.21
  -4   2  -1    1.00    0.23
  -5  -1   1    0.31    0.88
  -5  -1   1   -0.08    0.29
  -4  -1   1    0.94    0.69
  -4  -1   1    0.87    0.24
   3   1  -1    2.01    0.29
  -3  -1   1    1.55    0.25
  -3  -1   1    2.15    0.58
   2   1  -1   15.91    0.48
  -2  -1   1   15.59    0.82
  -2  -1   1   16.13    0.48
   1   1  -1  301.68    3.84
   1   1  -1  317.65    4.06
  -1  -1   1  310.99    4.49
  -1  -1   1  309.21    3.86
   0   1  -1    8.98    0.30
   0   1  -1    8.78    0.35
   0   1  -1    9.02    0.34
   0  -1   1    8.52    0.31
   0  -1   1    9.65    0.32
   0  -1   1    8.69    0.35
  -1   1  -1   18.01    0.49
   1  -1   1   18.57    0.41
  -2   1  -1    2.51    0.46
  -2   1  -1    1.77    0.19
  -2   1  -1    2.33    0.20
  -3   1  -1    4.18    0.32
  -3   1  -1    4.42    0.71
  -4   1  -1    0.00    0.17
  -5   0   1   -0.70    0.71
  -4   0   1    1.35    0.71
  -4   0   1    1.03    0.24
  -3   0   1   -0.15    0.44
  -3   0   1    0.44    0.14
  -3   0   1    0.19    0.17
  -2   0   1   11.10    0.74
  -1   0   1   60.34    1.24
  -1   0  -1    6.47    0.45
  -1   0  -1    5.33    0.25
   1   0   1    5.78    0.24
  -2   0  -1    8.75    0.34
  -2   0  -1    7.70    0.35
  -2   0  -1    8.37    0.69
   2   0   1    8.08    0.30
  -3   0  -1   -0.12    0.45
  -3   0  -1   -0.02    0.15
   3   0   1   -0.13    0.17
  -4   0  -1   -0.46    0.50
  -4   0  -1   -0.05    0.19
  -5   0  -1    1.30    0.33
  -4   1   1   -0.11    0.54
  -3   1   1    0.95    0.54
  -2   1   1   17.33    0.90
  -1   1   1    0.47    0.38
  -1   1   1    0.10    0.08
  -1   1   1    0.26    0.11
   0  -1  -1   70.76    1.02
   0  -1  -1   70.29    1.12
   0  -1  -1   69.64    1.02
   0  -1  -1   70.43    1.14
   0   1   1   68.91    1.14
   0   1   1   73.50    1.09
   0   1   1   70.56    1.01
   0   1   1   65.79    1.14
  -1  -1  -1   83.62    1.50
  -1  -1  -1   84.66    1.27
   1   1   1   83.38    1.22
   1   1   1   79.99    1.31
   1   1   1   83.05    1.36
  -2  -1  -1  117.48    1.82
  -2  -1  -1  116.59    2.35
   2   1   1  116.42    1.72
  -3  -1  -1    0.16    0.40
  -3  -1  -1    0.02    0.17
   3   1   1   -0.19    0.18
  -4  -1  -1    2.86    0.41
  -4  -1  -1    2.37    0.75
  -5  -1  -1   -0.52    0.75
  -5  -1  -1    1.24    0.40
  -4   2   1    0.71    0.18
  -3   2   1    4.67    0.33
  -3   2   1    4.35    0.30
  -2   2   1    0.00    0.12
  -2   2   1    0.00    0.13
   1  -2  -1    7.52    0.37
   1  -2  -1    7.31    0.31
   1  -2  -1    7.64    0.38
  -1   2   1    7.36    0.41
   0  -2  -1   41.87    1.02
   0  -2  -1   42.43    0.91
   0  -2  -1   40.89    0.94
   0  -2  -1   42.45    0.87
   0   2   1   43.10    0.96
   0   2   1   41.22    1.00
   0   2   1   43.28    0.95
   0   2   1   42.37    0.91
  -1  -2  -1    3.52    0.30
  -1  -2  -1    3.10    0.36
  -1  -2  -1    3.81    0.33
  -1  -2  -1    3.69    0.34
  -1  -2  -1    3.03    0.32
   1   2   1    3.63    0.38
   1   2   1    3.50    0.32
   1   2   1    4.05    0.38
  -2  -2  -1   62.65    1.60
  -2  -2  -1   64.82    1.28
   2   2   1   65.40    1.29
   2   2   1   64.90    1.24
  -3  -2  -1   14.92    1.07
  -3  -2  -1   14.65    0.70
  -4  -2  -1    1.80    0.79
  -4  -2  -1    1.93    0.37
  -5  -2  -1    0.39    0.37
  -4   3   1   -0.27    0.19
   3  -3  -1    7.42    0.45
  -3   3   1    7.20    0.48
   2  -3  -1   49.84    0.99
  -2   3   1   49.86    1.04
  -2   3   1   48.38    1.14
   1  -3  -1   39.79    0.94
   1  -3  -1   40.14    0.92
   1  -3  -1   40.80    1.01
  -1   3   1   40.85    0.94
  -1   3   1   40.98    0.89
  -1   3   1   40.41    1.06
   0  -3  -1   67.27    1.46
   0  -3  -1   68.04    1.33
   0  -3  -1   67.72    1.36
   0  -3  -1   63.28    1.48
   0   3   1   68.69    1.47
   0   3   1   67.54    1.50
   0   3   1   68.56    1.43
  -1  -3  -1   40.00    1.11
  -1  -3  -1   39.82    1.05
  -1  -3  -1   40.28    1.04
  -1  -3  -1   41.18    1.04
   1   3   1   39.64    1.16
   1   3   1   41.06    1.05
   1   3   1   38.07    1.11
  -2  -3  -1   18.91    0.89
  -2  -3  -1   18.44    0.75
   2   3   1   18.85    0.78
   2   3   1   18.27    0.83
   2   3   1   18.40    0.87
  -3  -3  -1    3.12    0.43
  -3  -3  -1    3.78    0.67
  -4  -3  -1    0.34    0.59
  -4  -3  -1    0.21    0.27
  -4   4   1    7.48    0.58
   3  -4  -1    4.20    0.44
  -3   4   1    3.61    0.46
   2  -4  -1   -0.12    0.22
  -2   4   1    0.22    0.29
   1  -4  -1   18.76    0.70
   1  -4  -1   18.73    0.76
   1  -4  -1   20.84    0.83
  -1   4   1   19.50    0.72
  -1   4   1   20.33    0.86
  -1   4   1   20.37    0.77
   0  -4  -1   68.05    1.70
   0  -4  -1   68.35    1.50
   0  -4  -1   68.51    1.67
   0  -4  -1   67.74    1.52
   0   4   1   66.40    1.67
   0   4   1   74.03    1.71
   0   4   1   68.36    1.59
  -1  -4  -1   17.66    0.80
  -1  -4  -1   17.62    0.80
  -1  -4  -1   17.68    0.85
  -1  -4  -1   17.15    0.76
   1   4   1   17.06    0.89
   1   4   1   19.60    0.89
  -2  -4  -1    0.17    0.31
  -2  -4  -1    0.01    0.27
  -2  -4  -1    0.11    0.22
  -2  -4  -1    0.26    0.25
  -3  -4  -1    2.74    0.46
  -3  -4  -1    4.00    0.69
  -4  -4  -1    0.07    0.37
  -4   5   1    2.02    0.43
  -3   5   1   15.14    0.83
   2  -5  -1   39.94    1.17
  -2   5   1   35.98    1.30
   1  -5  -1    6.51    0.60
   1  -5  -1    6.28    0.65
   1  -5  -1    6.78    0.56
  -1   5   1    5.81    0.67
  -1   5   1    6.24    0.62
  -1   5   1    6.44    0.55
   0  -5  -1    0.73    0.35
   0  -5  -1    0.61    0.30
   0  -5  -1    0.37    0.27
   0  -5  -1    0.74    0.34
   0   5   1    1.00    0.39
   0   5   1    0.56    0.39
   0   5   1    0.69    0.32
  -1  -5  -1    0.24    0.29
  -1  -5  -1    0.38    0.28
  -1  -5  -1    0.07    0.31
   1   5   1   -0.01    0.32
   1   5   1   -0.10    0.35
  -2  -5  -1    1.14    0.32
  -2  -5  -1    1.21    0.41
  -2  -5  -1    1.27    0.45
  -2  -5  -1    1.29    0.37
  -3  -5  -1    1.07    0.52
  -3  -5  -1    0.40    0.35
  -4  -5  -1   -0.52    0.37
  -4   6   1    1.85    0.45
  -3   6   1    1.31    0.41
   2  -6  -1    4.18    0.57
  -2   6   1    4.05    0.65
   1  -6  -1   35.19    1.29
   1  -6  -1   38.59    1.24
  -1   6   1   35.77    1.31
  -1   6   1   36.19    1.22
  -1   6   1   36.88    1.41
   0  -6  -1    6.09    0.68
   0  -6  -1    6.49    0.75
   0  -6  -1    8.02    0.77
   0   6   1    6.10    0.80
   0   6   1    6.02    0.78
  -1  -6  -1    1.64    0.42
  -1  -6  -1    2.16    0.48
   1   6   1    1.01    0.54
   1   6   1    1.00    0.47
  -2  -6  -1   -0.03    0.29
  -2  -6  -1    1.30    0.50
  -2  -6  -1    0.98    0.38
  -3  -6  -1    0.68    0.39
  -4  -6  -1    0.37    0.49
  -4   7   1    0.34    0.43
  -3   7   1    0.51    0.34
   2  -7  -1   -0.27    0.30
  -2   7   1    0.33    0.40
   1  -7  -1   14.80    0.97
   1  -7  -1   15.76    0.91
  -1   7   1   14.67    0.96
  -1   7   1   13.50    1.05
   0  -7  -1    1.10    0.46
   0  -7  -1    1.33    0.45
   0   7   1    0.91    0.49
   0   7   1    1.05    0.56
  -1  -7  -1   18.20    1.11
  -1  -7  -1   17.15    0.97
   1   7   1   19.26    1.25
  -2  -7  -1    2.29    0.64
  -2  -7  -1    3.31    0.62
  -2  -7  -1    3.24    0.57
  -3  -7  -1   -0.14    0.38
  -4   8   1   -0.08    0.44
  -3   8   1   -0.05    0.33
  -2   8   1    0.17    0.42
  -1   8   1    3.31    0.69
  -1   8   1    3.98    0.79
   0  -8  -1   -0.03    0.36
   0   8   1   -0.05    0.47
   0   8   1    0.08    0.51
  -1  -8  -1    0.10    0.40
  -1  -8  -1    0.05    0.37
   1   8   1    0.13    0.56
  -2  -8  -1   14.91    1.06
  -2  -8  -1   12.88    0.97
  -3   9   1    0.04    0.43
  -2   9   1   -0.35    0.39
  -1   9   1    4.26    0.88
  -1   9   1    3.73    0.78
   0  -9  -1    1.16    0.51
   0   9   1    1.41    0.65
   0   9   1    0.68    0.61
  -1  -9  -1    0.21    0.43
  -1  -9  -1    0.52    0.46
  -2  -9  -1    1.44    0.61
  -2  -9  -1    1.21    0.57
  -2  10   1    0.48    0.54
  -1  10   1    1.72    0.68
  -1  10   1    2.59    0.80
   0  10   1    3.25    0.93
  -1 -10  -1    6.44    0.94
  -1 -10   2    6.57    1.04
  -1 -10   2    3.54    0.77
   0  10  -2    1.90    0.78
  -1  10  -2    0.17    0.55
  -1  10  -2   -0.05    0.57
  -2  10  -2    0.23    0.49
  -2  -9   2   -0.12    0.48
  -2  -9   2    0.12    0.41
  -1  -9   2    0.13    0.43
  -1  -9   2    0.64    0.47
   0   9  -2    0.39    0.56
   0   9  -2    0.66    0.63
   0  -9   2    0.70    0.46
  -1   9  -2    0.39    0.55
  -1   9  -2    0.29    0.56
  -2   9  -2    4.22    0.79
  -3   9  -2    0.54    0.47
  -3  -8   2   -0.31    0.45
  -2  -8   2    0.92    0.55
  -2  -8   2    0.01    0.42
  -2  -8   2   -0.01    0.37
  -1  -8   2   14.93    0.96
  -1  -8   2   14.05    0.94
   0   8  -2   -0.33    0.41
   0   8  -2    0.49    0.55
   0  -8   2   -0.21    0.33
   0  -8   2    0.23    0.39
  -1   8  -2    2.94    0.68
  -1   8  -2    2.31    0.63
  -2   8  -2    5.51    0.87
  -3   8  -2    0.08    0.36
  -4   8  -2    0.82    0.46
  -3  -7   2    0.17    0.41
  -2  -7   2    0.03    0.35
  -2  -7   2    0.19    0.43
  -2  -7   2   -0.11    0.30
   1   7  -2    2.21    0.58
  -1  -7   2    2.26    0.51
  -1  -7   2    2.21    0.53
   0   7  -2    3.29    0.73
   0   7  -2    3.11    0.69
   0  -7   2    3.88    0.67
   0  -7   2    2.91    0.52
  -1   7  -2    1.12    0.50
  -1   7  -2    0.50    0.47
   1  -7   2    1.60    0.42
  -2   7  -2    3.38    0.61
  -2   7  -2    3.52    0.43
  -3   7  -2   -0.17    0.28
  -4   7  -2    0.78    0.43
  -4  -6   2    0.45    0.45
  -3  -6   2    2.99    0.62
  -3  -6   2    2.94    0.71
  -2  -6   2   14.18    0.78
  -2  -6   2   16.33    0.92
  -2  -6   2   15.65    0.90
  -2  -6   2   15.48    0.99
   1   6  -2    7.68    0.80
   1   6  -2   10.77    1.01
  -1  -6   2    9.91    0.75
  -1  -6   2    7.93    0.67
   0   6  -2    0.19    0.41
   0   6  -2    0.33    0.35
   0  -6   2   -0.36    0.24
   0  -6   2    0.21    0.30
  -1   6  -2    3.93    0.60
  -1   6  -2    4.54    0.56
  -1   6  -2    4.11    0.65
   1  -6   2    3.70    0.50
   1  -6   2    3.62    0.56
  -2   6  -2   14.72    1.01
  -3   6  -2    0.06    0.28
  -4   6  -2   -0.18    0.34
  -4  -5   2    1.62    0.80
  -4  -5   2    0.78    0.42
  -3  -5   2    2.07    0.48
  -3  -5   2    2.14    0.62
  -2  -5   2    6.04    0.63
  -2  -5   2    6.62    0.57
  -2  -5   2    6.91    0.80
   1   5  -2   12.78    0.90
   1   5  -2   12.65    0.85
  -1  -5   2   13.38    0.70
  -1  -5   2   13.28    0.71
  -1  -5   2   12.87    0.80
   0   5  -2    3.67    0.54
   0   5  -2    4.17    0.53
   0   5  -2    3.81    0.57
   0  -5   2    3.28    0.47
   0  -5   2    3.67    0.58
   0  -5   2    4.21    0.48
  -1   5  -2    6.09    0.65
  -1   5  -2    5.62    0.64
  -1   5  -2    6.96    0.62
   1  -5   2    6.27    0.66
   1  -5   2    6.28    0.56
  -2   5  -2   11.03    0.83
  -3   5  -2   16.65    0.90
  -4   5  -2   13.67    0.83
  -5   5  -2   -0.25    0.29
  -4  -4   2    0.59    0.40
  -4  -4   2    0.49    0.82
  -3  -4   2   -0.23    0.43
  -3  -4   2   -0.24    0.25
  -2  -4   2   11.67    0.69
  -2  -4   2   10.90    0.78
   1   4  -2   25.23    1.03
   1   4  -2   25.84    0.98
  -1  -4   2   25.98    0.88
  -1  -4   2   24.38    0.85
  -1  -4   2   25.98    0.94
   0   4  -2    6.63    0.62
   0   4  -2    6.35    0.56
   0   4  -2    6.36    0.60
   0  -4   2    5.70    0.56
   0  -4   2    5.91    0.51
   0  -4   2    5.64    0.50
  -1   4  -2   41.74    1.23
  -1   4  -2   43.17    1.09
  -1   4  -2   44.07    1.18
   1  -4   2   44.16    1.08
   1  -4   2   43.18    1.19
  -2   4  -2   22.74    0.96
   2  -4   2   22.29    0.63
  -3   4  -2    0.20    0.25
  -4   4  -2    0.13    0.29
  -5   4  -2    5.07    0.50
  -5  -3   2   -0.20    0.39
  -4  -3   2   10.80    1.33
  -4  -3   2   10.05    0.75
  -3  -3   2   25.11    0.90
  -3  -3   2   23.33    1.24
   2   3  -2   -0.04    0.25
   2   3  -2    0.10    0.19
  -2  -3   2   -0.39    0.18
  -2  -3   2   -0.08    0.28
   1   3  -2   58.17    1.38
   1   3  -2   55.09    1.33
   1   3  -2   57.36    1.27
  -1  -3   2   57.58    1.21
  -1  -3   2   57.61    1.31
  -1  -3   2   57.42    1.24
   0   3  -2    5.92    0.49
   0   3  -2    5.67    0.52
   0   3  -2    6.83    0.54
   0  -3   2    4.88    0.41
   0  -3   2    5.17    0.49
   0  -3   2    4.93    0.43
  -1   3  -2    1.04    0.27
  -1   3  -2    1.26    0.29
  -1   3  -2    1.34    0.25
   1  -3   2    1.03    0.28
   1  -3   2    1.23    0.22
  -2   3  -2    1.25    0.29
  -3   3  -2    9.77    0.59
  -4   3  -2    0.00    0.20
  -5  -2   2    0.04    0.36
  -5  -2   2   -0.44    0.90
  -4  -2   2    0.18    0.53
  -4  -2   2    0.55    0.31
   3   2  -2    2.61    0.38
  -3  -2   2    2.38    0.55
  -3  -2   2    1.41    0.30
   2   2  -2   62.58    1.23
  -2  -2   2   59.87    1.66
  -2  -2   2   60.63    1.23
   1   2  -2    9.13    0.49
   1   2  -2    9.51    0.46
   1   2  -2    9.53    0.49
  -1  -2   2    9.58    0.44
  -1  -2   2    9.18    0.42
  -1  -2   2    8.77    0.54
  -1  -2   2    8.93    0.47
   0   2  -2   -0.08    0.22
   0   2  -2   -0.08    0.20
   0   2  -2   -0.25    0.22
   0   2  -2   -0.09    0.17
   0  -2   2    0.07    0.21
   0  -2   2    0.26    0.25
   0  -2   2   -0.21    0.14
  -1   2  -2    3.39    0.25
  -1   2  -2    3.22    0.34
   1  -2   2    3.29    0.24
   1  -2   2    3.10    0.31
  -2   2  -2    7.33    0.42
  -3   2  -2    1.35    0.27
  -4   2  -2    0.71    0.24
  -5  -1   2   -0.99    0.82
  -4  -1   2    1.77    0.32
  -4  -1   2    1.98    0.75
   3   1  -2    0.18    0.21
  -3  -1   2    0.02    0.44
  -3  -1   2    0.26    0.16
  -2  -1   2    8.39    0.75
   1   1  -2  220.44    2.78
  -1  -1   2  224.75    3.38
  -1  -1   2  222.85    2.83
   0   1  -2    9.25    0.36
   0   1  -2    9.29    0.34
   0   1  -2    8.97    0.37
   0  -1   2    9.45    0.35
   0  -1   2    9.56    0.31
   0  -1   2    8.39    0.40
  -1   1  -2  222.41    2.95
   1  -1   2  227.40    2.98
   1  -1   2  223.43    2.81
  -2   1  -2   49.76    1.38
  -2   1  -2   49.55    0.95
  -3   1  -2    3.11    0.30
  -3   1  -2    3.18    0.62
  -4   1  -2    1.85    0.28
  -5   0   2    0.11    0.84
  -4   0   2    2.00    0.69
  -3   0   2    0.83    0.47
  -3   0   2    0.04    0.15
  -2   0   2    1.82    0.49
  -1   0   2   13.26    0.64
   0   0  -2   11.36    0.28
   0   0  -2   11.62    0.29
   0   0   2   11.71    0.28
   0   0   2   11.80    0.26
  -1   0  -2   35.27    0.66
  -1   0  -2   34.75    0.89
   1   0   2   35.33    0.67
   1   0   2   35.07    0.62
   1   0   2   33.89    0.66
  -2   0  -2   78.59    1.28
  -2   0  -2   80.59    1.80
   2   0   2   79.45    1.20
  -3   0  -2    2.19    0.29
  -3   0  -2    2.58    0.62
  -4   0  -2    0.89    0.64
  -4   0  -2    0.38    0.23
  -5   0  -2    0.70    0.31
  -4   1   2    0.36    0.59
  -3   1   2    6.09    0.82
  -2   1   2    5.86    0.66
  -1   1   2   25.78    0.88
  -1   1   2   26.39    0.44
  -1   1   2   25.77    0.45
   0  -1  -2    0.41    0.15
   0  -1  -2    0.32    0.18
   0  -1  -2    0.24    0.18
   0  -1  -2    0.06    0.12
   0   1   2    0.05    0.15
   0   1   2    0.18    0.18
   0   1   2    0.43    0.16
   0   1   2   -0.28    0.15
  -1  -1  -2   27.60    0.76
  -1  -1  -2   28.89    0.66
  -1  -1  -2   28.96    0.65
  -1  -1  -2   30.79    0.71
   1   1   2   29.58    0.74
   1   1   2   30.49    0.68
   1   1   2   29.22    0.73
  -2  -1  -2   54.91    1.08
  -2  -1  -2   56.52    1.48
   2   1   2   55.46    1.05
  -3  -1  -2    0.33    0.19
  -3  -1  -2   -0.17    0.38
   3   1   2   -0.35    0.22
  -4  -1  -2    0.01    0.25
  -4  -1  -2    0.24    0.62
  -5  -1  -2    1.38    0.41
  -5  -1  -2    1.66    0.91
  -3   2   2    3.15    0.26
  -3   2   2    2.93    0.64
  -2   2   2   17.97    0.48
  -2   2   2   18.42    0.44
   1  -2  -2    6.62    0.34
   1  -2  -2    5.92    0.32
   1  -2  -2    6.45    0.34
  -1   2   2    6.50    0.38
   0  -2  -2  248.54    3.32
   0  -2  -2  244.30    3.19
   0  -2  -2  246.76    3.58
   0  -2  -2  250.01    3.62
   0   2   2  245.57    3.55
   0   2   2  252.53    3.46
   0   2   2  245.38    3.17
   0   2   2  252.16    3.62
  -1  -2  -2   34.06    0.86
  -1  -2  -2   34.84    0.92
  -1  -2  -2   34.85    0.86
  -1  -2  -2   34.86    0.84
   1   2   2   34.59    0.97
   1   2   2   34.20    0.95
   1   2   2   34.09    0.85
  -2  -2  -2    0.27    0.20
  -2  -2  -2    0.43    0.27
   2   2   2    0.64    0.21
   2   2   2    0.29    0.24
  -3  -2  -2    2.05    0.57
  -3  -2  -2    1.60    0.32
  -4  -2  -2   14.25    1.37
  -5  -2  -2    0.36    0.41
  -4   3   2    0.14    0.21
  -3   3   2    1.14    0.29
   2  -3  -2    2.55    0.26
  -2   3   2    2.69    0.35
   1  -3  -2    4.76    0.39
   1  -3  -2    5.02    0.38
   1  -3  -2    5.53    0.44
  -1   3   2    4.98    0.37
  -1   3   2    5.72    0.37
  -1   3   2    6.15    0.47
   0  -3  -2   12.81    0.60
   0  -3  -2   12.85    0.67
   0  -3  -2   13.41    0.59
   0  -3  -2   13.46    0.64
   0   3   2   12.73    0.63
   0   3   2   13.53    0.65
   0   3   2   13.08    0.69
  -1  -3  -2   42.31    1.07
  -1  -3  -2   42.24    1.15
  -1  -3  -2   43.80    1.08
   1   3   2   43.41    1.09
   1   3   2   39.11    1.15
   1   3   2   41.75    1.20
  -2  -3  -2    2.06    0.43
  -2  -3  -2    1.03    0.29
   2   3   2    0.59    0.30
   2   3   2    1.30    0.33
   2   3   2    0.85    0.37
  -3  -3  -2    7.25    0.84
  -3  -3  -2    6.35    0.61
  -4  -3  -2    4.17    0.81
  -4  -3  -2    3.88    0.58
  -4   4   2    9.14    0.61
   3  -4  -2    4.91    0.46
  -3   4   2    5.15    0.55
   2  -4  -2    0.83    0.26
  -2   4   2    0.78    0.31
   1  -4  -2    0.52    0.22
   1  -4  -2    0.38    0.26
   1  -4  -2    0.56    0.23
  -1   4   2    0.03    0.25
  -1   4   2    0.70    0.26
  -1   4   2    1.03    0.33
   0  -4  -2   41.21    1.27
   0  -4  -2   41.91    1.21
   0  -4  -2   40.84    1.12
   0  -4  -2   42.61    1.17
   0   4   2   40.54    1.27
   0   4   2   40.84    1.18
   0   4   2   41.01    1.24
  -1  -4  -2    8.56    0.60
  -1  -4  -2    8.63    0.67
  -1  -4  -2    8.74    0.63
  -1  -4  -2    8.83    0.58
   1   4   2    8.61    0.71
   1   4   2    7.80    0.65
  -2  -4  -2   15.77    0.78
  -2  -4  -2   14.43    0.66
  -2  -4  -2   14.92    0.82
  -2  -4  -2   15.08    0.72
  -3  -4  -2    0.65    0.32
  -3  -4  -2    1.23    0.48
  -4  -4  -2    2.20    0.50
  -4   5   2    0.04    0.28
   3  -5  -2    0.80    0.36
  -3   5   2    0.81    0.37
   2  -5  -2   11.89    0.69
  -2   5   2   11.43    0.80
   1  -5  -2   11.65    0.72
   1  -5  -2   12.09    0.68
   1  -5  -2   11.77    0.77
  -1   5   2   11.58    0.78
  -1   5   2    9.85    0.69
  -1   5   2   11.31    0.65
   0  -5  -2    6.90    0.64
   0  -5  -2    5.41    0.55
   0  -5  -2    7.65    0.71
   0   5   2    6.79    0.63
   0   5   2    6.28    0.68
   0   5   2    6.54    0.69
  -1  -5  -2    0.10    0.30
  -1  -5  -2   -0.22    0.25
  -1  -5  -2   -0.04    0.25
  -1  -5  -2    0.16    0.29
   1   5   2   -0.08    0.31
   1   5   2    0.16    0.38
  -2  -5  -2    2.92    0.44
  -2  -5  -2    2.44    0.47
  -2  -5  -2    2.81    0.52
  -2  -5  -2    3.52    0.59
  -3  -5  -2    0.01    0.41
  -3  -5  -2    0.22    0.33
  -4  -5  -2    4.44    0.69
  -4   6   2    4.30    0.60
   3  -6  -2    1.79    0.44
  -3   6   2    2.20    0.50
   2  -6  -2   -0.27    0.29
  -2   6   2   -0.18    0.30
   1  -6  -2   23.25    1.01
   1  -6  -2   22.09    1.01
  -1   6   2   23.41    1.19
  -1   6   2   22.94    0.99
  -1   6   2   21.34    1.04
   0  -6  -2   31.97    1.34
   0  -6  -2   32.49    1.28
   0  -6  -2   32.45    1.17
   0   6   2   32.46    1.38
   0   6   2   30.54    1.40
  -1  -6  -2   11.23    0.77
  -1  -6  -2   10.46    0.76
   1   6   2   11.02    1.03
   1   6   2   11.98    0.94
  -2  -6  -2    3.28    0.59
  -2  -6  -2    3.39    0.60
  -2  -6  -2    3.70    0.60
  -3  -6  -2   -0.24    0.34
  -4   7   2   -0.35    0.41
  -3   7   2    0.33    0.33
   2  -7  -2    0.23    0.36
  -2   7   2    0.34    0.43
   1  -7  -2   -0.04    0.32
   1  -7  -2   -0.29    0.31
  -1   7   2   -0.51    0.34
  -1   7   2    0.89    0.46
   0  -7  -2    5.33    0.74
   0  -7  -2    6.71    0.87
   0  -7  -2    5.94    0.74
   0   7   2    3.00    0.68
   0   7   2    6.39    0.89
  -1  -7  -2   12.38    0.84
  -1  -7  -2   14.21    1.02
   1   7   2   14.86    1.32
  -2  -7  -2    1.06    0.45
  -2  -7  -2    1.09    0.45
  -3  -7  -2    0.44    0.43
  -4   8   2    0.32    0.42
  -3   8   2    1.59    0.49
  -2   8   2    0.43    0.46
  -1   8   2    1.39    0.59
  -1   8   2    1.50    0.55
   0  -8  -2    7.04    0.83
   0   8   2    6.51    0.95
   0   8   2    7.15    0.97
  -1  -8  -2    1.66    0.57
  -1  -8  -2    1.51    0.51
   1   8   2    1.62    0.65
  -2  -8  -2    0.19    0.38
  -2  -8  -2    0.55    0.49
  -3   9   2    1.13    0.50
  -2   9   2    0.70    0.50
  -1   9   2    4.38    0.89
  -1   9   2    3.99    0.77
   0  -9  -2    5.74    0.83
   0   9   2    4.57    0.90
   0   9   2    4.64    0.96
  -1  -9  -2   -0.01    0.45
  -2  -9  -2   -0.44    0.45
  -2  10   2    0.58    0.62
  -1  10   2   -0.16    0.61
  -1  10   2    0.45    0.55
   0  10   2    6.94    1.27
  -1 -10   3    0.67    0.59
  -1 -10   3    0.41    0.54
   0  10  -3    0.30    0.66
  -1  10  -3    7.69    1.05
  -1  10  -3    8.11    1.19
  -2  10  -3    0.23    0.53
  -2  -9   3    8.85    1.02
  -2  -9   3    9.32    0.90
  -1  -9   3    1.73    0.54
  -1  -9   3    2.17    0.63
   0   9  -3    0.09    0.50
   0  -9   3    0.43    0.44
  -1   9  -3    2.47    0.79
  -1   9  -3    2.96    0.74
  -2   9  -3   -0.01    0.40
  -3   9  -3   -0.10    0.38
  -3  -8   3   -0.06    0.47
  -2  -8   3    0.28    0.39
  -2  -8   3    0.50    0.53
  -2  -8   3   -0.35    0.35
  -1  -8   3    1.16    0.46
  -1  -8   3    1.96    0.52
   0   8  -3   -0.23    0.38
   0   8  -3    0.59    0.56
   0  -8   3    0.36    0.38
   0  -8   3   -0.25    0.36
  -1   8  -3    0.23    0.48
  -1   8  -3   -0.28    0.35
  -2   8  -3    2.74    0.67
  -3   8  -3    1.52    0.50
  -4   8  -3    2.45    0.55
  -3  -7   3   -0.55    0.38
  -3  -7   3    0.75    0.65
  -2  -7   3    0.88    0.46
  -2  -7   3    2.30    0.48
  -2  -7   3    2.71    0.63
   1   7  -3    0.58    0.44
  -1  -7   3    0.62    0.38
  -1  -7   3    0.73    0.37
   0   7  -3    5.71    0.79
   0   7  -3    3.70    0.72
   0  -7   3    4.00    0.64
   0  -7   3    3.75    0.63
  -1   7  -3   32.88    1.34
  -1   7  -3   32.26    1.47
   1  -7   3   32.82    1.24
  -2   7  -3    7.07    0.56
  -2   7  -3    7.27    0.80
  -3   7  -3    2.29    0.53
  -4   7  -3    0.16    0.40
  -4  -6   3   -0.49    0.39
  -3  -6   3    2.77    0.55
  -3  -6   3    1.37    0.64
  -2  -6   3   17.20    0.92
  -2  -6   3   15.66    0.92
  -2  -6   3   15.44    0.76
  -2  -6   3   17.84    0.96
   1   6  -3    7.15    0.81
  -1  -6   3    8.77    0.75
  -1  -6   3    8.05    0.76
   0   6  -3    7.98    0.86
   0   6  -3    8.67    0.88
   0  -6   3    6.93    0.78
   0  -6   3    7.10    0.67
  -1   6  -3    4.56    0.68
  -1   6  -3    4.54    0.64
  -1   6  -3    5.48    0.61
   1  -6   3    4.86    0.56
   1  -6   3    4.12    0.60
  -2   6  -3    8.90    0.87
  -3   6  -3    2.24    0.49
  -4   6  -3    2.46    0.53
  -4  -5   3   -0.17    0.35
  -4  -5   3    0.57    0.72
  -3  -5   3   12.67    0.87
  -3  -5   3   13.86    1.11
  -2  -5   3    1.76    0.41
  -2  -5   3    2.04    0.54
  -2  -5   3    0.85    0.32
   1   5  -3    4.08    0.56
   1   5  -3    4.03    0.60
  -1  -5   3    3.59    0.52
  -1  -5   3    3.91    0.58
  -1  -5   3    4.85    0.54
   0   5  -3   10.01    0.81
   0   5  -3   10.62    0.72
   0   5  -3    9.68    0.77
   0  -5   3   10.18    0.65
   0  -5   3   10.16    0.75
   0  -5   3   10.86    0.70
  -1   5  -3   13.07    0.90
  -1   5  -3   11.52    0.65
  -1   5  -3   12.42    0.74
   1  -5   3   10.95    0.66
   1  -5   3   12.90    0.78
  -2   5  -3    0.41    0.32
  -3   5  -3    0.39    0.29
  -4   5  -3    2.90    0.48
  -5   5  -3    2.58    0.46
  -4  -4   3    1.81    0.85
  -4  -4   3    1.60    0.45
  -3  -4   3    0.65    0.51
  -3  -4   3    0.73    0.31
  -2  -4   3    0.27    0.27
  -2  -4   3    0.27    0.35
   1   4  -3    0.04    0.24
   1   4  -3    0.41    0.29
   1   4  -3    0.14    0.30
  -1  -4   3    0.28    0.22
  -1  -4   3    0.26    0.30
  -1  -4   3   -0.14    0.19
   0   4  -3    4.51    0.57
   0   4  -3    3.76    0.45
   0   4  -3    3.25    0.45
   0  -4   3    2.97    0.44
   0  -4   3    3.09    0.40
   0  -4   3    3.48    0.45
  -1   4  -3   35.48    1.05
  -1   4  -3   35.49    0.98
  -1   4  -3   35.08    1.18
   1  -4   3   36.50    1.10
   1  -4   3   35.22    0.96
  -2   4  -3   30.99    1.12
   2  -4   3   31.78    0.80
  -3   4  -3    1.07    0.33
  -4   4  -3    7.17    0.63
  -5   4  -3    0.87    0.30
  -5  -3   3    0.82    0.42
  -4  -3   3    1.55    0.39
  -4  -3   3    3.43    0.92
  -3  -3   3   -0.27    0.21
  -3  -3   3   -0.11    0.37
   2   3  -3    3.58    0.43
   2   3  -3    4.04    0.36
  -2  -3   3    4.30    0.61
  -2  -3   3    3.12    0.39
   1   3  -3    0.39    0.25
   1   3  -3    0.29    0.22
   1   3  -3    0.03    0.24
  -1  -3   3    0.43    0.21
  -1  -3   3    0.52    0.24
  -1  -3   3    0.15    0.23
   0   3  -3   40.16    1.07
   0   3  -3   35.50    1.06
   0   3  -3   36.72    1.01
   0  -3   3   37.80    0.94
   0  -3   3   37.19    1.03
   0  -3   3   37.95    1.06
  -1   3  -3   20.32    0.70
  -1   3  -3   20.46    0.74
  -1   3  -3   19.52    0.80
   1  -3   3   20.57    0.65
   1  -3   3   21.86    0.75
  -2   3  -3   41.57    1.12
  -3   3  -3    4.12    0.45
  -4   3  -3    2.13    0.35
  -5   3  -3    2.19    0.36
  -5  -2   3    0.76    0.38
  -5  -2   3    0.33    0.92
  -4  -2   3    0.12    0.27
  -4  -2   3    0.15    0.54
   3   2  -3    0.16    0.27
  -3  -2   3    0.04    0.45
  -3  -2   3    0.24    0.23
  -2  -2   3    4.44    0.60
  -2  -2   3    2.95    0.29
   1   2  -3    1.03    0.25
   1   2  -3    0.68    0.19
  -1  -2   3    0.84    0.26
  -1  -2   3    0.58    0.18
  -1  -2   3    0.82    0.19
  -1  -2   3    0.96    0.35
   0   2  -3    0.87    0.23
   0   2  -3    0.42    0.27
   0   2  -3    1.02    0.25
   0  -2   3    0.46    0.23
   0  -2   3    0.60    0.27
   0  -2   3    0.43    0.18
  -1   2  -3  120.11    1.78
  -1   2  -3  117.41    1.82
  -1   2  -3  114.78    1.90
   1  -2   3  119.71    1.88
   1  -2   3  118.07    1.73
  -2   2  -3    4.87    0.42
  -2   2  -3    5.09    0.38
  -3   2  -3   12.38    0.63
  -4   2  -3    0.71    0.25
  -5   2  -3    2.02    0.37
  -5  -1   3    0.96    0.94
  -4  -1   3    0.01    0.59
  -4  -1   3    0.41    0.24
  -3  -1   3    1.09    0.57
  -3  -1   3    0.51    0.17
  -2  -1   3   26.05    0.67
  -2  -1   3   25.54    0.58
  -2  -1   3   25.61    1.01
   1   1  -3   57.79    0.84
  -1  -1   3   58.83    1.28
  -1  -1   3   56.52    0.95
   0   1  -3  224.26    3.06
   0   1  -3  229.55    3.12
   0   1  -3  227.25    2.94
   0  -1   3  216.20    3.19
   0  -1   3  224.05    3.07
   0  -1   3  226.06    2.90
  -1   1  -3   58.10    1.08
   1  -1   3   59.22    0.98
   1  -1   3   59.61    1.05
  -2   1  -3   10.63    0.46
  -3   1  -3    4.84    0.40
  -4   1  -3    5.79    0.46
  -5   1  -3   -0.30    0.25
  -5   0   3    0.37    0.80
  -4   0   3    2.98    0.27
  -4   0   3    2.39    0.78
  -3   0   3    7.08    0.87
  -2   0   3   11.77    0.79
  -1   0   3    6.77    0.56
   0   0  -3    7.41    0.29
   0   0  -3    7.67    0.30
   0   0  -3    7.03    0.26
   0   0   3    7.45    0.28
   0   0   3    7.80    0.30
  -1   0  -3 1000.00   10.69
  -1   0  -3  936.08   11.79
   1   0   3  982.88   12.18
   1   0   3  924.25   11.71
  -2   0  -3   78.55    1.34
  -2   0  -3   78.41    1.75
  -3   0  -3    0.02    0.17
  -3   0  -3   -0.31    0.39
  -4   0  -3    1.49    0.66
  -4   0  -3    1.05    0.29
  -5   0  -3    0.01    0.29
  -4   1   3    4.10    0.87
  -3   1   3    3.91    0.67
  -2   1   3    5.64    0.65
  -1   1   3    8.94    0.27
  -1   1   3    8.41    0.69
   0  -1  -3    0.18    0.20
   0  -1  -3    0.50    0.20
   0  -1  -3    0.16    0.15
   0  -1  -3    0.62    0.20
   0   1   3    0.37    0.20
   0   1   3    0.64    0.21
   0   1   3    0.41    0.22
  -1  -1  -3   18.90    0.56
  -1  -1  -3   18.61    0.55
  -1  -1  -3   18.58    0.59
  -1  -1  -3   18.08    0.58
  -1  -1  -3   19.16    0.60
   1   1   3   17.60    0.57
   1   1   3   16.44    0.56
   1   1   3   18.99    0.61
  -2  -1  -3    6.17    0.59
  -2  -1  -3    5.49    0.41
   2   1   3    4.85    0.39
  -3  -1  -3   11.81    0.59
  -3  -1  -3   10.74    0.89
   3   1   3   10.92    0.57
  -4  -1  -3    5.36    0.95
  -4  -1  -3    4.74    0.50
  -5  -1  -3    0.82    0.36
  -3   2   3   15.24    1.03
  -2   2   3    6.03    0.32
  -2   2   3    7.70    0.69
  -2   2   3    7.12    0.32
   1  -2  -3   87.85    1.42
   1  -2  -3   86.99    1.31
   1  -2  -3   85.28    1.32
  -1   2   3   85.95    1.45
   0  -2  -3   44.81    0.96
   0  -2  -3   44.09    1.06
   0  -2  -3   44.40    0.93
   0  -2  -3   44.05    1.02
   0   2   3   45.09    1.04
   0   2   3   43.93    1.06
   0   2   3   42.97    1.01
  -1  -2  -3    1.46    0.25
  -1  -2  -3    1.93    0.32
  -1  -2  -3    1.67    0.25
  -1  -2  -3    1.63    0.29
  -1  -2  -3    2.09    0.33
   1   2   3    1.75    0.31
   1   2   3    1.52    0.28
   1   2   3    1.21    0.31
  -2  -2  -3    5.72    0.56
  -2  -2  -3    5.34    0.46
   2   2   3    4.78    0.43
   2   2   3    4.18    0.42
  -3  -2  -3    9.06    0.87
  -3  -2  -3    7.90    0.61
  -4  -2  -3    5.39    0.92
  -5  -2  -3    0.73    0.41
  -4   3   3    3.70    0.37
  -3   3   3   10.50    0.51
   2  -3  -3    0.63    0.19
  -2   3   3    0.61    0.22
   1  -3  -3    1.43    0.23
   1  -3  -3    1.61    0.27
   1  -3  -3    1.48    0.26
  -1   3   3    1.50    0.31
  -1   3   3    1.64    0.26
  -1   3   3    1.96    0.28
   0  -3  -3   22.13    0.78
   0  -3  -3   23.62    0.79
   0  -3  -3   22.97    0.86
   0  -3  -3   23.80    0.84
   0   3   3   23.51    0.86
   0   3   3   22.43    0.82
   0   3   3   23.97    0.90
  -1  -3  -3   24.64    0.85
  -1  -3  -3   21.85    0.70
  -1  -3  -3   22.89    0.85
  -1  -3  -3   23.38    0.86
  -1  -3  -3   22.04    0.78
   1   3   3   22.49    0.91
   1   3   3   23.69    0.90
   1   3   3   23.17    0.82
  -2  -3  -3    3.56    0.43
  -2  -3  -3    5.23    0.61
   2   3   3    3.97    0.56
   2   3   3    3.71    0.44
   2   3   3    4.13    0.51
  -3  -3  -3    1.47    0.61
  -3  -3  -3    0.68    0.31
  -4  -3  -3    2.85    0.51
  -4   4   3    0.30    0.25
   3  -4  -3    8.13    0.53
  -3   4   3    7.93    0.59
   2  -4  -3    1.99    0.31
  -2   4   3    2.81    0.42
   1  -4  -3    6.23    0.49
   1  -4  -3    8.29    0.60
   1  -4  -3    7.10    0.51
  -1   4   3    7.68    0.52
  -1   4   3    7.59    0.59
  -1   4   3    7.32    0.49
   0  -4  -3   11.15    0.73
   0  -4  -3   11.89    0.64
   0  -4  -3   10.72    0.63
   0  -4  -3   11.82    0.71
   0   4   3   13.03    0.77
   0   4   3   11.41    0.70
   0   4   3   11.00    0.66
  -1  -4  -3    0.78    0.31
  -1  -4  -3    0.95    0.28
  -1  -4  -3    0.80    0.33
   1   4   3    0.85    0.37
   1   4   3    0.49    0.34
  -2  -4  -3    5.80    0.49
  -2  -4  -3    5.96    0.61
  -2  -4  -3    5.30    0.57
  -2  -4  -3    7.37    0.70
  -3  -4  -3   -0.11    0.44
  -3  -4  -3   -0.09    0.28
  -4  -4  -3    2.11    0.48
  -4   5   3    1.37    0.37
   3  -5  -3    6.76    0.60
  -3   5   3    8.10    0.75
   2  -5  -3   16.91    0.78
  -2   5   3   15.73    0.88
   1  -5  -3    7.55    0.69
   1  -5  -3    6.60    0.59
   1  -5  -3    6.62    0.55
  -1   5   3    6.81    0.68
  -1   5   3    6.89    0.57
  -1   5   3    7.48    0.62
   0  -5  -3   36.68    1.31
   0  -5  -3   35.94    1.14
   0  -5  -3   36.78    1.24
   0   5   3   35.74    1.33
   0   5   3   35.54    1.25
   0   5   3   36.03    1.36
  -1  -5  -3    8.57    0.77
  -1  -5  -3    7.34    0.64
  -1  -5  -3    8.59    0.63
  -1  -5  -3    8.32    0.79
   1   5   3    9.42    0.90
   1   5   3    8.12    0.84
  -2  -5  -3    5.11    0.64
  -2  -5  -3    4.13    0.60
  -2  -5  -3    3.93    0.54
  -2  -5  -3    3.58    0.47
  -3  -5  -3    1.70    0.44
  -4  -5  -3    5.41    0.77
  -4   6   3    0.81    0.38
   3  -6  -3    1.48    0.44
  -3   6   3    2.22    0.55
   2  -6  -3    1.74    0.42
  -2   6   3    1.90    0.52
   1  -6  -3    0.17    0.28
   1  -6  -3    0.02    0.26
  -1   6   3    0.32    0.34
  -1   6   3   -0.13    0.36
  -1   6   3    0.54    0.39
   0  -6  -3    8.38    0.81
   0  -6  -3    9.47    0.90
   0  -6  -3    8.58    0.74
   0   6   3    7.78    0.87
   0   6   3    8.11    0.92
  -1  -6  -3    3.85    0.56
  -1  -6  -3    2.93    0.53
   1   6   3    2.12    0.61
   1   6   3    2.87    0.60
  -2  -6  -3    0.54    0.35
  -2  -6  -3    0.29    0.43
  -2  -6  -3    0.38    0.34
  -3  -6  -3   -0.23    0.34
  -4   7   3    1.57    0.47
   3  -7  -3    0.47    0.39
  -3   7   3    1.18    0.49
   2  -7  -3    7.11    0.80
  -2   7   3    8.51    0.92
   1  -7  -3    9.00    0.88
   1  -7  -3    9.81    0.79
  -1   7   3    9.01    0.98
  -1   7   3    8.72    0.86
   0  -7  -3    1.43    0.49
   0  -7  -3    1.58    0.51
   0  -7  -3    1.78    0.49
   0   7   3    1.16    0.53
   0   7   3    0.71    0.53
  -1  -7  -3    9.53    0.87
  -1  -7  -3    7.38    0.82
   1   7   3    9.55    1.04
  -2  -7  -3    3.02    0.61
  -2  -7  -3    2.66    0.63
  -3  -7  -3    1.64    0.59
  -4   8   3    0.20    0.40
  -3   8   3    1.08    0.45
   2  -8  -3    1.31    0.49
  -2   8   3    0.49    0.50
   1  -8  -3    4.97    0.73
  -1   8   3    3.14    0.66
  -1   8   3    4.45    0.84
   0  -8  -3    0.02    0.41
   0   8   3    0.61    0.52
   0   8   3    0.67    0.58
  -1  -8  -3    4.22    0.71
  -1  -8  -3    4.23    0.70
   1   8   3    4.44    0.88
  -2  -8  -3    4.49    0.80
  -2  -8  -3    4.34    0.73
  -3   9   3    0.45    0.45
  -2   9   3   -0.09    0.39
  -1   9   3    4.08    0.74
  -1   9   3    4.54    0.96
   0  -9  -3    1.20    0.53
   0   9   3    0.88    0.63
   0   9   3    0.29    0.63
  -1  -9  -3    1.46    0.58
  -2  -9  -3    0.59    0.54
  -2  10   3    0.14    0.51
  -1  10   3    2.20    0.70
  -1  10   3    2.30    0.83
   0  10   3    0.49    0.70
  -1 -10   4   -0.05    0.44
  -1 -10   4    0.71    0.54
   0  10  -4    0.49    0.62
   0 -10   4    0.37    0.45
  -1  10  -4    2.74    0.82
  -1  10  -4    4.34    0.86
  -2  10  -4    0.47    0.52
  -2  -9   4    0.11    0.42
  -2  -9   4   -0.33    0.39
  -2  -9   4   -0.10    0.59
  -1  -9   4   -0.06    0.36
  -1  -9   4   -0.35    0.39
   0   9  -4    4.45    0.92
   0  -9   4    3.71    0.66
  -1   9  -4    0.50    0.57
  -1   9  -4    0.88    0.59
  -2   9  -4    0.03    0.45
  -2   9  -4    0.36    0.38
  -3   9  -4    4.22    0.73
  -3  -8   4    0.13    0.45
  -2  -8   4   -0.27    0.35
  -2  -8   4    0.48    0.58
  -2  -8   4   -0.04    0.34
  -1  -8   4    0.86    0.42
  -1  -8   4    0.31    0.38
   0   8  -4    1.80    0.56
   0   8  -4    3.89    0.81
   0  -8   4    3.27    0.70
   0  -8   4    4.80    0.73
  -1   8  -4    3.22    0.70
  -1   8  -4    3.78    0.75
  -2   8  -4    0.71    0.48
  -2   8  -4    0.34    0.36
  -3   8  -4    1.36    0.48
  -4   8  -4    1.23    0.54
  -3  -7   4   -0.05    0.42
  -3  -7   4    0.41    0.59
  -2  -7   4    0.10    0.37
  -2  -7   4   -0.03    0.30
  -2  -7   4   -0.33    0.45
   1   7  -4   -0.17    0.41
  -1  -7   4    0.31    0.38
  -1  -7   4    0.02    0.30
   0   7  -4    2.45    0.63
   0   7  -4    1.70    0.59
   0  -7   4    1.01    0.40
   0  -7   4    1.00    0.39
  -1   7  -4    3.65    0.65
  -1   7  -4    3.03    0.68
   1  -7   4    2.94    0.51
  -2   7  -4    0.83    0.35
  -2   7  -4    0.31    0.29
  -2   7  -4    0.90    0.44
  -3   7  -4    3.91    0.62
  -4   7  -4    0.50    0.46
  -4  -6   4    0.63    0.88
  -4  -6   4    1.09    0.49
  -3  -6   4   10.40    1.00
  -3  -6   4    9.50    1.12
  -2  -6   4    7.77    0.82
  -2  -6   4    8.04    0.82
  -2  -6   4    7.51    0.64
  -2  -6   4    6.67    0.65
   1   6  -4    7.67    0.82
  -1  -6   4    7.94    0.66
  -1  -6   4    7.80    0.73
   0   6  -4    6.00    0.72
   0   6  -4    5.95    0.77
   0  -6   4    4.90    0.57
   0  -6   4    4.61    0.60
  -1   6  -4    0.28    0.40
  -1   6  -4    0.03    0.33
  -1   6  -4    0.43    0.31
   1  -6   4   -0.24    0.28
   1  -6   4    0.17    0.35
  -2   6  -4    2.64    0.51
  -3   6  -4    2.96    0.52
  -4   6  -4    1.11    0.39
  -4  -5   4   -0.21    0.36
  -4  -5   4    0.20    0.67
  -3  -5   4   -0.06    0.48
  -3  -5   4   -0.05    0.30
  -2  -5   4   23.23    1.01
  -2  -5   4   21.67    0.79
  -2  -5   4   22.27    1.11
   1   5  -4   13.70    0.89
   1   5  -4   16.27    0.93
  -1  -5   4   15.70    0.83
  -1  -5   4   15.72    0.90
  -1  -5   4   15.16    0.81
   0   5  -4    4.82    0.62
   0   5  -4    3.82    0.50
   0   5  -4    3.83    0.57
   0  -5   4    4.23    0.60
   0  -5   4    3.79    0.48
   0  -5   4    3.38    0.48
  -1   5  -4    1.12    0.34
  -1   5  -4    0.95    0.39
  -1   5  -4    1.13    0.38
   1  -5   4    1.06    0.31
   1  -5   4    1.17    0.38
  -2   5  -4    1.98    0.45
  -3   5  -4   11.05    0.76
  -4   5  -4   -0.18    0.30
  -5   5  -4    0.47    0.31
  -4  -4   4    0.54    0.37
  -4  -4   4    0.39    0.61
  -3  -4   4    1.15    0.57
  -3  -4   4    0.03    0.26
  -2  -4   4   10.27    0.79
  -2  -4   4   11.23    0.67
   1   4  -4   23.42    0.95
   1   4  -4   23.87    0.97
   1   4  -4   24.50    0.96
  -1  -4   4   27.75    0.95
  -1  -4   4   24.25    0.96
  -1  -4   4   23.35    0.86
   0   4  -4   22.61    0.91
   0   4  -4   23.08    0.94
   0   4  -4   22.35    0.95
   0  -4   4   22.59    0.90
   0  -4   4   23.29    0.84
   0  -4   4   23.35    0.96
  -1   4  -4    5.76    0.52
  -1   4  -4    5.51    0.48
  -1   4  -4    5.49    0.57
   1  -4   4    5.88    0.47
   1  -4   4    4.64    0.51
  -2   4  -4    6.85    0.64
   2  -4   4    7.59    0.46
  -3   4  -4    0.60    0.30
  -4   4  -4    7.83    0.62
  -5   4  -4    0.27    0.30
  -5  -3   4    0.07    0.39
  -4  -3   4   -0.24    0.29
  -4  -3   4    0.01    0.72
  -3  -3   4    0.17    0.43
  -3  -3   4    0.20    0.28
   2   3  -4    2.43    0.40
   2   3  -4    1.62    0.25
  -2  -3   4    1.73    0.47
  -2  -3   4    2.10    0.32
   1   3  -4    2.50    0.34
   1   3  -4    4.14    0.44
  -1  -3   4    3.39    0.36
  -1  -3   4    3.34    0.39
  -1  -3   4    2.95    0.36
   0   3  -4    7.05    0.58
   0   3  -4    7.39    0.56
   0   3  -4    7.63    0.50
   0  -3   4    8.57    0.49
   0  -3   4    7.70    0.49
   0  -3   4    7.84    0.56
  -1   3  -4   26.19    0.81
  -1   3  -4   25.55    0.90
  -1   3  -4   25.70    0.76
   1  -3   4   25.93    0.72
   1  -3   4   25.44    0.85
  -2   3  -4    0.96    0.28
  -3   3  -4    0.35    0.28
  -4   3  -4    0.73    0.26
  -5   3  -4   -0.12    0.23
  -5  -2   4   -0.19    0.91
  -4  -2   4    0.26    0.29
  -4  -2   4   -0.37    0.59
   3   2  -4    5.23    0.47
  -3  -2   4    4.12    0.72
  -3  -2   4    3.81    0.40
  -2  -2   4   55.72    1.59
  -2  -2   4   53.59    1.14
   1   2  -4   51.48    1.03
   1   2  -4   51.72    1.11
  -1  -2   4   51.87    0.99
  -1  -2   4   51.59    1.03
  -1  -2   4   52.35    0.96
  -1  -2   4   50.40    1.22
   0   2  -4    8.83    0.51
   0   2  -4    8.91    0.54
   0   2  -4    9.44    0.51
   0  -2   4    9.80    0.45
   0  -2   4   10.31    0.58
   0  -2   4    9.81    0.50
  -1   2  -4   -0.09    0.17
  -1   2  -4   -0.07    0.17
  -1   2  -4    0.13    0.25
   1  -2   4   -0.09    0.13
   1  -2   4   -0.12    0.19
  -2   2  -4    4.39    0.41
  -3   2  -4    2.41    0.35
  -4   2  -4    0.07    0.21
  -5   2  -4    0.65    0.31
  -5  -1   4   -0.28    0.77
  -4  -1   4   -0.32    0.57
  -4  -1   4    0.19    0.22
  -3  -1   4    8.38    0.98
  -2  -1   4    0.06    0.12
  -2  -1   4   -0.11    0.16
  -2  -1   4    0.15    0.29
   1   1  -4   44.61    0.71
   1   1  -4   46.63    0.81
  -1  -1   4   42.29    0.81
  -1  -1   4   43.82    1.12
   0   1  -4   32.38    0.71
   0   1  -4   31.76    0.71
   0   1  -4   32.68    0.76
   0  -1   4   31.39    0.70
   0  -1   4   31.87    0.68
   0  -1   4   28.51    0.81
  -1   1  -4   49.67    0.90
  -1   1  -4   49.76    0.93
  -1   1  -4   48.55    0.99
   1  -1   4   50.58    0.97
   1  -1   4   48.94    0.90
  -2   1  -4    3.01    0.33
  -3   1  -4    0.20    0.19
  -4   1  -4    0.32    0.21
  -5   1  -4    0.60    0.29
  -5   0   4   -0.18    0.75
  -4   0   4    6.08    1.00
  -3   0   4    0.50    0.41
  -2   0   4   40.15    1.36
  -1   0   4    2.77    0.41
  -1   0   4    2.66    0.16
  -1   0   4    2.49    0.19
   0   0  -4    6.20    0.29
   0   0  -4    6.62    0.36
   0   0  -4    6.18    0.34
   0   0   4    6.32    0.26
   0   0   4    6.35    0.35
   0   0   4    6.27    0.30
  -1   0  -4  114.80    1.76
  -1   0  -4  116.35    1.76
  -1   0  -4  115.95    1.59
  -1   0  -4  113.63    1.73
   1   0   4  115.84    1.82
   1   0   4  116.08    1.74
  -2   0  -4   26.58    0.97
  -2   0  -4   27.55    0.75
  -3   0  -4    1.89    0.51
  -3   0  -4    1.09    0.27
  -4   0  -4    0.30    0.26
  -5   0  -4    0.32    0.30
  -5   1   4   -0.77    0.72
  -4   1   4   -0.44    0.52
  -3   1   4   11.01    1.00
  -2   1   4   35.26    1.28
  -1   1   4   97.36    1.91
  -1   1   4   98.63    1.41
   0  -1  -4    4.75    0.35
   0  -1  -4    3.87    0.31
   0  -1  -4    4.82    0.35
   0   1   4    4.70    0.36
   0   1   4    4.63    0.36
   0   1   4    2.92    0.30
  -1  -1  -4   15.06    0.53
  -1  -1  -4   15.27    0.57
  -1  -1  -4   15.48    0.56
  -1  -1  -4   15.66    0.60
   1   1   4   15.58    0.57
   1   1   4   15.63    0.61
   1   1   4   15.14    0.62
  -2  -1  -4   20.19    0.83
  -2  -1  -4   20.78    0.70
   2   1   4   20.36    0.67
   2   1   4   21.38    0.66
  -3  -1  -4   10.18    0.90
  -3  -1  -4   12.35    0.63
  -4  -1  -4    0.34    0.28
  -4  -1  -4    0.20    0.58
  -5  -1  -4    0.62    0.36
  -4   2   4   12.71    1.16
  -3   2   4    5.40    0.83
  -2   2   4    0.14    0.16
  -2   2   4    0.51    0.41
  -2   2   4    0.37    0.15
   1  -2  -4   27.38    0.67
   1  -2  -4   25.76    0.62
  -1   2   4   26.39    0.73
   0  -2  -4    8.92    0.52
   0  -2  -4    9.23    0.46
   0  -2  -4    8.57    0.50
   0  -2  -4    8.30    0.49
   0   2   4    9.12    0.51
   0   2   4    9.62    0.57
   0   2   4    8.96    0.57
  -1  -2  -4   12.44    0.60
  -1  -2  -4   12.83    0.55
  -1  -2  -4   11.95    0.45
  -1  -2  -4   11.55    0.54
  -1  -2  -4   12.99    0.61
   1   2   4   12.90    0.62
   1   2   4   12.45    0.55
   1   2   4   12.52    0.60
  -2  -2  -4   11.72    0.58
  -2  -2  -4   10.64    0.65
   2   2   4   12.34    0.60
   2   2   4   10.42    0.64
   2   2   4   10.90    0.60
  -3  -2  -4   16.23    0.79
  -3  -2  -4   16.93    1.00
  -4  -2  -4    0.24    0.26
  -4  -2  -4   -0.67    0.56
  -5  -2  -4    0.55    0.36
  -4   3   4    1.28    0.27
  -3   3   4    0.24    0.21
   2  -3  -4    9.48    0.41
  -2   3   4    9.58    0.50
  -2   3   4    9.62    0.51
   1  -3  -4   88.34    1.55
   1  -3  -4   87.84    1.58
   1  -3  -4   91.55    1.72
  -1   3   4   92.08    1.60
  -1   3   4   89.97    1.76
  -1   3   4   92.63    1.55
   0  -3  -4   29.15    0.89
   0  -3  -4   29.53    0.84
   0  -3  -4   28.94    0.98
   0  -3  -4   30.00    0.96
   0   3   4   30.93    0.95
   0   3   4   30.45    0.99
   0   3   4   29.77    0.99
  -1  -3  -4   47.87    1.16
  -1  -3  -4   46.08    1.03
  -1  -3  -4   47.58    1.16
  -1  -3  -4   47.37    1.29
  -1  -3  -4   46.74    1.28
   1   3   4   46.99    1.34
   1   3   4   46.21    1.26
  -2  -3  -4   22.13    0.85
  -2  -3  -4   21.67    0.75
  -2  -3  -4   22.13    0.91
   2   3   4   22.32    0.93
   2   3   4   22.13    1.01
  -3  -3  -4    1.30    0.57
  -3  -3  -4    0.52    0.32
  -4  -3  -4    0.46    0.33
   4  -4  -4    1.55    0.38
  -4   4   4    1.87    0.34
   3  -4  -4    6.73    0.50
  -3   4   4    6.52    0.58
   2  -4  -4    1.44    0.29
  -2   4   4    2.01    0.37
   1  -4  -4    1.88    0.33
   1  -4  -4    2.00    0.36
   1  -4  -4    2.76    0.37
  -1   4   4    3.23    0.41
  -1   4   4    1.75    0.39
  -1   4   4    2.28    0.37
   0  -4  -4   -0.02    0.18
   0  -4  -4    0.11    0.26
   0  -4  -4   -0.21    0.22
   0   4   4    0.09    0.25
   0   4   4    0.09    0.29
   0   4   4   -0.17    0.28
  -1  -4  -4    0.18    0.21
  -1  -4  -4    0.39    0.30
  -1  -4  -4    0.50    0.31
   1   4   4    0.10    0.35
   1   4   4    0.61    0.33
  -2  -4  -4   12.24    0.71
  -2  -4  -4   12.34    0.74
  -2  -4  -4   13.48    0.73
  -2  -4  -4   11.62    0.67
  -3  -4  -4    0.96    0.38
  -3  -4  -4    1.84    0.52
  -4  -4  -4   -0.01    0.37
  -4   5   4    4.40    0.54
   3  -5  -4   25.17    0.92
  -3   5   4   25.29    1.09
   2  -5  -4   10.93    0.68
  -2   5   4    9.71    0.76
   1  -5  -4    1.08    0.33
   1  -5  -4    1.26    0.39
   1  -5  -4    0.79    0.32
  -1   5   4    0.98    0.34
  -1   5   4    1.02    0.36
  -1   5   4    0.56    0.36
   0  -5  -4    4.02    0.54
   0  -5  -4    5.19    0.61
   0  -5  -4    5.05    0.55
   0   5   4    5.49    0.68
   0   5   4    4.35    0.56
   0   5   4    5.59    0.71
  -1  -5  -4    3.98    0.53
  -1  -5  -4    3.83    0.57
   1   5   4    3.69    0.61
   1   5   4    3.59    0.66
  -2  -5  -4    2.93    0.50
  -2  -5  -4    3.28    0.51
  -2  -5  -4    3.08    0.53
  -2  -5  -4    5.57    0.66
  -3  -5  -4    1.98    0.48
  -4  -5  -4    0.13    0.41
  -4   6   4   -0.45    0.26
   3  -6  -4    0.26    0.34
  -3   6   4    0.56    0.38
   2  -6  -4    4.37    0.56
  -2   6   4    4.14    0.68
   1  -6  -4   17.79    0.85
   1  -6  -4   17.41    0.94
  -1   6   4   19.07    1.10
  -1   6   4   17.70    0.88
  -1   6   4   16.84    0.94
   0  -6  -4    0.00    0.28
   0  -6  -4    0.58    0.36
   0  -6  -4   -0.20    0.34
   0   6   4    0.33    0.42
   0   6   4   -0.08    0.41
  -1  -6  -4    1.57    0.41
   1   6   4    1.15    0.50
  -2  -6  -4    2.99    0.52
  -2  -6  -4    3.37    0.57
  -3  -6  -4    1.87    0.53
  -4   7   4    3.22    0.61
   3  -7  -4    4.22    0.62
  -3   7   4    4.25    0.73
   2  -7  -4   -0.12    0.34
  -2   7   4    1.22    0.48
   1  -7  -4    1.30    0.45
  -1   7   4    1.48    0.54
  -1   7   4    0.86    0.46
   0  -7  -4   23.96    1.24
   0  -7  -4   25.50    1.29
   0  -7  -4   25.12    1.15
   0   7   4   26.40    1.42
   0   7   4   24.89    1.36
  -1  -7  -4    9.49    0.93
   1   7   4    7.30    0.97
  -2  -7  -4    3.16    0.61
  -2  -7  -4    2.81    0.57
  -3  -7  -4    1.56    0.56
  -4   8   4    6.58    0.82
   3  -8  -4    0.24    0.42
  -3   8   4    0.70    0.44
   2  -8  -4    7.60    0.88
  -2   8   4    7.40    1.01
   1  -8  -4    0.25    0.43
  -1   8   4    0.29    0.48
  -1   8   4    0.10    0.43
   0  -8  -4    3.72    0.68
   0   8   4    3.92    0.82
   0   8   4    4.78    0.88
  -1  -8  -4   -0.29    0.32
   1   8   4    0.60    0.57
  -2  -8  -4    0.53    0.47
  -2  -8  -4    0.52    0.48
  -3   9   4    1.17    0.58
  -2   9   4    1.22    0.58
  -1   9   4    2.14    0.75
  -1   9   4    1.12    0.57
   0  -9  -4   -0.06    0.47
   0   9   4   -0.15    0.53
   0   9   4    0.55    0.62
  -1  -9  -4    1.00    0.55
  -2  10   4    0.25    0.52
  -1  10   4    0.35    0.63
  -1  10   4    0.05    0.54
   0  10   4    8.24    1.25
  -1 -10   5    0.45    0.56
  -1 -10   5    0.07    0.47
   0  10  -5    6.34    1.00
   0 -10   5    6.46    0.88
  -1  10  -5   -0.38    0.63
  -1  10  -5   -0.29    0.51
  -2  10  -5    1.19    0.59
  -2  -9   5   -0.20    0.48
  -2  -9   5    0.67    0.64
  -2  -9   5   -0.12    0.43
  -1  -9   5   -0.39    0.33
  -1  -9   5    0.12    0.46
   0   9  -5    0.12    0.54
   0  -9   5    0.08    0.37
  -1   9  -5    0.29    0.50
  -1   9  -5    0.67    0.51
  -2   9  -5   -0.17    0.44
  -2   9  -5    0.08    0.36
  -3   9  -5    0.56    0.44
  -3  -8   5    0.61    0.51
  -3  -8   5    0.71    0.71
  -2  -8   5    0.24    0.35
  -2  -8   5    0.22    0.40
  -2  -8   5    0.34    0.58
  -1  -8   5    8.61    0.87
  -1  -8   5   10.16    1.03
   0   8  -5    7.33    1.01
   0   8  -5    6.85    0.98
   0  -8   5    6.13    0.84
   0  -8   5    5.82    0.73
  -1   8  -5    0.73    0.49
  -1   8  -5    0.11    0.42
   1  -8   5    0.57    0.42
  -2   8  -5    0.51    0.44
  -2   8  -5    0.48    0.39
  -3   8  -5    6.20    0.80
  -4   8  -5    3.56    0.66
  -3  -7   5    0.65    0.46
  -3  -7   5    0.85    0.62
  -2  -7   5    1.75    0.41
  -2  -7   5    2.00    0.65
  -2  -7   5    2.09    0.52
   1   7  -5    5.93    0.78
  -1  -7   5    5.65    0.69
  -1  -7   5    5.14    0.68
   0   7  -5    0.26    0.43
   0   7  -5    0.02    0.41
   0  -7   5    0.02    0.37
   0  -7   5    0.42    0.38
  -1   7  -5    0.67    0.43
  -1   7  -5    2.73    0.60
   1  -7   5    1.82    0.47
  -2   7  -5    2.86    0.61
  -2   7  -5    3.63    0.52
  -2   7  -5    4.00    0.50
  -3   7  -5    0.64    0.38
  -4   7  -5    1.39    0.45
  -4  -6   5    0.00    0.78
  -4  -6   5   -0.40    0.42
  -3  -6   5    0.23    0.38
  -3  -6   5    0.16    0.53
  -2  -6   5    1.63    0.36
  -2  -6   5    1.49    0.48
  -2  -6   5    1.67    0.44
  -2  -6   5    2.01    0.55
   1   6  -5   19.90    1.09
  -1  -6   5   17.89    0.95
  -1  -6   5   18.58    0.95
   0   6  -5   14.71    0.93
   0   6  -5   14.89    0.95
   0  -6   5   14.70    0.85
   0  -6   5   14.11    0.86
  -1   6  -5    0.62    0.34
  -1   6  -5    0.21    0.37
  -1   6  -5    1.18    0.40
   1  -6   5    0.17    0.33
   1  -6   5    0.32    0.30
  -2   6  -5   11.25    0.89
  -2   6  -5   11.34    0.59
  -3   6  -5    0.10    0.33
  -4   6  -5   -0.41    0.32
  -4  -5   5    0.73    0.70
  -4  -5   5    0.99    0.47
  -3  -5   5    1.12    0.41
  -3  -5   5    0.85    0.54
  -2  -5   5   17.29    0.95
  -2  -5   5   16.34    1.01
   1   5  -5    9.01    0.87
   1   5  -5    7.11    0.68
  -1  -5   5    6.44    0.70
  -1  -5   5    7.06    0.64
  -1  -5   5    6.59    0.63
   0   5  -5   25.26    1.08
   0   5  -5   26.31    1.05
   0   5  -5   24.76    1.10
   0  -5   5   25.26    1.10
   0  -5   5   24.95    0.98
   0  -5   5   25.06    1.04
  -1   5  -5   10.38    0.66
  -1   5  -5    9.79    0.72
  -1   5  -5   10.13    0.80
   1  -5   5   10.53    0.73
   1  -5   5   11.05    0.64
  -2   5  -5    0.26    0.32
  -3   5  -5    3.01    0.50
  -4   5  -5    0.31    0.28
  -5   5  -5    2.67    0.50
  -4  -4   5    0.79    0.61
  -4  -4   5    0.24    0.35
  -3  -4   5    2.93    0.66
  -3  -4   5    2.35    0.44
  -2  -4   5    3.05    0.60
  -2  -4   5    1.79    0.37
   1   4  -5   12.11    0.72
   1   4  -5   13.04    0.74
   1   4  -5   13.65    0.79
  -1  -4   5   12.96    0.67
  -1  -4   5   13.51    0.69
  -1  -4   5   14.20    0.74
   0   4  -5   36.37    1.18
   0   4  -5   36.05    1.12
   0   4  -5   35.66    1.17
   0  -4   5   35.07    1.06
   0  -4   5   35.42    1.18
   0  -4   5   35.23    1.12
  -1   4  -5   19.29    0.82
  -1   4  -5   21.30    0.93
  -1   4  -5   18.02    0.73
   1  -4   5   19.70    0.86
   1  -4   5   19.60    0.77
  -2   4  -5    5.38    0.57
   2  -4   5    5.46    0.40
   2  -4   5    5.15    0.54
  -3   4  -5    3.65    0.50
  -4   4  -5    0.93    0.35
  -5   4  -5    1.19    0.34
  -5  -3   5    0.85    0.48
  -4  -3   5    0.42    0.70
  -4  -3   5    0.95    0.36
  -3  -3   5    3.12    0.64
  -3  -3   5    2.48    0.39
  -2  -3   5   10.81    0.76
  -2  -3   5   10.82    0.59
   1   3  -5    3.69    0.39
   1   3  -5    3.65    0.42
  -1  -3   5    3.15    0.37
  -1  -3   5    3.28    0.34
  -1  -3   5    2.24    0.33
   0   3  -5   34.79    0.99
   0   3  -5   32.51    1.01
   0   3  -5   32.88    0.96
   0  -3   5   33.12    0.90
   0  -3   5   31.60    0.94
   0  -3   5   32.15    1.01
  -1   3  -5    6.47    0.53
  -1   3  -5    7.25    0.45
  -1   3  -5    7.03    0.51
   1  -3   5    7.53    0.54
   1  -3   5    7.38    0.43
  -2   3  -5   19.52    0.83
   2  -3   5   20.46    0.60
  -3   3  -5    3.09    0.44
  -4   3  -5    2.86    0.43
  -5   3  -5    1.09    0.33
  -5  -2   5   -0.14    0.90
  -4  -2   5    3.82    0.89
  -4  -2   5    4.14    0.48
  -3  -2   5    3.22    0.62
  -3  -2   5    1.72    0.31
  -2  -2   5    1.20    0.25
  -2  -2   5    1.75    0.44
   1   2  -5    0.43    0.21
   1   2  -5    0.09    0.15
  -1  -2   5    0.01    0.21
  -1  -2   5    0.27    0.18
  -1  -2   5    0.10    0.16
  -1  -2   5    0.28    0.31
   0   2  -5   11.42    0.55
   0   2  -5   10.96    0.55
   0   2  -5   11.21    0.59
   0  -2   5   11.50    0.57
   0  -2   5   11.24    0.49
   0  -2   5   11.79    0.61
  -1   2  -5   17.58    0.65
  -1   2  -5   18.18    0.66
  -1   2  -5   18.21    0.59
   1  -2   5   18.08    0.65
   1  -2   5   18.01    0.56
  -2   2  -5    9.52    0.55
  -3   2  -5    2.22    0.34
  -4   2  -5    1.21    0.30
  -5   2  -5    0.01    0.27
  -5  -1   5    2.96    1.04
  -4  -1   5    2.15    0.34
  -4  -1   5    2.10    0.77
  -3  -1   5    7.25    0.42
  -3  -1   5    8.07    0.97
  -2  -1   5    3.97    0.57
  -2  -1   5    3.00    0.25
  -2  -1   5    3.91    0.30
   1   1  -5   28.68    0.63
   1   1  -5   28.13    0.56
  -1  -1   5   28.37    0.69
  -1  -1   5   27.94    0.65
  -1  -1   5   28.38    0.91
   0   1  -5   35.61    0.82
   0   1  -5   37.44    0.81
   0   1  -5   35.30    0.76
   0  -1   5   35.98    0.79
   0  -1   5   28.91    0.81
   0  -1   5   36.10    0.72
  -1   1  -5    2.42    0.27
  -1   1  -5    2.86    0.29
  -1   1  -5    2.93    0.32
   1  -1   5    2.52    0.27
   1  -1   5    2.66    0.33
  -2   1  -5   39.39    0.96
  -3   1  -5   40.04    1.05
  -4   1  -5    2.71    0.38
  -5   1  -5    0.85    0.34
  -5   0   5   -1.42    0.76
  -4   0   5   -0.20    0.59
  -3   0   5    0.41    0.45
  -2   0   5    3.73    0.57
  -1   0   5    6.87    0.31
  -1   0   5    8.04    0.60
   0   0  -5    3.64    0.30
   0   0  -5    4.68    0.35
   0   0  -5    4.22    0.34
   0   0   5    4.01    0.33
   0   0   5    4.19    0.30
   0   0   5    4.11    0.27
  -1   0  -5    0.98    0.26
  -1   0  -5    0.42    0.17
  -1   0  -5    0.50    0.22
   1   0   5    0.57    0.21
   1   0   5    0.36    0.22
   1   0   5    0.65    0.25
  -2   0  -5   11.63    0.56
  -2   0  -5   10.85    0.66
   2   0   5   10.90    0.49
  -3   0  -5   17.10    0.72
  -4   0  -5    2.91    0.43
  -5   0  -5    0.22    0.32
  -5   1   5    1.15    0.83
  -4   1   5    7.40    1.07
  -3   1   5    0.31    0.47
  -2   1   5   47.36    1.40
  -1   1   5    1.53    0.43
  -1   1   5    1.76    0.21
   0  -1  -5    6.10    0.43
   0  -1  -5    5.21    0.36
   0  -1  -5    5.56    0.42
   0   1   5    4.32    0.38
   0   1   5    5.50    0.46
   0   1   5    5.46    0.41
  -1  -1  -5    1.95    0.26
  -1  -1  -5    3.33    0.26
  -1  -1  -5    2.09    0.25
  -1  -1  -5    2.96    0.36
  -1  -1  -5    2.93    0.33
   1   1   5    2.65    0.38
   1   1   5    2.78    0.35
   1   1   5    2.94    0.26
  -2  -1  -5    5.37    0.54
  -2  -1  -5    4.86    0.43
   2   1   5    4.51    0.41
  -3  -1  -5    0.89    0.30
  -3  -1  -5    0.46    0.48
  -4  -1  -5    0.62    0.55
  -4  -1  -5    0.19    0.28
  -5  -1  -5    0.13    0.32
  -4   2   5    0.11    0.57
  -3   2   5   18.92    1.13
  -2   2   5   26.60    1.08
  -2   2   5   25.60    0.64
  -2   2   5   26.70    0.64
   1  -2  -5   28.84    0.72
   1  -2  -5   26.57    0.65
  -1   2   5   28.05    0.73
   0  -2  -5    0.47    0.25
   0  -2  -5    0.73    0.21
   0  -2  -5    0.33    0.23
   0  -2  -5    0.48    0.22
   0   2   5    0.25    0.23
   0   2   5    0.24    0.25
   0   2   5    0.06    0.24
  -1  -2  -5   63.82    1.16
  -1  -2  -5   65.29    1.41
  -1  -2  -5   64.27    1.34
  -1  -2  -5   64.66    1.30
  -1  -2  -5   64.45    1.43
   1   2   5   65.60    1.51
   1   2   5   64.37    1.32
   1   2   5   63.61    1.47
  -2  -2  -5   17.87    0.73
  -2  -2  -5   17.64    0.69
  -2  -2  -5   17.62    0.81
   2   2   5   16.89    0.78
   2   2   5   17.95    0.73
   2   2   5   16.75    0.87
  -3  -2  -5    0.47    0.28
  -3  -2  -5    1.12    0.54
  -4  -2  -5    2.00    0.43
  -5  -2  -5    1.08    0.42
  -4   3   5    2.74    0.34
   3  -3  -5    2.03    0.26
  -3   3   5    2.57    0.31
   2  -3  -5    2.71    0.28
  -2   3   5    3.23    0.37
  -2   3   5    3.20    0.31
   1  -3  -5    4.06    0.35
   1  -3  -5    4.96    0.40
   1  -3  -5    4.98    0.49
  -1   3   5    4.42    0.48
  -1   3   5    3.92    0.33
  -1   3   5    4.44    0.37
   0  -3  -5    3.21    0.42
   0  -3  -5    3.31    0.45
   0  -3  -5    2.11    0.29
   0  -3  -5    2.24    0.36
   0   3   5    1.58    0.35
   0   3   5    1.46    0.36
   0   3   5    2.79    0.42
  -1  -3  -5    3.76    0.45
  -1  -3  -5    2.86    0.41
  -1  -3  -5    3.83    0.43
  -1  -3  -5    3.52    0.34
  -1  -3  -5    2.80    0.44
   1   3   5    3.72    0.51
   1   3   5    2.64    0.43
  -2  -3  -5    3.40    0.41
  -2  -3  -5    4.26    0.48
  -2  -3  -5    4.22    0.50
  -2  -3  -5    3.61    0.43
   2   3   5    4.06    0.53
  -3  -3  -5    1.41    0.39
  -3  -3  -5    1.54    0.52
  -4  -3  -5    0.83    0.36
   4  -4  -5    1.36    0.35
  -4   4   5    1.38    0.33
   3  -4  -5    2.61    0.31
  -3   4   5    2.31    0.40
   2  -4  -5    3.81    0.40
  -2   4   5    4.36    0.49
   1  -4  -5   13.56    0.67
   1  -4  -5   14.76    0.74
   1  -4  -5   13.08    0.62
  -1   4   5   14.55    0.64
  -1   4   5   14.19    0.61
  -1   4   5   14.49    0.77
   0  -4  -5   14.45    0.70
   0  -4  -5   13.10    0.73
   0  -4  -5   13.48    0.72
   0   4   5   13.83    0.79
   0   4   5   14.56    0.82
   0   4   5   13.33    0.71
  -1  -4  -5   26.12    1.10
  -1  -4  -5   26.99    1.00
  -1  -4  -5   26.31    1.01
  -1  -4  -5   24.83    1.03
   1   4   5   26.64    1.20
   1   4   5   27.99    1.15
  -2  -4  -5    7.71    0.57
  -2  -4  -5    8.49    0.68
  -2  -4  -5    9.06    0.68
  -2  -4  -5    7.98    0.64
  -3  -4  -5    5.03    0.62
  -4  -4  -5    0.52    0.42
  -4   5   5   12.66    0.77
   3  -5  -5   10.23    0.63
  -3   5   5   10.48    0.75
   2  -5  -5   12.36    0.67
  -2   5   5   11.55    0.78
   1  -5  -5    0.83    0.37
   1  -5  -5    0.21    0.27
   1  -5  -5    0.55    0.29
  -1   5   5    0.50    0.34
  -1   5   5    0.57    0.32
  -1   5   5    0.21    0.35
   0  -5  -5   -0.08    0.26
   0  -5  -5    0.28    0.28
   0  -5  -5    0.27    0.28
   0   5   5    0.14    0.30
   0   5   5    0.00    0.34
   0   5   5    0.38    0.38
  -1  -5  -5    3.42    0.49
  -1  -5  -5    4.01    0.59
   1   5   5    3.90    0.68
   1   5   5    3.94    0.66
  -2  -5  -5   -0.38    0.25
  -2  -5  -5   -0.17    0.29
  -2  -5  -5    0.31    0.34
  -3  -5  -5    0.50    0.39
  -4  -5  -5   -0.23    0.37
   4  -6  -5    6.77    0.71
  -4   6   5    7.17    0.72
   3  -6  -5   11.95    0.78
  -3   6   5   13.42    0.94
   2  -6  -5    3.29    0.50
  -2   6   5    3.16    0.61
   1  -6  -5    1.65    0.42
   1  -6  -5    1.04    0.39
  -1   6   5    1.81    0.47
  -1   6   5    0.90    0.43
  -1   6   5    0.75    0.43
   0  -6  -5    5.63    0.69
   0  -6  -5    6.30    0.70
   0  -6  -5    5.29    0.71
   0   6   5    6.73    0.80
   0   6   5    5.63    0.81
  -1  -6  -5    0.55    0.35
   1   6   5    0.73    0.50
  -2  -6  -5    2.67    0.51
  -2  -6  -5    3.49    0.57
  -3  -6  -5    0.77    0.43
  -4   7   5    0.23    0.42
   3  -7  -5    1.66    0.48
  -3   7   5   -0.05    0.39
   2  -7  -5    0.98    0.41
  -2   7   5    0.71    0.45
   1  -7  -5    2.95    0.54
  -1   7   5    1.80    0.56
  -1   7   5    2.08    0.54
   0  -7  -5    3.41    0.56
   0  -7  -5    2.45    0.58
   0  -7  -5    3.58    0.67
   0   7   5    3.06    0.71
   0   7   5    2.93    0.74
  -1  -7  -5    0.75    0.40
   1   7   5   -0.18    0.44
  -2  -7  -5    1.36    0.50
  -2  -7  -5    1.45    0.51
  -3  -7  -5   -0.44    0.39
   3  -8  -5    0.13    0.43
  -3   8   5    0.02    0.42
   2  -8  -5    5.70    0.80
  -2   8   5    6.15    0.92
   1  -8  -5    5.25    0.80
  -1   8   5    4.15    0.70
  -1   8   5    2.87    0.69
   0  -8  -5    0.73    0.46
   0   8   5    0.90    0.65
   0   8   5    1.76    0.63
  -1  -8  -5    9.94    0.99
   1   8   5    7.07    1.01
  -2  -8  -5    0.14    0.41
  -2  -8  -5    0.63    0.51
  -3   9   5    3.32    0.69
   2  -9  -5    1.82    0.58
  -2   9   5    2.33    0.72
  -1   9   5    0.18    0.48
  -1   9   5    0.38    0.57
   0   9   5    8.03    1.16
   0   9   5    6.73    1.08
  -1  -9  -5    1.99    0.84
  -1  -9  -5    3.78    0.79
  -1  10   5    4.04    0.97
  -1  10   5    3.14    0.76
   0  10   5    2.55    0.88
  -1 -10   6    1.82    0.64
  -1 -10   6    1.97    0.59
   0  10  -6    0.18    0.55
   0 -10   6   -0.36    0.40
  -1  10  -6    0.14    0.52
  -1  10  -6   -0.56    0.61
  -2  10  -6    0.76    0.61
  -2  -9   6    2.03    0.55
  -2  -9   6    2.88    0.90
  -2  -9   6    1.18    0.55
  -1  -9   6    1.90    0.59
  -1  -9   6    2.63    0.59
   0   9  -6    0.13    0.51
   0  -9   6    0.51    0.45
  -1   9  -6    0.39    0.52
  -1   9  -6   -0.06    0.43
  -2   9  -6    6.73    0.72
  -2   9  -6    8.02    1.01
  -3   9  -6   -0.01    0.42
  -3  -8   6    0.73    0.55
  -3  -8   6    0.75    0.72
  -2  -8   6    1.78    0.73
  -2  -8   6    0.64    0.41
  -1  -8   6    0.15    0.37
  -1  -8   6    0.24    0.38
   0   8  -6    4.59    0.87
   0   8  -6    5.33    0.86
   0  -8   6    5.38    0.75
   0  -8   6    5.44    0.69
  -1   8  -6    8.10    0.97
  -1   8  -6    7.41    0.92
   1  -8   6    8.14    0.83
  -2   8  -6    0.69    0.42
  -2   8  -6   -0.01    0.37
  -3   8  -6    0.55    0.44
  -4   8  -6   -0.18    0.39
  -3  -7   6    1.34    0.52
  -3  -7   6    1.50    0.68
  -2  -7   6   -0.10    0.34
  -2  -7   6    0.37    0.52
   1   7  -6    0.53    0.43
  -1  -7   6    0.18    0.36
  -1  -7   6    0.67    0.39
   0   7  -6    0.17    0.45
   0   7  -6    0.02    0.40
   0  -7   6    1.00    0.42
   0  -7   6    0.01    0.31
  -1   7  -6    0.35    0.43
  -1   7  -6    0.53    0.40
   1  -7   6   -0.23    0.27
  -2   7  -6    0.95    0.37
  -2   7  -6    1.04    0.42
  -2   7  -6    0.82    0.39
  -3   7  -6    0.33    0.36
  -4   7  -6    0.85    0.46
  -4  -6   6   -0.56    0.70
  -4  -6   6    0.10    0.45
  -3  -6   6   -0.16    0.36
  -3  -6   6    0.43    0.56
  -2  -6   6   -0.46    0.38
  -2  -6   6   -0.19    0.32
  -2  -6   6   -0.12    0.38
   1   6  -6   33.38    1.36
  -1  -6   6   31.77    1.22
  -1  -6   6   32.97    1.23
   0   6  -6   20.67    1.12
   0   6  -6   20.30    1.09
   0  -6   6   20.06    1.04
   0  -6   6   20.18    1.00
  -1   6  -6    1.01    0.49
  -1   6  -6    0.57    0.39
   1  -6   6    0.29    0.33
   1  -6   6    0.71    0.30
  -2   6  -6    3.40    0.58
  -2   6  -6    3.89    0.46
  -3   6  -6   -0.09    0.30
  -4   6  -6    0.08    0.30
  -4  -5   6   -0.13    0.61
  -4  -5   6   -0.33    0.40
  -3  -5   6    3.35    0.59
  -3  -5   6    2.44    0.66
  -2  -5   6    4.22    0.61
  -2  -5   6    6.66    0.85
   1   5  -6    7.32    0.67
   1   5  -6    8.91    0.74
  -1  -5   6    8.24    0.64
  -1  -5   6    7.44    0.62
  -1  -5   6    7.17    0.70
   0   5  -6   -0.05    0.30
   0   5  -6    0.00    0.33
   0   5  -6    0.14    0.28
   0  -5   6    0.05    0.32
   0  -5   6    0.01    0.28
   0  -5   6    0.00    0.26
  -1   5  -6    3.35    0.49
  -1   5  -6    1.96    0.45
  -1   5  -6    2.40    0.50
   1  -5   6    2.19    0.38
   1  -5   6    1.11    0.36
  -2   5  -6   14.76    0.86
  -3   5  -6   -0.01    0.27
  -4   5  -6    0.75    0.35
  -5   5  -6    0.27    0.32
  -4  -4   6   -0.13    0.58
  -4  -4   6    0.47    0.38
  -3  -4   6    0.76    0.48
  -3  -4   6   -0.02    0.29
  -2  -4   6    0.53    0.32
  -2  -4   6    0.95    0.44
   1   4  -6    4.72    0.59
   1   4  -6    4.15    0.47
  -1  -4   6    3.68    0.53
  -1  -4   6    3.66    0.44
  -1  -4   6    4.20    0.45
   0   4  -6    1.50    0.39
   0   4  -6    1.29    0.33
   0   4  -6    1.70    0.37
   0  -4   6    1.30    0.33
   0  -4   6    1.31    0.34
   0  -4   6    1.30    0.30
  -1   4  -6    6.02    0.58
  -1   4  -6    7.26    0.66
  -1   4  -6    6.60    0.57
   1  -4   6    4.65    0.51
   1  -4   6    5.90    0.49
  -2   4  -6    6.40    0.61
   2  -4   6    6.76    0.45
   2  -4   6    5.36    0.58
  -3   4  -6   12.15    0.82
  -4   4  -6    0.57    0.31
  -5   4  -6    1.25    0.37
  -5  -3   6    1.94    0.51
  -4  -3   6    0.79    0.33
  -4  -3   6    0.93    0.76
  -3  -3   6    5.03    0.50
  -3  -3   6    5.92    0.82
  -2  -3   6   11.28    0.64
  -2  -3   6   12.02    0.83
   1   3  -6   18.60    0.80
   1   3  -6   18.49    0.71
  -1  -3   6   18.64    0.73
  -1  -3   6   18.56    0.74
  -1  -3   6   18.45    0.67
   0   3  -6    6.15    0.51
   0   3  -6    6.39    0.55
   0   3  -6    6.23    0.53
   0  -3   6    4.73    0.42
   0  -3   6    5.19    0.53
   0  -3   6    5.24    0.46
  -1   3  -6   21.10    0.84
  -1   3  -6   22.13    0.74
  -1   3  -6   22.21    0.78
   1  -3   6   23.25    0.83
   1  -3   6   22.40    0.72
  -2   3  -6    2.55    0.40
   2  -3   6    2.31    0.30
  -3   3  -6    2.11    0.40
  -4   3  -6   -0.09    0.25
  -5   3  -6    0.59    0.31
  -5  -2   6   -0.09    0.85
  -4  -2   6    1.58    0.34
  -4  -2   6    1.87    0.82
  -3  -2   6   -0.03    0.45
  -3  -2   6    0.34    0.23
  -2  -2   6   15.57    0.62
  -2  -2   6   16.49    0.93
   1   2  -6   21.92    0.71
   1   2  -6   22.23    0.66
  -1  -2   6   22.06    0.58
  -1  -2   6   22.19    0.83
  -1  -2   6   21.69    0.68
  -1  -2   6   23.01    0.65
   0   2  -6   48.47    1.09
   0   2  -6   48.15    1.17
   0   2  -6   48.58    1.10
   0  -2   6   48.65    1.18
   0  -2   6   48.53    1.04
   0  -2   6   48.33    1.12
  -1   2  -6    1.60    0.32
  -1   2  -6    1.56    0.29
  -1   2  -6    1.69    0.28
   1  -2   6    1.35    0.22
   1  -2   6    1.53    0.32
  -2   2  -6   29.39    0.96
   2  -2   6   31.50    0.78
  -3   2  -6    4.06    0.47
  -4   2  -6   -0.16    0.23
  -5   2  -6    0.00    0.28
  -5  -1   6    0.51    0.88
  -4  -1   6    0.18    0.20
  -4  -1   6    0.12    0.60
  -3  -1   6   -0.15    0.17
  -3  -1   6    0.25    0.51
  -2  -1   6    0.44    0.17
  -2  -1   6    0.86    0.41
   1   1  -6    3.29    0.26
   1   1  -6    4.04    0.32
  -1  -1   6    3.30    0.27
  -1  -1   6    4.63    0.54
   0   1  -6   57.45    1.09
   0   1  -6   57.27    1.13
   0   1  -6   58.12    1.19
   0  -1   6   59.57    1.08
   0  -1   6   57.23    1.14
  -1   1  -6    9.05    0.49
  -1   1  -6    8.80    0.48
  -1   1  -6    8.19    0.46
   1  -1   6    8.47    0.44
   1  -1   6    9.25    0.49
  -2   1  -6   13.17    0.60
   2  -1   6   13.04    0.51
  -3   1  -6   25.95    0.92
  -4   1  -6   -0.28    0.21
  -5   1  -6   -0.40    0.27
  -5   0   6   -0.29    0.81
  -4   0   6   -0.67    0.65
  -3   0   6    6.18    0.87
  -2   0   6    2.26    0.16
  -2   0   6    2.28    0.51
   1   0  -6   25.76    0.50
  -1   0   6   25.83    0.57
  -1   0   6   24.66    0.91
   0   0  -6   -0.01    0.19
   0   0  -6    0.19    0.13
   0   0  -6   -0.07    0.18
   0   0   6    0.17    0.25
   0   0   6    0.25    0.21
   0   0   6   -0.01    0.20
  -1   0  -6    8.55    0.48
  -1   0  -6    7.62    0.47
  -1   0  -6    8.12    0.51
   1   0   6    8.10    0.49
   1   0   6    8.54    0.46
  -2   0  -6   11.23    0.55
   2   0   6   10.76    0.52
  -3   0  -6    5.25    0.50
  -4   0  -6    2.32    0.42
  -5   0  -6    0.74    0.37
  -5   1   6   -0.91    0.75
  -4   1   6    0.30    0.59
  -3   1   6   10.00    1.05
  -2   1   6   10.28    0.79
  -2   1   6   10.31    0.31
   1  -1  -6   10.73    0.36
   1  -1  -6   11.53    0.41
  -1   1   6   11.76    0.43
  -1   1   6   11.19    0.67
   0  -1  -6    9.78    0.55
   0  -1  -6    9.83    0.43
   0  -1  -6   10.16    0.51
   0   1   6   10.45    0.52
   0   1   6    8.27    0.53
   0   1   6   10.43    0.48
  -1  -1  -6   -0.07    0.22
  -1  -1  -6    0.08    0.21
  -1  -1  -6    0.05    0.16
  -1  -1  -6    0.24    0.20
   1   1   6   -0.01    0.23
   1   1   6    0.22    0.22
  -2  -1  -6    9.20    0.55
  -2  -1  -6    8.11    0.60
   2   1   6    8.46    0.61
   2   1   6    8.30    0.52
  -3  -1  -6    9.97    0.64
  -3  -1  -6    9.18    0.82
  -4  -1  -6    0.22    0.28
  -5  -1  -6    0.13    0.33
  -4   2   6    1.25    0.72
  -3   2   6    0.09    0.50
  -2   2   6   31.36    1.27
  -2   2   6   31.72    0.75
   1  -2  -6    0.53    0.18
   1  -2  -6    0.94    0.24
  -1   2   6    0.72    0.36
  -1   2   6    0.87    0.24
   0  -2  -6  186.44    2.70
   0  -2  -6  188.01    3.02
   0  -2  -6  184.73    2.81
   0  -2  -6  188.80    2.77
   0  -2  -6  189.37    3.03
   0   2   6  189.08    3.01
   0   2   6  201.46    3.02
   0   2   6  186.63    3.05
  -1  -2  -6   18.16    0.69
  -1  -2  -6   19.28    0.73
  -1  -2  -6   20.36    0.78
  -1  -2  -6   19.52    0.79
   1   2   6   19.72    0.82
   1   2   6   20.11    0.82
  -2  -2  -6    4.53    0.42
  -2  -2  -6    5.10    0.50
  -2  -2  -6    5.14    0.49
  -2  -2  -6    6.02    0.47
   2   2   6    4.56    0.49
   2   2   6    4.68    0.58
  -3  -2  -6    1.79    0.57
  -3  -2  -6    1.63    0.37
  -4  -2  -6    3.33    0.53
  -4   3   6    1.11    0.26
  -3   3   6    0.92    0.27
   2  -3  -6   19.63    0.64
  -2   3   6   18.65    0.71
   1  -3  -6    0.12    0.18
   1  -3  -6    0.63    0.27
   1  -3  -6    0.32    0.20
  -1   3   6    0.48    0.20
  -1   3   6   -0.06    0.19
  -1   3   6    0.34    0.26
   0  -3  -6    9.04    0.57
   0  -3  -6    9.65    0.52
   0  -3  -6   10.18    0.61
   0   3   6   10.02    0.65
   0   3   6   10.18    0.69
   0   3   6   10.17    0.61
  -1  -3  -6   49.07    1.23
  -1  -3  -6   47.90    1.34
  -1  -3  -6   48.10    1.01
  -1  -3  -6   47.62    1.30
  -1  -3  -6   47.85    1.23
   1   3   6   49.23    1.44
   1   3   6   46.86    1.34
  -2  -3  -6    2.96    0.44
  -2  -3  -6    3.88    0.44
  -2  -3  -6    2.65    0.40
  -2  -3  -6    3.11    0.43
   2   3   6    3.22    0.51
  -3  -3  -6    4.15    0.55
  -3  -3  -6    4.30    0.64
  -4  -3  -6    1.28    0.43
   4  -4  -6    0.07    0.28
  -4   4   6    0.20    0.25
   3  -4  -6    7.45    0.49
  -3   4   6    6.06    0.56
   2  -4  -6    3.03    0.37
  -2   4   6    3.18    0.44
   1  -4  -6    0.03    0.22
   1  -4  -6    0.11    0.21
   1  -4  -6    0.31    0.27
  -1   4   6    0.22    0.22
  -1   4   6    0.46    0.28
  -1   4   6    0.17    0.28
   0  -4  -6    0.00    0.24
   0  -4  -6   -0.04    0.25
   0  -4  -6   -0.15    0.18
   0   4   6    0.24    0.33
   0   4   6   -0.23    0.26
   0   4   6   -0.33    0.24
  -1  -4  -6    1.88    0.38
  -1  -4  -6    2.66    0.38
  -1  -4  -6    1.28    0.41
  -1  -4  -6    2.19    0.38
   1   4   6    2.14    0.53
   1   4   6    1.18    0.40
  -2  -4  -6    0.76    0.39
  -2  -4  -6    1.67    0.41
  -2  -4  -6    1.00    0.35
  -2  -4  -6    0.37    0.31
  -3  -4  -6    0.87    0.35
  -4  -4  -6    0.43    0.42
   4  -5  -6    0.48    0.36
  -4   5   6   -0.13    0.28
   3  -5  -6    3.89    0.48
  -3   5   6    3.30    0.55
   2  -5  -6    3.51    0.43
  -2   5   6    3.79    0.57
   1  -5  -6    3.45    0.45
   1  -5  -6    2.04    0.37
   1  -5  -6    3.17    0.51
  -1   5   6    3.26    0.47
  -1   5   6    2.69    0.54
  -1   5   6    2.52    0.46
   0  -5  -6    0.39    0.29
   0  -5  -6    0.19    0.26
   0  -5  -6   -0.04    0.29
   0   5   6   -0.03    0.38
   0   5   6    0.35    0.38
  -1  -5  -6    3.37    0.53
  -1  -5  -6    2.66    0.47
  -1  -5  -6    3.10    0.57
   1   5   6    4.04    0.70
   1   5   6    3.44    0.63
  -2  -5  -6    1.46    0.39
  -2  -5  -6    1.80    0.43
  -3  -5  -6    3.71    0.59
  -4  -5  -6   -0.03    0.37
   4  -6  -6    0.44    0.42
  -4   6   6   -0.07    0.33
   3  -6  -6    1.75    0.43
  -3   6   6    1.14    0.44
   2  -6  -6    2.25    0.45
   1  -6  -6   -0.01    0.31
   1  -6  -6    0.35    0.32
  -1   6   6   -0.26    0.36
  -1   6   6    0.34    0.41
  -1   6   6    0.54    0.36
   0  -6  -6   -0.02    0.27
   0  -6  -6   -0.07    0.30
   0  -6  -6   -0.29    0.31
   0   6   6    0.40    0.43
   0   6   6    0.31    0.47
  -1  -6  -6    2.23    0.47
   1   6   6    2.84    0.68
  -2  -6  -6    0.26    0.39
  -2  -6  -6    0.26    0.37
  -3  -6  -6    0.39    0.48
   4  -7  -6    0.77    0.48
  -4   7   6    0.04    0.40
   3  -7  -6    6.98    0.77
  -3   7   6    8.00    0.94
   2  -7  -6    2.78    0.53
  -2   7   6    2.35    0.59
   1  -7  -6    0.46    0.39
  -1   7   6    0.69    0.50
  -1   7   6   -0.20    0.40
   0  -7  -6    6.90    0.85
   0  -7  -6    5.07    0.68
   0   7   6    6.43    0.93
   0   7   6    6.46    0.93
  -1  -7  -6    0.79    0.41
   1   7   6    0.73    0.53
  -2  -7  -6    1.25    0.49
  -2  -7  -6    1.66    0.50
  -3  -7  -6   -0.16    0.39
   3  -8  -6    1.65    0.59
  -3   8   6    2.10    0.66
   2  -8  -6    1.44    0.52
  -2   8   6    0.19    0.45
   1  -8  -6    0.76    0.48
  -1   8   6    0.18    0.47
  -1   8   6    0.38    0.47
   0  -8  -6    0.42    0.46
   0   8   6    0.49    0.49
   0   8   6    0.35    0.60
  -1  -8  -6   -0.29    0.55
  -1  -8  -6    0.18    0.45
  -2  -8  -6    1.24    0.51
  -2  -8  -6    1.44    0.56
   3  -9  -6    0.97    0.55
  -3   9   6    1.15    0.61
   2  -9  -6    1.75    0.60
  -2   9   6    4.23    0.93
  -1   9   6   -0.18    0.53
  -1   9   6   -0.08    0.49
   0   9   6   -0.25    0.63
   0   9   6    0.55    0.66
  -1  -9  -6   -0.18    0.64
  -1  -9  -6    0.94    0.54
  -1  10   6    0.47    0.68
  -1  10   6   -0.33    0.53
   0  10   6    3.53    0.98
  -1 -10   7    0.87    0.52
  -1 -10   7    0.54    0.46
   0  10  -7    0.47    0.61
   0 -10   7   -0.41    0.40
  -1  10  -7    1.41    0.64
  -1  10  -7    1.04    0.66
  -2  10  -7    0.33    0.45
  -2  10  -7    0.20    0.53
  -2  -9   7    1.71    0.60
  -2  -9   7    1.38    0.79
  -2  -9   7    1.11    0.46
  -1  -9   7    3.58    0.69
  -1  -9   7    4.12    0.69
   0   9  -7    8.40    1.13
   0  -9   7    8.35    0.93
  -1   9  -7    0.19    0.52
  -1   9  -7   -0.01    0.43
  -2   9  -7    0.75    0.50
  -2   9  -7    1.05    0.44
  -3   9  -7    0.18    0.39
  -3  -8   7    0.79    0.68
  -3  -8   7   -0.32    0.50
  -2  -8   7    2.99    0.73
  -2  -8   7    2.22    0.59
  -1  -8   7    0.54    0.40
  -1  -8   7    0.33    0.36
   0   8  -7    1.66    0.61
   0   8  -7    0.79    0.52
   0  -8   7    1.34    0.45
   0  -8   7    1.19    0.44
  -1   8  -7    3.25    0.72
  -1   8  -7    1.59    0.58
   1  -8   7    1.14    0.44
  -2   8  -7    0.08    0.38
  -2   8  -7   -0.21    0.37
  -3   8  -7    0.13    0.39
  -4   8  -7    1.65    0.57
  -3  -7   7   -0.09    0.37
  -3  -7   7    0.29    0.61
  -2  -7   7   -0.02    0.48
  -2  -7   7   -0.33    0.29
   1   7  -7    1.42    0.53
  -1  -7   7    1.47    0.45
  -1  -7   7    1.37    0.48
   0   7  -7    2.43    0.57
   0   7  -7    3.47    0.69
   0  -7   7    2.58    0.53
   0  -7   7    2.65    0.53
  -1   7  -7    0.44    0.44
  -1   7  -7    0.17    0.36
   1  -7   7   -0.14    0.27
  -2   7  -7    1.04    0.39
  -2   7  -7    0.94    0.38
  -2   7  -7    1.65    0.50
  -3   7  -7    2.18    0.58
  -4   7  -7    0.48    0.39
  -4  -6   7    0.17    0.45
  -4  -6   7   -0.13    0.68
  -3  -6   7    0.05    0.49
  -3  -6   7    0.27    0.36
  -2  -6   7   11.58    0.71
  -2  -6   7   10.58    0.87
  -2  -6   7   12.49    0.87
   1   6  -7   39.34    1.44
  -1  -6   7   39.56    1.38
  -1  -6   7   39.35    1.40
   0   6  -7   30.18    1.32
   0   6  -7   29.59    1.29
   0  -6   7   29.86    1.15
   0  -6   7   28.81    1.24
  -1   6  -7    5.83    0.69
  -1   6  -7    6.56    0.80
   1  -6   7    5.84    0.63
   1  -6   7    4.81    0.66
  -2   6  -7    3.96    0.50
  -2   6  -7    3.54    0.61
  -2   6  -7    4.08    0.48
  -3   6  -7    0.34    0.32
  -4   6  -7   -0.08    0.31
  -4  -5   7    0.60    0.43
  -4  -5   7    0.42    0.71
  -3  -5   7    1.48    0.57
  -3  -5   7    1.28    0.42
  -2  -5   7    3.83    0.73
  -2  -5   7    1.87    0.41
   1   5  -7    6.89    0.73
   1   5  -7    7.09    0.66
  -1  -5   7    7.08    0.62
  -1  -5   7    6.06    0.67
  -1  -5   7    7.01    0.67
   0   5  -7   23.88    1.01
   0   5  -7   22.32    1.04
   0   5  -7   22.52    1.00
   0  -5   7   23.83    1.09
   0  -5   7   23.42    0.93
   0  -5   7   22.17    0.97
  -1   5  -7    2.34    0.44
  -1   5  -7    3.95    0.60
  -1   5  -7    3.52    0.48
   1  -5   7    1.95    0.43
   1  -5   7    2.42    0.42
  -2   5  -7   14.60    0.65
  -2   5  -7   12.28    0.84
  -3   5  -7    2.75    0.52
  -4   5  -7    2.31    0.54
  -4  -4   7    3.32    0.57
  -4  -4   7    1.76    0.79
  -3  -4   7    0.76    0.54
  -3  -4   7    0.81    0.36
  -2  -4   7    1.15    0.45
  -2  -4   7    0.41    0.31
   1   4  -7   21.72    0.89
   1   4  -7   23.01    0.99
  -1  -4   7   23.38    0.90
  -1  -4   7   22.78    0.93
  -1  -4   7   23.18    0.86
   0   4  -7   70.33    1.74
   0   4  -7   70.26    1.69
   0   4  -7   70.74    1.68
   0  -4   7   71.13    1.57
   0  -4   7   69.68    1.75
   0  -4   7   69.48    1.67
  -1   4  -7   17.16    0.87
  -1   4  -7   17.07    0.74
  -1   4  -7   17.47    0.84
   1  -4   7   17.17    0.75
   1  -4   7   17.19    0.84
  -2   4  -7    0.21    0.26
   2  -4   7   -0.01    0.22
   2  -4   7   -0.11    0.33
  -3   4  -7    8.30    0.72
  -4   4  -7    0.06    0.25
  -5   4  -7    0.11    0.32
  -4  -3   7   -0.31    0.58
  -4  -3   7   -0.55    0.28
  -3  -3   7   -0.66    0.25
  -3  -3   7    0.10    0.46
  -2  -3   7    1.33    0.48
  -2  -3   7    0.71    0.27
   1   3  -7    9.67    0.58
   1   3  -7   10.67    0.61
  -1  -3   7   10.02    0.58
  -1  -3   7   10.40    0.56
  -1  -3   7   10.53    0.51
   0   3  -7   -0.06    0.26
   0   3  -7    0.04    0.19
   0   3  -7    0.33    0.23
   0  -3   7    0.19    0.25
   0  -3   7    0.38    0.22
   0  -3   7   -0.03    0.17
  -1   3  -7   18.98    0.78
  -1   3  -7   17.96    0.68
  -1   3  -7   17.91    0.76
   1  -3   7   18.33    0.77
   1  -3   7   16.90    0.66
  -2   3  -7    0.61    0.29
   2  -3   7    0.27    0.32
   2  -3   7    0.57    0.23
  -3   3  -7    0.78    0.31
  -4   3  -7    5.69    0.59
  -5   3  -7   -0.23    0.28
  -5  -2   7    0.25    0.93
  -4  -2   7    0.72    0.31
  -4  -2   7    0.19    0.69
  -3  -2   7    0.18    0.51
  -3  -2   7    0.02    0.22
  -2  -2   7    4.64    0.65
  -2  -2   7    4.31    0.38
   1   2  -7   48.76    1.14
   1   2  -7   48.10    1.00
  -1  -2   7   47.77    1.28
  -1  -2   7   49.10    0.98
  -1  -2   7   48.10    0.95
  -1  -2   7   47.58    1.07
   0   2  -7    0.95    0.25
   0   2  -7    0.65    0.27
   0   2  -7    0.57    0.24
   0  -2   7    0.52    0.33
   0  -2   7    0.78    0.28
   0  -2   7    0.55    0.22
  -1   2  -7   36.55    0.94
  -1   2  -7   34.84    0.99
  -1   2  -7   35.94    1.01
   1  -2   7   35.63    0.88
   1  -2   7   37.41    1.01
  -2   2  -7    1.35    0.30
   2  -2   7    1.21    0.26
  -3   2  -7    1.32    0.30
  -4   2  -7    0.07    0.23
  -5   2  -7   -0.23    0.29
  -5  -1   7    1.31    0.97
  -4  -1   7    0.26    0.22
  -4  -1   7    0.44    0.65
  -3  -1   7    3.69    0.69
  -3  -1   7    3.75    0.36
  -2  -1   7   21.43    0.65
  -2  -1   7   22.64    1.07
   1   1  -7   27.98    0.61
   1   1  -7   27.37    0.70
  -1  -1   7   28.21    0.94
  -1  -1   7   27.07    0.70
   0   1  -7   23.47    0.70
   0   1  -7   22.75    0.72
   0   1  -7   23.75    0.67
   0  -1   7   22.84    0.65
   0  -1   7   20.40    0.78
   0  -1   7   23.03    0.71
  -1   1  -7   27.22    0.81
  -1   1  -7   26.59    0.75
  -1   1  -7   24.38    0.77
   1  -1   7   26.81    0.76
   1  -1   7   25.99    0.82
  -2   1  -7   58.78    1.31
   2  -1   7   57.87    1.16
  -3   1  -7    1.64    0.33
  -4   1  -7    2.52    0.43
  -5   1  -7    0.68    0.36
  -5   0   7    4.18    1.15
  -4   0   7    1.93    0.82
  -3   0   7    6.04    0.85
  -2   0   7    2.83    0.24
  -2   0   7    2.91    0.49
   1   0  -7   26.59    0.64
   1   0  -7   26.32    0.56
  -1   0   7   26.52    0.64
  -1   0   7   26.46    0.95
   0   0  -7   28.38    0.70
   0   0  -7   29.98    0.77
   0   0  -7   28.71    0.78
   0   0   7   27.87    0.75
   0   0   7   27.96    0.62
  -1   0  -7    8.99    0.50
  -1   0  -7    8.80    0.53
  -1   0  -7    8.38    0.51
   1   0   7    8.83    0.51
   1   0   7    9.00    0.54
  -2   0  -7   49.66    1.18
   2   0   7   50.45    1.15
   2   0   7   47.95    1.27
  -3   0  -7   26.99    0.97
  -4   0  -7    1.27    0.38
  -5   0  -7   -0.23    0.30
  -5   1   7    1.38    0.92
  -4   1   7    0.73    0.66
  -3   1   7    0.56    0.52
  -2   1   7   46.80    1.43
  -2   1   7   48.83    0.84
   1  -1  -7  162.25    2.39
   1  -1  -7  161.20    2.22
  -1   1   7  164.17    2.37
  -1   1   7  158.38    2.76
   0  -1  -7   34.67    0.90
   0  -1  -7   31.53    0.87
   0  -1  -7   31.78    0.79
   0   1   7   32.74    0.87
   0   1   7   32.10    0.89
  -1  -1  -7    2.88    0.34
  -1  -1  -7    3.03    0.38
  -1  -1  -7    3.05    0.38
  -1  -1  -7    3.00    0.34
   1   1   7    2.38    0.39
   1   1   7    2.59    0.37
  -2  -1  -7    2.98    0.41
  -2  -1  -7    2.46    0.36
  -2  -1  -7    2.38    0.31
   2   1   7    1.01    0.33
   2   1   7    1.85    0.33
  -3  -1  -7   -0.16    0.22
  -4  -1  -7   -0.15    0.25
  -5  -1  -7   -0.07    0.37
  -4   2   7    0.65    0.72
  -3   2   7    4.86    0.83
  -3   2   7    4.38    0.31
  -2   2   7   12.61    0.84
  -2   2   7   11.11    0.49
   1  -2  -7   13.19    0.58
   1  -2  -7   11.92    0.51
  -1   2   7   12.42    0.59
  -1   2   7   11.43    0.70
   0  -2  -7   16.54    0.66
   0  -2  -7   16.40    0.65
   0  -2  -7   16.35    0.70
   0   2   7   17.59    0.74
   0   2   7   17.07    0.72
   0   2   7   15.05    0.73
  -1  -2  -7   18.56    0.74
  -1  -2  -7   19.05    0.80
  -1  -2  -7   18.75    0.74
  -1  -2  -7   18.98    0.80
   1   2   7   19.73    0.82
   1   2   7   17.66    0.81
  -2  -2  -7    0.50    0.29
  -2  -2  -7    0.82    0.28
  -2  -2  -7    0.57    0.26
  -2  -2  -7    0.40    0.27
  -2  -2  -7    0.28    0.24
   2   2   7    0.73    0.35
   2   2   7    0.33    0.35
  -3  -2  -7   -0.40    0.39
  -3  -2  -7    0.18    0.28
  -4  -2  -7    0.67    0.37
  -4   3   7    1.06    0.27
   3  -3  -7   -0.31    0.19
  -3   3   7   -0.11    0.21
   2  -3  -7   14.32    0.58
  -2   3   7   14.14    0.65
   1  -3  -7    2.11    0.33
   1  -3  -7    2.06    0.29
   1  -3  -7    1.90    0.31
  -1   3   7    1.75    0.28
  -1   3   7    1.67    0.29
  -1   3   7    1.08    0.30
   0  -3  -7    7.12    0.53
   0  -3  -7    7.77    0.55
   0  -3  -7    6.68    0.54
   0   3   7    5.65    0.55
   0   3   7    6.52    0.57
   0   3   7    5.80    0.57
  -1  -3  -7    1.62    0.32
  -1  -3  -7    2.06    0.42
  -1  -3  -7    1.61    0.37
  -1  -3  -7    1.82    0.36
   1   3   7    1.92    0.44
   1   3   7    0.93    0.35
  -2  -3  -7    7.26    0.58
  -2  -3  -7    8.23    0.60
  -2  -3  -7    8.02    0.63
  -2  -3  -7    7.46    0.63
   2   3   7    7.65    0.74
  -3  -3  -7    4.34    0.55
  -4  -3  -7   -0.20    0.32
   4  -4  -7    4.19    0.45
  -4   4   7    4.48    0.49
   3  -4  -7   12.64    0.59
  -3   4   7   12.17    0.66
   2  -4  -7   17.17    0.70
  -2   4   7   16.23    0.80
   1  -4  -7    0.14    0.20
   1  -4  -7    0.78    0.29
   1  -4  -7    0.14    0.25
  -1   4   7   -0.26    0.25
  -1   4   7   -0.03    0.26
  -1   4   7    0.29    0.26
   0  -4  -7   19.22    0.92
   0  -4  -7   19.17    0.87
   0  -4  -7   19.54    0.81
   0   4   7   18.84    0.91
   0   4   7   18.77    0.94
   0   4   7   18.39    0.89
  -1  -4  -7    1.17    0.34
  -1  -4  -7    1.28    0.38
  -1  -4  -7    1.79    0.32
  -1  -4  -7    1.42    0.41
   1   4   7    1.41    0.47
   1   4   7    1.65    0.45
  -2  -4  -7    7.49    0.60
  -2  -4  -7    8.76    0.68
  -2  -4  -7    7.84    0.60
  -2  -4  -7    7.97    0.64
  -3  -4  -7    0.79    0.40
  -4  -4  -7    0.19    0.36
   4  -5  -7    0.40    0.35
  -4   5   7    0.09    0.30
   3  -5  -7    2.86    0.42
  -3   5   7    2.48    0.49
   2  -5  -7   67.78    1.58
  -2   5   7   68.79    1.79
   1  -5  -7   20.63    0.93
   1  -5  -7   20.70    0.86
  -1   5   7   20.57    0.91
  -1   5   7   21.35    0.84
  -1   5   7   20.59    1.03
   0  -5  -7    4.81    0.57
   0  -5  -7    5.33    0.65
   0  -5  -7    5.79    0.61
   0   5   7    5.74    0.69
   0   5   7    4.75    0.67
  -1  -5  -7    1.78    0.46
  -1  -5  -7    2.06    0.47
  -1  -5  -7    1.75    0.49
   1   5   7    1.96    0.55
   1   5   7    2.01    0.56
  -2  -5  -7   -0.02    0.30
  -2  -5  -7   -0.08    0.28
  -3  -5  -7    4.08    0.59
  -4  -5  -7    0.37    0.42
   4  -6  -7    0.65    0.41
  -4   6   7    0.39    0.41
   3  -6  -7    0.81    0.35
  -3   6   7    0.81    0.40
   2  -6  -7    1.15    0.38
  -2   6   7    0.65    0.46
   1  -6  -7    5.81    0.69
   1  -6  -7    5.24    0.66
  -1   6   7    5.75    0.65
  -1   6   7    6.13    0.80
   0  -6  -7    2.86    0.52
   0  -6  -7    2.99    0.58
   0  -6  -7    3.09    0.50
   0   6   7    3.46    0.68
   0   6   7    2.92    0.66
  -1  -6  -7    6.26    0.78
  -1  -6  -7    6.71    0.74
   1   6   7    5.15    0.82
  -2  -6  -7    1.98    0.52
  -2  -6  -7    3.28    0.58
  -3  -6  -7    0.31    0.46
   4  -7  -7    3.10    0.64
  -4   7   7    3.30    0.66
   3  -7  -7   -0.07    0.37
  -3   7   7    1.26    0.51
   2  -7  -7    0.51    0.38
  -2   7   7    2.51    0.60
   1  -7  -7    2.21    0.51
  -1   7   7    1.50    0.57
  -1   7   7    2.05    0.53
   0  -7  -7    0.54    0.40
   0  -7  -7    0.57    0.39
   0   7   7    0.79    0.53
   0   7   7    1.17    0.55
  -1  -7  -7   13.34    1.16
  -1  -7  -7   12.17    1.08
   1   7   7   12.89    1.29
  -2  -7  -7    7.60    0.90
  -2  -7  -7    9.13    0.98
  -3  -7  -7    0.39    0.50
   3  -8  -7    6.71    0.84
  -3   8   7    7.85    0.99
   2  -8  -7    1.57    0.54
  -2   8   7    1.95    0.65
   1  -8  -7    1.68    0.56
  -1   8   7    1.40    0.63
  -1   8   7    1.92    0.58
   0  -8  -7   -0.20    0.37
   0   8   7   -0.01    0.50
   0   8   7    0.69    0.59
  -1  -8  -7    0.90    0.60
  -1  -8  -7    0.78    0.47
  -2  -8  -7    0.81    0.60
  -2  -8  -7    0.19    0.45
  -3   9   7    0.70    0.57
   2  -9  -7    0.50    0.48
  -2   9   7    0.30    0.53
  -1   9   7    6.55    1.10
  -1   9   7    6.45    0.85
   0   9   7    0.15    0.60
   0   9   7    0.52    0.65
  -1  -9  -7    0.72    0.50
  -1  10   7   -0.39    0.56
  -1 -10   8   -0.36    0.40
  -1 -10   8   -0.90    0.40
   0  10  -8    1.52    0.70
   0 -10   8    0.80    0.54
  -1  10  -8    6.27    1.06
  -2  10  -8    1.05    0.61
  -2  10  -8    0.46    0.47
  -2  -9   8    1.29    0.61
  -2  -9   8    2.34    0.90
  -1  -9   8    0.97    0.48
  -1  -9   8    0.29    0.47
   0   9  -8    0.25    0.58
   0  -9   8    0.09    0.43
  -1   9  -8   -0.23    0.49
  -1   9  -8   -0.03    0.48
  -2   9  -8    0.46    0.44
  -2   9  -8   -0.18    0.45
  -3   9  -8   -0.29    0.40
  -3  -8   8    0.04    0.45
  -3  -8   8    0.21    0.68
  -2  -8   8    2.08    0.58
  -2  -8   8    1.88    0.72
  -1  -8   8    1.24    0.47
  -1  -8   8    2.50    0.59
   0   8  -8   11.64    1.25
   0   8  -8   12.25    1.22
   0  -8   8    9.82    0.95
   0  -8   8    7.47    0.90
  -1   8  -8    2.23    0.66
  -1   8  -8    1.84    0.55
   1  -8   8    1.49    0.48
  -2   8  -8    1.26    0.44
  -2   8  -8    0.36    0.41
  -3   8  -8    0.64    0.44
  -4   8  -8    0.84    0.44
  -3  -7   8    1.41    0.70
  -3  -7   8    0.76    0.50
  -2  -7   8    1.01    0.48
  -2  -7   8    1.01    0.56
   1   7  -8   -0.26    0.35
  -1  -7   8    0.10    0.27
  -1  -7   8   -0.20    0.35
   0   7  -8   13.51    1.18
   0   7  -8   10.98    0.93
   0  -7   8   10.10    0.82
   0  -7   8   10.34    0.83
  -1   7  -8    0.09    0.46
  -1   7  -8    0.12    0.35
   1  -7   8    0.11    0.33
  -2   7  -8    0.62    0.34
  -2   7  -8   -0.20    0.36
  -3   7  -8    1.98    0.55
  -4   7  -8    0.52    0.39
  -4  -6   8    0.79    0.48
  -4  -6   8    0.45    0.71
  -3  -6   8    0.57    0.52
  -3  -6   8    0.01    0.40
  -2  -6   8    0.29    0.45
  -2  -6   8    0.62    0.38
   1   6  -8    0.23    0.36
  -1  -6   8   -0.10    0.26
  -1  -6   8   -0.12    0.28
   0   6  -8    0.65    0.47
   0   6  -8   -0.01    0.34
   0  -6   8    0.62    0.36
   0  -6   8    0.29    0.34
  -1   6  -8    0.51    0.38
  -1   6  -8    0.57    0.40
   1  -6   8    0.55    0.37
   1  -6   8    0.39    0.34
  -2   6  -8    0.27    0.32
  -2   6  -8   -0.04    0.31
  -2   6  -8    0.28    0.29
  -3   6  -8    0.09    0.32
  -4   6  -8    0.55    0.34
  -4  -5   8   -0.47    0.36
  -4  -5   8    0.09    0.68
  -3  -5   8    0.23    0.34
  -3  -5   8    0.59    0.50
  -2  -5   8    1.13    0.37
  -2  -5   8    2.84    0.66
   1   5  -8   17.25    0.97
   1   5  -8   17.57    0.90
  -1  -5   8   16.55    0.91
  -1  -5   8   18.53    0.87
  -1  -5   8   16.71    0.86
   0   5  -8    1.37    0.40
   0   5  -8    1.66    0.45
   0   5  -8    1.24    0.38
   0  -5   8    0.89    0.40
   0  -5   8    0.71    0.35
   0  -5   8    1.22    0.35
  -1   5  -8    0.84    0.36
  -1   5  -8    1.01    0.42
  -1   5  -8    1.32    0.37
   1  -5   8    1.10    0.41
   1  -5   8    1.68    0.37
  -2   5  -8    0.53    0.31
  -2   5  -8    0.63    0.34
  -2   5  -8    0.43    0.28
  -3   5  -8    0.06    0.28
  -4   5  -8    0.31    0.32
  -4  -4   8    0.15    0.36
  -4  -4   8    0.19    0.62
  -3  -4   8    0.56    0.52
  -3  -4   8    0.21    0.28
  -2  -4   8   -0.12    0.25
  -2  -4   8    0.36    0.40
   1   4  -8    0.52    0.30
   1   4  -8    0.97    0.34
  -1  -4   8    0.32    0.28
  -1  -4   8    0.18    0.23
  -1  -4   8    0.42    0.30
   0   4  -8   -0.05    0.22
   0   4  -8   -0.09    0.20
   0   4  -8    0.22    0.31
   0  -4   8    0.54    0.27
   0  -4   8    0.12    0.30
   0  -4   8    0.18    0.24
  -1   4  -8    0.84    0.28
  -1   4  -8    0.64    0.28
  -1   4  -8    1.26    0.35
   1  -4   8    0.81    0.26
   1  -4   8    0.88    0.33
  -2   4  -8    2.36    0.45
  -2   4  -8    2.46    0.33
   2  -4   8    2.69    0.38
  -3   4  -8    4.64    0.58
  -4   4  -8    0.08    0.26
  -5   4  -8    0.22    0.31
  -4  -3   8    3.66    0.91
  -4  -3   8    4.58    0.56
  -3  -3   8    1.70    0.36
  -3  -3   8    1.37    0.58
  -2  -3   8    0.07    0.22
  -2  -3   8    0.28    0.42
   1   3  -8   25.86    0.83
   1   3  -8   25.67    0.95
  -1  -3   8   26.99    0.89
  -1  -3   8   24.41    0.85
  -1  -3   8   24.89    0.76
   0   3  -8   15.70    0.70
   0   3  -8   16.74    0.72
   0   3  -8   16.52    0.77
   0  -3   8   16.49    0.69
   0  -3   8   16.58    0.75
   0  -3   8   16.58    0.76
  -1   3  -8    2.68    0.41
  -1   3  -8    2.84    0.39
  -1   3  -8    3.34    0.42
   1  -3   8    1.93    0.30
   1  -3   8    2.63    0.40
  -2   3  -8   21.17    0.90
   2  -3   8   21.04    0.92
   2  -3   8   22.41    0.77
  -3   3  -8    1.14    0.34
  -4   3  -8    2.04    0.40
  -5   3  -8    0.36    0.34
  -5  -2   8    0.37    0.94
  -4  -2   8   -0.32    0.23
  -4  -2   8   -1.30    0.55
  -3  -2   8   17.56    1.15
  -3  -2   8   15.15    0.66
  -2  -2   8   14.82    0.93
  -2  -2   8   14.39    0.62
   1   2  -8   31.60    0.83
   1   2  -8   32.53    0.90
  -1  -2   8   32.52    1.04
  -1  -2   8   32.53    0.80
  -1  -2   8   32.99    0.77
  -1  -2   8   33.09    0.88
   0   2  -8  151.13    2.49
   0   2  -8  148.34    2.57
   0   2  -8  148.21    2.41
   0  -2   8  150.72    2.49
   0  -2   8  148.49    2.33
   0  -2   8  148.82    2.56
  -1   2  -8    0.26    0.25
  -1   2  -8    0.31    0.20
  -1   2  -8    0.17    0.20
   1  -2   8    0.51    0.23
   1  -2   8    0.21    0.25
  -2   2  -8   19.80    0.78
   2  -2   8   19.20    0.66
   2  -2   8   18.48    0.82
  -3   2  -8    8.95    0.61
  -4   2  -8    0.88    0.30
  -5   2  -8    0.07    0.29
  -5  -1   8    2.33    1.05
  -4  -1   8    3.67    0.38
  -4  -1   8    3.09    0.86
  -3  -1   8   12.94    1.04
  -3  -1   8   11.90    0.55
  -2  -1   8    7.64    0.80
  -2  -1   8    6.31    0.38
   1   1  -8    1.03    0.22
   1   1  -8    1.00    0.19
  -1  -1   8    0.86    0.37
  -1  -1   8    1.08    0.23
   0   1  -8    5.04    0.39
   0   1  -8    5.51    0.46
   0   1  -8    5.22    0.41
   0  -1   8    3.99    0.43
   0  -1   8    5.44    0.46
   0  -1   8    4.55    0.39
  -1   1  -8    2.72    0.36
  -1   1  -8    2.23    0.31
  -1   1  -8    2.36    0.31
   1  -1   8    2.90    0.38
   1  -1   8    2.28    0.31
  -2   1  -8    0.57    0.25
   2  -1   8    0.49    0.28
   2  -1   8    1.35    0.29
  -3   1  -8   -0.05    0.22
  -4   1  -8    5.13    0.55
  -5   1  -8    2.39    0.48
  -5   0   8    2.75    1.03
  -4   0   8    0.97    0.71
  -3   0   8    0.29    0.15
  -3   0   8    0.41    0.53
  -2   0   8   11.78    0.81
  -2   0   8   11.81    0.44
  -2   0   8   11.35    0.43
   1   0  -8    9.67    0.44
   1   0  -8    9.37    0.38
  -1   0   8    9.62    0.65
  -1   0   8    9.93    0.43
   0   0  -8    0.23    0.20
   0   0  -8    0.07    0.16
   0   0  -8    0.41    0.24
   0   0   8    0.25    0.25
   0   0   8    0.40    0.25
   0   0   8   -0.09    0.18
   0   0   8   -0.19    0.24
  -1   0  -8   13.32    0.58
  -1   0  -8   13.51    0.61
  -1   0  -8   13.17    0.60
   1   0   8   13.00    0.65
   1   0   8   12.26    0.58
  -2   0  -8    1.69    0.28
  -2   0  -8    2.55    0.37
   2   0   8    1.65    0.38
   2   0   8    1.90    0.33
  -3   0  -8    3.81    0.48
  -4   0  -8   -0.02    0.26
  -5   0  -8    0.05    0.32
  -5   1   8    0.74    0.83
  -4   1   8   -0.66    0.54
  -3   1   8    3.36    0.74
  -2   1   8    0.87    0.38
  -2   1   8    0.35    0.13
  -2   1   8    0.68    0.19
   1  -1  -8   44.15    0.98
   1  -1  -8   42.19    0.88
  -1   1   8   41.58    0.97
  -1   1   8   42.27    1.23
   0  -1  -8   12.62    0.63
   0  -1  -8   11.88    0.54
   0  -1  -8   12.19    0.58
   0   1   8   12.30    0.61
   0   1   8   12.29    0.63
  -1  -1  -8    6.77    0.53
  -1  -1  -8    7.04    0.51
  -1  -1  -8    6.29    0.48
  -1  -1  -8    6.71    0.51
   1   1   8    7.01    0.51
   1   1   8    6.34    0.52
  -2  -1  -8    1.84    0.31
  -2  -1  -8    2.26    0.33
  -2  -1  -8    1.59    0.30
  -2  -1  -8    1.93    0.35
   2   1   8    1.93    0.37
   2   1   8    1.07    0.37
  -3  -1  -8    0.44    0.28
  -4  -1  -8    0.08    0.28
  -5  -1  -8    0.83    0.40
  -4   2   8    0.40    0.68
  -3   2   8   -0.44    0.47
  -3   2   8    0.18    0.18
  -2   2   8   12.34    0.87
  -2   2   8   11.96    0.54
   1  -2  -8   33.63    0.90
   1  -2  -8   30.80    0.80
  -1   2   8   32.14    0.72
  -1   2   8   31.15    0.72
  -1   2   8   31.58    0.93
  -1   2   8   31.87    1.02
   0  -2  -8    0.04    0.18
   0  -2  -8    0.22    0.22
   0  -2  -8    0.07    0.22
   0   2   8    0.12    0.22
   0   2   8    0.01    0.21
   0   2   8    0.12    0.28
  -1  -2  -8    0.64    0.29
  -1  -2  -8    0.48    0.23
  -1  -2  -8    0.27    0.25
  -1  -2  -8    0.52    0.24
   1   2   8    0.58    0.29
   1   2   8    0.80    0.34
  -2  -2  -8    0.42    0.27
  -2  -2  -8    0.18    0.22
  -2  -2  -8    0.59    0.31
  -2  -2  -8    0.17    0.26
   2   2   8    0.75    0.39
   2   2   8    0.16    0.28
  -3  -2  -8    0.49    0.31
  -4  -2  -8    0.11    0.30
  -4   3   8    4.66    0.41
  -3   3   8    1.71    0.32
  -2   3   8    0.48    0.27
   1  -3  -8    0.64    0.22
   1  -3  -8    0.47    0.24
   1  -3  -8    0.60    0.29
  -1   3   8    0.40    0.24
  -1   3   8    0.88    0.32
  -1   3   8    0.32    0.22
   0  -3  -8    7.90    0.59
   0  -3  -8    7.71    0.54
   0  -3  -8    7.52    0.59
   0   3   8    8.93    0.75
   0   3   8    8.37    0.65
   0   3   8    7.25    0.66
  -1  -3  -8   18.52    0.82
  -1  -3  -8   20.74    0.95
  -1  -3  -8   18.73    0.79
   1   3   8   18.89    0.91
   1   3   8   17.39    0.91
  -2  -3  -8    1.45    0.39
  -2  -3  -8    0.85    0.37
  -2  -3  -8    1.27    0.31
  -2  -3  -8    1.19    0.35
   2   3   8    1.35    0.43
  -3  -3  -8    3.98    0.57
  -4  -3  -8   -0.13    0.30
   4  -4  -8   -0.04    0.24
  -4   4   8    0.26    0.29
   3  -4  -8    0.32    0.25
  -3   4   8    0.53    0.30
   2  -4  -8   -0.10    0.21
  -2   4   8    0.15    0.30
   1  -4  -8    9.64    0.62
   1  -4  -8   11.11    0.78
   1  -4  -8   10.27    0.62
  -1   4   8   10.29    0.75
  -1   4   8   10.53    0.59
  -1   4   8   10.47    0.62
   0  -4  -8   22.94    0.88
   0  -4  -8   22.95    0.97
   0  -4  -8   23.92    1.07
   0   4   8   24.20    1.09
   0   4   8   23.24    1.03
  -1  -4  -8   14.83    0.79
  -1  -4  -8   15.36    0.86
  -1  -4  -8   15.07    0.81
   1   4   8   15.34    0.98
   1   4   8   15.07    0.89
  -2  -4  -8   12.38    0.82
  -2  -4  -8   12.07    0.80
  -2  -4  -8   12.31    0.84
  -3  -4  -8    0.10    0.29
  -4  -4  -8   -0.10    0.36
   4  -5  -8    0.21    0.30
  -4   5   8    0.19    0.30
   3  -5  -8    4.53    0.51
  -3   5   8    4.27    0.59
   2  -5  -8   44.43    1.27
  -2   5   8   45.12    1.44
   1  -5  -8   24.24    0.99
   1  -5  -8   23.54    0.97
  -1   5   8   25.04    0.93
  -1   5   8   24.07    1.13
  -1   5   8   24.12    0.99
   0  -5  -8    1.88    0.42
   0  -5  -8    1.77    0.46
   0  -5  -8    1.88    0.42
   0   5   8    1.72    0.49
   0   5   8    0.98    0.44
  -1  -5  -8    5.01    0.60
  -1  -5  -8    5.56    0.69
   1   5   8    4.65    0.77
   1   5   8    4.13    0.66
  -2  -5  -8   -0.16    0.33
  -2  -5  -8    0.15    0.32
  -3  -5  -8   -0.12    0.36
   4  -6  -8    2.14    0.52
  -4   6   8    2.45    0.55
   3  -6  -8    1.42    0.41
  -3   6   8    2.26    0.55
   2  -6  -8   -0.06    0.25
  -2   6   8    0.12    0.39
   1  -6  -8   11.20    0.78
  -1   6   8   10.61    1.02
  -1   6   8   12.02    0.80
   0  -6  -8   -0.15    0.36
   0  -6  -8    0.18    0.35
   0  -6  -8   -0.12    0.35
   0   6   8   -0.11    0.37
   0   6   8   -0.49    0.36
  -1  -6  -8    1.30    0.56
  -1  -6  -8    2.00    0.50
   1   6   8    1.73    0.57
  -2  -6  -8    1.76    0.46
  -2  -6  -8    2.43    0.57
  -3  -6  -8    0.13    0.38
   4  -7  -8    1.34    0.54
  -4   7   8    0.94    0.49
   3  -7  -8    0.11    0.37
  -3   7   8   -0.52    0.35
   2  -7  -8    0.49    0.36
  -2   7   8    0.03    0.42
   1  -7  -8    0.32    0.37
  -1   7   8    0.09    0.40
  -1   7   8    0.57    0.50
   0  -7  -8    6.00    0.77
   0  -7  -8    4.75    0.71
   0   7   8    4.35    0.77
   0   7   8    4.88    0.82
  -1  -7  -8    0.16    0.36
  -1  -7  -8   -0.28    0.46
   1   7   8    0.13    0.51
  -2  -7  -8    0.63    0.48
  -2  -7  -8   -0.19    0.35
  -3  -7  -8   -0.11    0.43
   3  -8  -8    1.21    0.50
  -3   8   8    1.54    0.62
   2  -8  -8    0.07    0.37
  -2   8   8   -0.35    0.42
   1  -8  -8    4.05    0.70
  -1   8   8    3.06    0.63
  -1   8   8    2.80    0.79
   0  -8  -8    3.54    0.68
   0   8   8    2.31    0.72
   0   8   8    3.91    0.88
  -1  -8  -8    0.30    0.43
  -1  -8  -8    0.46    0.58
  -2  -8  -8    0.18    0.52
  -2  -8  -8    0.65    0.48
   2  -9  -8    3.69    0.74
  -2   9   8    4.04    0.90
  -1   9   8    0.55    0.61
  -1   9   8    0.67    0.48
   0   9   8   -0.93    0.48
   0   9   8    0.14    0.60
  -1  -9  -8    0.86    0.51
  -1 -10   9    0.06    0.42
  -1 -10   9    0.02    0.48
   0  10  -9    1.30    0.75
   0 -10   9    1.38    0.58
  -1  10  -9    2.76    0.82
  -1  10  -9    2.99    0.82
  -2  10  -9    0.36    0.54
  -2  -9   9    0.43    0.51
  -2  -9   9    1.01    0.79
  -1  -9   9    2.79    0.62
  -1  -9   9    3.24    0.65
   0   9  -9   -0.44    0.44
   0  -9   9   -0.05    0.43
  -1   9  -9    1.49    0.64
  -1   9  -9    0.41    0.58
  -2   9  -9    0.71    0.42
  -2   9  -9    0.34    0.50
  -3   9  -9    2.30    0.64
  -3  -8   9    0.19    0.70
  -3  -8   9   -0.05    0.45
  -2  -8   9    0.15    0.45
  -2  -8   9   -0.45    0.54
  -1  -8   9   -0.07    0.32
  -1  -8   9    0.74    0.42
   0   8  -9   -0.56    0.37
   0   8  -9   -0.06    0.56
   0  -8   9   -0.05    0.31
   0  -8   9    0.08    0.38
  -1   8  -9    4.24    0.79
  -1   8  -9    5.79    0.87
   1  -8   9    4.31    0.71
  -2   8  -9    1.46    0.56
  -2   8  -9    3.23    0.56
  -3   8  -9    0.38    0.42
  -3  -7   9    0.46    0.45
  -3  -7   9    0.19    0.61
  -2  -7   9    5.81    0.85
  -2  -7   9    5.16    0.71
   1   7  -9    0.94    0.44
  -1  -7   9    2.15    0.51
  -1  -7   9    1.66    0.50
   0   7  -9   11.46    1.01
   0   7  -9   12.99    0.98
   0  -7   9   10.95    0.88
   0  -7   9   10.51    0.87
  -1   7  -9    4.05    0.71
  -1   7  -9    3.00    0.69
   1  -7   9    3.59    0.60
  -2   7  -9    2.27    0.48
  -2   7  -9    0.79    0.46
  -3   7  -9    0.23    0.39
  -4   7  -9    0.18    0.40
  -4  -6   9   -0.04    0.41
  -4  -6   9    0.87    0.71
  -3  -6   9    0.76    0.57
  -3  -6   9   -0.11    0.43
  -2  -6   9    0.54    0.39
  -2  -6   9    1.30    0.56
   1   6  -9    2.39    0.51
  -1  -6   9    1.55    0.45
  -1  -6   9    1.96    0.48
   0   6  -9   58.70    1.90
   0   6  -9   59.33    1.83
   0  -6   9   58.73    1.80
   0  -6   9   59.13    1.72
  -1   6  -9   60.81    1.85
  -1   6  -9   57.43    1.80
   1  -6   9   54.13    1.81
   1  -6   9   56.61    1.63
  -2   6  -9    0.90    0.37
  -2   6  -9    1.13    0.41
  -2   6  -9    0.46    0.31
  -3   6  -9    0.33    0.40
  -4   6  -9    0.68    0.42
  -4  -5   9   -0.81    0.40
  -4  -5   9    0.47    0.65
  -3  -5   9    1.00    0.54
  -3  -5   9    2.27    0.51
  -2  -5   9   16.52    1.11
  -2  -5   9   19.84    1.00
   1   5  -9    2.06    0.44
   1   5  -9    2.33    0.56
  -1  -5   9    2.01    0.39
  -1  -5   9    2.20    0.48
  -1  -5   9    2.15    0.45
   0   5  -9    1.49    0.39
   0   5  -9    1.59    0.47
   0  -5   9    2.03    0.41
   0  -5   9    1.53    0.45
   0  -5   9    1.23    0.36
  -1   5  -9    1.60    0.41
  -1   5  -9    1.17    0.37
  -1   5  -9    1.52    0.47
   1  -5   9    0.88    0.35
   1  -5   9    0.62    0.40
  -2   5  -9    2.56    0.45
  -2   5  -9    1.70    0.37
  -2   5  -9    2.82    0.51
  -3   5  -9    6.63    0.74
  -4   5  -9    2.55    0.51
  -4  -4   9    0.43    0.43
  -4  -4   9    0.04    0.59
  -3  -4   9    0.49    0.30
  -3  -4   9    0.15    0.49
  -2  -4   9    0.59    0.45
  -2  -4   9    0.62    0.31
   1   4  -9    7.78    0.59
   1   4  -9    7.26    0.64
  -1  -4   9    7.31    0.54
  -1  -4   9    7.62    0.56
  -1  -4   9    7.76    0.62
   0   4  -9    0.02    0.29
   0   4  -9   -0.32    0.20
   0  -4   9    0.25    0.31
   0  -4   9   -0.24    0.24
   0  -4   9    0.08    0.22
  -1   4  -9    0.89    0.28
  -1   4  -9    0.57    0.32
  -1   4  -9    0.63    0.30
   1  -4   9    0.72    0.37
   1  -4   9    1.05    0.29
  -2   4  -9    1.81    0.41
  -2   4  -9    1.90    0.35
  -2   4  -9    2.28    0.34
   2  -4   9    1.97    0.35
  -3   4  -9    1.15    0.39
  -4   4  -9    0.74    0.36
  -5   4  -9    0.59    0.39
  -4  -3   9    1.37    0.74
  -4  -3   9    1.28    0.46
  -3  -3   9    0.12    0.25
  -3  -3   9   -0.07    0.56
  -2  -3   9   -0.37    0.20
  -2  -3   9    0.01    0.39
   1   3  -9   23.97    0.84
   1   3  -9   24.55    0.94
  -1  -3   9   27.04    0.94
  -1  -3   9   24.74    0.87
  -1  -3   9   23.45    0.99
  -1  -3   9   23.86    0.79
   0   3  -9   28.27    0.96
   0   3  -9   28.20    0.96
   0   3  -9   26.37    0.99
   0  -3   9   28.19    1.00
   0  -3   9   27.73    0.97
   0  -3   9   27.66    0.90
  -1   3  -9    0.00    0.26
  -1   3  -9   -0.11    0.19
  -1   3  -9    0.11    0.21
   1  -3   9   -0.09    0.18
   1  -3   9   -0.11    0.27
  -2   3  -9    1.01    0.33
  -2   3  -9    1.20    0.27
   2  -3   9    1.15    0.41
   2  -3   9    1.15    0.32
  -3   3  -9    0.63    0.31
  -4   3  -9   -0.15    0.24
  -5   3  -9    1.09    0.36
  -5  -2   9    0.30    0.85
  -4  -2   9    0.46    0.30
  -4  -2   9    0.70    0.74
  -3  -2   9    0.36    0.49
  -3  -2   9   -0.62    0.20
  -2  -2   9    2.57    0.53
  -2  -2   9    4.42    0.45
   1   2  -9    6.99    0.51
   1   2  -9    6.85    0.46
  -1  -2   9    7.42    0.48
  -1  -2   9    7.73    0.41
  -1  -2   9    7.21    0.43
  -1  -2   9    6.45    0.54
   0   2  -9    0.37    0.22
   0   2  -9    0.20    0.17
   0   2  -9    0.31    0.24
   0  -2   9    0.34    0.21
   0  -2   9    0.26    0.31
   0  -2   9    0.67    0.29
  -1   2  -9   18.49    0.78
  -1   2  -9   17.54    0.74
  -1   2  -9   17.83    0.70
   1  -2   9   18.64    0.71
   1  -2   9   17.20    0.76
  -2   2  -9    2.41    0.40
   2  -2   9    1.81    0.30
   2  -2   9    1.58    0.42
  -3   2  -9    1.06    0.33
  -4   2  -9   -0.40    0.21
  -5   2  -9    0.24    0.31
  -5  -1   9    0.19    0.94
  -4  -1   9    3.39    0.37
  -4  -1   9    2.98    0.86
  -3  -1   9    1.30    0.24
  -3  -1   9    1.47    0.55
  -2  -1   9   16.39    0.59
  -2  -1   9   16.81    1.00
   1   1  -9   22.17    0.72
   1   1  -9   22.46    0.62
  -1  -1   9   21.79    0.71
  -1  -1   9   21.20    0.84
   0   1  -9   13.06    0.57
   0   1  -9   12.81    0.56
   0   1  -9   12.27    0.59
   0  -1   9   12.59    0.61
   0  -1   9   10.09    0.63
   0  -1   9   12.19    0.55
  -1   1  -9    0.18    0.20
  -1   1  -9    0.21    0.24
  -1   1  -9    0.33    0.20
   1  -1   9    0.05    0.21
   1  -1   9    0.15    0.27
  -2   1  -9    4.01    0.37
  -2   1  -9    3.38    0.43
   2  -1   9    3.30    0.49
   2  -1   9    3.79    0.45
  -3   1  -9    7.80    0.62
  -4   1  -9   27.04    1.06
  -5   1  -9    0.61    0.34
  -5   0   9    4.81    1.18
  -4   0   9   -0.14    0.68
  -3   0   9    7.04    0.97
  -3   0   9    8.12    0.41
  -2   0   9    2.54    0.28
  -2   0   9    2.38    0.52
   1   0  -9   24.18    0.63
   1   0  -9   24.40    0.71
  -1   0   9   23.81    0.92
  -1   0   9   24.21    0.71
   0   0  -9    1.61    0.30
   0   0  -9    1.47    0.24
   0   0  -9    1.67    0.30
   0   0   9    1.22    0.27
   0   0   9    1.31    0.29
   0   0   9    1.65    0.33
   0   0   9    0.31    0.23
  -1   0  -9    6.48    0.49
  -1   0  -9    6.56    0.50
  -1   0  -9    6.50    0.49
   1   0   9    6.10    0.54
   1   0   9    6.48    0.49
  -2   0  -9   24.94    0.78
  -2   0  -9   25.07    0.77
  -2   0  -9   24.22    0.87
  -2   0  -9   23.38    0.74
   2   0   9   22.84    0.99
   2   0   9   24.22    0.87
  -3   0  -9   -0.15    0.23
  -4   0  -9   -0.01    0.30
  -5   0  -9    3.22    0.56
  -5   1   9    0.47    0.88
  -4   1   9    1.13    0.74
  -3   1   9   -0.08    0.50
  -3   1   9    0.31    0.17
  -2   1   9    0.32    0.38
  -2   1   9    0.70    0.22
   1  -1  -9  101.82    1.64
  -1   1   9  107.34    1.82
   0  -1  -9   79.99    1.64
   0  -1  -9   78.74    1.49
   0  -1  -9   77.95    1.60
   0   1   9   79.79    1.61
   0   1   9   79.04    1.61
  -1  -1  -9   16.59    0.68
  -1  -1  -9   16.98    0.72
  -1  -1  -9   16.51    0.67
  -1  -1  -9   17.16    0.76
   1   1   9   16.45    0.78
   1   1   9   17.19    0.72
  -2  -1  -9    0.60    0.30
  -2  -1  -9    0.70    0.29
  -2  -1  -9    0.68    0.28
  -2  -1  -9    0.12    0.22
   2   1   9    0.32    0.32
   2   1   9    0.86    0.33
  -3  -1  -9    0.12    0.25
  -4  -1  -9    0.31    0.29
  -4   2   9    0.76    0.66
  -3   2   9   12.22    1.02
  -3   2   9   12.19    0.52
  -2   2   9    1.84    0.29
  -2   2   9    2.21    0.54
  -2   2   9    0.85    0.22
   1  -2  -9    5.61    0.43
   1  -2  -9    5.73    0.47
  -1   2   9    5.34    0.48
  -1   2   9    5.60    0.37
  -1   2   9    6.48    0.61
  -1   2   9    5.79    0.37
   0  -2  -9   16.79    0.64
   0  -2  -9   16.49    0.76
   0   2   9   16.18    0.72
   0   2   9   16.37    0.71
   0   2   9   12.87    0.72
  -1  -2  -9   14.71    0.75
  -1  -2  -9   13.33    0.66
  -1  -2  -9   14.80    0.74
  -1  -2  -9   14.04    0.69
   1   2   9   14.64    0.76
   1   2   9   14.33    0.81
  -2  -2  -9    0.95    0.33
  -2  -2  -9    1.23    0.33
  -2  -2  -9    0.93    0.31
   2   2   9    1.04    0.36
  -3  -2  -9    5.49    0.63
  -4  -2  -9    0.08    0.30
  -4   3   9    0.61    0.26
  -3   3   9    3.40    0.42
  -2   3   9   10.58    0.62
   1  -3  -9    0.01    0.19
   1  -3  -9    0.27    0.26
   1  -3  -9    0.22    0.23
  -1   3   9    0.27    0.22
  -1   3   9   -0.15    0.22
  -1   3   9    0.35    0.29
   0  -3  -9    1.30    0.30
   0  -3  -9    1.73    0.34
   0   3   9    2.07    0.43
   0   3   9    1.22    0.35
   0   3   9    0.69    0.29
  -1  -3  -9    9.62    0.68
  -1  -3  -9    9.46    0.69
  -1  -3  -9    9.35    0.61
   1   3   9    9.30    0.74
   1   3   9   10.07    0.77
  -2  -3  -9    1.52    0.42
  -2  -3  -9    1.26    0.37
  -2  -3  -9    1.79    0.40
   2   3   9    1.71    0.48
  -3  -3  -9    0.96    0.37
  -4  -3  -9    2.29    0.51
   4  -4  -9    0.56    0.28
  -4   4   9    0.19    0.28
   3  -4  -9    0.36    0.25
  -3   4   9    0.94    0.34
   2  -4  -9    7.88    0.54
  -2   4   9    7.48    0.70
   1  -4  -9   34.28    1.07
   1  -4  -9   34.58    1.17
   1  -4  -9   33.03    1.06
  -1   4   9   35.39    1.04
  -1   4   9   33.97    1.08
  -1   4   9   33.81    1.26
   0  -4  -9   20.95    0.93
   0  -4  -9   21.16    1.00
   0  -4  -9   21.53    0.91
   0   4   9   22.31    1.05
   0   4   9   21.66    1.06
  -1  -4  -9    1.16    0.33
  -1  -4  -9    0.85    0.31
  -1  -4  -9    1.27    0.41
   1   4   9    1.12    0.42
   1   4   9    0.91    0.45
  -2  -4  -9   -0.17    0.27
  -2  -4  -9    0.09    0.31
  -3  -4  -9    1.45    0.43
  -4  -4  -9    0.53    0.42
   4  -5  -9    0.00    0.34
  -4   5   9    0.08    0.33
   3  -5  -9    1.20    0.35
  -3   5   9    1.22    0.39
   2  -5  -9    0.70    0.31
  -2   5   9    0.64    0.36
   1  -5  -9   -0.05    0.25
   1  -5  -9    0.07    0.28
  -1   5   9    0.12    0.35
  -1   5   9    0.11    0.31
  -1   5   9    0.32    0.31
   0  -5  -9    2.19    0.46
   0  -5  -9    1.66    0.48
   0  -5  -9    2.46    0.45
   0   5   9    1.70    0.54
   0   5   9    2.55    0.56
  -1  -5  -9    4.13    0.65
  -1  -5  -9    5.57    0.63
   1   5   9    3.98    0.71
   1   5   9    4.05    0.71
  -2  -5  -9    0.47    0.36
  -2  -5  -9    0.67    0.37
  -3  -5  -9    0.98    0.46
   4  -6  -9    0.36    0.40
  -4   6   9   -0.16    0.38
   3  -6  -9    0.34    0.35
  -3   6   9    0.42    0.41
   2  -6  -9    0.26    0.29
  -2   6   9    0.30    0.39
   1  -6  -9    0.45    0.33
  -1   6   9   -0.14    0.38
  -1   6   9    0.27    0.40
   0  -6  -9    1.49    0.46
   0  -6  -9    1.06    0.46
   0  -6  -9    2.66    0.56
   0   6   9    0.71    0.50
   0   6   9    2.51    0.59
  -1  -6  -9    0.44    0.44
  -1  -6  -9   -0.03    0.29
   1   6   9    0.22    0.48
  -2  -6  -9    2.09    0.54
  -2  -6  -9    1.75    0.50
  -3  -6  -9    1.88    0.57
  -4   7   9   -0.28    0.41
   3  -7  -9    0.35    0.40
  -3   7   9    0.35    0.41
   2  -7  -9   13.07    0.90
  -2   7   9   12.10    1.21
   1  -7  -9    4.87    0.69
  -1   7   9    5.31    0.74
  -1   7   9    3.79    0.78
   0  -7  -9    3.78    0.69
   0  -7  -9    3.36    0.63
   0   7   9    4.12    0.79
   0   7   9    3.04    0.76
  -1  -7  -9    0.21    0.49
  -1  -7  -9    0.61    0.45
   1   7   9    0.53    0.57
  -2  -7  -9   -0.14    0.39
  -2  -7  -9   -0.28    0.43
   3  -8  -9    0.62    0.47
  -3   8   9   -0.24    0.47
   2  -8  -9    2.29    0.56
  -2   8   9    3.44    0.78
   1  -8  -9    0.01    0.42
  -1   8   9   -0.27    0.49
  -1   8   9    0.02    0.50
   0   8   9   -0.14    0.52
   0   8   9    0.05    0.55
  -1  -8  -9    7.50    1.03
  -1  -8  -9    4.47    0.76
  -2  -8  -9   -0.47    0.48
  -2  -8  -9    0.65    0.49
   2  -9  -9    1.03    0.58
  -2   9   9    3.02    0.86
  -1   9   9   -0.13    0.57
  -1   9   9    0.08    0.48
   0   9   9   -0.20    0.58
   0   9   9    0.66    0.67
  -1  -9  -9    0.21    0.47
  -1 -10  10    0.54    0.52
  -1 -10  10    0.01    0.43
   0 -10  10   -0.52    0.39
  -1  10 -10    0.96    0.68
  -1  10 -10    0.73    0.69
  -2  10 -10    0.29    0.51
  -2  -9  10   -0.67    0.34
  -2  -9  10    0.68    0.77
  -1  -9  10    0.23    0.42
  -1  -9  10    0.25    0.41
   0   9 -10    1.90    0.72
   0  -9  10    2.15    0.57
  -1   9 -10    3.50    0.78
  -1   9 -10    5.78    0.97
  -2   9 -10    1.96    0.62
  -2   9 -10    1.51    0.50
  -3   9 -10    0.48    0.51
  -3  -8  10    0.68    0.52
  -2  -8  10    8.57    1.11
  -2  -8  10    6.93    0.89
  -1  -8  10    0.01    0.32
  -1  -8  10    0.03    0.34
   0   8 -10    1.93    0.62
   0  -8  10    1.57    0.49
   0  -8  10    1.21    0.46
  -1   8 -10   -0.05    0.47
  -1   8 -10   -0.49    0.41
   1  -8  10    0.26    0.40
  -2   8 -10    1.04    0.49
  -2   8 -10    0.49    0.39
  -3   8 -10    1.29    0.53
  -3  -7  10    0.46    0.47
  -3  -7  10    0.70    0.63
  -2  -7  10    1.74    0.55
  -2  -7  10    3.04    0.73
  -1  -7  10    2.64    0.52
  -1  -7  10    3.99    0.63
   0   7 -10    1.73    0.65
   0   7 -10    1.26    0.51
   0  -7  10    0.37    0.38
   0  -7  10    0.83    0.41
  -1   7 -10   16.24    1.07
  -1   7 -10   17.90    1.19
   1  -7  10   17.42    1.04
  -2   7 -10    0.83    0.46
  -2   7 -10    0.42    0.39
  -3   7 -10    1.35    0.52
  -4   7 -10    0.97    0.51
  -4  -6  10    0.01    0.40
  -3  -6  10    3.07    0.60
  -3  -6  10    3.05    0.75
  -2  -6  10   -0.46    0.32
  -2  -6  10    0.25    0.47
   1   6 -10    1.23    0.42
  -1  -6  10    0.88    0.39
  -1  -6  10    0.65    0.34
   0   6 -10   26.21    1.20
   0   6 -10   24.46    1.24
   0  -6  10   25.55    1.07
   0  -6  10   23.45    1.13
  -1   6 -10   28.07    1.31
  -1   6 -10   29.48    1.28
   1  -6  10   29.08    1.16
   1  -6  10   28.59    1.33
  -2   6 -10   10.39    0.71
  -2   6 -10   10.94    1.00
  -2   6 -10    9.56    0.71
  -3   6 -10    0.33    0.34
  -4   6 -10    0.30    0.37
  -4  -5  10    0.46    0.40
  -4  -5  10    0.55    0.66
  -3  -5  10    0.10    0.51
  -3  -5  10    0.29    0.37
  -2  -5  10   -0.41    0.28
  -2  -5  10    0.66    0.50
   1   5 -10    8.67    0.76
  -1  -5  10    7.70    0.68
  -1  -5  10    6.50    0.64
  -1  -5  10    8.19    0.82
   0   5 -10    0.79    0.41
   0   5 -10    0.40    0.30
   0  -5  10    0.18    0.26
   0  -5  10    0.88    0.51
   0  -5  10    0.22    0.29
  -1   5 -10    4.73    0.58
  -1   5 -10    4.47    0.63
  -1   5 -10    4.71    0.62
   1  -5  10    3.94    0.51
   1  -5  10    3.48    0.59
  -2   5 -10    0.01    0.31
  -2   5 -10    0.15    0.29
  -2   5 -10    0.01    0.28
  -3   5 -10    7.42    0.78
  -4   5 -10   -0.05    0.25
  -4  -4  10    2.85    0.53
  -4  -4  10    2.10    0.73
  -3  -4  10    0.23    0.45
  -3  -4  10    0.37    0.34
  -2  -4  10    2.57    0.59
  -2  -4  10    2.49    0.45
   1   4 -10    2.69    0.41
   1   4 -10    2.30    0.49
  -1  -4  10    2.33    0.44
  -1  -4  10    1.58    0.38
  -1  -4  10    2.50    0.39
   0   4 -10    7.91    0.64
   0   4 -10    8.16    0.73
   0  -4  10    6.92    0.57
   0  -4  10    7.16    0.61
   0  -4  10    6.09    0.66
  -1   4 -10    8.13    0.60
  -1   4 -10    8.55    0.67
  -1   4 -10    8.22    0.68
   1  -4  10    8.41    0.64
   1  -4  10    8.51    0.71
  -2   4 -10    4.00    0.47
  -2   4 -10    3.84    0.44
  -2   4 -10    3.79    0.54
   2  -4  10    3.88    0.48
  -3   4 -10    0.48    0.32
  -4   4 -10    8.82    0.72
  -4  -3  10   -0.55    0.31
  -4  -3  10    0.55    0.63
  -3  -3  10    1.96    0.64
  -3  -3  10    1.90    0.38
  -2  -3  10    4.32    0.50
  -2  -3  10    4.51    0.70
   1   3 -10    0.30    0.26
   1   3 -10    0.07    0.19
  -1  -3  10   -0.12    0.18
  -1  -3  10   -0.62    0.23
  -1  -3  10   -0.27    0.30
  -1  -3  10   -0.12    0.23
   0   3 -10   59.12    1.52
   0   3 -10   58.68    1.46
   0  -3  10   57.96    1.37
   0  -3  10   57.59    1.52
   0  -3  10   57.92    1.45
  -1   3 -10   19.23    0.88
  -1   3 -10   18.51    0.86
  -1   3 -10   18.82    0.79
   1  -3  10   18.83    0.87
   1  -3  10   18.90    0.78
  -2   3 -10    2.70    0.36
  -2   3 -10    1.45    0.38
  -2   3 -10    1.29    0.32
   2  -3  10    2.36    0.50
   2  -3  10    1.67    0.35
  -3   3 -10    0.11    0.29
  -4   3 -10    0.87    0.36
  -5   3 -10    1.71    0.42
  -5  -2  10    0.59    0.84
  -4  -2  10   -0.18    0.22
  -4  -2  10    0.86    0.81
  -3  -2  10    7.24    0.90
  -3  -2  10    8.79    0.57
  -2  -2  10    0.55    0.43
  -2  -2  10    0.36    0.24
   1   2 -10    7.20    0.51
   1   2 -10    6.68    0.45
  -1  -2  10    7.04    0.61
  -1  -2  10    6.83    0.44
  -1  -2  10    7.80    0.51
  -1  -2  10    7.17    0.41
   0   2 -10   27.54    0.97
   0   2 -10   28.18    0.90
   0   2 -10   28.41    0.93
   0  -2  10   28.66    0.93
   0  -2  10   26.56    0.87
   0  -2  10   29.86    1.06
  -1   2 -10    8.83    0.61
  -1   2 -10   10.28    0.58
  -1   2 -10   10.30    0.61
   1  -2  10   10.38    0.64
   1  -2  10   10.36    0.57
  -2   2 -10    0.29    0.26
  -2   2 -10    0.25    0.26
  -2   2 -10    0.61    0.25
   2  -2  10    0.03    0.32
   2  -2  10    0.43    0.23
  -3   2 -10    0.35    0.29
  -4   2 -10    2.02    0.46
  -5   2 -10    0.59    0.36
  -5  -1  10    0.61    0.93
  -4  -1  10    9.47    1.28
  -3  -1  10    5.39    0.45
  -3  -1  10    5.32    0.78
  -2  -1  10   20.32    0.70
  -2  -1  10   21.27    1.09
  -2  -1  10   20.55    0.71
   1   1 -10    2.17    0.32
   1   1 -10    2.50    0.27
  -1  -1  10    1.84    0.23
  -1  -1  10    2.78    0.45
  -1  -1  10    1.71    0.29
   0   1 -10    3.39    0.36
   0   1 -10    3.23    0.39
   0   1 -10    3.37    0.40
   0  -1  10    1.82    0.34
   0  -1  10    3.00    0.36
   0  -1  10    3.60    0.42
  -1   1 -10    4.86    0.47
  -1   1 -10    6.16    0.48
  -1   1 -10    6.36    0.50
   1  -1  10    6.31    0.57
   1  -1  10    5.03    0.46
  -2   1 -10    0.99    0.30
  -2   1 -10    1.10    0.26
  -2   1 -10    0.72    0.26
   2  -1  10    1.22    0.32
   2  -1  10    1.24    0.39
  -3   1 -10    8.34    0.66
  -5   1 -10    2.96    0.55
  -5   0  10    1.93    0.98
  -4   0  10    7.64    1.17
  -3   0  10    5.78    0.38
  -3   0  10    7.10    0.99
  -2   0  10    0.86    0.24
  -2   0  10    1.19    0.47
   1   0 -10    0.18    0.17
   1   0 -10    0.12    0.15
  -1   0  10   -0.01    0.32
  -1   0  10    0.29    0.19
   0   0 -10   35.82    1.02
   0   0 -10   35.30    0.91
   0   0  10   35.02    0.83
   0   0  10   35.54    1.00
   0   0  10   34.24    1.00
  -1   0 -10    7.10    0.52
  -1   0 -10    6.96    0.51
  -1   0 -10    7.25    0.49
   1   0  10    6.94    0.54
   1   0  10    6.73    0.59
  -2   0 -10   13.09    0.62
  -2   0 -10   11.38    0.65
  -2   0 -10   10.76    0.57
  -2   0 -10   12.13    0.64
   2   0  10   11.59    0.69
   2   0  10   11.65    0.75
  -3   0 -10    2.86    0.46
  -4   0 -10    2.74    0.50
  -5   1  10   -0.97    0.78
  -4   1  10    0.50    0.73
  -3   1  10   14.95    0.54
  -3   1  10   14.15    1.06
  -2   1  10    3.08    0.59
   1  -1 -10   38.25    0.91
   1  -1 -10   38.36    0.99
  -1   1  10   39.23    0.84
  -1   1  10   38.21    1.04
  -1   1  10   37.23    1.14
   0  -1 -10   95.02    1.77
   0  -1 -10   96.05    1.92
   0   1  10   97.57    1.90
   0   1  10   95.47    1.88
  -1  -1 -10    6.53    0.52
  -1  -1 -10    6.17    0.51
  -1  -1 -10    7.34    0.60
   1   1  10    6.97    0.55
   1   1  10    6.45    0.64
  -2  -1 -10   -0.07    0.24
  -2  -1 -10    0.19    0.24
  -2  -1 -10    0.17    0.23
   2   1  10   -0.11    0.33
   2   1  10    0.46    0.33
  -3  -1 -10    1.76    0.39
  -4  -1 -10    1.30    0.38
  -4   2  10    2.53    0.82
  -3   2  10   -0.30    0.49
  -3   2  10   -0.20    0.19
  -2   2  10    5.74    0.46
  -2   2  10    6.48    0.77
   1  -2 -10    0.97    0.24
   1  -2 -10    1.45    0.33
  -1   2  10    2.07    0.44
  -1   2  10    0.83    0.25
  -1   2  10    1.05    0.25
  -1   2  10    1.08    0.32
   0  -2 -10    9.96    0.62
   0  -2 -10    9.02    0.55
   0   2  10    7.97    0.61
   0   2  10   10.78    0.65
  -1  -2 -10    0.33    0.22
  -1  -2 -10    1.18    0.36
  -1  -2 -10    0.91    0.27
  -1  -2 -10    0.17    0.17
   1   2  10    0.14    0.31
   1   2  10    0.88    0.36
  -2  -2 -10   13.85    0.79
  -2  -2 -10   12.13    0.72
  -2  -2 -10   13.61    0.75
   2   2  10   14.65    0.87
  -3  -2 -10   -0.03    0.29
  -4  -2 -10    1.40    0.43
  -4   3  10    6.10    0.48
  -3   3  10    0.71    0.28
  -3   3  10    1.10    0.61
  -2   3  10    0.40    0.27
   1  -3 -10   33.72    0.98
   1  -3 -10   33.19    1.08
   1  -3 -10   33.23    1.00
  -1   3  10   34.51    0.93
  -1   3  10   34.16    0.96
  -1   3  10   31.54    1.14
   0  -3 -10    3.36    0.48
   0  -3 -10    3.05    0.43
   0  -3 -10    3.77    0.49
   0   3  10    2.35    0.47
   0   3  10    2.78    0.54
   0   3  10    1.63    0.38
  -1  -3 -10    4.12    0.55
  -1  -3 -10    4.95    0.54
  -1  -3 -10    4.26    0.53
   1   3  10    3.33    0.61
   1   3  10    3.55    0.56
  -2  -3 -10    0.12    0.33
  -2  -3 -10    0.41    0.29
  -2  -3 -10    0.05    0.34
   2   3  10    0.21    0.35
  -3  -3 -10    1.87    0.45
  -4  -3 -10    1.18    0.46
   4  -4 -10    0.89    0.34
  -4   4  10    1.43    0.39
   3  -4 -10   19.43    0.74
  -3   4  10   19.35    0.89
   2  -4 -10    5.24    0.52
  -2   4  10    5.00    0.57
   1  -4 -10   29.19    1.01
   1  -4 -10   28.75    1.13
   1  -4 -10   28.56    1.00
  -1   4  10   27.08    0.96
  -1   4  10   29.15    1.21
  -1   4  10   30.40    0.94
   0  -4 -10    7.67    0.63
   0  -4 -10    8.32    0.71
   0   4  10    7.70    0.78
   0   4  10    6.96    0.77
  -1  -4 -10   19.13    0.90
  -1  -4 -10   17.65    0.94
  -1  -4 -10   20.06    1.11
   1   4  10   17.94    1.06
   1   4  10   18.46    1.03
  -2  -4 -10    4.69    0.61
  -2  -4 -10    3.43    0.53
  -3  -4 -10    2.41    0.55
  -4  -4 -10    0.26    0.40
   4  -5 -10    0.84    0.39
  -4   5  10    1.25    0.44
   3  -5 -10   -0.18    0.30
  -3   5  10    0.07    0.32
   2  -5 -10    0.97    0.35
  -2   5  10    0.72    0.41
   1  -5 -10   32.79    1.20
   1  -5 -10   33.34    1.18
  -1   5  10   31.00    1.39
  -1   5  10   34.49    1.15
  -1   5  10   31.68    1.17
   0  -5 -10   28.03    1.09
   0  -5 -10   28.54    1.17
   0   5  10   26.98    1.36
   0   5  10   27.83    1.29
  -1  -5 -10    1.47    0.47
  -1  -5 -10    0.81    0.37
   1   5  10    0.87    0.46
   1   5  10    0.18    0.46
  -2  -5 -10    0.45    0.33
  -2  -5 -10   -0.29    0.33
  -3  -5 -10    0.39    0.40
   4  -6 -10   -0.07    0.34
  -4   6  10    0.43    0.44
   3  -6 -10    0.76    0.36
  -3   6  10   -0.43    0.31
   2  -6 -10    0.27    0.34
  -2   6  10    0.31    0.41
   1  -6 -10    4.22    0.58
  -1   6  10    3.37    0.53
  -1   6  10    3.38    0.65
   0  -6 -10    0.07    0.33
   0  -6 -10    0.78    0.39
   0   6  10    0.97    0.53
   0   6  10    0.39    0.45
  -1  -6 -10    1.03    0.41
  -1  -6 -10    0.70    0.49
   1   6  10    0.63    0.56
  -2  -6 -10   -0.39    0.42
  -2  -6 -10   -0.12    0.36
  -3  -6 -10    1.58    0.54
  -4   7  10    1.47    0.57
   3  -7 -10    0.38    0.39
  -3   7  10    0.51    0.43
   2  -7 -10    0.91    0.44
  -2   7  10    1.01    0.53
   1  -7 -10    3.13    0.58
  -1   7  10    2.51    0.56
  -1   7  10    2.38    0.69
   0  -7 -10   11.24    0.92
   0   7  10   11.08    1.10
   0   7  10   11.26    1.27
  -1  -7 -10    0.45    0.51
  -1  -7 -10   -0.26    0.34
   1   7  10    0.52    0.58
  -2  -7 -10    0.76    0.51
  -2  -7 -10    2.34    0.61
   3  -8 -10    1.40    0.57
  -3   8  10    2.92    0.75
   2  -8 -10    1.37    0.54
  -2   8  10    0.96    0.62
   1  -8 -10    7.41    0.94
  -1   8  10    3.18    0.81
  -1   8  10    3.85    0.71
   0   8  10    0.71    0.61
   0   8  10    2.20    0.76
  -1  -8 -10    0.77    0.50
  -1  -8 -10    0.28    0.61
  -2  -8 -10    1.68    0.65
   2  -9 -10   -0.04    0.50
  -2   9  10    1.23    0.69
  -1   9  10    0.61    0.68
  -1   9  10    0.17    0.49
   0   9  10    7.46    1.25
   0   9  10    6.26    1.04
  -1 -10  11    0.97    0.57
   0 -10  11    0.68    0.51
  -1  10 -11    4.91    0.97
  -1  10 -11    4.33    0.95
  -2  10 -11    4.03    0.87
  -2  -9  11    0.64    0.80
  -2  -9  11    0.50    0.48
  -1  -9  11    3.75    0.73
  -1  -9  11    4.25    0.74
   0   9 -11    3.31    0.79
   0  -9  11    2.97    0.66
  -1   9 -11    0.54    0.56
  -1   9 -11   -0.25    0.42
  -2   9 -11   -0.37    0.41
  -2   9 -11    0.11    0.41
  -3   9 -11    0.45    0.52
  -2  -8  11   -0.51    0.56
  -2  -8  11    0.12    0.39
  -1  -8  11   -0.26    0.33
  -1  -8  11    0.32    0.41
   0   8 -11    3.04    0.69
   0  -8  11    2.02    0.54
   0  -8  11    2.12    0.56
  -1   8 -11    0.30    0.51
  -1   8 -11    0.59    0.46
   1  -8  11    0.20    0.39
  -2   8 -11   -0.43    0.35
  -2   8 -11   -0.31    0.35
  -3   8 -11    0.58    0.40
  -3  -7  11    0.83    0.48
  -3  -7  11    1.25    0.66
  -2  -7  11   -0.13    0.51
  -2  -7  11    0.40    0.43
  -1  -7  11   -0.19    0.32
  -1  -7  11    0.47    0.36
   0   7 -11    3.49    0.77
   0   7 -11    2.94    0.61
   0  -7  11    2.12    0.54
   0  -7  11    2.62    0.57
  -1   7 -11    7.92    0.93
  -1   7 -11    4.96    0.76
   1  -7  11    4.89    0.65
  -2   7 -11    3.22    0.65
  -2   7 -11    3.69    0.57
  -3   7 -11   -0.03    0.35
  -4   7 -11   -0.07    0.37
  -3  -6  11    4.14    0.82
  -3  -6  11    4.71    0.70
  -2  -6  11    0.21    0.45
  -2  -6  11    0.51    0.43
   1   6 -11   -0.33    0.26
  -1  -6  11    0.30    0.30
  -1  -6  11    0.10    0.32
   0   6 -11   -0.08    0.32
   0   6 -11    0.11    0.32
   0  -6  11    0.13    0.30
   0  -6  11   -0.49    0.31
  -1   6 -11   13.57    0.93
  -1   6 -11   12.07    0.92
   1  -6  11   13.03    0.84
   1  -6  11   12.68    0.89
  -2   6 -11    3.00    0.52
  -2   6 -11    3.68    0.66
  -3   6 -11    4.44    0.70
  -4   6 -11    0.03    0.33
  -4  -5  11    1.41    0.73
  -4  -5  11    1.50    0.51
  -3  -5  11    1.57    0.47
  -3  -5  11    1.77    0.66
  -2  -5  11    0.32    0.32
  -2  -5  11    0.22    0.46
   1   5 -11    4.58    0.58
  -1  -5  11    2.39    0.49
  -1  -5  11    3.36    0.51
  -1  -5  11    2.79    0.44
   0   5 -11    0.69    0.42
   0   5 -11    0.92    0.33
   0  -5  11    0.13    0.29
   0  -5  11    0.35    0.30
  -1   5 -11    1.09    0.37
  -1   5 -11    1.08    0.42
   1  -5  11    0.94    0.34
   1  -5  11    0.49    0.42
  -2   5 -11    8.87    0.82
  -2   5 -11    9.30    0.64
  -2   5 -11    8.84    0.66
  -3   5 -11    5.70    0.72
  -4   5 -11    0.74    0.39
  -4  -4  11    3.38    0.62
  -4  -4  11    3.40    0.91
  -3  -4  11    2.94    0.71
  -3  -4  11    3.27    0.51
  -2  -4  11    1.98    0.41
  -2  -4  11    1.84    0.57
   1   4 -11    8.11    0.67
   1   4 -11    8.53    0.82
  -1  -4  11    6.92    0.54
  -1  -4  11    6.60    0.69
  -1  -4  11    7.80    0.63
   0   4 -11    1.19    0.42
   0   4 -11    0.47    0.29
   0  -4  11    0.57    0.30
   0  -4  11    0.55    0.30
   0  -4  11    1.15    0.40
  -1   4 -11   20.87    0.98
  -1   4 -11   20.90    0.99
  -1   4 -11   21.16    0.90
   1  -4  11   21.67    0.88
   1  -4  11   20.98    1.02
  -2   4 -11    3.05    0.42
  -2   4 -11    2.44    0.42
  -2   4 -11    2.95    0.54
   2  -4  11    2.74    0.44
  -3   4 -11    7.41    0.74
  -4   4 -11    3.47    0.56
  -4  -3  11    0.61    0.35
  -4  -3  11    1.88    0.76
  -3  -3  11    1.34    0.32
  -3  -3  11    2.61    0.74
  -2  -3  11    3.59    0.46
  -2  -3  11    3.03    0.62
   1   3 -11    3.51    0.41
   1   3 -11    3.35    0.49
  -1  -3  11    2.05    0.51
  -1  -3  11    1.77    0.30
  -1  -3  11    2.13    0.34
  -1  -3  11    2.71    0.40
   0   3 -11   14.07    0.74
   0   3 -11   14.79    0.78
   0  -3  11   14.44    0.81
   0  -3  11   14.65    0.75
   0  -3  11   14.39    0.71
  -1   3 -11   12.61    0.69
  -1   3 -11   12.84    0.74
  -1   3 -11   12.73    0.72
   1  -3  11   12.38    0.75
   1  -3  11   12.50    0.68
  -2   3 -11    0.14    0.23
  -2   3 -11   -0.03    0.26
  -2   3 -11    0.16    0.25
   2  -3  11    0.46    0.29
  -3   3 -11    5.99    0.63
  -4   3 -11    0.36    0.31
  -4  -2  11    1.25    0.80
  -4  -2  11    0.75    0.30
  -3  -2  11    3.34    0.41
  -3  -2  11    4.02    0.74
  -2  -2  11    7.28    0.81
  -2  -2  11    7.50    0.49
   1   2 -11   13.28    0.66
   1   2 -11   13.21    0.60
  -1  -2  11   13.28    0.57
  -1  -2  11   12.72    0.75
  -1  -2  11   13.57    0.56
  -1  -2  11   13.77    0.64
   0   2 -11   21.05    0.77
   0   2 -11   21.61    0.83
   0  -2  11   20.69    0.77
   0  -2  11   17.17    0.86
   0  -2  11   20.56    0.79
  -1   2 -11   42.66    1.19
  -1   2 -11   40.99    1.22
  -1   2 -11   39.86    1.16
   1  -2  11   40.56    1.25
   1  -2  11   41.64    1.16
  -2   2 -11    1.47    0.30
  -2   2 -11    1.06    0.32
  -2   2 -11    1.17    0.32
   2  -2  11    0.35    0.25
   2  -2  11    0.48    0.34
  -3   2 -11    3.35    0.51
  -4   2 -11    2.20    0.47
  -5   2 -11    1.20    0.41
  -5  -1  11    0.21    0.92
  -4  -1  11    8.94    1.27
  -4  -1  11    8.33    0.54
  -3  -1  11    2.71    0.72
  -3  -1  11    2.52    0.33
  -2  -1  11    2.81    0.33
  -2  -1  11    2.38    0.53
   1   1 -11   14.08    0.63
   1   1 -11   13.55    0.53
  -1  -1  11   14.75    0.51
  -1  -1  11   13.95    0.76
  -1  -1  11   14.31    0.62
   0   1 -11    1.90    0.33
   0   1 -11    1.59    0.28
   0  -1  11    0.71    0.26
   0  -1  11    2.14    0.36
   0  -1  11    1.79    0.34
  -1   1 -11    0.09    0.24
  -1   1 -11    0.09    0.21
  -1   1 -11    0.19    0.22
   1  -1  11   -0.26    0.22
   1  -1  11   -0.14    0.31
  -2   1 -11    1.01    0.32
  -2   1 -11    0.89    0.29
  -2   1 -11    0.33    0.27
   2  -1  11    0.63    0.38
   2  -1  11    1.59    0.36
  -3   1 -11    0.36    0.28
  -4   1 -11    0.30    0.33
  -5   0  11   -0.23    0.79
  -4   0  11    0.05    0.61
  -4   0  11    0.02    0.21
  -3   0  11    2.90    0.35
  -3   0  11    1.90    0.68
  -2   0  11    7.41    0.48
  -2   0  11    7.29    0.78
  -2   0  11    6.02    0.44
   1   0 -11    1.09    0.26
   1   0 -11    1.48    0.24
  -1   0  11    1.30    0.27
  -1   0  11    1.33    0.23
  -1   0  11    1.13    0.22
  -1   0  11    0.91    0.37
   0   0 -11   30.78    0.99
   0   0 -11   30.39    0.88
   0   0  11   31.10    0.94
   0   0  11   30.04    0.78
   0   0  11   30.67    0.96
  -1   0 -11    2.96    0.42
  -1   0 -11    2.78    0.37
  -1   0 -11    3.16    0.38
   1   0  11    2.48    0.39
   1   0  11    2.55    0.46
  -2   0 -11   12.22    0.71
  -2   0 -11   12.41    0.64
  -2   0 -11   12.97    0.65
   2   0  11   13.55    0.72
   2   0  11   12.04    0.81
  -3   0 -11    0.92    0.32
  -4   0 -11    1.03    0.41
  -5   1  11    0.74    0.99
  -4   1  11    1.00    0.75
  -3   1  11    3.67    0.70
  -2   1  11   -0.04    0.39
   1  -1 -11    1.29    0.27
   1  -1 -11    1.56    0.26
  -1   1  11    2.28    0.46
  -1   1  11    1.69    0.26
  -1   1  11    1.20    0.28
  -1   1  11    1.07    0.24
   0  -1 -11    4.52    0.48
   0  -1 -11    4.05    0.40
   0   1  11    3.27    0.44
   0   1  11    4.38    0.50
  -1  -1 -11    4.64    0.57
  -1  -1 -11    4.37    0.47
   1   1  11    4.34    0.53
   1   1  11    5.13    0.55
  -2  -1 -11    3.08    0.45
  -2  -1 -11    1.96    0.39
  -2  -1 -11    3.14    0.45
   2   1  11    2.87    0.49
  -3  -1 -11    2.44    0.45
  -4  -1 -11    0.37    0.32
  -5   2  11   -0.31    0.84
  -4   2  11    0.06    0.20
  -4   2  11    0.14    0.66
  -3   2  11    0.84    0.60
  -3   2  11    0.74    0.25
  -2   2  11    0.64    0.26
  -2   2  11    0.67    0.49
   1  -2 -11   -0.12    0.16
  -1   2  11    0.09    0.18
  -1   2  11   -0.06    0.24
  -1   2  11   -0.06    0.33
  -1   2  11    0.00    0.23
   0  -2 -11    3.13    0.45
   0  -2 -11    2.08    0.35
   0   2  11    2.32    0.48
   0   2  11    2.79    0.46
  -1  -2 -11    5.47    0.60
  -1  -2 -11    4.37    0.50
  -1  -2 -11    5.69    0.56
   1   2  11    4.73    0.61
   1   2  11    4.57    0.59
  -2  -2 -11    0.51    0.27
  -2  -2 -11    0.89    0.36
  -2  -2 -11    1.94    0.46
   2   2  11    1.90    0.45
  -3  -2 -11    3.13    0.54
  -4  -2 -11    0.42    0.36
  -4   3  11    0.55    0.31
  -3   3  11    1.84    0.37
  -3   3  11    2.96    0.75
  -2   3  11    0.24    0.26
   1  -3 -11   19.12    0.89
   1  -3 -11   18.99    0.81
  -1   3  11   19.82    0.75
  -1   3  11   18.43    0.76
  -1   3  11   17.52    0.93
   0  -3 -11   25.43    0.92
   0  -3 -11   23.46    1.06
   0  -3 -11   23.82    0.96
   0   3  11   23.61    1.11
   0   3  11   24.22    1.03
  -1  -3 -11    0.05    0.28
  -1  -3 -11    0.08    0.33
  -1  -3 -11    0.28    0.26
   1   3  11   -0.32    0.31
   1   3  11   -0.45    0.34
  -2  -3 -11    4.61    0.55
  -2  -3 -11    5.69    0.60
  -3  -3 -11    0.34    0.34
  -4  -3 -11    2.90    0.61
   4  -4 -11    1.85    0.38
  -4   4  11    1.93    0.42
   3  -4 -11    4.73    0.49
  -3   4  11    5.34    0.61
   2  -4 -11   -0.06    0.24
  -2   4  11   -0.01    0.30
   1  -4 -11    9.48    0.70
   1  -4 -11    8.81    0.64
  -1   4  11    8.12    0.66
  -1   4  11    6.98    0.76
  -1   4  11    9.07    0.61
   0  -4 -11    0.00    0.29
   0  -4 -11   -0.06    0.33
   0  -4 -11    0.62    0.29
   0   4  11    0.17    0.37
   0   4  11    0.12    0.37
  -1  -4 -11    0.57    0.37
  -1  -4 -11    0.98    0.40
  -1  -4 -11    0.72    0.35
   1   4  11    0.60    0.41
   1   4  11    0.94    0.45
  -2  -4 -11    1.11    0.43
  -2  -4 -11    1.86    0.43
  -3  -4 -11    0.90    0.46
  -4  -4 -11   -0.29    0.38
   4  -5 -11    1.30    0.39
  -4   5  11    0.04    0.35
   3  -5 -11    1.22    0.38
  -3   5  11    1.77    0.46
   2  -5 -11    1.58    0.40
  -2   5  11    1.94    0.49
   1  -5 -11   36.87    1.26
  -1   5  11   38.14    1.19
  -1   5  11   36.62    1.30
  -1   5  11   36.21    1.49
   0  -5 -11   19.58    0.98
   0  -5 -11   18.31    0.99
   0   5  11   17.88    1.09
   0   5  11   19.55    1.11
  -1  -5 -11   -0.19    0.28
  -1  -5 -11    0.08    0.44
   1   5  11   -0.01    0.39
   1   5  11    0.56    0.48
  -2  -5 -11    0.16    0.34
  -2  -5 -11   -0.31    0.35
  -3  -5 -11    0.07    0.36
   4  -6 -11    1.01    0.46
  -4   6  11    2.00    0.55
   3  -6 -11    0.41    0.37
  -3   6  11    0.98    0.46
   2  -6 -11    2.72    0.51
  -2   6  11    2.28    0.59
   1  -6 -11   17.98    1.00
  -1   6  11   15.61    0.93
  -1   6  11   17.28    1.16
   0  -6 -11    0.97    0.39
   0  -6 -11    0.71    0.42
   0   6  11    1.17    0.54
   0   6  11    0.69    0.54
  -1  -6 -11   -0.32    0.41
  -1  -6 -11   -0.03    0.31
   1   6  11    0.27    0.53
  -2  -6 -11    1.45    0.53
  -2  -6 -11    1.16    0.49
  -3  -6 -11   -0.09    0.45
   3  -7 -11   -0.09    0.39
  -3   7  11    0.63    0.48
   2  -7 -11    2.57    0.55
  -2   7  11    1.76    0.58
   1  -7 -11    2.14    0.58
  -1   7  11    2.50    0.50
  -1   7  11    2.34    0.66
   0  -7 -11    3.41    0.64
   0   7  11    3.17    0.80
   0   7  11    1.75    0.64
  -1  -7 -11    0.06    0.52
  -1  -7 -11   -0.23    0.37
   1   7  11    0.56    0.55
  -2  -7 -11    0.98    0.56
  -2  -7 -11    1.38    0.56
   3  -8 -11    0.41    0.46
  -3   8  11    2.20    0.71
   2  -8 -11   -0.17    0.40
  -2   8  11   -0.43    0.46
   1  -8 -11    0.23    0.47
  -1   8  11   -0.13    0.37
  -1   8  11   -0.65    0.47
   0   8  11    0.96    0.68
   0   8  11    0.36    0.61
  -1  -8 -11    0.06    0.46
   2  -9 -11    0.31    0.53
  -2   9  11   -0.34    0.53
  -1   9  11    0.09    0.49
  -1   9  11    0.01    0.61
   0   9  11    0.30    0.66
   0   9  11    0.18    0.68
   0 -10  12    0.97    0.54
  -1  10 -12    0.44    0.68
  -1  10 -12    1.27    0.66
  -2  10 -12    4.65    0.84
  -2  -9  12    0.18    0.73
  -2  -9  12    1.21    0.59
  -1  -9  12    1.11    0.51
  -1  -9  12    1.24    0.55
   0   9 -12   -0.26    0.46
   0  -9  12   -0.02    0.41
  -1   9 -12   -0.08    0.43
  -1   9 -12    0.31    0.57
  -2   9 -12    4.98    0.88
  -2   9 -12    5.19    0.75
  -3   9 -12    0.88    0.51
  -2  -8  12   -0.03    0.38
  -2  -8  12    0.97    0.69
  -1  -8  12    0.45    0.46
  -1  -8  12   -0.04    0.39
   0   8 -12    1.01    0.51
   0  -8  12   -0.25    0.36
   0  -8  12    0.43    0.38
  -1   8 -12    0.04    0.52
  -1   8 -12    0.21    0.41
   1  -8  12    0.18    0.43
  -2   8 -12    0.08    0.38
  -2   8 -12    0.30    0.43
  -3   8 -12    2.02    0.56
  -3  -7  12    0.52    0.62
  -3  -7  12    0.32    0.40
  -2  -7  12    0.22    0.56
  -2  -7  12    0.14    0.34
  -1  -7  12    3.25    0.64
  -1  -7  12    4.19    0.63
   0   7 -12    2.13    0.66
   0   7 -12    3.92    0.67
   0  -7  12    2.26    0.51
   0  -7  12    2.67    0.54
  -1   7 -12   21.35    1.21
  -1   7 -12   21.06    1.24
   1  -7  12   22.43    1.13
  -2   7 -12    7.35    0.78
  -2   7 -12    7.25    0.88
  -3   7 -12    6.35    0.88
  -4   7 -12    0.52    0.45
  -3  -6  12    0.45    0.36
  -3  -6  12    0.03    0.50
  -2  -6  12    0.15    0.35
  -2  -6  12    0.22    0.43
   1   6 -12    0.34    0.35
  -1  -6  12    0.28    0.28
  -1  -6  12    0.81    0.39
   0   6 -12    8.86    0.84
   0   6 -12   10.43    1.07
   0  -6  12    7.26    0.78
   0  -6  12    7.36    0.79
  -1   6 -12   33.78    1.43
  -1   6 -12   32.53    1.40
   1  -6  12   31.84    1.23
  -2   6 -12   39.70    1.54
  -2   6 -12   37.26    1.28
  -3   6 -12    0.59    0.41
  -4   6 -12   -0.12    0.31
  -4  -5  12    1.33    0.51
  -4  -5  12    0.98    0.75
  -3  -5  12    0.29    0.31
  -3  -5  12   -0.17    0.47
  -2  -5  12    0.23    0.48
  -2  -5  12    0.16    0.32
   1   5 -12   15.61    0.92
  -1  -5  12   15.02    0.81
  -1  -5  12   14.40    0.89
  -1  -5  12   14.88    0.88
   0   5 -12    0.22    0.28
   0   5 -12    0.08    0.34
   0  -5  12   -0.28    0.27
   0  -5  12    0.22    0.31
  -1   5 -12    3.39    0.57
  -1   5 -12    2.01    0.45
   1  -5  12    1.69    0.47
   1  -5  12    2.29    0.45
  -2   5 -12    2.11    0.46
  -2   5 -12    1.49    0.42
  -2   5 -12    1.54    0.43
  -3   5 -12    4.23    0.62
  -4   5 -12   -0.37    0.28
  -4  -4  12    0.30    0.35
  -4  -4  12    0.99    0.79
  -3  -4  12   -0.19    0.50
  -3  -4  12    0.21    0.33
  -2  -4  12    2.62    0.47
  -2  -4  12    3.03    0.66
   1   4 -12    7.34    0.75
   1   4 -12    7.45    0.62
  -1  -4  12    5.89    0.63
  -1  -4  12    6.57    0.67
  -1  -4  12    7.28    0.56
   0   4 -12    0.96    0.36
   0   4 -12    1.52    0.38
   0  -4  12    0.60    0.31
   0  -4  12    0.63    0.31
   0  -4  12    0.85    0.38
  -1   4 -12    7.70    0.73
  -1   4 -12    7.08    0.73
   1  -4  12    7.63    0.61
   1  -4  12    6.55    0.70
  -2   4 -12    8.02    0.61
  -2   4 -12    7.85    0.78
  -2   4 -12    7.80    0.62
  -3   4 -12    0.26    0.29
  -4   4 -12    0.00    0.28
  -4  -3  12   -0.07    0.64
  -4  -3  12    1.02    0.38
  -3  -3  12    1.27    0.36
  -3  -3  12    0.45    0.53
  -2  -3  12    0.47    0.29
  -2  -3  12   -0.31    0.38
   1   3 -12   17.28    0.75
   1   3 -12   16.51    0.83
  -1  -3  12   14.47    0.85
  -1  -3  12   17.12    0.70
  -1  -3  12   15.74    0.79
  -1  -3  12   17.17    0.77
   0   3 -12    1.10    0.29
   0   3 -12    1.28    0.37
   0  -3  12    0.97    0.41
   0  -3  12    1.02    0.30
   0  -3  12    1.12    0.36
  -1   3 -12    0.34    0.26
  -1   3 -12   -0.02    0.30
   1  -3  12   -0.25    0.32
   1  -3  12    0.13    0.22
  -2   3 -12    9.81    0.64
  -2   3 -12   10.77    0.74
  -2   3 -12   10.15    0.62
   2  -3  12   10.16    0.66
  -3   3 -12    0.59    0.33
  -4   3 -12    0.04    0.30
  -4  -2  12    0.64    0.33
  -4  -2  12    0.31    0.78
  -3  -2  12    1.36    0.63
  -3  -2  12    1.19    0.31
  -2  -2  12    9.54    0.61
  -2  -2  12    7.95    0.85
   1   2 -12    3.65    0.38
   1   2 -12    3.03    0.46
  -1  -2  12    2.45    0.31
  -1  -2  12    2.36    0.34
  -1  -2  12    2.66    0.37
  -1  -2  12    2.40    0.45
   0   2 -12    4.77    0.46
   0   2 -12    4.90    0.53
   0  -2  12    4.69    0.47
   0  -2  12    4.81    0.48
   0  -2  12    3.36    0.47
  -1   2 -12    0.49    0.30
  -1   2 -12    0.37    0.25
  -1   2 -12   -0.01    0.19
   1  -2  12    0.16    0.23
   1  -2  12    0.00    0.31
  -2   2 -12    0.15    0.26
  -2   2 -12   -0.26    0.28
  -2   2 -12   -0.12    0.21
   2  -2  12    0.18    0.25
  -3   2 -12    1.91    0.45
  -4   2 -12    2.18    0.45
  -5  -1  12    5.34    1.36
  -4  -1  12    0.10    0.23
  -4  -1  12    0.11    0.75
  -3  -1  12    0.62    0.26
  -3  -1  12    1.29    0.65
  -2  -1  12    0.31    0.42
  -2  -1  12    0.43    0.25
   1   1 -12   43.59    1.16
   1   1 -12   44.36    1.04
  -1  -1  12   43.74    0.96
  -1  -1  12   42.39    1.11
  -1  -1  12   42.93    1.27
   0   1 -12   31.04    1.04
   0   1 -12   29.84    0.92
   0  -1  12   31.25    0.97
   0  -1  12   30.01    1.00
  -1   1 -12   37.19    1.09
  -1   1 -12   36.09    1.09
  -1   1 -12   35.34    1.14
   1  -1  12   35.60    1.10
   1  -1  12   34.86    1.15
  -2   1 -12   -0.13    0.23
  -2   1 -12   -0.17    0.22
  -2   1 -12   -0.04    0.27
   2  -1  12    0.00    0.32
   2  -1  12   -0.32    0.24
  -3   1 -12   -0.07    0.26
  -4   1 -12    5.63    0.68
  -5   0  12    0.77    0.88
  -4   0  12   17.92    1.44
  -4   0  12   21.56    0.71
  -3   0  12    0.89    0.25
  -3   0  12    0.35    0.55
  -2   0  12   19.61    0.72
  -2   0  12   19.46    1.05
   1   0 -12    3.90    0.36
   1   0 -12    4.73    0.46
  -1   0  12    4.54    0.35
  -1   0  12    3.86    0.42
  -1   0  12    5.34    0.59
  -1   0  12    3.64    0.34
   0   0 -12   21.07    0.75
   0   0 -12   21.66    0.86
   0   0  12   20.42    0.65
   0   0  12   21.21    0.82
   0   0  12   21.04    0.83
  -1   0 -12   11.39    0.68
  -1   0 -12   13.98    0.74
   1   0  12   11.28    0.67
   1   0  12   12.36    0.74
  -2   0 -12    0.20    0.25
  -2   0 -12    0.00    0.27
  -2   0 -12    0.11    0.28
   2   0  12   -0.09    0.27
  -3   0 -12    3.36    0.52
  -4   0 -12    0.24    0.34
  -5   1  12   -0.12    0.80
  -4   1  12    8.19    1.28
  -4   1  12    6.86    0.41
  -3   1  12    0.44    0.49
  -2   1  12   -0.19    0.19
  -2   1  12    0.38    0.44
   1  -1 -12    7.09    0.49
   1  -1 -12    6.79    0.51
  -1   1  12    7.45    0.43
  -1   1  12    6.93    0.63
  -1   1  12    7.12    0.46
  -1   1  12    7.30    0.54
   0  -1 -12   37.26    1.07
   0  -1 -12   37.85    1.18
   0   1  12   36.71    1.14
   0   1  12   36.94    1.17
  -1  -1 -12   19.68    0.81
  -1  -1 -12   21.75    1.01
   1   1  12   18.89    0.90
   1   1  12   19.07    1.00
  -2  -1 -12   16.93    0.86
  -2  -1 -12   16.48    0.86
  -2  -1 -12   16.78    0.84
   2   1  12   16.18    0.88
  -3  -1 -12    0.07    0.27
  -4  -1 -12    0.31    0.30
  -5   2  12   -1.40    0.81
  -4   2  12    0.07    0.69
  -4   2  12    0.40    0.27
  -3   2  12   -0.15    0.23
  -3   2  12   -0.01    0.52
  -2   2  12    0.61    0.28
  -2   2  12    0.18    0.48
   1  -2 -12    2.21    0.37
   1  -2 -12    2.25    0.35
  -1   2  12    2.76    0.49
  -1   2  12    2.82    0.36
  -1   2  12    2.31    0.35
  -1   2  12    1.90    0.43
   0  -2 -12    4.47    0.45
   0  -2 -12    6.83    0.72
   0   2  12    4.12    0.54
   0   2  12    4.91    0.61
  -1  -2 -12    0.33    0.25
  -1  -2 -12   -0.18    0.22
  -1  -2 -12    0.25    0.32
   1   2  12   -0.05    0.31
   1   2  12    0.37    0.37
  -2  -2 -12    0.10    0.32
  -2  -2 -12   -0.38    0.30
  -2  -2 -12    0.25    0.26
   2   2  12    0.29    0.35
  -3  -2 -12    2.98    0.55
  -4  -2 -12    1.73    0.49
  -4   3  12    0.65    0.31
  -3   3  12    0.08    0.26
  -3   3  12   -0.50    0.50
  -2   3  12   -0.22    0.25
   1  -3 -12    2.85    0.48
   1  -3 -12    2.33    0.36
  -1   3  12    2.48    0.40
  -1   3  12    2.66    0.40
  -1   3  12    2.61    0.46
   0  -3 -12    1.42    0.39
   0  -3 -12    1.47    0.41
   0  -3 -12    1.22    0.33
   0   3  12    1.07    0.42
   0   3  12    1.61    0.45
  -1  -3 -12    1.74    0.40
  -1  -3 -12    1.41    0.42
  -1  -3 -12    0.72    0.35
   1   3  12    0.77    0.46
   1   3  12    1.80    0.52
  -2  -3 -12    0.03    0.25
  -2  -3 -12    0.20    0.33
  -3  -3 -12    1.16    0.43
  -4  -3 -12    0.41    0.38
   4  -4 -12    2.02    0.36
  -4   4  12    2.01    0.43
   3  -4 -12    2.51    0.38
  -3   4  12    2.71    0.50
   2  -4 -12    0.70    0.31
  -2   4  12   -0.34    0.26
   1  -4 -12    0.61    0.35
   1  -4 -12    1.12    0.38
  -1   4  12    0.72    0.31
  -1   4  12    0.67    0.37
  -1   4  12    0.77    0.38
   0  -4 -12    7.40    0.66
   0  -4 -12    7.43    0.78
   0  -4 -12    6.90    0.65
   0   4  12    6.86    0.81
   0   4  12    6.72    0.81
  -1  -4 -12    5.57    0.68
  -1  -4 -12    5.77    0.65
  -1  -4 -12    5.66    0.72
   1   4  12    4.44    0.70
   1   4  12    5.88    0.78
  -2  -4 -12    0.23    0.30
  -2  -4 -12   -0.34    0.33
  -3  -4 -12    0.04    0.34
   4  -5 -12    0.74    0.41
  -4   5  12    0.72    0.42
   3  -5 -12    1.66    0.41
  -3   5  12    3.09    0.56
   2  -5 -12    5.25    0.60
  -2   5  12    7.38    0.86
   1  -5 -12    3.07    0.51
  -1   5  12    1.85    0.46
  -1   5  12    2.79    0.49
  -1   5  12    3.03    0.63
   0  -5 -12    5.40    0.74
   0  -5 -12    5.57    0.72
   0  -5 -12    5.51    0.67
   0   5  12    5.44    0.79
   0   5  12    5.30    0.82
  -1  -5 -12    0.17    0.43
  -1  -5 -12    0.74    0.37
   1   5  12    0.93    0.48
  -2  -5 -12    0.19    0.39
  -2  -5 -12    1.13    0.44
  -3  -5 -12    1.01    0.48
   4  -6 -12   -0.37    0.42
  -4   6  12    0.12    0.44
   3  -6 -12    5.16    0.63
  -3   6  12    4.12    0.71
   2  -6 -12    1.04    0.41
  -2   6  12    0.16    0.39
   1  -6 -12   -0.03    0.30
  -1   6  12   -0.22    0.38
  -1   6  12    0.28    0.43
   0  -6 -12    0.22    0.36
   0  -6 -12   -0.18    0.32
   0   6  12    0.57    0.45
   0   6  12    0.76    0.52
  -1  -6 -12    2.65    0.65
  -1  -6 -12    2.80    0.57
   1   6  12    3.07    0.73
  -2  -6 -12    0.37    0.43
  -2  -6 -12    0.87    0.47
  -3  -6 -12    2.34    0.65
   3  -7 -12    1.02    0.50
  -3   7  12    0.75    0.53
   2  -7 -12   -0.04    0.34
  -2   7  12   -0.14    0.44
   1  -7 -12    3.17    0.60
  -1   7  12    3.04    0.77
  -1   7  12    1.97    0.55
   0  -7 -12    5.16    0.81
   0   7  12    5.17    0.90
   0   7  12    3.43    0.78
  -1  -7 -12    3.47    0.70
  -1  -7 -12    2.41    0.70
   1   7  12    3.86    0.85
  -2  -7 -12    0.07    0.54
  -2  -7 -12   -0.10    0.46
   3  -8 -12    1.33    0.56
  -3   8  12    0.86    0.63
   2  -8 -12    3.64    0.69
  -2   8  12    3.60    0.91
   1  -8 -12    1.72    0.57
  -1   8  12    3.34    0.85
  -1   8  12    1.19    0.58
   0   8  12    0.61    0.59
   0   8  12    0.44    0.65
  -1  -8 -12    0.01    0.44
  -1   9  12    0.48    0.52
  -1   9  12    0.17    0.67
   0   9  12   -0.17    0.67
   0   9  12    0.47    0.71
   0 -10  13    0.58    0.55
  -1  10 -13    5.06    0.88
  -1  10 -13    8.54    1.15
  -2  -9  13    3.23    0.77
  -1  -9  13    1.38    0.52
  -1  -9  13    1.18    0.52
   0   9 -13    0.85    0.57
   0  -9  13   -0.09    0.48
  -1   9 -13    0.84    0.62
  -1   9 -13    0.70    0.49
  -2   9 -13    3.46    0.64
  -2   9 -13    3.06    0.66
  -2  -8  13    2.33    0.60
  -2  -8  13    1.43    0.77
  -1  -8  13   19.17    1.15
  -1  -8  13   17.62    1.13
   0   8 -13    3.84    0.72
   0  -8  13    2.77    0.65
   0  -8  13    2.50    0.60
  -1   8 -13    0.28    0.51
  -1   8 -13    0.77    0.50
   1  -8  13    0.09    0.39
  -2   8 -13    0.04    0.34
  -2   8 -13    0.17    0.44
  -3   8 -13    1.03    0.48
  -3  -7  13    0.54    0.62
  -3  -7  13    0.74    0.46
  -2  -7  13    0.38    0.59
  -2  -7  13   -0.11    0.37
  -1  -7  13    5.40    0.70
  -1  -7  13    6.28    0.76
   0   7 -13   13.99    0.94
   0  -7  13   13.11    0.95
   0  -7  13    8.18    0.87
  -1   7 -13    0.15    0.40
  -1   7 -13   -0.17    0.46
   1  -7  13    0.19    0.35
  -2   7 -13   12.11    0.95
  -2   7 -13   12.29    0.90
  -3   7 -13    2.02    0.57
  -4   7 -13    0.58    0.44
  -3  -6  13    0.01    0.35
  -3  -6  13    0.24    0.56
  -2  -6  13    6.61    0.87
  -2  -6  13    6.04    0.74
   1   6 -13    1.83    0.48
  -1  -6  13    1.39    0.41
  -1  -6  13    1.11    0.40
   0   6 -13    0.80    0.48
   0   6 -13    1.80    0.46
   0  -6  13    0.89    0.43
   0  -6  13    1.30    0.47
  -1   6 -13    5.42    0.70
  -1   6 -13    5.47    0.77
   1  -6  13    4.48    0.62
  -2   6 -13    8.90    0.72
  -2   6 -13    8.92    0.89
  -3   6 -13    4.56    0.70
  -4   6 -13    1.36    0.47
  -4  -5  13   -0.61    0.35
  -4  -5  13   -0.64    0.64
  -3  -5  13    1.29    0.43
  -3  -5  13    0.73    0.60
  -2  -5  13   17.86    1.21
  -2  -5  13   20.17    1.04
   1   5 -13    0.15    0.31
  -1  -5  13    0.35    0.28
  -1  -5  13    0.13    0.29
  -1  -5  13    0.55    0.49
   0   5 -13    0.60    0.35
   0   5 -13    0.89    0.35
   0  -5  13    0.35    0.31
   0  -5  13    0.44    0.33
  -1   5 -13    4.37    0.65
  -1   5 -13    4.97    0.61
   1  -5  13    3.67    0.56
   1  -5  13    3.93    0.61
  -2   5 -13    0.60    0.33
  -2   5 -13    0.67    0.41
  -2   5 -13    0.32    0.37
  -3   5 -13   -0.18    0.28
  -4   5 -13    1.41    0.45
  -4  -4  13    0.22    0.40
  -4  -4  13    0.80    0.77
  -3  -4  13    3.02    0.72
  -3  -4  13    3.66    0.54
  -2  -4  13    2.74    0.49
  -2  -4  13    2.20    0.60
   1   4 -13    0.11    0.22
   1   4 -13    0.26    0.34
  -1  -4  13    0.16    0.38
  -1  -4  13    0.00    0.30
  -1  -4  13    0.12    0.28
   0   4 -13    0.36    0.33
   0   4 -13    0.27    0.26
   0  -4  13    0.37    0.28
   0  -4  13    0.19    0.32
  -1   4 -13    7.24    0.70
  -1   4 -13    6.24    0.67
   1  -4  13    6.09    0.61
   1  -4  13    5.85    0.65
  -2   4 -13    1.60    0.38
  -2   4 -13    1.06    0.36
  -2   4 -13    1.18    0.39
  -3   4 -13    0.58    0.37
  -4   4 -13    0.19    0.31
  -4  -3  13    0.55    0.70
  -4  -3  13   -0.02    0.28
  -3  -3  13   -0.42    0.49
  -3  -3  13   -0.26    0.26
  -2  -3  13    5.81    0.57
  -2  -3  13    6.25    0.79
   1   3 -13   11.05    0.74
   1   3 -13   11.03    0.66
  -1  -3  13   11.95    0.84
  -1  -3  13   13.82    0.69
  -1  -3  13    9.52    0.65
  -1  -3  13   11.16    0.67
   0   3 -13   -0.26    0.19
   0   3 -13    0.20    0.28
   0  -3  13   -0.30    0.24
   0  -3  13    0.11    0.29
  -1   3 -13   54.89    1.57
  -1   3 -13   53.54    1.48
   1  -3  13   52.74    1.41
   1  -3  13   52.83    1.58
  -2   3 -13   18.42    0.83
  -2   3 -13   19.44    0.95
  -2   3 -13   18.67    0.86
   2  -3  13   18.39    0.86
  -3   3 -13    8.91    0.74
  -4   3 -13   -0.04    0.28
  -4  -2  13    0.15    0.82
  -4  -2  13    0.64    0.31
  -3  -2  13    2.73    0.43
  -3  -2  13    3.11    0.77
  -2  -2  13   15.59    0.75
  -2  -2  13   16.21    1.08
   1   2 -13    0.16    0.18
   1   2 -13    0.00    0.26
  -1  -2  13    0.17    0.21
  -1  -2  13    0.20    0.29
  -1  -2  13    0.19    0.25
  -1  -2  13    0.15    0.34
   0   2 -13    4.17    0.53
   0   2 -13    4.31    0.43
   0  -2  13    2.25    0.39
   0  -2  13    3.57    0.47
   0  -2  13    3.55    0.45
  -1   2 -13   -0.06    0.21
  -1   2 -13    0.02    0.27
   1  -2  13    0.14    0.36
   1  -2  13   -0.07    0.22
  -2   2 -13   10.23    0.64
  -2   2 -13   11.19    0.74
  -2   2 -13   12.23    0.67
   2  -2  13   10.58    0.65
  -3   2 -13   17.71    0.95
  -4   2 -13    0.42    0.36
  -4  -1  13    0.03    0.30
  -4  -1  13    0.58    0.79
  -3  -1  13   20.52    1.34
  -3  -1  13   21.15    0.79
  -2  -1  13   24.26    0.84
  -2  -1  13   23.23    1.20
   1   1 -13    4.77    0.50
   1   1 -13    4.93    0.41
  -1  -1  13    4.86    0.38
  -1  -1  13    5.16    0.51
  -1  -1  13    5.27    0.60
   0   1 -13    5.90    0.59
   0   1 -13    5.08    0.49
   0  -1  13    4.73    0.52
   0  -1  13    5.32    0.54
  -1   1 -13    1.01    0.33
  -1   1 -13    1.10    0.30
   1  -1  13    0.90    0.31
   1  -1  13    0.85    0.36
  -2   1 -13   -0.05    0.27
  -2   1 -13    0.13    0.27
  -2   1 -13   -0.25    0.24
   2  -1  13    0.24    0.31
  -3   1 -13    1.16    0.39
  -4   1 -13    1.70    0.45
  -5   0  13    1.49    1.08
  -4   0  13    0.19    0.23
  -4   0  13   -0.10    0.64
  -3   0  13    0.87    0.27
  -3   0  13    0.61    0.60
  -2   0  13    5.68    0.47
  -2   0  13    5.11    0.73
   1   0 -13   10.40    0.64
   1   0 -13   10.80    0.55
  -1   0  13   10.80    0.71
  -1   0  13   10.20    0.51
  -1   0  13   10.66    0.53
  -1   0  13    9.49    0.63
   0   0 -13    8.53    0.61
   0   0 -13    7.29    0.52
   0   0  13    7.89    0.46
   0   0  13    8.18    0.61
   0   0  13    8.19    0.59
  -1   0 -13   16.00    0.76
  -1   0 -13   18.14    0.86
   1   0  13   16.13    0.88
   1   0  13   15.76    0.79
  -2   0 -13    0.30    0.28
  -2   0 -13    0.83    0.39
  -2   0 -13    0.53    0.32
   2   0  13    0.43    0.33
  -3   0 -13    3.81    0.56
  -4   0 -13    0.19    0.34
  -5   1  13    1.40    1.09
  -4   1  13    0.77    0.76
  -4   1  13    0.31    0.23
  -3   1  13   11.26    1.02
  -2   1  13    5.82    0.77
  -2   1  13    6.79    0.54
   1  -1 -13    4.85    0.52
   1  -1 -13    4.09    0.41
  -1   1  13    4.99    0.42
  -1   1  13    4.63    0.60
  -1   1  13    3.63    0.47
  -1   1  13    4.07    0.39
   0  -1 -13    9.44    0.59
   0  -1 -13    9.27    0.64
   0   1  13    9.17    0.68
   0   1  13    9.42    0.67
  -1  -1 -13   28.87    1.05
  -1  -1 -13   30.81    1.19
   1   1  13   30.02    1.17
   1   1  13   28.36    1.20
  -2  -1 -13    3.48    0.54
  -2  -1 -13    3.00    0.47
  -2  -1 -13    3.68    0.53
   2   1  13    2.74    0.51
  -3  -1 -13    0.94    0.36
  -4  -1 -13    0.98    0.38
  -5   2  13   -1.08    0.81
  -4   2  13    2.30    0.39
  -4   2  13    0.84    0.78
  -3   2  13    9.39    1.09
  -3   2  13    8.04    0.57
  -2   2  13   27.30    1.28
  -2   2  13   26.86    0.98
   1  -2 -13    0.53    0.28
   1  -2 -13    0.22    0.24
  -1   2  13   -0.09    0.36
  -1   2  13    0.06    0.28
  -1   2  13    0.38    0.34
  -1   2  13    0.02    0.22
   0  -2 -13   11.96    0.69
   0  -2 -13   11.82    0.75
   0   2  13   10.90    0.79
   0   2  13   11.23    0.77
  -1  -2 -13    0.08    0.34
  -1  -2 -13   -0.26    0.21
  -1  -2 -13   -0.07    0.26
   1   2  13   -0.11    0.33
   1   2  13   -0.09    0.32
  -2  -2 -13    4.28    0.53
  -2  -2 -13    4.15    0.56
   2   2  13    4.17    0.64
  -3  -2 -13    1.43    0.45
  -4  -2 -13   -0.13    0.32
  -4   3  13    2.74    0.44
  -3   3  13    0.92    0.59
  -3   3  13    0.68    0.29
  -2   3  13    7.21    0.71
   1  -3 -13    0.16    0.26
  -1   3  13    0.29    0.31
  -1   3  13    0.02    0.28
  -1   3  13   -0.03    0.24
   0  -3 -13    0.81    0.32
   0  -3 -13    0.76    0.31
   0  -3 -13    0.68    0.34
   0   3  13    0.63    0.40
   0   3  13    0.75    0.41
  -1  -3 -13    0.45    0.39
  -1  -3 -13    0.26    0.31
  -1  -3 -13    1.41    0.36
   1   3  13    0.02    0.44
   1   3  13    1.16    0.44
  -2  -3 -13    0.82    0.34
  -2  -3 -13    0.39    0.35
  -3  -3 -13    0.08    0.34
  -4  -3 -13    0.60    0.39
   4  -4 -13   -0.02    0.31
  -4   4  13    0.86    0.39
   3  -4 -13   -0.36    0.28
  -3   4  13   -0.05    0.30
   2  -4 -13   10.22    0.62
  -2   4  13   10.55    0.83
   1  -4 -13    0.32    0.29
   1  -4 -13   -0.02    0.26
  -1   4  13   -0.02    0.33
  -1   4  13   -0.31    0.30
  -1   4  13    0.21    0.29
   0  -4 -13   10.97    0.73
   0  -4 -13   11.21    0.78
   0  -4 -13   10.58    0.89
   0   4  13    9.24    0.86
   0   4  13   10.30    0.98
  -1  -4 -13   44.35    1.70
  -1  -4 -13   46.54    1.49
   1   4  13   45.97    1.73
   1   4  13   47.57    1.73
  -2  -4 -13   11.94    0.91
  -2  -4 -13   13.32    0.91
  -3  -4 -13    0.55    0.42
   4  -5 -13    0.09    0.38
  -4   5  13    1.36    0.47
   3  -5 -13    0.10    0.32
  -3   5  13    0.20    0.37
   2  -5 -13    1.76    0.38
  -2   5  13    2.12    0.53
   1  -5 -13    0.49    0.32
  -1   5  13    0.16    0.36
  -1   5  13   -0.01    0.37
   0  -5 -13   -0.01    0.31
   0  -5 -13   -0.18    0.33
   0   5  13    0.03    0.41
   0   5  13    0.37    0.46
  -1  -5 -13    4.52    0.73
  -1  -5 -13    5.42    0.67
   1   5  13    3.16    0.68
  -2  -5 -13    5.47    0.73
  -2  -5 -13    6.91    0.76
  -3  -5 -13   -0.45    0.37
  -4   6  13    4.27    0.75
   3  -6 -13    0.27    0.37
  -3   6  13    0.39    0.42
   2  -6 -13    0.46    0.36
  -2   6  13    0.40    0.50
   1  -6 -13    0.00    0.34
  -1   6  13   -0.14    0.45
  -1   6  13    0.29    0.38
   0  -6 -13    1.85    0.48
   0  -6 -13    1.46    0.49
   0   6  13    1.80    0.60
   0   6  13    1.20    0.60
  -1  -6 -13    2.69    0.66
  -1  -6 -13    2.99    0.63
   1   6  13    2.38    0.70
  -2  -6 -13    0.43    0.40
  -2  -6 -13   -0.07    0.51
   3  -7 -13    2.74    0.60
  -3   7  13    3.34    0.75
   2  -7 -13    1.90    0.53
  -2   7  13    1.49    0.63
   1  -7 -13   -0.55    0.35
  -1   7  13    0.51    0.46
  -1   7  13    1.06    0.57
   0   7  13    4.93    0.94
   0   7  13    4.12    0.86
  -1  -7 -13    5.14    0.93
  -1  -7 -13    5.16    0.79
   1   7  13    4.66    1.00
  -2  -7 -13   -0.53    0.49
  -2  -7 -13   -0.30    0.46
   2  -8 -13    0.16    0.43
  -2   8  13    0.10    0.55
   1  -8 -13    1.32    0.52
  -1   8  13    1.72    0.72
  -1   8  13    0.46    0.50
   0   8  13    0.41    0.64
   0   8  13    1.23    0.73
  -1  -8 -13    0.97    0.61
  -1   9  13    2.83    0.92
   0 -10  14    0.34    0.57
  -1  10 -14    9.15    1.18
  -1  10 -14    6.87    0.94
  -1  -9  14   -0.36    0.32
  -1  -9  14   -0.14    0.40
   0   9 -14    0.34    0.46
   0  -9  14    0.59    0.54
  -1   9 -14    2.85    0.78
  -1   9 -14    3.27    0.68
  -2   9 -14    0.02    0.47
  -2   9 -14    0.48    0.47
  -2  -8  14   -0.07    0.43
  -2  -8  14    0.46    0.69
  -1  -8  14    0.22    0.40
  -1  -8  14    0.09    0.40
   0   8 -14    0.41    0.43
   0  -8  14    0.85    0.49
   0  -8  14    0.55    0.46
  -1   8 -14    0.20    0.51
  -1   8 -14    0.31    0.38
  -2   8 -14    0.28    0.40
  -2   8 -14    0.21    0.36
  -3   8 -14    0.86    0.51
  -3  -7  14    1.43    0.56
  -3  -7  14    1.05    0.69
  -2  -7  14    0.50    0.45
  -2  -7  14    0.35    0.53
  -1  -7  14    5.84    0.78
  -1  -7  14    3.73    0.57
   0   7 -14    0.29    0.37
   0  -7  14    0.02    0.36
   0  -7  14   -0.03    0.35
  -1   7 -14    4.42    0.78
  -1   7 -14    3.14    0.57
   1  -7  14    2.72    0.55
  -2   7 -14    0.01    0.33
  -2   7 -14    0.48    0.44
  -3   7 -14    5.03    0.79
  -3  -6  14    2.21    0.72
  -3  -6  14    1.86    0.54
  -2  -6  14    4.72    0.87
  -2  -6  14    3.46    0.61
  -1  -6  14    0.54    0.33
  -1  -6  14    0.53    0.36
   0   6 -14    0.31    0.31
   0   6 -14    0.64    0.45
   0  -6  14    0.15    0.31
   0  -6  14    0.03    0.33
  -1   6 -14    0.22    0.39
  -1   6 -14   -0.17    0.29
   1  -6  14    0.28    0.38
  -2   6 -14    6.83    0.75
  -2   6 -14    6.65    0.82
  -3   6 -14    3.39    0.63
  -4   6 -14    2.14    0.57
  -4  -5  14    0.15    0.75
  -4  -5  14    0.10    0.42
  -3  -5  14   10.07    1.18
  -2  -5  14    4.11    0.79
  -2  -5  14    5.58    0.68
   1   5 -14    1.88    0.42
  -1  -5  14    1.83    0.45
  -1  -5  14    1.16    0.37
   0   5 -14    7.99    0.77
   0   5 -14    8.84    0.91
   0  -5  14    7.83    0.77
   0  -5  14    4.79    0.61
  -1   5 -14    7.43    0.76
  -1   5 -14    8.58    0.88
   1  -5  14    6.76    0.70
   1  -5  14    6.94    0.78
  -2   5 -14    0.72    0.40
  -2   5 -14    0.67    0.36
  -3   5 -14    0.41    0.36
  -4   5 -14    0.66    0.36
  -4  -4  14    0.48    0.38
  -4  -4  14    0.19    0.70
  -3  -4  14    3.15    0.53
  -3  -4  14    2.14    0.73
  -2  -4  14   17.86    1.07
  -2  -4  14   18.08    0.90
   1   4 -14    0.83    0.33
  -1  -4  14    1.48    0.54
  -1  -4  14    0.86    0.40
  -1  -4  14    1.23    0.39
  -1  -4  14    1.26    0.34
   0   4 -14   51.38    1.62
   0   4 -14   50.29    1.48
   0  -4  14   51.07    1.49
  -1   4 -14    2.54    0.47
  -1   4 -14    3.93    0.62
   1  -4  14    2.80    0.46
   1  -4  14    2.28    0.52
  -2   4 -14   15.93    0.83
  -2   4 -14   15.78    0.88
  -2   4 -14   15.03    0.95
  -3   4 -14   -0.20    0.31
  -4   4 -14   -0.11    0.32
  -4  -3  14    0.12    0.32
  -4  -3  14   -0.62    0.61
  -3  -3  14    3.88    0.81
  -3  -3  14    3.77    0.50
  -2  -3  14    0.03    0.30
  -2  -3  14    0.16    0.42
   1   3 -14    2.11    0.42
   1   3 -14    2.45    0.38
  -1  -3  14    1.48    0.31
  -1  -3  14    1.95    0.43
  -1  -3  14    1.98    0.39
  -1  -3  14    2.70    0.57
   0   3 -14    0.73    0.33
   0   3 -14    0.04    0.23
   0  -3  14    0.74    0.30
   0  -3  14    0.75    0.37
  -1   3 -14    3.49    0.50
  -1   3 -14    4.58    0.64
   1  -3  14    3.31    0.46
   1  -3  14    3.23    0.55
  -2   3 -14    0.84    0.36
  -2   3 -14    0.64    0.33
  -2   3 -14    0.73    0.35
   2  -3  14    0.83    0.36
  -3   3 -14    0.04    0.29
  -4   3 -14    0.63    0.33
  -4  -2  14    0.18    0.31
  -4  -2  14   -0.60    0.70
  -3  -2  14    0.33    0.52
  -3  -2  14   -0.06    0.26
  -2  -2  14    1.19    0.36
  -2  -2  14    1.30    0.52
   1   2 -14    2.06    0.40
   1   2 -14    2.52    0.36
  -1  -2  14    1.73    0.31
  -1  -2  14    1.79    0.36
  -1  -2  14    2.50    0.56
  -1  -2  14    1.91    0.40
   0   2 -14    6.51    0.57
   0   2 -14    7.20    0.67
   0  -2  14    6.20    0.59
   0  -2  14    6.25    0.60
  -1   2 -14    3.90    0.50
  -1   2 -14    4.37    0.57
   1  -2  14    4.38    0.60
  -2   2 -14    0.29    0.29
  -2   2 -14   -0.02    0.27
  -2   2 -14   -0.39    0.26
   2  -2  14   -0.06    0.26
  -3   2 -14   12.63    0.85
  -4   2 -14    0.07    0.28
  -4  -1  14    1.41    0.36
  -4  -1  14    0.11    0.75
  -3  -1  14   24.05    0.88
  -3  -1  14   22.21    1.40
  -2  -1  14   17.40    1.07
  -2  -1  14   14.70    0.74
   1   1 -14    0.07    0.19
   1   1 -14    0.29    0.23
  -1  -1  14    0.10    0.23
  -1  -1  14   -0.09    0.32
  -1  -1  14    0.12    0.26
   0   1 -14   40.22    1.28
   0   1 -14   41.55    1.16
   0  -1  14   42.59    1.27
   0  -1  14   43.00    1.13
   0  -1  14   39.63    1.23
  -1   1 -14    1.86    0.40
  -1   1 -14    0.75    0.29
   1  -1  14    0.59    0.36
   1  -1  14    1.49    0.38
  -2   1 -14    0.47    0.32
  -2   1 -14    0.62    0.32
  -2   1 -14    0.30    0.31
   2  -1  14    0.11    0.30
  -3   1 -14    0.07    0.29
  -4   1 -14    0.99    0.37
  -4   0  14    8.75    1.31
  -4   0  14    7.32    0.54
  -3   0  14    1.68    0.75
  -3   0  14    1.50    0.33
  -2   0  14    4.30    0.50
  -2   0  14    6.01    0.80
   1   0 -14    5.96    0.49
   1   0 -14    7.08    0.56
  -1   0  14    8.02    0.75
  -1   0  14    7.50    0.48
  -1   0  14    7.36    0.63
  -1   0  14    7.10    0.48
   0   0 -14   28.18    1.12
   0   0 -14   28.75    0.95
   0   0  14   28.18    1.02
   0   0  14   26.91    1.06
   0   0  14   27.40    0.80
  -1   0 -14   23.29    0.99
  -1   0 -14   23.50    0.94
   1   0  14   23.92    1.09
   1   0  14   26.41    1.03
  -2   0 -14    0.82    0.38
  -2   0 -14    0.15    0.29
  -2   0 -14    0.72    0.35
   2   0  14    0.21    0.31
  -3   0 -14    2.09    0.46
  -4   0 -14   -0.42    0.29
  -4   1  14    3.61    0.41
  -4   1  14    2.19    0.89
  -3   1  14    4.33    0.82
  -3   1  14    3.97    0.48
  -2   1  14    3.26    0.45
  -2   1  14    5.76    0.79
   1  -1 -14    0.75    0.27
   1  -1 -14    0.59    0.23
  -1   1  14    0.91    0.26
  -1   1  14    1.09    0.33
  -1   1  14    0.65    0.28
  -1   1  14    1.66    0.43
   0  -1 -14    2.26    0.44
   0  -1 -14    2.67    0.40
   0   1  14    2.07    0.42
   0   1  14    3.10    0.53
  -1  -1 -14   40.31    1.27
  -1  -1 -14   41.30    1.37
   1   1  14   38.17    1.37
   1   1  14   38.36    1.37
  -2  -1 -14    2.26    0.45
  -2  -1 -14    1.00    0.37
  -2  -1 -14    1.70    0.49
   2   1  14    1.13    0.44
  -3  -1 -14    0.00    0.29
  -4  -1 -14    1.29    0.43
  -4   2  14    0.92    0.34
  -4   2  14    0.62    0.80
  -3   2  14    0.19    0.53
  -3   2  14   -0.30    0.24
  -2   2  14    0.02    0.27
  -2   2  14    0.30    0.53
   1  -2 -14   11.48    0.74
   1  -2 -14   10.10    0.62
  -1   2  14   10.79    0.82
  -1   2  14   10.81    0.77
  -1   2  14   13.34    0.72
  -1   2  14   10.89    0.61
   0  -2 -14    0.77    0.33
   0  -2 -14    0.93    0.29
   0   2  14    0.42    0.35
   0   2  14    0.30    0.35
  -1  -2 -14    0.10    0.29
  -1  -2 -14   -0.10    0.22
  -1  -2 -14    0.09    0.33
   1   2  14    0.00    0.36
   1   2  14    0.01    0.34
  -2  -2 -14    3.42    0.52
  -2  -2 -14    3.27    0.48
  -3  -2 -14    1.40    0.45
  -4  -2 -14   -0.30    0.32
  -4   3  14   -0.02    0.30
  -3   3  14    1.99    0.70
  -3   3  14    1.76    0.38
  -2   3  14    1.38    0.41
   1  -3 -14    8.44    0.64
  -1   3  14    9.13    0.63
  -1   3  14    9.77    0.62
  -1   3  14    8.41    0.79
   0  -3 -14   32.70    1.33
   0  -3 -14   33.04    1.15
   0  -3 -14   35.92    1.17
   0   3  14   32.48    1.36
   0   3  14   32.21    1.31
  -1  -3 -14   14.85    0.98
  -1  -3 -14   13.84    0.86
  -1  -3 -14   16.38    0.86
   1   3  14   15.42    1.05
   1   3  14   16.11    1.00
  -2  -3 -14   -0.04    0.27
  -2  -3 -14   -0.15    0.39
  -3  -3 -14    0.13    0.33
  -4  -3 -14   -0.03    0.36
   4  -4 -14    0.50    0.36
  -4   4  14    0.62    0.39
   3  -4 -14    0.46    0.31
  -3   4  14    0.88    0.40
   2  -4 -14    5.16    0.57
  -2   4  14    5.86    0.73
   1  -4 -14    0.27    0.33
  -1   4  14    0.18    0.37
  -1   4  14   -0.16    0.35
  -1   4  14    0.07    0.28
   0  -4 -14   26.66    1.12
   0  -4 -14   26.00    1.24
   0  -4 -14   27.31    1.10
   0   4  14   27.86    1.29
   0   4  14   26.97    1.34
  -1  -4 -14    1.23    0.51
  -1  -4 -14    1.59    0.41
   1   4  14    1.57    0.54
   1   4  14    1.00    0.60
  -2  -4 -14    0.56    0.46
  -2  -4 -14    0.85    0.40
  -3  -4 -14    0.50    0.40
   4  -5 -14    0.21    0.39
  -4   5  14   -0.10    0.37
   3  -5 -14    0.73    0.34
  -3   5  14    0.91    0.42
   2  -5 -14    0.05    0.31
  -2   5  14   -0.48    0.33
   1  -5 -14    0.14    0.30
  -1   5  14   -0.24    0.39
  -1   5  14    0.63    0.40
   0  -5 -14   14.60    0.89
   0  -5 -14   13.88    0.95
   0   5  14   13.82    1.08
   0   5  14   12.98    1.00
  -1  -5 -14   10.31    0.93
  -1  -5 -14   10.73    0.93
   1   5  14    8.95    1.04
  -2  -5 -14    0.52    0.46
  -2  -5 -14    0.77    0.42
  -3  -5 -14    2.69    0.65
  -4   6  14    0.13    0.44
   3  -6 -14    7.51    0.76
  -3   6  14    7.27    0.90
   2  -6 -14    0.63    0.41
  -2   6  14    0.63    0.45
   1  -6 -14    0.25    0.35
  -1   6  14    0.20    0.41
  -1   6  14    0.43    0.45
   0  -6 -14    8.83    0.97
   0  -6 -14    9.96    0.93
   0   6  14   10.63    1.17
   0   6  14    8.26    0.98
  -1  -6 -14   -0.19    0.47
  -1  -6 -14    0.12    0.42
   1   6  14    0.73    0.57
  -2  -6 -14    0.28    0.51
  -2  -6 -14    0.36    0.38
   3  -7 -14   -0.08    0.37
  -3   7  14   -0.12    0.42
   2  -7 -14   -0.15    0.34
  -2   7  14    0.96    0.56
   1  -7 -14    1.36    0.50
  -1   7  14    0.47    0.46
  -1   7  14    2.70    0.79
   0   7  14   -0.34    0.58
   0   7  14   -0.08    0.54
  -1  -7 -14   -0.40    0.42
   1   7  14   -0.47    0.56
  -2  -7 -14   -0.04    0.49
  -2  -7 -14   -0.18    0.57
   2  -8 -14    3.51    0.73
  -2   8  14    5.21    1.03
  -1   8  14    0.71    0.49
  -1   8  14    0.52    0.60
   0   8  14   -0.10    0.58
   0   8  14    0.11    0.68
  -1  -8 -14    0.84    0.61
   0 -10  15    1.42    0.66
  -1  10 -15    2.45    0.64
  -1  -9  15    0.84    0.51
  -1  -9  15    0.02    0.41
   0  -9  15   -0.26    0.44
  -1   9 -15    0.79    0.47
  -1   9 -15    0.72    0.68
  -2   9 -15   -0.14    0.42
  -2   9 -15    0.54    0.44
  -2  -8  15    2.81    0.64
  -2  -8  15    3.19    0.78
  -1  -8  15    0.28    0.42
  -1  -8  15   -0.19    0.39
   0   8 -15    0.50    0.42
   0  -8  15   -0.21    0.40
   0  -8  15    0.48    0.46
  -1   8 -15    2.45    0.73
  -1   8 -15    1.76    0.54
  -2   8 -15    1.27    0.48
  -2   8 -15    0.76    0.45
  -3   8 -15    0.35    0.46
  -3  -7  15    1.03    0.66
  -3  -7  15    1.33    0.57
  -2  -7  15    0.32    0.51
  -2  -7  15   -0.34    0.35
  -1  -7  15    0.52    0.40
  -1  -7  15   -0.10    0.30
   0   7 -15    4.80    0.69
   0  -7  15    3.30    0.61
   0  -7  15    4.22    0.68
  -1   7 -15    0.39    0.50
  -1   7 -15   -0.20    0.30
   1  -7  15    0.26    0.40
  -2   7 -15    1.74    0.53
  -2   7 -15    1.52    0.51
  -3   7 -15    4.01    0.71
  -3  -6  15    8.46    0.91
  -3  -6  15    6.40    1.02
  -2  -6  15    1.90    0.73
  -2  -6  15    2.15    0.53
  -1  -6  15    0.22    0.31
  -1  -6  15    0.22    0.35
   0   6 -15    1.29    0.47
   0   6 -15    1.95    0.58
   0  -6  15    1.15    0.45
   0  -6  15    1.16    0.43
  -1   6 -15    4.51    0.76
  -1   6 -15    4.55    0.69
   1  -6  15    4.27    0.65
  -2   6 -15    0.76    0.40
  -2   6 -15    1.05    0.45
  -3   6 -15    3.39    0.64
  -4   6 -15    0.55    0.42
  -4  -5  15   -0.23    0.40
  -4  -5  15    0.15    0.70
  -3  -5  15    0.84    0.67
  -3  -5  15    0.69    0.37
  -2  -5  15    1.13    0.59
  -2  -5  15    0.32    0.32
   1   5 -15    7.99    0.74
  -1  -5  15    4.54    0.55
  -1  -5  15    7.09    0.79
   0   5 -15    0.03    0.29
   0   5 -15   -0.23    0.34
   0  -5  15    0.09    0.30
   0  -5  15    0.13    0.32
  -1   5 -15    3.63    0.63
  -1   5 -15    3.81    0.58
   1  -5  15    2.85    0.53
   1  -5  15    3.51    0.65
  -2   5 -15    2.71    0.51
  -2   5 -15    1.72    0.45
  -3   5 -15    0.00    0.32
  -4   5 -15   -0.28    0.28
  -4  -4  15   -0.14    0.34
  -4  -4  15    0.88    0.81
  -3  -4  15    0.52    0.62
  -3  -4  15    0.18    0.30
  -2  -4  15    2.36    0.50
  -2  -4  15    1.93    0.61
   1   4 -15    4.89    0.58
  -1  -4  15    4.09    0.55
  -1  -4  15    5.12    0.77
  -1  -4  15    4.25    0.52
  -1  -4  15    3.50    0.58
   0   4 -15   39.96    1.48
   0   4 -15   39.93    1.31
   0  -4  15   39.76    1.42
   0  -4  15   39.02    1.37
  -1   4 -15   15.81    0.93
  -1   4 -15   15.04    0.94
   1  -4  15   15.21    0.99
   1  -4  15   15.26    0.86
  -2   4 -15    5.08    0.62
  -2   4 -15    6.17    0.74
  -3   4 -15    3.64    0.61
  -4   4 -15    0.44    0.36
  -4  -3  15   -0.29    0.64
  -4  -3  15   -0.09    0.34
  -3  -3  15   -0.02    0.32
  -3  -3  15   -0.22    0.58
  -2  -3  15    2.56    0.59
  -2  -3  15    2.74    0.49
   1   3 -15    7.60    0.63
  -1  -3  15    6.93    0.68
  -1  -3  15    8.12    0.65
  -1  -3  15    7.28    0.54
  -1  -3  15   10.12    0.95
   0   3 -15   10.85    0.76
   0   3 -15    9.91    0.68
   0  -3  15    9.66    0.69
   0  -3  15    9.84    0.72
  -1   3 -15    5.09    0.62
  -1   3 -15    4.23    0.58
   1  -3  15    6.10    0.71
   1  -3  15    5.01    0.57
  -2   3 -15   25.69    1.14
  -2   3 -15   24.96    1.03
  -2   3 -15   27.19    1.05
  -3   3 -15    5.35    0.68
  -4   3 -15   -0.05    0.30
  -4  -2  15    1.14    0.88
  -4  -2  15    1.25    0.37
  -3  -2  15   -0.22    0.53
  -3  -2  15    0.41    0.33
  -2  -2  15    1.73    0.57
  -2  -2  15    2.13    0.42
   1   2 -15   10.99    0.65
   1   2 -15   10.56    0.72
  -1  -2  15   11.25    0.59
  -1  -2  15   11.21    0.85
  -1  -2  15   11.10    0.71
  -1  -2  15    9.94    0.60
   0   2 -15    1.56    0.36
   0   2 -15    1.72    0.40
   0  -2  15    1.60    0.40
   0  -2  15    1.30    0.37
  -1   2 -15    0.18    0.30
  -1   2 -15    0.01    0.25
   1  -2  15   -0.02    0.40
  -2   2 -15    0.78    0.36
  -2   2 -15    0.18    0.31
  -2   2 -15    0.72    0.34
   2  -2  15    0.72    0.33
  -3   2 -15    2.51    0.50
  -4   2 -15    0.34    0.31
  -4  -1  15    4.40    1.15
  -4  -1  15    4.28    0.52
  -3  -1  15    7.85    1.07
  -3  -1  15    8.04    0.61
  -2  -1  15   13.00    0.73
  -2  -1  15   12.97    0.99
   1   1 -15    1.39    0.38
   1   1 -15    1.55    0.29
  -1  -1  15    1.76    0.34
  -1  -1  15    1.75    0.36
  -1  -1  15    1.72    0.47
   0   1 -15    9.02    0.60
   0   1 -15    9.13    0.64
   0  -1  15    7.92    0.65
   0  -1  15    8.42    0.65
   0  -1  15   10.10    0.62
  -1   1 -15    6.86    0.67
  -1   1 -15    8.78    0.68
   1  -1  15    6.74    0.74
   1  -1  15    7.58    0.60
  -2   1 -15    4.76    0.58
  -2   1 -15    5.99    0.62
  -2   1 -15    6.12    0.61
   2  -1  15    6.00    0.66
  -3   1 -15    2.18    0.50
  -4   1 -15    0.07    0.35
  -4   0  15    4.33    0.48
  -4   0  15    3.03    0.92
  -3   0  15    8.34    1.15
  -3   0  15    8.01    0.65
  -2   0  15    4.34    0.52
  -2   0  15    3.93    0.73
   1   0 -15    0.33    0.22
   1   0 -15    0.15    0.24
  -1   0  15    0.33    0.35
  -1   0  15    0.24    0.22
  -1   0  15    0.79    0.29
   0   0 -15    1.00    0.36
   0   0 -15    1.13    0.29
   0   0  15    1.21    0.37
   0   0  15    1.34    0.40
   0   0  15    0.86    0.30
  -1   0 -15   -0.23    0.27
  -1   0 -15    0.07    0.24
   1   0  15    0.11    0.38
   1   0  15    0.14    0.30
  -2   0 -15    4.55    0.57
  -2   0 -15    3.87    0.55
  -2   0 -15    4.95    0.59
   2   0  15    4.08    0.58
  -3   0 -15   -0.28    0.28
  -4   0 -15    0.03    0.37
  -4   1  15    1.03    0.32
  -4   1  15    0.93    0.76
  -3   1  15   12.41    1.27
  -3   1  15   10.89    0.64
  -2   1  15   26.75    1.03
  -2   1  15   28.18    1.31
   1  -1 -15    3.10    0.39
   1  -1 -15    2.97    0.45
  -1   1  15    3.31    0.40
  -1   1  15    3.74    0.44
  -1   1  15    4.28    0.56
  -1   1  15    2.93    0.52
   0  -1 -15    0.49    0.26
   0  -1 -15    0.83    0.34
   0   1  15    0.51    0.33
   0   1  15    0.45    0.35
  -1  -1 -15    1.62    0.37
  -1  -1 -15    1.68    0.44
   1   1  15    2.20    0.52
   1   1  15    0.73    0.44
  -2  -1 -15    0.28    0.30
  -2  -1 -15    0.58    0.44
   2   1  15    0.79    0.41
  -3  -1 -15    0.08    0.34
  -4  -1 -15    0.06    0.32
  -4   2  15    0.00    0.76
  -4   2  15    0.28    0.31
  -3   2  15    4.26    0.86
  -3   2  15    4.03    0.52
  -2   2  15    6.37    0.66
  -2   2  15    6.15    0.87
   1  -2 -15   33.44    1.10
  -1   2  15   34.64    1.05
  -1   2  15   36.03    1.04
  -1   2  15   35.04    1.20
  -1   2  15   32.51    1.32
   0  -2 -15    0.56    0.34
   0  -2 -15    1.13    0.33
   0   2  15    0.65    0.39
   0   2  15    1.46    0.48
  -1  -2 -15    0.62    0.31
  -1  -2 -15    0.18    0.34
  -1  -2 -15    0.50    0.29
   1   2  15    0.49    0.38
   1   2  15    0.55    0.43
  -2  -2 -15    3.57    0.54
  -2  -2 -15    3.74    0.55
  -3  -2 -15    0.55    0.40
  -4  -2 -15   -0.21    0.33
  -4   3  15    0.12    0.34
  -3   3  15    2.01    0.72
  -3   3  15    2.86    0.48
  -2   3  15    1.27    0.42
   1  -3 -15    0.32    0.28
  -1   3  15   -0.15    0.29
  -1   3  15   -0.16    0.31
  -1   3  15   -0.04    0.26
   0  -3 -15   21.44    0.98
   0  -3 -15   20.84    1.08
   0  -3 -15   21.61    0.94
   0   3  15   20.23    1.10
   0   3  15   22.61    1.16
  -1  -3 -15    0.91    0.32
  -1  -3 -15    0.79    0.42
  -1  -3 -15    1.08    0.37
   1   3  15    0.45    0.40
   1   3  15    0.88    0.44
  -2  -3 -15    2.05    0.49
  -2  -3 -15    1.94    0.44
  -3  -3 -15   -0.12    0.31
   4  -4 -15    0.24    0.37
  -4   4  15    0.59    0.42
   3  -4 -15    2.70    0.46
  -3   4  15    3.70    0.56
   2  -4 -15    0.11    0.30
  -2   4  15    0.13    0.36
   1  -4 -15    0.46    0.33
  -1   4  15   -0.39    0.35
  -1   4  15   -0.13    0.30
  -1   4  15   -0.05    0.36
   0  -4 -15    6.41    0.70
   0  -4 -15    5.16    0.65
   0   4  15    5.11    0.75
   0   4  15    5.74    0.79
  -1  -4 -15   -0.27    0.40
  -1  -4 -15    0.35    0.33
   1   4  15    0.22    0.43
   1   4  15   -0.33    0.45
  -2  -4 -15    2.42    0.58
  -2  -4 -15    2.71    0.59
  -3  -4 -15   -0.33    0.36
   4  -5 -15    0.53    0.42
  -4   5  15    0.70    0.43
   3  -5 -15    1.22    0.40
  -3   5  15    1.33    0.51
   2  -5 -15    1.33    0.42
  -2   5  15    1.13    0.50
   1  -5 -15    1.84    0.42
  -1   5  15    0.74    0.40
  -1   5  15    1.53    0.56
   0  -5 -15    2.16    0.47
   0  -5 -15    2.18    0.50
   0   5  15    0.99    0.56
   0   5  15    3.20    0.67
  -1  -5 -15    8.27    0.95
  -1  -5 -15    7.95    0.85
   1   5  15    8.44    1.06
  -2  -5 -15   -0.69    0.32
  -2  -5 -15   -0.18    0.41
  -3  -5 -15    0.26    0.40
   3  -6 -15    0.32    0.40
  -3   6  15    0.51    0.47
   2  -6 -15    5.80    0.72
  -2   6  15    7.52    0.94
   1  -6 -15    0.53    0.45
  -1   6  15    0.82    0.61
  -1   6  15    0.94    0.45
   0  -6 -15    0.28    0.46
   0   6  15    0.11    0.50
   0   6  15    1.10    0.56
  -1  -6 -15    0.61    0.53
  -1  -6 -15    0.49    0.42
   1   6  15    0.22    0.54
  -2  -6 -15    1.13    0.50
  -2  -6 -15    0.95    0.57
   3  -7 -15    0.51    0.46
  -3   7  15    0.23    0.49
   2  -7 -15    1.96    0.57
  -2   7  15    2.48    0.73
   1  -7 -15    0.58    0.43
  -1   7  15   -0.13    0.46
  -1   7  15   -0.02    0.40
   0   7  15    0.01    0.56
   0   7  15   -0.23    0.48
  -1  -7 -15    1.70    0.59
   2  -8 -15    8.45    0.96
  -2   8  15    7.93    1.24
  -1   8  15    2.07    0.85
  -1   8  15    2.13    0.62
   0   8  15    0.75    0.74
   0   8  15    1.15    0.60
  -1  -9  16    2.47    0.70
  -1  -9  16    1.12    0.51
   0  -9  16    2.41    0.66
  -1   9 -16   -0.16    0.38
  -1   9 -16    0.25    0.59
  -2   9 -16    2.00    0.58
  -2   9 -16    1.37    0.55
  -2  -8  16    0.75    0.46
  -2  -8  16    1.14    0.69
  -1  -8  16   -0.17    0.38
  -1  -8  16   -0.34    0.38
   0   8 -16    5.31    0.80
   0  -8  16    3.13    0.66
   0  -8  16    2.59    0.65
  -1   8 -16    0.34    0.55
  -1   8 -16   -0.27    0.31
  -2   8 -16    0.00    0.37
  -2   8 -16    0.16    0.45
  -3   8 -16    0.29    0.41
  -3  -7  16   -0.39    0.39
  -3  -7  16    0.57    0.65
  -2  -7  16    0.89    0.46
  -2  -7  16    0.02    0.63
  -1  -7  16    0.76    0.48
  -1  -7  16    0.01    0.36
   0   7 -16    3.90    0.72
   0  -7  16    2.57    0.63
   0  -7  16    4.19    0.70
  -1   7 -16    1.32    0.48
  -1   7 -16    0.52    0.48
   1  -7  16    0.39    0.42
  -2   7 -16    1.17    0.49
  -2   7 -16    2.03    0.52
  -3   7 -16    4.32    0.73
  -3  -6  16    1.34    0.62
  -3  -6  16    0.72    0.48
  -2  -6  16    8.94    0.89
  -2  -6  16   12.46    1.32
  -1  -6  16    0.08    0.30
  -1  -6  16    0.00    0.38
   0   6 -16    3.20    0.56
   0  -6  16    2.60    0.55
   0  -6  16    2.13    0.50
  -1   6 -16    0.43    0.34
  -1   6 -16    0.64    0.46
   1  -6  16    0.51    0.43
  -2   6 -16    3.81    0.65
  -2   6 -16    3.06    0.58
  -3   6 -16    2.08    0.56
  -4   6 -16    1.64    0.55
  -4  -5  16    0.34    0.41
  -3  -5  16    0.28    0.36
  -3  -5  16    0.04    0.60
  -2  -5  16    0.94    0.58
  -2  -5  16    1.17    0.45
  -1  -5  16   76.21    2.27
  -1  -5  16   71.33    1.90
  -1  -5  16   73.92    2.03
   0   5 -16   13.78    0.87
   0   5 -16   12.74    0.96
   0  -5  16   10.46    0.85
   0  -5  16   13.25    0.89
  -1   5 -16    0.91    0.48
  -1   5 -16    1.02    0.37
   1  -5  16    1.10    0.51
   1  -5  16    0.91    0.43
  -2   5 -16    1.56    0.44
  -2   5 -16    1.87    0.44
  -3   5 -16    0.43    0.36
  -4   5 -16    0.17    0.37
  -4  -4  16    0.62    0.45
  -4  -4  16   -0.36    0.72
  -3  -4  16    1.04    0.67
  -3  -4  16    1.41    0.42
  -2  -4  16    5.89    0.89
  -2  -4  16    4.03    0.61
   1   4 -16    2.38    0.43
  -1  -4  16    2.00    0.45
  -1  -4  16    1.60    0.47
  -1  -4  16    1.99    0.39
  -1  -4  16    3.13    0.70
   0   4 -16    3.11    0.52
   0   4 -16    4.10    0.66
   0  -4  16    3.34    0.55
   0  -4  16    2.42    0.53
  -1   4 -16    3.89    0.57
  -1   4 -16    3.48    0.57
   1  -4  16    2.27    0.57
   1  -4  16    2.27    0.48
  -2   4 -16    5.21    0.67
  -2   4 -16    5.00    0.61
  -3   4 -16    1.76    0.48
  -4   4 -16   -0.09    0.35
  -4  -3  16    0.80    0.68
  -4  -3  16   -0.12    0.34
  -3  -3  16    0.91    0.35
  -3  -3  16    0.83    0.69
  -2  -3  16    0.01    0.33
  -2  -3  16    1.27    0.53
   1   3 -16    8.27    0.64
  -1  -3  16    8.07    0.67
  -1  -3  16    6.94    0.69
  -1  -3  16    9.01    0.84
  -1  -3  16    7.77    0.56
   0   3 -16    0.29    0.28
   0   3 -16    0.87    0.37
   0  -3  16    0.55    0.35
   0  -3  16    0.74    0.40
  -1   3 -16    1.56    0.47
  -1   3 -16    1.75    0.41
   1  -3  16    1.81    0.51
   1  -3  16    1.89    0.46
  -2   3 -16   18.17    0.99
  -2   3 -16   19.50    0.97
  -3   3 -16    4.61    0.66
  -4   3 -16    1.98    0.51
  -4  -2  16    0.99    0.92
  -4  -2  16    0.22    0.33
  -3  -2  16    3.15    0.48
  -3  -2  16    2.99    0.78
  -2  -2  16   23.06    1.01
  -2  -2  16   22.79    1.31
   1   2 -16   15.64    0.73
  -1  -2  16   14.31    0.81
  -1  -2  16   15.36    0.74
  -1  -2  16   14.86    0.74
  -1  -2  16   15.55    0.93
   0   2 -16    1.18    0.37
   0   2 -16    1.13    0.33
   0  -2  16    1.75    0.45
   0  -2  16    0.98    0.36
  -1   2 -16    2.44    0.48
  -1   2 -16    2.46    0.46
   1  -2  16    1.89    0.43
   1  -2  16    1.94    0.48
  -2   2 -16    6.44    0.65
  -2   2 -16    6.06    0.67
   2  -2  16    6.30    0.67
  -3   2 -16    0.19    0.35
  -4   2 -16    9.95    0.99
  -4  -1  16    0.42    0.36
  -4  -1  16   -0.29    0.70
  -3  -1  16    0.14    0.29
  -3  -1  16    0.57    0.56
  -2  -1  16   22.12    0.94
  -2  -1  16   22.70    1.22
   1   1 -16   37.03    1.08
   1   1 -16   39.27    1.33
  -1  -1  16   38.53    1.09
  -1  -1  16   37.16    1.26
  -1  -1  16   37.83    1.34
   0   1 -16   -0.12    0.21
   0   1 -16   -0.17    0.26
   0  -1  16   -0.47    0.31
   0  -1  16    0.43    0.32
  -1   1 -16    2.11    0.44
  -1   1 -16    4.01    0.53
   1  -1  16    2.68    0.48
   1  -1  16    3.26    0.57
  -2   1 -16    0.82    0.36
  -2   1 -16   -0.41    0.28
   2  -1  16    0.74    0.37
  -3   1 -16    1.72    0.45
  -4   1 -16    0.49    0.40
  -4   0  16    1.20    0.38
  -4   0  16    1.70    0.84
  -3   0  16    9.10    0.63
  -3   0  16   10.55    1.26
  -2   0  16    1.98    0.63
  -2   0  16    2.07    0.44
   1   0 -16    1.97    0.39
   1   0 -16    3.19    0.41
  -1   0  16    2.02    0.37
  -1   0  16    3.23    0.41
  -1   0  16    3.32    0.54
   0   0 -16    8.94    0.64
   0   0 -16    9.75    0.79
   0   0  16   10.28    0.57
   0   0  16    8.99    0.72
   0   0  16    8.98    0.69
  -1   0 -16   15.49    0.91
  -1   0 -16   15.44    0.80
   1   0  16   14.23    0.88
   1   0  16   15.89    0.98
  -2   0 -16    3.56    0.53
  -2   0 -16    3.95    0.54
   2   0  16    3.23    0.56
  -3   0 -16    3.68    0.59
  -4   0 -16    0.27    0.40
  -4   1  16    0.55    0.77
  -4   1  16    0.65    0.30
  -3   1  16    5.35    0.56
  -3   1  16    5.34    0.95
  -2   1  16   24.57    1.05
  -2   1  16   25.63    1.26
   1  -1 -16    0.47    0.26
  -1   1  16    0.32    0.31
  -1   1  16    0.34    0.40
  -1   1  16    0.00    0.28
  -1   1  16    0.10    0.22
   0  -1 -16    0.42    0.35
   0  -1 -16    0.32    0.25
   0   1  16    0.74    0.40
   0   1  16    0.29    0.34
  -1  -1 -16    3.78    0.62
  -1  -1 -16    3.36    0.51
   1   1  16    3.81    0.66
   1   1  16    2.60    0.55
  -2  -1 -16    8.32    0.82
  -2  -1 -16    9.51    0.83
  -3  -1 -16    1.46    0.46
  -4  -1 -16    0.21    0.36
  -4   2  16   -0.50    0.29
  -4   2  16   -0.36    0.78
  -3   2  16   -0.09    0.55
  -3   2  16   -0.06    0.26
  -2   2  16    7.53    0.92
  -2   2  16    7.68    0.72
   1  -2 -16   30.27    1.09
  -1   2  16   29.72    1.00
  -1   2  16   27.83    0.98
  -1   2  16   29.29    1.13
  -1   2  16   30.08    1.31
   0  -2 -16   23.22    1.13
   0  -2 -16   26.01    1.01
   0   2  16   23.19    1.18
   0   2  16   23.42    1.13
  -1  -2 -16    1.01    0.36
  -1  -2 -16   -0.13    0.34
  -1  -2 -16    0.24    0.27
   1   2  16    0.58    0.38
   1   2  16    0.01    0.41
  -2  -2 -16    0.21    0.30
  -2  -2 -16    0.73    0.40
  -3  -2 -16    0.98    0.43
  -4  -2 -16   -0.09    0.35
  -4   3  16    3.82    0.56
  -3   3  16    1.12    0.65
  -3   3  16    2.45    0.48
  -2   3  16    3.08    0.58
  -1   3  16    4.68    0.66
  -1   3  16    5.20    0.56
  -1   3  16    6.09    0.59
   0  -3 -16    4.17    0.55
   0  -3 -16    4.18    0.62
   0  -3 -16    4.34    0.58
   0   3  16    4.37    0.66
   0   3  16    3.86    0.66
  -1  -3 -16   38.12    1.31
  -1  -3 -16   38.03    1.49
   1   3  16   38.59    1.57
   1   3  16   38.82    1.66
  -2  -3 -16    2.35    0.48
  -2  -3 -16    2.24    0.51
  -3  -3 -16    0.38    0.35
   4  -4 -16    1.37    0.45
  -4   4  16    2.30    0.54
   3  -4 -16    0.36    0.34
  -3   4  16   -0.10    0.32
   2  -4 -16    0.37    0.31
  -2   4  16    0.50    0.40
   1  -4 -16    0.50    0.35
  -1   4  16    0.33    0.38
  -1   4  16    1.72    0.52
   0  -4 -16    0.26    0.31
   0  -4 -16   -0.09    0.30
   0   4  16    0.01    0.45
   0   4  16   -0.24    0.37
  -1  -4 -16   -0.25    0.40
  -1  -4 -16    0.34    0.36
   1   4  16   -0.30    0.41
  -2  -4 -16   33.60    1.45
  -3  -4 -16   10.19    1.02
  -4   5  16    0.49    0.44
   3  -5 -16    4.22    0.56
  -3   5  16    4.69    0.73
   2  -5 -16    0.19    0.35
  -2   5  16   -0.35    0.38
   1  -5 -16    1.65    0.46
  -1   5  16    2.65    0.64
  -1   5  16    2.21    0.51
   0  -5 -16   -0.35    0.34
   0  -5 -16   -0.23    0.36
   0   5  16    0.61    0.54
   0   5  16   -0.23    0.50
  -1  -5 -16    1.28    0.55
  -1  -5 -16    1.31    0.50
   1   5  16    1.61    0.59
  -2  -5 -16   -0.31    0.37
  -2  -5 -16    0.86    0.57
  -3  -5 -16    0.46    0.45
   3  -6 -16    5.77    0.72
  -3   6  16    5.82    0.87
   2  -6 -16    2.71    0.55
  -2   6  16    2.68    0.72
   1  -6 -16    0.03    0.40
  -1   6  16   -0.08    0.39
  -1   6  16   -0.33    0.46
   0   6  16    0.31    0.57
   0   6  16    0.16    0.55
  -1  -6 -16   -0.13    0.37
   1   6  16    0.14    0.57
  -2  -6 -16    0.88    0.63
  -2  -6 -16    2.16    0.62
  -3   7  16    6.79    1.00
   2  -7 -16    2.79    0.60
  -2   7  16    2.35    0.70
   1  -7 -16    0.37    0.45
  -1   7  16    0.54    0.46
  -1   7  16    0.91    0.61
   0   7  16   -0.14    0.52
   0   7  16    0.74    0.63
  -1  -7 -16    0.66    0.57
   2  -8 -16    4.80    0.82
  -2   8  16    4.74    0.99
  -1   8  16    0.41    0.50
  -1   8  16    0.99    0.67
   0   8  16    0.49    0.66
   0   8  16    0.71    0.74
  -1  -9  17   -0.28    0.50
  -1  -9  17   -0.27    0.42
   0  -9  17    2.92    0.74
  -1   9 -17   -0.13    0.41
  -1   9 -17    0.56    0.59
  -2   9 -17    1.84    0.66
  -2   9 -17    1.27    0.54
  -2  -8  17    0.33    0.71
  -2  -8  17   -0.24    0.42
  -1  -8  17    0.29    0.42
  -1  -8  17    0.61    0.53
   0   8 -17    3.30    0.69
   0  -8  17    3.05    0.70
   0  -8  17    1.18    0.57
  -1   8 -17    0.83    0.59
  -1   8 -17    0.85    0.49
  -2   8 -17    0.90    0.50
  -2   8 -17    1.21    0.50
  -3   8 -17   -0.06    0.36
  -3  -7  17    5.53    1.05
  -2  -7  17    0.45    0.43
  -2  -7  17    0.10    0.75
  -1  -7  17    1.12    0.49
  -1  -7  17    0.83    0.45
   0   7 -17   11.50    1.08
   0  -7  17    6.05    0.79
   0  -7  17    6.81    0.82
  -1   7 -17    1.66    0.57
  -1   7 -17    1.47    0.49
   1  -7  17    0.34    0.43
  -2   7 -17    0.02    0.41
  -2   7 -17    0.69    0.39
  -3   7 -17    0.01    0.32
  -3  -6  17    0.19    0.63
  -3  -6  17    0.56    0.42
  -2  -6  17    6.56    1.06
  -2  -6  17    6.01    0.80
  -1  -6  17    0.20    0.36
  -1  -6  17    0.14    0.32
   0   6 -17    2.09    0.51
   0  -6  17    0.73    0.40
   0  -6  17    0.89    0.43
  -1   6 -17    1.82    0.48
  -1   6 -17    3.12    0.66
   1  -6  17    3.06    0.60
  -2   6 -17    0.64    0.44
  -2   6 -17    0.02    0.32
  -3   6 -17    0.66    0.47
  -3  -5  17    0.51    0.40
  -3  -5  17    1.29    0.71
  -2  -5  17   10.48    0.98
  -2  -5  17    9.46    1.17
  -1  -5  17   -0.12    0.55
  -1  -5  17    0.82    0.44
  -1  -5  17    0.46    0.36
   0   5 -17    3.47    0.56
   0   5 -17    2.89    0.62
   0  -5  17    2.88    0.60
   0  -5  17    1.97    0.48
  -1   5 -17    3.36    0.60
  -1   5 -17    4.20    0.63
   1  -5  17    4.04    0.62
   1  -5  17    5.12    0.76
  -2   5 -17    1.40    0.47
  -2   5 -17    0.06    0.35
  -3   5 -17    0.03    0.36
  -4   5 -17    0.83    0.46
  -4  -4  17    0.98    0.82
  -4  -4  17    1.19    0.50
  -3  -4  17   -0.08    0.62
  -3  -4  17   -0.65    0.28
  -2  -4  17    1.42    0.43
  -2  -4  17    1.66    0.61
  -1  -4  17   10.93    0.96
  -1  -4  17   10.77    0.74
  -1  -4  17   11.33    0.86
  -1  -4  17    9.69    0.81
   0   4 -17    7.05    0.79
   0   4 -17    6.73    0.69
   0  -4  17    4.81    0.61
   0  -4  17    4.92    0.68
  -1   4 -17   33.57    1.35
  -1   4 -17   31.42    1.34
   1  -4  17   30.73    1.40
   1  -4  17   34.01    1.31
  -2   4 -17    1.48    0.46
  -2   4 -17    2.08    0.51
  -3   4 -17    0.02    0.34
  -4   4 -17    0.39    0.36
  -4  -3  17    3.41    1.01
  -4  -3  17    2.49    0.50
  -3  -3  17    0.05    0.60
  -3  -3  17    0.33    0.33
  -2  -3  17    0.39    0.51
  -2  -3  17    0.17    0.31
   1   3 -17    0.09    0.24
  -1  -3  17   -0.15    0.29
  -1  -3  17   -0.69    0.39
  -1  -3  17   -0.05    0.24
  -1  -3  17   -0.35    0.32
   0   3 -17    0.49    0.35
   0   3 -17    0.22    0.29
   0  -3  17    0.18    0.38
   0  -3  17    1.03    0.38
  -1   3 -17   22.33    1.02
  -1   3 -17   21.74    1.09
   1  -3  17   22.17    1.09
   1  -3  17   21.12    1.11
  -2   3 -17    1.31    0.45
  -2   3 -17    1.36    0.43
  -3   3 -17    2.97    0.61
  -4   3 -17    0.65    0.43
  -4  -2  17    0.80    0.87
  -4  -2  17    0.83    0.38
  -3  -2  17    3.65    0.55
  -3  -2  17    4.98    0.92
  -2  -2  17    8.42    0.69
  -2  -2  17    6.58    0.87
   1   2 -17   17.76    0.83
  -1  -2  17   18.11    1.01
  -1  -2  17   16.15    0.88
  -1  -2  17   17.64    0.75
  -1  -2  17   18.24    0.88
   0   2 -17   14.98    0.88
   0   2 -17   16.56    0.82
   0  -2  17   14.41    0.87
   0  -2  17   15.05    0.84
  -1   2 -17    9.13    0.71
  -1   2 -17    8.81    0.76
   1  -2  17    9.68    0.88
   1  -2  17    9.99    0.82
  -2   2 -17    3.13    0.56
  -2   2 -17    3.42    0.54
  -3   2 -17    0.03    0.31
  -4   2 -17    4.53    0.71
  -4  -1  17    2.30    0.96
  -4  -1  17    1.31    0.40
  -3  -1  17    2.18    0.43
  -3  -1  17    1.74    0.68
  -2  -1  17   19.31    0.91
  -2  -1  17   18.26    1.11
   1   1 -17   55.75    1.41
  -1  -1  17   53.26    1.58
  -1  -1  17   57.87    1.41
  -1  -1  17   54.96    1.63
   0   1 -17   14.33    0.78
   0   1 -17   13.68    0.84
   0  -1  17   13.83    0.85
   0  -1  17   14.67    0.69
  -1   1 -17    1.36    0.38
  -1   1 -17    1.39    0.41
   1  -1  17    1.68    0.43
   1  -1  17    1.06    0.45
  -2   1 -17    0.33    0.33
  -2   1 -17    1.23    0.37
  -3   1 -17    0.82    0.40
  -4   1 -17    0.28    0.41
  -4   0  17    1.54    0.82
  -3   0  17   18.34    1.35
  -3   0  17   18.18    0.91
  -2   0  17    0.86    0.53
  -2   0  17    1.09    0.40
   1   0 -17    3.63    0.44
  -1   0  17    4.03    0.47
  -1   0  17    4.04    0.60
  -1   0  17    2.95    0.51
  -1   0  17    4.30    0.47
   0   0 -17    1.10    0.39
   0   0 -17    0.37    0.24
   0   0  17    0.84    0.33
   0   0  17   -0.32    0.37
   0   0  17    0.59    0.34
  -1   0 -17    4.11    0.58
  -1   0 -17    3.49    0.51
   1   0  17    2.71    0.60
   1   0  17    3.65    0.60
  -2   0 -17    2.09    0.47
  -2   0 -17    1.32    0.42
  -3   0 -17    0.79    0.36
  -4   0 -17   -0.31    0.33
  -4   1  17   -0.31    0.31
  -4   1  17   -0.22    0.73
  -3   1  17    0.72    0.32
  -3   1  17    0.21    0.59
  -2   1  17   13.01    0.99
  -2   1  17   13.49    0.81
   1  -1 -17    2.65    0.42
  -1   1  17    1.66    0.50
  -1   1  17    1.46    0.38
  -1   1  17    3.09    0.43
  -1   1  17    2.20    0.46
   0  -1 -17    3.22    0.55
   0  -1 -17    3.74    0.49
   0   1  17    3.82    0.62
   0   1  17    3.44    0.58
  -1  -1 -17    0.09    0.26
  -1  -1 -17    0.13    0.42
   1   1  17   -0.12    0.35
   1   1  17    0.09    0.41
  -2  -1 -17   14.74    0.97
  -2  -1 -17   14.50    0.92
  -3  -1 -17    0.25    0.34
  -4  -1 -17    0.32    0.37
  -4   2  17    0.82    0.38
  -4   2  17    0.02    0.86
  -3   2  17    2.75    0.82
  -3   2  17    2.71    0.49
  -2   2  17    3.75    0.76
  -2   2  17    2.91    0.53
  -1   2  17    1.43    0.50
  -1   2  17    1.08    0.31
  -1   2  17    2.93    0.57
  -1   2  17    1.40    0.37
   0  -2 -17   28.65    1.27
   0  -2 -17   29.87    1.12
   0   2  17   29.20    1.28
   0   2  17   29.53    1.36
  -1  -2 -17    0.36    0.28
  -1  -2 -17    0.38    0.41
  -1  -2 -17    0.03    0.30
   1   2  17    0.15    0.38
   1   2  17   -0.36    0.42
  -2  -2 -17    0.01    0.27
  -2  -2 -17   -0.02    0.35
  -3  -2 -17    0.93    0.41
  -4   3  17   -0.04    0.38
  -3   3  17    0.07    0.62
  -3   3  17   -0.13    0.32
  -2   3  17    0.16    0.37
  -1   3  17    6.16    0.63
  -1   3  17    7.23    0.65
  -1   3  17    6.83    0.81
   0  -3 -17    4.20    0.56
   0  -3 -17    4.07    0.57
   0   3  17    3.10    0.61
   0   3  17    4.31    0.70
  -1  -3 -17   12.55    0.80
  -1  -3 -17   14.65    1.04
   1   3  17   12.62    1.14
   1   3  17   13.70    1.11
  -2  -3 -17    1.06    0.39
  -2  -3 -17    1.11    0.52
  -3  -3 -17    0.89    0.43
   4  -4 -17    1.82    0.46
  -4   4  17    4.10    0.67
   3  -4 -17    0.30    0.36
  -3   4  17    0.46    0.41
   2  -4 -17   -0.06    0.31
  -2   4  17    0.61    0.42
   1  -4 -17    0.01    0.27
  -1   4  17    0.31    0.35
  -1   4  17   -0.03    0.39
   0  -4 -17   -0.04    0.31
   0  -4 -17   -0.27    0.27
   0   4  17    0.29    0.41
   0   4  17   -0.14    0.44
  -1  -4 -17   13.68    1.05
  -1  -4 -17   15.11    0.95
   1   4  17   14.61    1.16
  -2  -4 -17   11.52    0.98
  -3  -4 -17    0.28    0.45
  -4   5  17    1.17    0.49
   3  -5 -17    0.17    0.38
  -3   5  17    0.55    0.47
   2  -5 -17    0.64    0.37
  -2   5  17    0.43    0.50
   1  -5 -17    2.74    0.57
  -1   5  17    3.63    0.76
  -1   5  17    2.05    0.52
   0  -5 -17    7.45    0.80
   0  -5 -17    6.88    0.83
   0   5  17    7.72    1.05
   0   5  17    6.51    0.89
  -1  -5 -17    4.76    0.69
  -1  -5 -17    4.07    0.73
   1   5  17    4.03    0.78
  -2  -5 -17    0.28    0.55
  -2  -5 -17    0.78    0.48
   3  -6 -17    1.99    0.55
  -3   6  17    2.73    0.67
   2  -6 -17    9.09    0.88
  -2   6  17    9.32    1.13
   1  -6 -17   -0.28    0.38
  -1   6  17   -0.35    0.45
  -1   6  17    0.26    0.42
   0   6  17    0.46    0.55
   0   6  17    0.90    0.63
  -1  -6 -17    0.14    0.43
   1   6  17    0.53    0.55
  -2  -6 -17    0.31    0.52
  -2  -6 -17    0.14    0.62
   2  -7 -17    2.98    0.65
  -2   7  17    4.32    0.87
   1  -7 -17    0.03    0.45
  -1   7  17   -0.33    0.51
  -1   7  17    0.46    0.47
   0   7  17    0.67    0.68
   0   7  17    1.38    0.73
  -1  -7 -17    1.48    0.62
  -1   8  17   14.84    1.54
  -1  -9  18    0.23    0.58
  -1  -9  18   -0.41    0.94
  -1  -9  18    0.51    0.49
   0  -9  18    0.30    0.52
  -1   9 -18   -0.04    0.60
  -1   9 -18    0.50    0.50
  -2   9 -18    0.75    0.49
  -2  -8  18    1.94    0.70
  -2  -8  18    2.75    0.99
  -1  -8  18    2.45    0.57
  -1  -8  18    4.31    0.79
   0  -8  18   -0.02    0.45
   0  -8  18   -0.42    0.41
  -1   8 -18   -0.12    0.53
  -1   8 -18    0.26    0.37
  -2   8 -18    2.66    0.62
  -2   8 -18    2.43    0.57
  -2  -7  18   -0.38    0.67
  -2  -7  18    0.19    0.44
  -1  -7  18    0.75    0.80
  -1  -7  18    0.32    0.39
  -1  -7  18    0.31    0.40
   0   7 -18    0.60    0.40
   0  -7  18   -0.07    0.39
   0  -7  18    0.47    0.43
  -1   7 -18    1.11    0.44
  -1   7 -18    0.57    0.48
   1  -7  18    0.34    0.46
  -2   7 -18   -0.27    0.28
  -2   7 -18    0.18    0.43
  -3   7 -18    0.39    0.40
  -3  -6  18    0.62    0.51
  -3  -6  18    0.28    0.68
  -2  -6  18    6.20    1.04
  -2  -6  18    6.52    0.85
  -1  -6  18    1.26    0.69
  -1  -6  18    1.54    0.54
  -1  -6  18    0.67    0.34
   0   6 -18    0.09    0.29
   0  -6  18    0.48    0.45
   0  -6  18    0.27    0.39
  -1   6 -18   -0.33    0.42
  -1   6 -18   -0.17    0.27
   1  -6  18   -0.41    0.36
  -2   6 -18    3.33    0.65
  -2   6 -18    4.12    0.66
  -3   6 -18    1.49    0.50
  -3  -5  18    0.61    0.71
  -3  -5  18    1.00    0.45
  -2  -5  18    0.05    0.52
  -2  -5  18   -0.04    0.34
  -1  -5  18    3.14    0.76
  -1  -5  18    2.14    0.46
  -1  -5  18    2.43    0.53
   0   5 -18    2.22    0.50
   0  -5  18    2.46    0.50
   0  -5  18    3.03    0.59
  -1   5 -18   -0.15    0.37
  -1   5 -18    0.01    0.30
   1  -5  18    0.07    0.35
  -2   5 -18    0.44    0.37
  -2   5 -18    0.83    0.38
  -3   5 -18    0.91    0.45
  -4   5 -18    0.87    0.47
  -4  -4  18    0.16    0.43
  -4  -4  18    1.63    0.86
  -3  -4  18    1.49    0.74
  -3  -4  18    2.07    0.51
  -2  -4  18    2.80    0.76
  -2  -4  18    4.13    0.61
  -1  -4  18    1.83    0.48
  -1  -4  18    3.52    0.79
  -1  -4  18    1.96    0.44
   0   4 -18    4.27    0.66
   0   4 -18    4.05    0.57
   0  -4  18    3.64    0.59
   0  -4  18    4.19    0.61
  -1   4 -18   14.51    0.91
  -1   4 -18   14.10    0.94
   1  -4  18   13.79    0.92
   1  -4  18   13.45    1.03
  -2   4 -18   11.09    0.83
  -2   4 -18   10.95    0.85
  -3   4 -18    1.93    0.53
  -4   4 -18    0.93    0.41
  -4  -3  18    0.64    0.78
  -4  -3  18    0.53    0.39
  -3  -3  18    0.68    0.72
  -3  -3  18    0.85    0.41
  -2  -3  18    3.85    0.78
  -2  -3  18    3.07    0.52
  -1  -3  18    6.49    0.73
  -1  -3  18    6.46    0.69
  -1  -3  18    5.88    0.75
  -1  -3  18    5.01    0.54
   0   3 -18   -0.21    0.31
   0   3 -18   -0.11    0.26
   0  -3  18   -0.25    0.28
   0  -3  18   -0.03    0.37
  -1   3 -18    1.11    0.39
  -1   3 -18    0.77    0.42
   1  -3  18    0.82    0.39
   1  -3  18    1.04    0.52
  -2   3 -18    0.51    0.35
  -2   3 -18    0.68    0.38
  -3   3 -18   14.47    0.99
  -4   3 -18    0.61    0.40
  -4  -2  18    2.09    0.48
  -4  -2  18    0.38    0.82
  -3  -2  18    0.47    0.34
  -3  -2  18   -0.03    0.56
  -2  -2  18    0.05    0.30
  -2  -2  18   -0.43    0.51
   1   2 -18    2.82    0.41
  -1  -2  18    2.05    0.56
  -1  -2  18    3.35    0.54
  -1  -2  18    3.54    0.52
  -1  -2  18    2.59    0.41
   0   2 -18    2.73    0.48
   0   2 -18    2.64    0.50
   0  -2  18    2.26    0.54
   0  -2  18    1.12    0.40
   0  -2  18    0.89    0.38
  -1   2 -18    0.06    0.26
  -1   2 -18   -0.32    0.31
   1  -2  18   -0.10    0.38
   1  -2  18    0.66    0.37
  -2   2 -18    4.59    0.64
  -2   2 -18    4.05    0.56
  -3   2 -18    2.02    0.50
  -4   2 -18    0.49    0.39
  -4  -1  18    3.56    0.50
  -4  -1  18    1.55    0.98
  -3  -1  18    0.40    0.33
  -3  -1  18    0.42    0.60
  -2  -1  18    5.29    0.60
  -2  -1  18    4.68    0.84
   1   1 -18   39.99    1.17
  -1  -1  18   38.17    1.38
  -1  -1  18   40.01    1.19
  -1  -1  18   38.23    1.44
  -1  -1  18   40.84    1.20
   0   1 -18    2.20    0.41
   0   1 -18    2.00    0.45
   0  -1  18    2.17    0.48
   0  -1  18    3.46    0.57
   0  -1  18    2.31    0.48
  -1   1 -18    2.38    0.50
  -1   1 -18    1.84    0.41
   1  -1  18    2.60    0.50
   1  -1  18    1.77    0.50
  -2   1 -18    2.45    0.49
  -2   1 -18    1.92    0.47
  -3   1 -18    1.02    0.44
  -4   1 -18    0.35    0.41
  -4   0  18    0.20    0.75
  -3   0  18    2.60    0.86
  -3   0  18    3.57    0.54
  -2   0  18    3.52    0.67
   1   0 -18    0.19    0.26
  -1   0  18    0.27    0.29
  -1   0  18   -0.10    0.36
  -1   0  18    0.06    0.38
  -1   0  18    0.01    0.30
   0   0 -18    5.12    0.66
   0   0 -18    9.50    0.70
   0   0  18    6.81    0.70
   0   0  18    5.97    0.68
   0   0  18    6.70    0.58
  -1   0 -18    0.25    0.36
  -1   0 -18    0.13    0.27
   1   0  18    0.19    0.35
   1   0  18    0.26    0.40
  -2   0 -18    1.52    0.42
  -2   0 -18    1.35    0.46
  -3   0 -18    0.19    0.37
  -4   0 -18    0.04    0.36
  -4   1  18    0.93    0.41
  -4   1  18    1.22    0.94
  -3   1  18    0.11    0.32
  -3   1  18    0.02    0.53
  -2   1  18    6.49    0.92
  -2   1  18    6.17    0.68
  -1   1  18   51.85    1.60
  -1   1  18   50.76    1.71
  -1   1  18   52.02    1.32
   0  -1 -18    1.34    0.42
   0  -1 -18    1.98    0.39
   0   1  18    2.48    0.57
   0   1  18    1.43    0.48
  -1  -1 -18   11.44    0.75
  -1  -1 -18   11.27    0.88
   1   1  18   10.99    0.91
   1   1  18   11.61    0.94
  -2  -1 -18    0.89    0.45
  -2  -1 -18    1.36    0.40
  -3  -1 -18    1.04    0.43
  -4  -1 -18    0.14    0.41
  -4   2  18    0.24    0.36
  -4   2  18    1.39    0.99
  -3   2  18   -0.04    0.29
  -3   2  18    0.11    0.61
  -2   2  18    7.06    0.79
  -2   2  18    8.31    1.03
  -1   2  18   20.34    0.89
  -1   2  18   19.52    0.90
  -1   2  18   19.06    1.12
  -1   2  18   18.74    1.04
   0  -2 -18   20.96    1.13
   0  -2 -18   19.80    0.96
   0   2  18   22.29    1.23
   0   2  18   20.22    1.14
  -1  -2 -18    0.85    0.33
  -1  -2 -18    0.77    0.48
   1   2  18    0.13    0.45
   1   2  18    0.12    0.43
  -2  -2 -18    1.48    0.43
  -2  -2 -18    2.37    0.52
  -3  -2 -18   -0.19    0.29
  -4   3  18    5.29    0.70
  -3   3  18    0.53    0.38
  -3   3  18    0.34    0.66
  -2   3  18    7.85    0.87
  -1   3  18    2.34    0.56
  -1   3  18    3.59    0.53
  -1   3  18    4.04    0.55
   0  -3 -18    3.89    0.56
   0  -3 -18    3.58    0.58
   0   3  18    2.80    0.62
   0   3  18    2.74    0.59
  -1  -3 -18    1.63    0.53
  -1  -3 -18    1.79    0.43
   1   3  18    2.07    0.58
   1   3  18    2.50    0.69
  -2  -3 -18    1.51    0.45
  -2  -3 -18    1.62    0.61
  -3  -3 -18    1.74    0.50
   4  -4 -18   -0.80    0.37
  -4   4  18    0.05    0.41
   3  -4 -18    1.34    0.42
  -3   4  18    0.71    0.45
   2  -4 -18   -0.16    0.34
  -2   4  18    0.11    0.41
   1  -4 -18    4.11    0.58
  -1   4  18    5.15    0.83
  -1   4  18    3.06    0.53
   0  -4 -18    2.10    0.49
   0  -4 -18    1.62    0.45
   0   4  18    2.50    0.62
   0   4  18    0.82    0.48
  -1  -4 -18    2.07    0.52
  -1  -4 -18    0.76    0.50
   1   4  18    2.38    0.70
  -2  -4 -18    0.03    0.34
  -2  -4 -18    0.55    0.56
  -3  -4 -18    4.02    0.76
   3  -5 -18   -0.53    0.36
  -3   5  18    0.28    0.50
   2  -5 -18    0.65    0.38
  -2   5  18    1.20    0.51
   1  -5 -18    1.44    0.47
  -1   5  18    1.27    0.60
  -1   5  18    0.76    0.43
   0   5  18    0.53    0.57
   0   5  18    0.65    0.56
  -1  -5 -18    0.67    0.41
   1   5  18   -0.20    0.48
  -2  -5 -18    2.06    0.64
  -2  -5 -18    2.97    0.66
   3  -6 -18    0.17    0.43
  -3   6  18    0.15    0.47
   2  -6 -18    2.00    0.56
  -2   6  18    2.08    0.68
   1  -6 -18    4.38    0.69
  -1   6  18    3.65    0.66
  -1   6  18    5.34    0.91
   0   6  18   -0.35    0.46
   0   6  18   -0.19    0.53
  -1  -6 -18    1.84    0.56
   1   6  18    1.18    0.67
  -2  -6 -18    1.79    0.79
  -2  -6 -18    3.58    0.78
   2  -7 -18    3.50    0.67
  -2   7  18    3.47    0.85
   1  -7 -18   -0.11    0.47
  -1   7  18    0.16    0.47
  -1   7  18   -0.25    0.53
   0   7  18   -0.27    0.56
   0   7  18   -0.18    0.60
   0  -9  19    0.44    0.57
  -1   9 -19   -0.23    0.37
  -1   9 -19   -0.17    0.59
  -2  -8  19   -0.12    0.45
  -2  -8  19    0.99    0.87
  -1  -8  19    1.72    0.52
  -1  -8  19    2.00    0.94
  -1  -8  19    2.59    0.66
   0  -8  19    0.07    0.45
   0  -8  19   -0.37    0.40
  -1   8 -19    0.52    0.56
  -1   8 -19   -0.15    0.36
  -2   8 -19    0.96    0.55
  -2   8 -19    0.81    0.45
  -2  -7  19   -0.21    0.43
  -2  -7  19   -0.13    0.76
  -1  -7  19    0.30    0.76
  -1  -7  19    1.04    0.41
  -1  -7  19    1.38    0.56
   0   7 -19    0.23    0.37
   0  -7  19    0.40    0.44
   0  -7  19    1.04    0.50
  -1   7 -19    2.14    0.64
  -1   7 -19    1.35    0.47
   1  -7  19    1.86    0.56
  -2   7 -19    2.11    0.58
  -2   7 -19    0.83    0.40
  -3   7 -19    3.51    0.71
  -3  -6  19    0.58    0.71
  -3  -6  19    0.98    0.51
  -2  -6  19    0.08    0.39
  -2  -6  19    0.22    0.61
  -1  -6  19    4.25    0.60
  -1  -6  19    5.39    0.73
  -1  -6  19    7.08    1.09
   0   6 -19    5.75    0.76
   0  -6  19    5.68    0.75
   0  -6  19    2.82    0.57
  -1   6 -19    2.20    0.61
  -1   6 -19    1.55    0.46
   1  -6  19    0.84    0.46
  -2   6 -19    0.26    0.41
  -2   6 -19   -0.24    0.30
  -3   6 -19    3.31    0.70
  -3  -5  19    0.97    0.75
  -3  -5  19    0.99    0.41
  -2  -5  19    0.18    0.42
  -2  -5  19   -0.02    0.48
  -1  -5  19   -0.04    0.56
  -1  -5  19    0.39    0.40
  -1  -5  19    0.30    0.32
   0   5 -19   53.90    1.73
   0  -5  19   52.93    1.80
  -1   5 -19   14.46    1.02
  -1   5 -19   14.49    0.95
   1  -5  19   15.72    0.99
  -2   5 -19    0.12    0.30
  -2   5 -19    0.57    0.42
  -3   5 -19    0.74    0.42
  -3  -4  19   -0.28    0.31
  -3  -4  19   -0.12    0.58
  -2  -4  19   -0.52    0.48
  -2  -4  19   -0.36    0.33
  -1  -4  19   -0.13    0.31
  -1  -4  19    0.25    0.32
  -1  -4  19    0.74    0.56
   0   4 -19    0.62    0.35
   0  -4  19    0.12    0.37
   0  -4  19   -0.02    0.36
  -1   4 -19    1.65    0.42
  -1   4 -19    0.57    0.46
   1  -4  19    0.22    0.48
   1  -4  19    0.98    0.43
  -2   4 -19    1.70    0.47
  -2   4 -19    2.35    0.53
  -3   4 -19    0.31    0.36
  -4   4 -19    0.10    0.35
  -4  -3  19    0.45    0.73
  -4  -3  19    1.40    0.48
  -3  -3  19    1.15    0.77
  -3  -3  19    1.23    0.45
  -2  -3  19    0.62    0.38
  -2  -3  19    0.53    0.54
  -1  -3  19    0.20    0.35
  -1  -3  19    0.09    0.39
  -1  -3  19    0.08    0.50
  -1  -3  19   -0.42    0.25
   0   3 -19    3.90    0.58
   0   3 -19    2.48    0.54
   0  -3  19    2.96    0.52
   0  -3  19    3.52    0.58
  -1   3 -19    3.40    0.53
  -1   3 -19    2.62    0.57
   1  -3  19    2.47    0.61
  -2   3 -19    0.82    0.40
  -2   3 -19    1.42    0.48
  -3   3 -19    1.74    0.51
  -4   3 -19    0.70    0.45
  -4  -2  19    0.55    0.43
  -4  -2  19   -0.16    0.79
  -3  -2  19    1.83    0.46
  -3  -2  19    0.94    0.71
  -2  -2  19    3.33    0.58
  -2  -2  19    1.54    0.64
  -1  -2  19   16.05    0.96
  -1  -2  19   16.82    0.87
  -1  -2  19   14.98    0.79
  -1  -2  19   16.34    1.04
   0   2 -19   15.39    0.90
   0   2 -19   17.27    0.99
   0  -2  19   14.55    0.91
   0  -2  19   16.32    0.93
   0  -2  19   16.18    0.97
  -1   2 -19    0.10    0.29
  -1   2 -19   -0.01    0.34
   1  -2  19   -0.35    0.38
   1  -2  19    0.71    0.42
  -2   2 -19    3.28    0.61
  -2   2 -19    2.13    0.49
  -3   2 -19    3.58    0.64
  -4   2 -19    0.73    0.46
  -4  -1  19    0.07    0.85
  -4  -1  19    0.75    0.40
  -3  -1  19    0.48    0.64
  -3  -1  19    0.61    0.34
  -2  -1  19    1.35    0.58
  -2  -1  19    0.93    0.39
  -1  -1  19   13.64    0.92
  -1  -1  19   16.39    0.88
  -1  -1  19   12.55    0.72
  -1  -1  19   13.23    0.94
   0   1 -19   16.25    0.87
   0   1 -19   15.17    0.94
   0  -1  19   15.61    0.82
   0  -1  19   14.23    0.97
   0  -1  19   15.35    0.91
  -1   1 -19    0.40    0.38
  -1   1 -19    0.12    0.29
   1  -1  19    0.03    0.38
   1  -1  19    0.66    0.47
  -2   1 -19    0.49    0.39
  -2   1 -19    1.72    0.45
  -3   1 -19    1.00    0.44
  -4   1 -19   -0.17    0.38
  -4   0  19   -0.17    0.32
  -4   0  19    0.58    0.81
  -3   0  19    0.29    0.69
  -2   0  19    2.71    0.67
  -1   0  19    0.20    0.41
  -1   0  19   -0.44    0.31
  -1   0  19   -0.06    0.30
  -1   0  19   -0.39    0.25
   0   0 -19    3.35    0.61
   0   0 -19    2.55    0.45
   0   0  19    3.19    0.51
   0   0  19    2.46    0.56
   0   0  19    2.26    0.50
  -1   0 -19    6.44    0.70
  -1   0 -19    5.60    0.69
   1   0  19    6.76    0.76
   1   0  19    5.92    0.81
  -2   0 -19    2.29    0.51
  -2   0 -19    2.08    0.46
  -3   0 -19    3.60    0.62
  -4   1  19   -0.05    0.82
  -4   1  19    0.25    0.34
  -3   1  19    0.28    0.33
  -3   1  19    0.04    0.58
  -2   1  19    2.73    0.67
  -2   1  19    3.09    0.54
  -1   1  19    0.39    0.32
  -1   1  19    0.39    0.44
  -1   1  19   -0.24    0.34
  -1   1  19   -0.05    0.25
   0  -1 -19    2.40    0.43
   0  -1 -19    2.12    0.52
   0   1  19    1.45    0.50
   0   1  19    2.22    0.57
  -1  -1 -19    0.15    0.26
  -1  -1 -19    0.36    0.42
   1   1  19    0.42    0.45
   1   1  19    0.14    0.46
  -2  -1 -19   -0.05    0.27
  -2  -1 -19    0.60    0.42
  -3  -1 -19    0.40    0.38
  -4   2  19    0.46    0.39
  -4   2  19   -0.57    0.81
  -3   2  19    3.45    0.90
  -3   2  19    5.48    0.68
  -2   2  19    0.44    0.56
  -2   2  19    0.43    0.38
  -1   2  19    0.01    0.44
  -1   2  19    1.01    0.47
  -1   2  19    0.64    0.33
  -1   2  19    0.74    0.37
   0  -2 -19    0.04    0.30
   0   2  19    0.08    0.41
   0   2  19   -0.18    0.40
  -1  -2 -19    4.91    0.66
  -1  -2 -19    4.53    0.73
   1   2  19    4.19    0.78
   1   2  19    5.45    0.81
  -2  -2 -19   -0.29    0.24
  -2  -2 -19   -0.23    0.36
  -3  -2 -19   -0.25    0.32
  -4   3  19    0.29    0.42
  -3   3  19   -0.43    0.64
  -3   3  19    0.03    0.36
  -2   3  19    2.07    0.56
  -1   3  19    1.20    0.50
  -1   3  19    1.10    0.42
   0  -3 -19    0.68    0.35
   0  -3 -19    1.55    0.45
   0   3  19    1.86    0.54
   0   3  19    1.54    0.57
  -1  -3 -19   14.58    1.10
   1   3  19   15.77    1.10
  -2  -3 -19   14.44    1.08
  -4   4  19   -0.03    0.42
   3  -4 -19    2.31    0.52
  -3   4  19    1.49    0.55
   2  -4 -19    7.47    0.76
  -2   4  19    6.90    0.91
   1  -4 -19    4.79    0.61
  -1   4  19    4.39    0.59
  -1   4  19    4.50    0.77
   0  -4 -19    1.92    0.48
   0  -4 -19    1.39    0.45
   0   4  19    0.84    0.53
   0   4  19    1.73    0.59
  -1  -4 -19   -0.15    0.54
  -1  -4 -19    0.47    0.41
   1   4  19    1.06    0.58
  -2  -4 -19    1.01    0.44
  -2  -4 -19    1.01    0.54
   3  -5 -19   -0.25    0.40
  -3   5  19    0.19    0.46
   2  -5 -19    5.98    0.70
  -2   5  19    6.02    0.90
   1  -5 -19    0.49    0.39
  -1   5  19    0.26    0.52
  -1   5  19    0.75    0.43
   0   5  19   -0.01    0.49
   0   5  19   -0.27    0.49
  -1  -5 -19    0.81    0.44
   1   5  19    1.37    0.67
  -2  -5 -19    0.26    0.59
  -2  -5 -19   -0.38    0.44
  -3   6  19    3.57    0.80
   2  -6 -19    0.94    0.50
  -2   6  19   -0.11    0.49
   1  -6 -19    2.42    0.61
  -1   6  19    0.75    0.47
  -1   6  19    1.78    0.70
   0   6  19    0.78    0.60
   0   6  19   -0.27    0.55
  -1  -6 -19   -0.18    0.39
   2  -7 -19    4.32    0.77
  -2   7  19    5.82    1.01
  -1   7  19   -0.01    0.42
  -1   7  19   -0.07    0.56
   0   7  19    0.20    0.63
   0   7  19    0.37    0.63
   0  -9  20    2.60    0.72
  -1   9 -20    7.73    0.95
  -1  -8  20    0.39    0.49
  -1  -8  20   -0.05    0.41
  -1  -8  20    0.00    0.85
   0  -8  20    0.76    0.55
   0  -8  20    0.72    0.53
  -1   8 -20    5.42    0.94
  -1   8 -20    6.63    0.87
  -2   8 -20    1.45    0.49
  -2   8 -20    2.39    0.61
  -2  -7  20    3.23    0.97
  -2  -7  20    3.67    0.70
  -1  -7  20    2.53    0.89
  -1  -7  20    1.45    0.43
  -1  -7  20    2.79    0.65
   0   7 -20    1.12    0.46
   0  -7  20    0.42    0.46
   0  -7  20    0.29    0.49
  -1   7 -20    2.87    0.62
  -1   7 -20    2.61    0.72
   1  -7  20    4.30    0.78
  -2   7 -20    1.55    0.58
  -2   7 -20    1.58    0.54
  -3   7 -20   -0.09    0.38
  -3  -6  20    2.31    0.93
  -3  -6  20    1.28    0.52
  -2  -6  20    1.49    0.77
  -2  -6  20    1.70    0.61
  -1  -6  20    2.25    0.84
  -1  -6  20    1.69    0.56
  -1  -6  20    0.44    0.32
   0   6 -20   -0.09    0.31
   0  -6  20    0.29    0.40
   0  -6  20   -0.59    0.35
  -1   6 -20   -0.02    0.31
  -1   6 -20    0.31    0.48
   1  -6  20    0.12    0.40
  -2   6 -20    1.42    0.47
  -2   6 -20    1.57    0.50
  -3   6 -20    0.79    0.41
  -3  -5  20    0.61    0.71
  -3  -5  20   -0.25    0.35
  -2  -5  20    0.85    0.65
  -2  -5  20    0.57    0.40
  -1  -5  20   -0.17    0.36
  -1  -5  20   -0.49    0.55
  -1  -5  20    0.07    0.35
   0   5 -20    0.87    0.38
   0  -5  20   -0.01    0.36
   0  -5  20    1.27    0.48
  -1   5 -20    0.91    0.51
  -1   5 -20    1.00    0.42
   1  -5  20    0.72    0.48
  -2   5 -20    0.37    0.34
  -2   5 -20    0.27    0.40
  -3   5 -20    0.02    0.36
  -3  -4  20    0.26    0.61
  -3  -4  20    0.60    0.42
  -2  -4  20    0.00    0.36
  -2  -4  20   -0.12    0.48
  -1  -4  20    0.67    0.35
  -1  -4  20    0.11    0.36
  -1  -4  20   -0.17    0.49
   0   4 -20    0.19    0.33
   0  -4  20   -0.28    0.35
   0  -4  20    0.57    0.44
  -1   4 -20    5.33    0.72
  -1   4 -20    5.25    0.70
   1  -4  20    6.47    0.81
  -2   4 -20    1.46    0.43
  -2   4 -20    1.07    0.42
  -3   4 -20    0.27    0.38
  -4  -3  20    0.68    0.47
  -4  -3  20    0.81    0.82
  -3  -3  20    9.63    1.25
  -2  -3  20    0.42    0.38
  -2  -3  20   -0.14    0.53
  -1  -3  20    0.12    0.29
  -1  -3  20    0.77    0.40
  -1  -3  20    0.19    0.52
   0   3 -20   -0.18    0.27
   0  -3  20    0.16    0.39
   0  -3  20    0.21    0.35
  -1   3 -20    1.14    0.40
  -1   3 -20    0.38    0.44
   1  -3  20    0.10    0.44
  -2   3 -20   12.73    0.95
  -2   3 -20   11.19    0.88
  -3   3 -20    1.01    0.47
  -4  -2  20   -0.21    0.82
  -4  -2  20    0.77    0.45
  -3  -2  20    1.39    0.76
  -3  -2  20    1.68    0.49
  -2  -2  20   21.15    1.09
  -2  -2  20   21.28    1.41
  -1  -2  20   11.38    0.92
  -1  -2  20   12.17    0.74
  -1  -2  20   12.40    0.94
   0   2 -20   44.32    1.45
   0   2 -20   42.82    1.56
   0  -2  20   44.67    1.57
   0  -2  20   44.40    1.44
  -1   2 -20   21.68    1.12
  -1   2 -20   22.85    1.21
   1  -2  20   20.63    1.19
   1  -2  20   20.47    1.14
  -2   2 -20    6.53    0.75
  -2   2 -20    5.59    0.72
  -3   2 -20    0.60    0.37
  -4   2 -20    0.07    0.40
  -4  -1  20    0.13    0.82
  -4  -1  20   -0.38    0.39
  -3  -1  20    1.33    0.80
  -3  -1  20    1.20    0.42
  -2  -1  20   -0.06    0.51
  -2  -1  20   -0.01    0.33
  -1  -1  20    0.78    0.42
  -1  -1  20    0.67    0.36
  -1  -1  20    1.15    0.37
  -1  -1  20    1.02    0.47
   0   1 -20   22.83    1.03
   0   1 -20   22.24    1.15
   0  -1  20   22.83    1.17
   0  -1  20   22.20    1.11
   0  -1  20   23.37    0.98
  -1   1 -20   21.06    1.15
  -1   1 -20   23.18    1.09
   1  -1  20   21.27    1.17
   1  -1  20   23.84    1.25
  -2   1 -20    2.65    0.53
  -2   1 -20    1.20    0.47
  -3   1 -20    1.38    0.45
  -4   0  20    0.17    0.75
  -4   0  20    0.70    0.40
  -3   0  20    2.33    0.90
  -2   0  20    1.56    0.63
  -2   0  20    2.86    0.56
  -1   0  20    3.32    0.48
  -1   0  20    2.67    0.60
  -1   0  20    4.16    0.67
  -1   0  20    2.04    0.43
   0   0 -20    0.08    0.29
   0   0  20    0.04    0.39
   0   0  20   -0.48    0.30
  -1   0 -20    0.20    0.28
  -1   0 -20    0.06    0.36
   1   0  20    0.19    0.42
   1   0  20    0.02    0.44
  -2   0 -20   -0.43    0.37
  -2   0 -20    0.04    0.29
  -3   0 -20   -0.09    0.33
  -4   1  20    0.08    0.35
  -4   1  20    0.62    0.98
  -3   1  20    0.55    0.35
  -3   1  20    0.77    0.75
  -2   1  20    0.73    0.40
  -2   1  20   -0.10    0.49
  -1   1  20    3.24    0.59
  -1   1  20    4.43    0.55
  -1   1  20    2.62    0.46
  -1   1  20    3.63    0.60
   0  -1 -20    3.94    0.53
   0   1  20    3.26    0.61
   0   1  20    4.10    0.66
  -1  -1 -20    1.51    0.55
  -1  -1 -20    1.05    0.40
   1   1  20    2.08    0.60
   1   1  20    1.13    0.56
  -2  -1 -20   -0.14    0.36
  -2  -1 -20    0.49    0.34
  -3  -1 -20    0.39    0.35
  -4   2  20   -0.18    0.85
  -4   2  20    0.10    0.40
  -3   2  20    3.00    0.61
  -3   2  20    1.16    0.82
  -2   2  20    0.15    0.36
  -2   2  20   -0.62    0.54
  -1   2  20    1.99    0.58
  -1   2  20    0.87    0.39
   0  -2 -20    2.15    0.45
   0   2  20    2.19    0.56
   0   2  20    1.33    0.53
  -1  -2 -20   17.13    1.13
   1   2  20   15.84    1.11
   1   2  20   16.51    1.22
  -2  -2 -20    0.03    0.31
  -2  -2 -20    0.40    0.45
  -3  -2 -20    0.20    0.36
  -4   3  20    1.83    0.55
  -3   3  20    1.01    0.47
  -2   3  20    0.61    0.46
  -1   3  20    2.59    0.63
  -1   3  20    1.74    0.46
   0  -3 -20    3.96    0.62
   0  -3 -20    3.43    0.55
   0   3  20    3.77    0.73
   0   3  20    3.67    0.70
  -1  -3 -20   -0.43    0.41
  -1  -3 -20    0.44    0.35
   1   3  20   -0.35    0.40
  -2  -3 -20    1.33    0.42
  -2  -3 -20    1.16    0.55
  -3  -3 -20    0.21    0.39
   3  -4 -20    3.43    0.60
  -3   4  20    3.31    0.68
   2  -4 -20    0.90    0.44
  -2   4  20    0.75    0.50
   1  -4 -20   -0.10    0.31
  -1   4  20    0.00    0.42
  -1   4  20    0.36    0.40
   0  -4 -20    2.06    0.51
   0   4  20    2.03    0.60
   0   4  20    2.51    0.68
  -1  -4 -20    0.37    0.40
   1   4  20    0.10    0.51
  -2  -4 -20   -0.29    0.55
  -2  -4 -20    0.44    0.51
   3  -5 -20    0.13    0.37
  -3   5  20    0.54    0.50
   2  -5 -20   -0.60    0.35
  -2   5  20    0.43    0.51
   1  -5 -20   -0.16    0.40
  -1   5  20    0.28    0.42
  -1   5  20   -0.08    0.46
   0   5  20    2.54    0.69
   0   5  20    4.54    0.95
  -1  -5 -20    3.42    0.63
   1   5  20    4.25    0.95
  -2  -5 -20    1.12    0.59
  -2  -5 -20    0.08    0.64
   2  -6 -20    1.38    0.54
  -2   6  20    2.10    0.73
   1  -6 -20    3.35    0.70
  -1   6  20    3.06    0.82
  -1   6  20    1.70    0.52
   0   6  20    1.10    0.63
   0   6  20    0.42    0.64
  -1  -6 -20    0.37    0.44
  -1   7  20   -0.02    0.58
   0   7  20    0.05    0.63
   0   7  20    0.30    0.64
  -1  -8  21    0.08    0.39
  -1  -8  21    2.06    1.01
  -1  -8  21    0.49    0.47
   0  -8  21    2.38    0.69
   0  -8  21    1.88    0.68
  -1   8 -21    0.28    0.46
  -2   8 -21   -0.45    0.35
  -2   8 -21    0.19    0.51
  -2  -7  21    1.15    0.53
  -2  -7  21    1.67    0.85
  -1  -7  21   -0.39    0.76
  -1  -7  21   -0.26    0.40
  -1  -7  21   -0.25    0.35
   0  -7  21    1.33    0.55
   0  -7  21    0.20    0.47
  -1   7 -21    0.75    0.56
  -1   7 -21   -0.03    0.38
  -2   7 -21    0.25    0.38
  -2   7 -21    0.05    0.44
  -2  -6  21    0.64    0.62
  -2  -6  21    0.71    0.49
  -1  -6  21    2.87    0.53
  -1  -6  21    2.41    0.62
  -1  -6  21    2.98    0.89
   0   6 -21   -0.07    0.31
   0  -6  21   -0.56    0.37
   0  -6  21   -0.21    0.39
  -1   6 -21    0.46    0.54
  -1   6 -21    0.65    0.42
   1  -6  21    0.22    0.45
  -2   6 -21    3.08    0.61
  -2   6 -21    2.61    0.60
  -3   6 -21    5.09    0.80
  -3  -5  21    0.46    0.68
  -3  -5  21   -0.17    0.44
  -2  -5  21    2.36    0.79
  -2  -5  21    2.38    0.61
  -1  -5  21    0.54    0.45
  -1  -5  21   -0.05    0.59
  -1  -5  21    0.01    0.34
   0   5 -21    0.29    0.35
   0  -5  21   -0.06    0.35
   0  -5  21    0.39    0.44
  -1   5 -21    0.27    0.33
  -1   5 -21    0.49    0.49
   1  -5  21   -0.54    0.39
  -2   5 -21    0.32    0.42
  -2   5 -21    0.16    0.35
  -3   5 -21   -0.01    0.34
  -3  -4  21    1.96    0.91
  -3  -4  21    0.97    0.47
  -2  -4  21    1.61    0.52
  -2  -4  21    1.96    0.72
  -1  -4  21    4.86    0.62
  -1  -4  21    5.25    0.83
  -1  -4  21    5.69    0.77
   0   4 -21    0.05    0.31
   0  -4  21    0.32    0.45
   0  -4  21    0.05    0.36
  -1   4 -21    0.65    0.37
  -1   4 -21    0.87    0.49
   1  -4  21    0.86    0.49
  -2   4 -21    0.09    0.33
  -2   4 -21    0.22    0.39
  -3   4 -21    0.49    0.41
  -3  -3  21    0.86    0.43
  -3  -3  21    1.13    0.74
  -2  -3  21    2.35    0.82
  -2  -3  21    2.29    0.54
  -1  -3  21    2.63    0.71
  -1  -3  21    1.34    0.38
  -1  -3  21    3.02    0.59
   0   3 -21   12.81    0.87
   0  -3  21   14.71    1.08
   0  -3  21   12.04    0.93
   0  -3  21   13.91    0.94
  -1   3 -21    9.91    0.80
  -1   3 -21   10.73    0.93
   1  -3  21    7.06    0.89
   1  -3  21    9.41    0.94
  -2   3 -21   -0.33    0.36
  -2   3 -21   -0.29    0.30
  -3   3 -21    0.16    0.38
  -4  -2  21    0.76    0.86
  -4  -2  21   -0.40    0.37
  -3  -2  21    0.00    0.37
  -3  -2  21    0.32    0.74
  -2  -2  21    0.51    0.61
  -2  -2  21   -0.34    0.28
  -1  -2  21    1.04    0.36
  -1  -2  21    1.77    0.53
  -1  -2  21    0.65    0.49
   0   2 -21    0.47    0.35
   0  -2  21   -0.11    0.35
   0  -2  21    0.62    0.48
  -1   2 -21    4.95    0.67
  -1   2 -21    4.65    0.70
   1  -2  21    5.36    0.82
   1  -2  21    5.24    0.74
  -2   2 -21    2.27    0.55
  -2   2 -21    1.94    0.53
  -3   2 -21    1.59    0.53
  -4  -1  21   -0.46    0.80
  -4  -1  21    0.45    0.43
  -3  -1  21   -0.34    0.66
  -3  -1  21    0.03    0.38
  -2  -1  21    0.54    0.41
  -2  -1  21    0.21    0.52
  -1  -1  21    0.05    0.33
  -1  -1  21    0.19    0.33
  -1  -1  21    0.64    0.49
   0   1 -21   29.10    1.17
   0  -1  21   26.36    1.25
   0  -1  21   28.44    1.33
   0  -1  21   27.85    1.05
  -1   1 -21    1.03    0.39
  -1   1 -21    0.49    0.42
   1  -1  21    0.39    0.51
   1  -1  21    0.29    0.39
  -2   1 -21    2.50    0.56
  -2   1 -21    5.29    0.72
  -3   1 -21    0.48    0.41
  -4   0  21    0.43    0.87
  -4   0  21    1.25    0.51
  -3   0  21    0.22    0.37
  -3   0  21   -0.94    0.65
  -2   0  21   -0.28    0.37
  -2   0  21   -0.05    0.55
  -1   0  21    3.93    0.65
  -1   0  21    5.24    0.65
  -1   0  21    4.21    0.52
  -1   0  21    5.77    0.81
   0   0 -21    8.87    0.81
   0   0  21    6.97    0.77
   0   0  21   10.70    1.04
  -1   0 -21    2.53    0.52
  -1   0 -21    2.53    0.58
   1   0  21    2.68    0.66
   1   0  21    2.82    0.68
  -2   0 -21    0.46    0.44
  -2   0 -21   -0.10    0.29
  -3   0 -21    0.96    0.44
  -4   1  21    3.01    1.22
  -4   1  21    4.16    0.61
  -3   1  21    0.98    0.79
  -3   1  21    0.05    0.36
  -2   1  21    1.16    0.60
  -2   1  21    1.23    0.48
  -1   1  21    2.66    0.55
  -1   1  21    1.93    0.43
   0  -1 -21   11.65    0.75
   0   1  21   10.50    0.88
   0   1  21   12.50    1.17
  -1  -1 -21    0.51    0.33
  -1  -1 -21    0.45    0.47
   1   1  21    0.11    0.46
   1   1  21    0.16    0.45
  -2  -1 -21    1.93    0.48
  -2  -1 -21    0.98    0.48
  -3  -1 -21    1.15    0.41
  -4   2  21    0.88    0.47
  -4   2  21    0.48    0.95
  -3   2  21   -0.28    0.38
  -3   2  21   -0.49    0.73
  -2   2  21   -0.18    0.61
  -2   2  21    0.39    0.45
  -1   2  21    3.03    0.66
  -1   2  21    1.25    0.43
   0  -2 -21    5.45    0.67
   0   2  21    3.45    0.65
   0   2  21    6.58    0.93
  -1  -2 -21    0.64    0.36
  -1  -2 -21    0.14    0.46
   1   2  21    0.77    0.54
  -2  -2 -21    0.13    0.44
  -2  -2 -21    0.25    0.36
  -3  -2 -21    0.58    0.41
  -3   3  21    6.37    0.84
  -2   3  21    2.62    0.65
  -1   3  21    3.47    0.68
  -1   3  21    2.72    0.50
   0  -3 -21   -0.03    0.30
   0  -3 -21    0.57    0.42
   0   3  21    0.11    0.44
   0   3  21   -0.36    0.39
  -1  -3 -21   -0.49    0.28
  -1  -3 -21    0.25    0.56
   1   3  21    1.11    0.57
  -2  -3 -21    0.48    0.36
  -2  -3 -21   -0.28    0.48
   3  -4 -21    0.62    0.47
  -3   4  21    0.53    0.49
   2  -4 -21   -0.38    0.38
  -2   4  21   -0.32    0.42
   1  -4 -21    2.70    0.54
  -1   4  21    1.31    0.49
  -1   4  21    2.27    0.69
   0   4  21    2.42    0.70
   0   4  21    1.65    0.64
  -1  -4 -21    0.32    0.43
   1   4  21    0.75    0.64
  -2  -4 -21    0.43    0.60
  -2  -4 -21    0.63    0.52
   3  -5 -21    0.93    0.47
  -3   5  21    0.64    0.59
   2  -5 -21    2.30    0.56
  -2   5  21    1.51    0.62
   1  -5 -21    4.53    0.71
  -1   5  21    4.90    0.66
  -1   5  21    5.94    0.96
   0   5  21    0.53    0.55
   0   5  21    2.44    0.77
  -1  -5 -21    0.41    0.43
   1   5  21    0.36    0.62
   2  -6 -21    0.74    0.50
  -2   6  21   -0.11    0.57
   1  -6 -21    3.63    0.75
  -1   6  21    3.17    0.60
  -1   6  21    5.68    1.07
   0   6  21    7.50    1.22
   0   6  21    3.83    0.86
  -1  -8  22    0.00    0.42
  -1  -8  22    0.22    0.96
  -1  -8  22    0.68    0.57
   0  -8  22    3.09    0.75
   0  -8  22    2.51    0.74
  -1   8 -22   -0.32    0.37
  -2  -7  22    1.30    0.54
  -2  -7  22    1.21    0.82
  -1  -7  22    2.78    0.67
  -1  -7  22    3.49    1.04
  -1  -7  22    1.96    0.52
   0  -7  22   -0.12    0.44
   0  -7  22   -0.12    0.49
  -1   7 -22    3.56    0.69
  -1   7 -22    3.54    0.75
  -2   7 -22    1.89    0.55
  -2   7 -22    2.04    0.63
  -2  -6  22    0.16    0.73
  -2  -6  22    0.60    0.49
  -1  -6  22    1.55    0.56
  -1  -6  22    1.61    0.86
  -1  -6  22    1.37    0.46
   0  -6  22    0.10    0.43
   0  -6  22    0.47    0.45
  -1   6 -22    0.64    0.50
  -1   6 -22    0.65    0.42
   1  -6  22    0.80    0.53
  -2   6 -22    0.34    0.45
  -2   6 -22    0.41    0.40
  -3   6 -22    0.06    0.39
  -3  -5  22    0.08    0.43
  -3  -5  22    1.08    0.80
  -2  -5  22    1.66    0.60
  -2  -5  22    3.56    0.95
  -1  -5  22    2.23    0.70
  -1  -5  22    2.57    0.51
  -1  -5  22    3.26    0.68
   0   5 -22    0.24    0.35
   0  -5  22    0.27    0.42
   0  -5  22    0.16    0.40
  -1   5 -22    5.40    0.84
  -1   5 -22    4.14    0.67
   1  -5  22    6.05    0.83
  -2   5 -22    0.45    0.40
  -2   5 -22    0.71    0.47
  -3   5 -22    0.00    0.34
  -3  -4  22    2.80    0.99
  -3  -4  22    3.37    0.65
  -2  -4  22    0.53    0.62
  -2  -4  22    1.15    0.50
  -1  -4  22   -0.63    0.37
  -1  -4  22    0.66    0.61
  -1  -4  22    0.39    0.36
   0   4 -22    4.00    0.65
   0  -4  22    5.08    0.72
   0  -4  22    2.77    0.58
  -1   4 -22    0.09    0.32
  -1   4 -22    0.37    0.48
   1  -4  22    0.63    0.46
  -2   4 -22    0.55    0.40
  -2   4 -22    0.01    0.39
  -3   4 -22    0.11    0.36
  -3  -3  22    1.21    0.49
  -3  -3  22    1.50    0.80
  -2  -3  22    1.29    0.51
  -2  -3  22    1.12    0.69
  -1  -3  22    8.67    0.72
  -1  -3  22    9.31    0.92
  -1  -3  22   11.18    0.95
   0   3 -22    0.28    0.34
   0  -3  22    0.99    0.46
   0  -3  22    0.27    0.42
   0  -3  22    0.94    0.63
  -1   3 -22    0.09    0.31
  -1   3 -22   -0.01    0.41
   1  -3  22    0.00    0.45
  -2   3 -22    3.53    0.65
  -2   3 -22    1.90    0.52
  -3   3 -22    0.25    0.38
  -3  -2  22    0.88    0.42
  -3  -2  22    1.02    0.76
  -2  -2  22    1.05    0.47
  -2  -2  22    0.22    0.66
  -1  -2  22    0.74    0.37
  -1  -2  22    1.07    0.56
  -1  -2  22    0.92    0.48
   0   2 -22    0.05    0.30
   0  -2  22    0.00    0.38
   0  -2  22    0.35    0.51
  -1   2 -22    4.98    0.68
  -1   2 -22    4.65    0.71
   1  -2  22    5.40    0.83
   1  -2  22    5.34    0.75
  -2   2 -22    3.37    0.61
  -2   2 -22    3.95    0.61
  -3   2 -22    1.23    0.48
  -4  -1  22    0.33    0.92
  -3  -1  22   -0.15    0.70
  -3  -1  22    0.55    0.43
  -2  -1  22    0.11    0.55
  -2  -1  22    0.05    0.39
  -1  -1  22    0.33    0.35
  -1  -1  22   -0.21    0.52
  -1  -1  22    0.51    0.44
   0   1 -22    1.52    0.42
   0  -1  22    1.03    0.48
   0  -1  22    1.82    0.54
  -1   1 -22    0.84    0.37
  -1   1 -22    0.40    0.43
   1  -1  22    0.23    0.50
   1  -1  22   -0.13    0.36
  -2   1 -22    0.13    0.41
  -2   1 -22    0.90    0.41
  -3   1 -22    0.56    0.43
  -4   0  22    1.05    0.46
  -4   0  22    0.65    0.99
  -3   0  22   -1.33    0.63
  -3   0  22   -0.03    0.37
  -2   0  22    5.41    0.77
  -2   0  22    4.07    0.88
  -1   0  22   -0.06    0.49
  -1   0  22    0.07    0.34
  -1   0  22   -0.21    0.36
   0   0 -22    3.08    0.55
   0   0  22    3.14    0.61
   0   0  22    3.22    0.66
  -1   0 -22    1.04    0.40
  -1   0 -22    1.03    0.49
   1   0  22    0.82    0.55
   1   0  22    2.11    0.60
  -2   0 -22    2.25    0.60
  -2   0 -22    3.44    0.59
  -3   0 -22   -0.17    0.32
  -4   1  22    0.52    0.98
  -4   1  22    1.59    0.53
  -3   1  22    1.40    0.51
  -3   1  22    2.90    0.98
  -2   1  22    0.02    0.61
  -2   1  22    0.90    0.49
  -1   1  22    0.74    0.38
  -1   1  22    0.39    0.41
   0  -1 -22    4.18    0.58
   0   1  22    6.22    0.90
   0   1  22    3.18    0.68
  -1  -1 -22   12.73    1.09
   1   1  22   13.34    1.09
  -2  -1 -22    0.27    0.35
  -2  -1 -22    0.22    0.43
  -3  -1 -22    0.70    0.39
  -3   2  22   -0.38    0.35
  -3   2  22   -0.27    0.75
  -2   2  22    4.65    0.80
  -1   2  22    0.61    0.39
  -1   2  22    0.35    0.43
   0  -2 -22    2.25    0.51
   0   2  22    2.86    0.70
   0   2  22    0.47    0.50
  -1  -2 -22    2.53    0.68
  -1  -2 -22    1.27    0.44
   1   2  22    1.63    0.60
  -2  -2 -22    0.89    0.55
  -2  -2 -22    0.73    0.40
  -3  -2 -22    0.35    0.43
  -3   3  22   -0.05    0.43
  -2   3  22    0.15    0.49
  -1   3  22    0.61    0.49
  -1   3  22    0.51    0.43
   0  -3 -22    0.28    0.41
   0   3  22   -0.07    0.47
   0   3  22    0.06    0.49
  -1  -3 -22   -0.05    0.34
   1   3  22   -0.12    0.49
  -2  -3 -22    4.39    0.77
   3  -4 -22    0.43    0.44
  -3   4  22    1.65    0.62
   2  -4 -22    2.52    0.58
  -2   4  22    3.31    0.77
   1  -4 -22    3.46    0.62
  -1   4  22    5.29    0.92
  -1   4  22    2.98    0.54
   0   4  22    2.66    0.75
   0   4  22    0.93    0.64
  -1  -4 -22    0.96    0.49
   1   4  22    1.39    0.68
  -2  -4 -22    0.29    0.59
  -2  -4 -22    0.28    0.49
   2  -5 -22    0.34    0.46
  -2   5  22   -0.19    0.48
   1  -5 -22    3.58    0.69
  -1   5  22    2.58    0.56
  -1   5  22    3.36    0.80
   0   5  22   -0.05    0.60
   0   5  22    0.36    0.62
  -1  -5 -22   -0.13    0.40
   2  -6 -22    0.17    0.48
  -2   6  22   -0.42    0.57
  -1   6  22    0.82    0.50
  -1   6  22   -0.22    0.56
   0   6  22   -0.32    0.60
   0   6  22   -0.33    0.67
   0  -8  23    0.44    0.59
   0  -8  23    0.09    0.57
  -1   8 -23    0.27    0.43
  -1  -7  23    0.70    0.52
  -1  -7  23    1.00    0.45
  -1  -7  23    1.82    1.00
   0  -7  23    0.29    0.53
   0  -7  23   -0.35    0.48
  -1   7 -23    0.94    0.45
  -2   7 -23    2.42    0.62
  -2   7 -23    0.70    0.57
  -2  -6  23    0.19    0.54
  -2  -6  23    0.97    0.76
  -1  -6  23    2.58    0.64
  -1  -6  23    2.59    0.54
  -1  -6  23    3.16    0.94
   0  -6  23    0.07    0.46
   0  -6  23   -0.03    0.45
  -1   6 -23    4.41    0.82
  -1   6 -23    4.82    0.75
   1  -6  23    4.68    0.81
  -2   6 -23    0.26    0.38
  -2   6 -23    0.17    0.49
  -3  -5  23    0.96    0.88
  -3  -5  23    0.62    0.47
  -2  -5  23    0.81    0.49
  -2  -5  23    1.03    0.69
  -1  -5  23    1.32    0.55
  -1  -5  23    0.83    0.39
  -1  -5  23    1.65    0.81
   0   5 -23    0.32    0.42
   0  -5  23    0.08    0.41
   0  -5  23    0.32    0.44
  -1   5 -23    1.05    0.58
  -1   5 -23    0.45    0.39
   1  -5  23    1.38    0.61
  -2   5 -23    4.05    0.72
  -2   5 -23    4.78    0.75
  -3   5 -23    0.38    0.44
  -3  -4  23    0.91    0.84
  -3  -4  23    0.00    0.41
  -2  -4  23    0.84    0.70
  -2  -4  23    0.17    0.40
  -1  -4  23   -0.03    0.39
  -1  -4  23    0.57    0.68
  -1  -4  23   -0.42    0.30
   0   4 -23   -0.33    0.30
   0  -4  23   -1.22    0.65
   0  -4  23    0.08    0.43
   0  -4  23   -0.11    0.39
  -1   4 -23    0.80    0.51
  -1   4 -23    1.03    0.46
  -2   4 -23   -0.28    0.39
  -2   4 -23    0.08    0.37
  -3   4 -23   -0.11    0.38
  -3  -3  23   -0.05    0.37
  -3  -3  23   -0.17    0.68
  -2  -3  23    8.37    0.92
  -2  -3  23    8.98    1.22
  -1  -3  23    0.31    0.57
  -1  -3  23    0.26    0.45
  -1  -3  23    0.47    0.36
   0   3 -23    0.02    0.31
   0  -3  23   -0.38    0.41
   0  -3  23   -0.62    0.38
   0  -3  23   -0.40    0.55
  -1   3 -23    0.38    0.35
  -1   3 -23   -0.17    0.45
   1  -3  23   -0.50    0.39
  -2   3 -23   -0.41    0.26
  -2   3 -23    0.07    0.41
  -3   3 -23    0.48    0.42
  -3  -2  23   -0.02    0.74
  -3  -2  23    0.14    0.39
  -2  -2  23    1.66    0.75
  -2  -2  23    0.94    0.51
  -1  -2  23   16.09    1.14
  -1  -2  23   14.24    0.86
  -1  -2  23   16.64    1.12
   0   2 -23    1.70    0.44
   0  -2  23    1.38    0.51
   0  -2  23    2.04    0.61
   0  -2  23    2.81    0.62
  -1   2 -23   21.06    1.11
  -1   2 -23   19.53    1.23
   1  -2  23   17.89    1.12
  -2   2 -23    6.35    0.87
  -2   2 -23    4.97    0.74
  -3   2 -23    1.71    0.52
  -3  -1  23    0.79    0.80
  -3  -1  23    1.35    0.50
  -2  -1  23    0.82    0.67
  -1  -1  23   -0.08    0.52
  -1  -1  23   -0.25    0.34
  -1  -1  23   -0.61    0.35
   0   1 -23    0.41    0.36
   0  -1  23    0.22    0.45
   0  -1  23    0.15    0.40
  -1   1 -23    0.25    0.44
  -1   1 -23    0.06    0.31
   1  -1  23    0.04    0.40
  -2   1 -23    3.91    0.65
  -2   1 -23    3.58    0.66
  -3   1 -23    0.20    0.37
  -3   0  23    3.81    0.69
  -3   0  23    2.25    0.98
  -2   0  23    4.78    0.94
  -2   0  23    6.12    0.84
  -1   0  23    2.11    0.57
  -1   0  23    1.93    0.47
   0   0 -23    6.21    0.67
   0   0  23    6.80    0.86
   0   0  23    4.16    0.69
  -1   0 -23    0.38    0.36
  -1   0 -23    0.41    0.47
   1   0  23    0.56    0.53
  -2   0 -23    2.18    0.56
  -2   0 -23    2.90    0.67
  -3   0 -23    0.15    0.37
  -3   1  23    0.19    0.39
  -3   1  23    0.49    0.82
  -2   1  23    2.00    0.57
  -2   1  23    1.89    0.75
  -1   1  23    0.87    0.41
  -1   1  23    2.00    0.58
   0  -1 -23    0.60    0.36
   0   1  23    0.12    0.48
   0   1  23   -0.12    0.44
  -1  -1 -23    0.35    0.32
  -1  -1 -23    0.08    0.46
   1   1  23   -0.25    0.50
  -2  -1 -23   -0.49    0.45
  -2  -1 -23    0.74    0.37
  -3  -1 -23    0.10    0.35
  -3   2  23    3.28    0.71
  -3   2  23    2.02    1.06
  -2   2  23   -0.79    0.40
  -1   2  23    1.30    0.56
  -1   2  23    0.54    0.40
   0   2  23    0.49    0.51
   0   2  23    1.42    0.60
  -1  -2 -23    0.95    0.42
   1   2  23    0.49    0.55
  -2  -2 -23    2.08    0.53
  -2  -2 -23    1.29    0.66
  -3   3  23    3.33    0.68
  -2   3  23    4.31    0.85
  -1   3  23   -0.28    0.42
  -1   3  23    0.08    0.39
   0   3  23    1.70    0.60
   0   3  23    2.33    0.73
  -1  -3 -23   -0.10    0.34
   1   3  23    0.00    0.53
  -2  -3 -23    1.11    0.59
  -2  -3 -23    1.04    0.48
  -3   4  23    3.22    0.75
   2  -4 -23    1.62    0.54
  -2   4  23    2.44    0.73
   1  -4 -23    0.62    0.47
  -1   4  23    0.34    0.53
  -1   4  23    0.52    0.41
   0   4  23    0.21    0.52
   0   4  23   -0.65    0.48
  -1  -4 -23    0.54    0.48
   1   4  23    0.22    0.60
   2  -5 -23    0.51    0.46
  -2   5  23    0.20    0.58
   1  -5 -23    0.36    0.49
  -1   5  23    0.10    0.44
  -1   5  23   -0.58    0.51
   0   5  23    0.00    0.63
   0   5  23    0.20    0.63
  -1   6  23   -0.34    0.53
   0  -8  24    1.38    0.65
  -1  -7  24    1.89    0.52
  -1  -7  24    1.69    0.63
  -1  -7  24    3.84    1.11
   0  -7  24   -0.43    0.47
   0  -7  24    0.75    0.62
  -1   7 -24    1.34    0.51
  -2   7 -24    0.72    0.47
  -2  -6  24    2.98    1.01
  -2  -6  24    2.24    0.66
  -1  -6  24    0.29    0.48
  -1  -6  24    0.96    0.79
  -1  -6  24    0.16    0.40
   0  -6  24    0.04    0.47
   0  -6  24    0.97    0.55
  -1   6 -24    0.10    0.37
   1  -6  24    0.08    0.50
  -2   6 -24   -0.05    0.37
  -2   6 -24    0.19    0.50
  -2  -5  24    1.51    0.56
  -2  -5  24    1.27    0.76
  -1  -5  24   -0.50    0.40
  -1  -5  24   -0.09    0.37
  -1  -5  24    0.04    0.62
   0  -5  24    0.12    0.45
   0  -5  24    1.14    0.48
  -1   5 -24    0.23    0.37
  -1   5 -24    0.80    0.59
   1  -5  24    0.28    0.50
  -2   5 -24   -0.19    0.35
  -2   5 -24    0.15    0.50
  -3  -4  24   -0.33    0.37
  -3  -4  24    0.20    0.84
  -2  -4  24    2.52    0.87
  -2  -4  24    4.21    0.77
  -1  -4  24    0.08    0.35
  -1  -4  24    0.22    0.42
  -1  -4  24    0.14    0.64
   0  -4  24   -0.44    0.45
   0  -4  24   -0.03    0.40
   0  -4  24   -0.18    0.67
  -1   4 -24    0.96    0.43
  -1   4 -24    1.34    0.58
   1  -4  24    1.08    0.54
  -2   4 -24    0.19    0.36
  -2   4 -24   -0.01    0.48
  -3   4 -24    0.84    0.50
  -3  -3  24   -0.31    0.76
  -3  -3  24   -0.04    0.40
  -2  -3  24    0.19    0.65
  -2  -3  24    0.12    0.43
  -1  -3  24    1.13    0.53
  -1  -3  24    0.68    0.59
  -1  -3  24    0.44    0.36
   0   3 -24   -0.01    0.35
   0  -3  24   -0.08    0.40
   0  -3  24   -0.20    0.43
   0  -3  24    0.10    0.59
  -1   3 -24   -0.24    0.44
  -1   3 -24    0.10    0.34
   1  -3  24    0.03    0.44
  -2   3 -24    3.09    0.64
  -2   3 -24    2.36    0.62
  -3   3 -24   -0.20    0.34
  -3  -2  24    1.07    0.50
  -3  -2  24    2.98    1.01
  -2  -2  24    0.11    0.65
  -2  -2  24    1.49    0.58
  -1  -2  24    0.31    0.43
  -1  -2  24   -0.21    0.57
  -1  -2  24   -0.02    0.32
   0   2 -24    4.77    0.69
   0  -2  24    5.12    0.84
   0  -2  24    3.69    0.70
  -1   2 -24    2.52    0.67
  -1   2 -24    2.07    0.51
   1  -2  24    2.60    0.62
  -2   2 -24    0.90    0.52
  -2   2 -24    0.39    0.36
  -3   2 -24    0.26    0.37
  -3  -1  24   -0.03    0.77
  -2  -1  24    5.02    0.99
  -1  -1  24    6.05    0.88
  -1  -1  24    4.46    0.58
  -1  -1  24    3.41    0.70
   0   1 -24    0.17    0.33
   0  -1  24    0.75    0.50
   0  -1  24   -0.07    0.40
  -1   1 -24   14.77    1.18
   1  -1  24   13.32    1.10
  -2   1 -24    1.57    0.49
  -2   1 -24    0.53    0.50
  -3   1 -24   -0.03    0.37
  -3   0  24    9.74    1.00
  -3   0  24    6.75    1.22
  -2   0  24    1.40    0.78
  -2   0  24    1.33    0.54
  -1   0  24    1.93    0.57
  -1   0  24    0.95    0.42
   0   0 -24    0.53    0.37
   0   0  24    0.39    0.44
   0   0  24   -0.44    0.46
  -1   0 -24    3.41    0.62
  -1   0 -24    3.47    0.71
   1   0  24    4.52    0.84
  -2   0 -24    0.08    0.60
  -2   0 -24    0.04    0.36
  -3   0 -24    0.51    0.42
  -3   1  24    0.72    0.47
  -3   1  24    0.53    0.90
  -2   1  24    3.96    0.71
  -1   1  24    1.04    0.52
  -1   1  24    0.13    0.37
   0   1  24    1.67    0.65
   0   1  24    0.72    0.52
  -1  -1 -24   -0.28    0.29
   1   1  24    0.18    0.51
  -2  -1 -24    0.23    0.34
  -2  -1 -24    0.47    0.59
  -3   2  24    1.76    0.58
  -2   2  24   -0.44    0.48
  -1   2  24    3.06    0.72
  -1   2  24    1.53    0.45
   0   2  24    0.88    0.53
   0   2  24    1.26    0.65
  -1  -2 -24   -0.02    0.33
   1   2  24   -0.26    0.50
  -2  -2 -24    0.10    0.35
  -2  -2 -24    0.12    0.59
  -3   3  24    1.25    0.54
  -2   3  24    4.22    0.86
  -1   3  24    2.87    0.70
  -1   3  24    2.00    0.50
   0   3  24   -0.05    0.52
   0   3  24    0.19    0.55
  -1  -3 -24    0.60    0.42
   1   3  24    0.25    0.57
  -2  -3 -24    0.65    0.60
  -2  -3 -24   -0.35    0.36
   2  -4 -24    0.55    0.48
  -2   4  24   -0.34    0.53
   1  -4 -24    0.52    0.48
  -1   4  24    0.41    0.56
  -1   4  24    0.97    0.47
   0   4  24    2.73    0.78
   0   4  24    0.36    0.58
  -1  -4 -24    0.06    0.46
   1   4  24    0.30    0.67
   2  -5 -24    0.94    0.55
  -2   5  24    0.91    0.66
   1  -5 -24    1.11    0.56
  -1   5  24    1.15    0.70
   0   5  24   10.44    1.42
   0   5  24    5.08    0.89
  -1  -7  25    0.42    0.81
  -1  -7  25    0.57    0.55
   0  -7  25    0.45    0.56
   0  -7  25    0.81    0.61
  -1   7 -25    0.32    0.43
  -2  -6  25   -0.45    0.46
  -2  -6  25    0.34    0.75
  -1  -6  25    0.35    0.70
  -1  -6  25    0.64    0.49
  -1  -6  25   -0.01    0.40
   0  -6  25    0.12    0.49
   0  -6  25   -0.02    0.46
  -1   6 -25    0.28    0.41
  -2   6 -25    0.16    0.42
  -2   6 -25   -0.10    0.53
  -2  -5  25    0.65    0.48
  -2  -5  25    0.30    0.77
  -1  -5  25    0.48    0.48
  -1  -5  25    1.30    0.83
  -1  -5  25    0.14    0.39
   0  -5  25    1.59    0.91
   0  -5  25    0.51    0.46
   0  -5  25    1.99    0.63
  -1   5 -25    0.83    0.49
   1  -5  25    1.44    0.56
  -2   5 -25    0.23    0.53
  -2   5 -25    0.10    0.40
  -3  -4  25   -0.02    0.45
  -2  -4  25    1.03    0.78
  -2  -4  25   -0.12    0.42
  -1  -4  25    0.22    0.39
  -1  -4  25    0.58    0.39
  -1  -4  25    0.10    0.59
   0  -4  25    0.80    0.55
   0  -4  25    1.00    0.53
   0  -4  25    0.46    0.78
  -1   4 -25    0.21    0.37
   1  -4  25    0.52    0.53
  -2   4 -25    0.36    0.44
  -2   4 -25   -0.53    0.46
  -3  -3  25    3.51    1.02
  -2  -3  25    3.06    0.90
  -2  -3  25    3.75    0.77
  -1  -3  25    0.28    0.60
  -1  -3  25    0.11    0.35
  -1  -3  25    0.93    0.48
   0  -3  25   10.02    1.24
  -1   3 -25   -0.16    0.35
   1  -3  25    0.07    0.47
  -2   3 -25    2.76    0.61
  -2   3 -25    2.84    0.69
  -3   3 -25    0.48    0.42
  -3  -2  25    0.22    0.48
  -3  -2  25    2.03    0.95
  -2  -2  25    0.90    0.76
  -2  -2  25    0.49    0.51
  -1  -2  25   -0.08    0.32
  -1  -2  25    0.00    0.57
   0  -2  25    0.14    0.43
   0  -2  25   -0.15    0.43
  -1   2 -25    2.07    0.52
   1  -2  25    1.72    0.65
  -2   2 -25    0.21    0.52
  -2   2 -25    0.36    0.40
  -3  -1  25   -0.04    0.94
  -3  -1  25    0.33    0.47
  -2  -1  25    0.10    0.45
  -2  -1  25    1.13    0.77
  -1  -1  25   -0.31    0.44
  -1  -1  25    0.12    0.39
   0  -1  25   -0.29    0.38
   0  -1  25    0.24    0.45
  -1   1 -25    0.32    0.35
   1  -1  25    0.19    0.47
  -2   1 -25   -0.05    0.32
  -2   1 -25    0.21    0.50
  -3   0  25    0.74    0.49
  -3   0  25    0.74    0.80
  -2   0  25    0.18    0.74
  -2   0  25    0.73    0.53
  -1   0  25    3.02    0.72
   0   0  25   -0.10    0.45
   0   0  25    0.02    0.46
  -1   0 -25    0.98    0.44
   1   0  25    2.04    0.65
  -2   0 -25   -0.10    0.53
  -2   0 -25    0.04    0.35
  -3   1  25    1.05    0.52
  -3   1  25    1.12    0.99
  -2   1  25   -0.04    0.45
  -1   1  25   -0.24    0.45
  -1   1  25    0.89    0.44
   0   1  25    4.09    0.81
   0   1  25    2.60    0.61
  -1  -1 -25    0.19    0.32
   1   1  25    0.50    0.59
  -2  -1 -25    1.13    0.61
  -2  -1 -25    1.45    0.45
  -3   2  25    2.43    0.65
  -2   2  25    0.88    0.54
  -1   2  25    1.58    0.64
  -1   2  25    1.27    0.43
   0   2  25    0.82    0.59
   0   2  25    0.95    0.63
  -1  -2 -25    0.85    0.45
   1   2  25    1.78    0.68
  -2  -2 -25   -0.34    0.58
  -2  -2 -25    0.00    0.40
  -3   3  25    0.51    0.48
  -2   3  25    1.08    0.60
  -1   3  25   -0.21    0.37
  -1   3  25    0.02    0.48
   0   3  25    5.79    1.02
  -1  -3 -25    0.77    0.45
   1   3  25    0.57    0.58
   2  -4 -25    2.08    0.59
  -2   4  25    3.12    0.83
   1  -4 -25    1.84    0.62
  -1   4  25    0.35    0.62
   0   4  25    0.07    0.56
   0   4  25    0.03    0.53
  -1   5  25   -0.07    0.56
   0   5  25    0.89    0.75
   0  -7  26    3.28    0.75
   0  -7  26    1.48    0.63
   0  -7  26    2.67    1.30
  -1   7 -26   -0.01    0.41
  -1  -6  26    2.79    0.70
  -1  -6  26    4.04    1.27
   0  -6  26    1.02    1.05
   0  -6  26    2.04    0.69
   0  -6  26    0.03    0.50
  -1   6 -26   -0.24    0.35
  -2  -5  26   -0.33    0.44
  -2  -5  26    0.15    0.82
  -1  -5  26    0.63    0.42
  -1  -5  26    0.73    0.52
  -1  -5  26    1.33    0.87
   0  -5  26   -0.45    0.47
   0  -5  26   -0.52    0.84
   0  -5  26    0.34    0.49
  -1   5 -26    0.13    0.39
  -2   5 -26    0.76    0.46
  -2   5 -26    0.25    0.58
  -2  -4  26   -0.05    0.43
  -2  -4  26    0.78    0.81
  -1  -4  26    0.34    0.39
  -1  -4  26    0.24    0.67
  -1  -4  26   -0.02    0.46
   0  -4  26    0.58    0.53
   0  -4  26    1.26    0.61
   0  -4  26    0.33    0.62
  -1   4 -26    1.22    0.49
   1  -4  26    0.16    0.56
  -2   4 -26    0.35    0.45
  -2   4 -26    0.66    0.60
  -3  -3  26   -0.70    0.41
  -2  -3  26    0.10    0.48
  -2  -3  26   -0.41    0.79
  -1  -3  26    0.84    0.69
  -1  -3  26    0.56    0.39
  -1  -3  26    1.54    0.63
   0  -3  26    0.16    0.48
   0  -3  26    0.01    0.46
  -1   3 -26    0.21    0.37
   1  -3  26    0.79    0.59
  -2   3 -26   -0.05    0.54
  -2   3 -26    0.87    0.46
  -3  -2  26   -0.04    0.45
  -3  -2  26    0.03    0.76
  -2  -2  26   -0.52    0.41
  -2  -2  26   -0.31    0.62
  -1  -2  26    0.95    0.55
  -1  -2  26    0.64    0.37
   0  -2  26   -0.17    0.47
   0  -2  26    0.18    0.52
  -1   2 -26   -0.25    0.33
   1  -2  26   -0.16    0.49
  -2   2 -26    3.65    0.77
  -3  -1  26   -0.23    0.97
  -3  -1  26    0.15    0.53
  -2  -1  26    3.01    0.74
  -2  -1  26    3.06    0.93
  -1  -1  26    0.70    0.44
  -1  -1  26    0.43    0.58
   0  -1  26    0.61    0.50
   0  -1  26    0.38    0.50
  -1   1 -26    0.52    0.40
   1  -1  26    0.43    0.55
  -2   1 -26    0.42    0.42
  -2   1 -26    0.64    0.56
  -3   0  26    0.05    0.89
  -3   0  26    0.59    0.49
  -2   0  26    7.48    0.96
  -1   0  26    3.79    0.58
  -1   0  26    7.65    1.09
   0   0  26    0.41    0.53
   0   0  26    0.42    0.51
  -1   0 -26    0.52    0.37
   1   0  26   -0.25    0.50
  -2   0 -26   -0.20    0.33
  -2   0 -26    0.59    0.60
  -3   1  26   -0.21    0.44
  -2   1  26    1.21    0.60
  -1   1  26    0.35    0.53
  -1   1  26    0.27    0.41
   0   1  26    0.34    0.54
   0   1  26    0.37    0.53
  -1  -1 -26   -0.05    0.32
   1   1  26    0.12    0.55
  -2  -1 -26    0.05    0.36
  -2  -1 -26    0.06    0.58
  -3   2  26    3.43    0.79
  -2   2  26    0.14    0.49
  -1   2  26    7.40    1.09
   0   2  26    0.77    0.63
   0   2  26    0.60    0.60
  -1  -2 -26    1.14    0.44
   1   2  26    2.92    0.79
  -2  -2 -26    0.73    0.44
  -2   3  26    6.24    0.96
  -1   3  26   -0.15    0.50
  -1   3  26   -0.34    0.33
   0   3  26    1.13    0.63
   0   3  26    1.11    0.66
   2  -4 -26    2.58    0.68
  -2   4  26    3.68    0.92
   1  -4 -26    2.23    0.67
  -1   4  26    3.16    0.93
   0   4  26   -0.21    0.63
   0   4  26   -0.21    0.59
  -1  -6  27    0.51    0.94
  -1  -6  27   -0.20    0.51
   0  -6  27   -0.35    0.95
   0  -6  27   -0.51    0.46
   0  -6  27    0.00    0.52
  -1   6 -27    0.45    0.49
  -2  -5  27    0.19    0.50
  -1  -5  27    1.12    0.52
  -1  -5  27    1.08    0.46
  -1  -5  27    2.23    0.93
   0  -5  27    0.84    0.63
   0  -5  27    1.46    0.99
   0  -5  27    0.45    0.51
  -1   5 -27    1.83    0.57
  -2   5 -27   -0.14    0.39
  -2  -4  27    0.37    0.89
  -2  -4  27    0.89    0.58
  -1  -4  27    6.60    1.22
  -1  -4  27    4.51    0.79
  -1  -4  27    3.57    0.59
   0  -4  27   -0.02    0.51
   0  -4  27   -0.02    0.54
  -1   4 -27    2.21    0.57
   1  -4  27    2.87    0.79
  -2   4 -27    1.05    0.52
  -2   4 -27    0.42    0.58
  -2  -3  27    1.52    0.93
  -2  -3  27    1.23    0.65
  -1  -3  27    0.19    0.37
  -1  -3  27    0.79    0.73
  -1  -3  27    0.94    0.57
   0  -3  27    0.01    0.50
   0  -3  27    0.76    0.57
  -1   3 -27    0.58    0.44
   1  -3  27    0.13    0.51
  -2   3 -27    1.63    0.67
  -2   3 -27    1.45    0.53
  -2  -2  27    1.06    0.79
  -1  -2  27   -0.13    0.47
  -1  -2  27    0.13    0.35
   0  -2  27    0.12    0.47
   0  -2  27   -0.09    0.51
  -1   2 -27    1.44    0.49
   1  -2  27    0.99    0.57
  -2   2 -27    1.87    0.52
  -2   2 -27    1.68    0.71
  -3  -1  27   -0.10    0.49
  -2  -1  27    0.04    0.57
  -1  -1  27    0.85    0.58
  -1  -1  27    0.30    0.39
   0  -1  27    0.86    0.61
   0  -1  27    0.40    0.50
  -1   1 -27    1.31    0.51
   1  -1  27    0.15    0.52
  -2   1 -27    1.63    0.55
  -2   1 -27    0.23    0.61
  -3   0  27    0.35    0.50
  -2   0  27    6.54    0.97
  -1   0  27    4.48    0.83
  -1   0  27    3.39    0.58
   0   0  27    0.17    0.54
   0   0  27   -0.19    0.53
  -1   0 -27   -0.21    0.39
   1   0  27    0.13    0.58
  -2   0 -27   -0.05    0.42
  -2   0 -27    0.03    0.60
  -2   1  27    2.45    0.74
  -1   1  27    0.63    0.43
  -1   1  27    0.74    0.64
   0   1  27    0.09    0.57
   0   1  27    1.25    0.66
  -1  -1 -27   -0.09    0.36
   1   1  27   -0.14    0.52
  -2  -1 -27    0.74    0.61
  -2  -1 -27    0.09    0.40
  -2   2  27   -0.27    0.49
  -1   2  27   -0.53    0.55
   0   2  27    0.91    0.63
   0   2  27    0.25    0.55
   1   2  27    2.72    0.86
  -2   3  27    6.71    1.01
  -1   3  27    1.12    0.67
   0   3  27    5.18    1.05
   0   3  27    1.35    0.69
  -1   4  27    2.73    0.92
   0  -6  28   -0.46    0.54
   0  -6  28   -0.05    0.57
   0  -6  28   -0.36    0.91
  -1  -5  28   -0.33    0.44
  -1  -5  28    1.13    0.98
  -1  -5  28    0.13    0.46
   0  -5  28    0.50    0.62
   0  -5  28   -0.29    0.47
  -1   5 -28    0.22    0.44
  -2  -4  28   -0.15    0.87
  -2  -4  28    0.18    0.52
  -1  -4  28    1.71    0.49
  -1  -4  28    4.94    0.88
  -1  -4  28    3.11    0.92
   0  -4  28    0.45    0.60
  -1   4 -28    1.03    0.52
  -2  -3  28    4.59    1.22
  -2  -3  28    3.73    0.84
  -1  -3  28    0.51    0.42
   0  -3  28    1.08    0.65
   0  -3  28    0.93    0.60
  -1   3 -28    0.40    0.40
   1  -3  28    0.78    0.57
  -2   3 -28    0.20    0.60
  -2   3 -28   -0.08    0.41
  -2  -2  28   -0.30    0.46
  -1  -2  28    0.09    0.55
  -1  -2  28   -0.05    0.38
   0  -2  28   -0.02    0.51
   0  -2  28    1.74    0.70
  -1   2 -28   -0.03    0.38
   1  -2  28   -0.14    0.48
  -2   2 -28   -0.24    0.38
  -2   2 -28   -0.09    0.58
  -2  -1  28    1.75    0.70
  -1  -1  28    1.96    0.70
   0  -1  28    1.05    0.56
   0  -1  28    0.15    0.51
  -1   1 -28    0.01    0.39
   1  -1  28    0.44    0.64
  -2   1 -28   -0.12    0.40
  -2   1 -28   -0.84    0.56
  -2   0  28    1.14    0.63
  -1   0  28    1.17    0.60
  -1   0  28    0.08    0.42
   0   0  28    0.01    0.52
   0   0  28   -0.19    0.56
  -1   0 -28    0.06    0.39
   1   0  28   -0.20    0.52
  -2   1  28    0.15    0.51
  -1   1  28    0.77    0.45
  -1   1  28    1.34    0.76
   0   1  28   -0.48    0.52
   0   1  28    0.21    0.58
   1   1  28   -0.10    0.55
  -2   2  28    3.10    0.82
  -1   2  28    3.96    0.97
   0   2  28    2.51    0.77
   0   2  28    2.18    0.75
  -1   3  28    0.18    0.66
   0   3  28    0.59    0.62
   0   3  28    1.05    0.83
  -1  -5  29   -0.14    0.52
   0  -5  29    5.58    0.92
   0  -5  29    2.48    0.66
  -1  -4  29    0.50    0.58
  -1  -4  29    0.36    0.44
   0  -4  29    0.36    0.61
   0  -4  29    0.09    0.58
  -2  -3  29    0.09    0.94
  -2  -3  29    0.41    0.58
  -1  -3  29    0.61    0.40
   0  -3  29   -0.31    0.54
   0  -3  29   -0.10    0.57
  -1   3 -29    0.67    0.50
  -2  -2  29   -0.59    0.55
  -1  -2  29    0.76    0.69
   0  -2  29    1.16    0.64
   0  -2  29    0.42    0.53
  -1   2 -29    0.36    0.42
   1  -2  29    0.80    0.68
  -2  -1  29   -0.23    0.52
  -1  -1  29   -0.15    0.50
   0  -1  29    5.27    0.95
   0  -1  29    2.09    0.72
   1  -1  29    4.40    0.96
  -2   0  29    0.72    0.60
  -1   0  29    3.31    0.84
   0   0  29   -0.59    0.60
   0   0  29   -0.10    0.51
  -2   1  29    0.80    0.63
  -1   1  29    0.65    0.73
   0   1  29    0.48    0.61
   0   1  29    0.36    0.61
  -1   2  29    3.18    0.96
   0   2  29    3.85    0.93
  -1  -4  30    0.54    0.56
   0  -4  30    0.76    0.65
   0  -4  30    0.69    0.68
  -1  -3  30   -0.44    0.55
   0  -3  30    0.71    0.68
   0  -3  30    0.11    0.58
  -1  -2  30    4.73    0.94
   0  -2  30    1.09    0.63
   0  -2  30    2.60    0.76
  -1  -1  30    6.68    1.16
   0  -1  30   -0.47    0.51
   0  -1  30    0.70    0.65
  -1   0  30    1.21    0.70
   0   0  30    1.80    0.67
   0   0  30    3.95    0.99
  -1   1  30    6.48    1.14
   0   1  30    0.79    0.77
   0   1  30   -0.34    0.56
   0  -3  31    0.04    0.65
  -1  -2  31    1.33    0.73
   0  -2  31   10.70    1.40
  -1  -1  31    0.46    0.62
   0  -1  31    1.18    0.77
   0  -1  31    0.11    0.61
   0   0   0    0.00    0.00
;
_shelx_hkl_checksum              60326
#END Tags that were not found in dictionaries
loop_
_space_group_symop_operation_xyz
'x, y, z'
'-x, -y, -z'
loop_
_atom_site_label
_atom_site_type_symbol
_atom_site_fract_x
_atom_site_fract_y
_atom_site_fract_z
_atom_site_U_iso_or_equiv
_atom_site_adp_type
_atom_site_occupancy
_atom_site_site_symmetry_order
_atom_site_calc_flag
F1 F 0.6496(4) 0.86156(16) 0.30427(6) 0.0276(4) Uani 1 1 d
F2 F 0.4038(4) 0.27614(16) 0.35931(6) 0.0270(4) Uani 1 1 d
O1 O 0.8221(4) 0.3468(2) 0.26956(7) 0.0233(4) Uani 1 1 d
F3 F 0.2067(4) 0.78611(19) 0.49494(6) 0.0340(4) Uani 1 1 d
O2 O 0.5923(5) 0.5462(2) 0.21820(7) 0.0255(4) Uani 1 1 d
C1 C 0.5358(6) 0.5637(3) 0.32717(10) 0.0175(5) Uani 1 1 d
C3 C 0.4290(6) 0.8294(3) 0.39956(10) 0.0233(5) Uani 1 1 d
C2 C 0.5338(6) 0.7496(3) 0.34391(10) 0.0200(5) Uani 1 1 d
C5 C 0.3019(6) 0.5281(3) 0.42718(11) 0.0223(5) Uani 1 1 d
C7 C 0.6550(6) 0.4827(3) 0.26555(10) 0.0185(5) Uani 1 1 d
C6 C 0.4168(6) 0.4581(3) 0.37125(10) 0.0201(5) Uani 1 1 d
C4 C 0.3139(6) 0.7142(3) 0.43988(10) 0.0249(5) Uani 1 1 d
O3 O 0.6715(4) 0.28235(19) -0.00370(7) 0.0225(4) Uani 1 1 d
N1 N 0.9533(5) -0.1563(2) -0.18037(8) 0.0181(4) Uani 1 1 d
N2 N 0.5123(5) 0.4217(2) -0.08400(9) 0.0201(4) Uani 1 1 d
C13 C 0.6352(6) 0.2855(3) -0.06008(10) 0.0178(5) Uani 1 1 d
C9 C 0.7714(6) 0.1381(3) -0.16700(10) 0.0197(5) Uani 1 1 d
C10 C 0.7357(6) 0.1302(3) -0.10479(10) 0.0164(5) Uani 1 1 d
C11 C 0.8023(6) -0.0255(3) -0.08124(10) 0.0179(5) Uani 1 1 d
C8 C 0.8792(6) -0.0085(3) -0.20346(11) 0.0201(5) Uani 1 1 d
C12 C 0.9143(6) -0.1654(3) -0.12020(10) 0.0202(5) Uani 1 1 d
H11 H 0.767(6) -0.037(3) -0.0383(10) 0.014(6) Uiso 1 1 d
H3 H 0.434(7) 0.962(4) 0.4091(11) 0.033(7) Uiso 1 1 d
H8 H 0.916(6) -0.014(3) -0.2475(11) 0.019(6) Uiso 1 1 d
H9 H 0.734(6) 0.241(3) -0.1857(10) 0.022(6) Uiso 1 1 d
H5 H 0.219(7) 0.449(4) 0.4539(12) 0.038(8) Uiso 1 1 d
H2A H 0.447(7) 0.515(3) -0.0569(11) 0.026(7) Uiso 1 1 d
H12 H 0.979(7) -0.280(4) -0.1053(12) 0.035(7) Uiso 1 1 d
H1 H 0.928(8) 0.281(4) 0.2217(15) 0.058(9) Uiso 1 1 d
H2B H 0.476(9) 0.416(4) -0.1273(16) 0.061(10) Uiso 1 1 d
loop_
_atom_site_aniso_label
_atom_site_aniso_U_11
_atom_site_aniso_U_22
_atom_site_aniso_U_33
_atom_site_aniso_U_23
_atom_site_aniso_U_13
_atom_site_aniso_U_12
F1 0.0420(9) 0.0132(6) 0.0281(7) 0.0051(5) 0.0081(6) 0.0017(6)
F2 0.0389(9) 0.0133(6) 0.0306(8) 0.0073(5) 0.0055(6) 0.0042(6)
O1 0.0314(10) 0.0164(8) 0.0230(8) -0.0001(6) 0.0013(7) 0.0108(7)
F3 0.0426(9) 0.0345(8) 0.0232(8) -0.0047(6) 0.0102(6) 0.0059(7)
O2 0.0377(11) 0.0212(8) 0.0200(8) 0.0049(6) 0.0040(7) 0.0105(7)
C1 0.0184(12) 0.0146(10) 0.0195(11) 0.0026(8) 0.0006(9) 0.0030(9)
C3 0.0273(13) 0.0165(11) 0.0239(12) -0.0034(9) -0.0008(10) 0.0038(9)
C2 0.0252(13) 0.0154(11) 0.0191(11) 0.0041(8) 0.0012(9) 0.0010(9)
C5 0.0247(13) 0.0223(12) 0.0204(12) 0.0065(9) 0.0015(10) 0.0017(9)
C7 0.0209(12) 0.0124(10) 0.0210(11) 0.0006(8) -0.0007(9) 0.0011(9)
C6 0.0219(12) 0.0137(10) 0.0239(12) 0.0024(9) -0.0025(9) 0.0018(9)
C4 0.0266(13) 0.0294(13) 0.0170(11) -0.0037(9) 0.0039(10) 0.0055(10)
O3 0.0346(10) 0.0160(8) 0.0180(8) 0.0026(6) 0.0028(7) 0.0068(7)
N1 0.0210(10) 0.0100(8) 0.0225(10) 0.0005(7) 0.0020(8) 0.0019(7)
N2 0.0269(11) 0.0129(9) 0.0206(11) -0.0003(8) 0.0023(8) 0.0063(8)
C13 0.0193(12) 0.0124(10) 0.0208(11) 0.0013(8) 0.0036(9) 0.0001(8)
C9 0.0229(12) 0.0141(10) 0.0223(12) 0.0040(9) 0.0014(9) 0.0030(9)
C10 0.0161(11) 0.0127(10) 0.0191(11) 0.0002(8) 0.0009(9) -0.0001(8)
C11 0.0197(12) 0.0144(10) 0.0187(11) 0.0033(8) -0.0004(9) -0.0012(9)
C8 0.0233(12) 0.0167(11) 0.0206(12) 0.0030(9) 0.0043(9) 0.0032(9)
C12 0.0248(13) 0.0127(11) 0.0230(12) 0.0029(9) 0.0010(10) 0.0022(9)
loop_
_atom_type_symbol
_atom_type_description
_atom_type_scat_dispersion_real
_atom_type_scat_dispersion_imag
_atom_type_scat_source
C C 0.0033 0.0016 'International Tables Vol C Tables 4.2.6.8 and 6.1.1.4'
H H 0.0000 0.0000 'International Tables Vol C Tables 4.2.6.8 and 6.1.1.4'
N N 0.0061 0.0033 'International Tables Vol C Tables 4.2.6.8 and 6.1.1.4'
O O 0.0106 0.0060 'International Tables Vol C Tables 4.2.6.8 and 6.1.1.4'
F F 0.0171 0.0103 'International Tables Vol C Tables 4.2.6.8 and 6.1.1.4'
loop_
_geom_angle_atom_site_label_1
_geom_angle_atom_site_label_2
_geom_angle_atom_site_label_3
_geom_angle
C7 O1 H1 115.0(15)
C2 C1 C6 114.8(2)
C2 C1 C7 122.44(19)
C6 C1 C7 122.72(19)
C4 C3 C2 116.4(2)
C4 C3 H3 122.4(15)
C2 C3 H3 121.1(15)
F1 C2 C3 116.87(19)
F1 C2 C1 118.63(19)
C3 C2 C1 124.5(2)
C6 C5 C4 117.0(2)
C6 C5 H5 119.3(16)
C4 C5 H5 123.7(16)
O2 C7 O1 126.0(2)
O2 C7 C1 121.04(19)
O1 C7 C1 112.93(18)
F2 C6 C5 116.5(2)
F2 C6 C1 119.63(19)
C5 C6 C1 123.9(2)
F3 C4 C3 118.6(2)
F3 C4 C5 118.0(2)
C3 C4 C5 123.4(2)
C8 N1 C12 119.31(18)
C13 N2 H2A 117.7(15)
C13 N2 H2B 120.7(19)
H2A N2 H2B 121(2)
O3 C13 N2 123.1(2)
O3 C13 C10 119.17(19)
N2 C13 C10 117.75(19)
C10 C9 C8 118.6(2)
C10 C9 H9 123.3(14)
C8 C9 H9 118.1(14)
C9 C10 C11 119.2(2)
C9 C10 C13 123.07(19)
C11 C10 C13 117.76(19)
C12 C11 C10 119.1(2)
C12 C11 H11 120.2(13)
C10 C11 H11 120.8(13)
N1 C8 C9 122.3(2)
N1 C8 H8 113.4(13)
C9 C8 H8 124.3(13)
N1 C12 C11 121.6(2)
N1 C12 H12 115.6(15)
C11 C12 H12 122.8(15)
loop_
_geom_bond_atom_site_label_1
_geom_bond_atom_site_label_2
_geom_bond_distance
F1 C2 1.345(3)
F2 C6 1.346(2)
O1 C7 1.282(3)
O1 H1 1.20(3)
F3 C4 1.350(3)
O2 C7 1.224(2)
C1 C2 1.390(3)
C1 C6 1.391(3)
C1 C7 1.511(3)
C3 C4 1.371(3)
C3 C2 1.377(3)
C3 H3 0.98(3)
C5 C6 1.374(3)
C5 C4 1.377(3)
C5 H5 0.93(3)
O3 C13 1.234(3)
N1 C8 1.339(3)
N1 C12 1.340(3)
N2 C13 1.338(3)
N2 H2A 0.92(3)
N2 H2B 0.94(3)
C13 C10 1.510(3)
C9 C10 1.381(3)
C9 C8 1.381(3)
C9 H9 0.95(2)
C10 C11 1.390(3)
C11 C12 1.379(3)
C11 H11 0.97(2)
C8 H8 0.97(2)
C12 H12 1.02(3)
