#------------------------------------------------------------------------------
#$Date: 2016-03-26 13:57:08 +0200 (Sat, 26 Mar 2016) $
#$Revision: 180241 $
#$URL: svn://www.crystallography.net/cod/cif/7/11/27/7112746.cif $
#------------------------------------------------------------------------------
#
# This file is available in the Crystallography Open Database (COD),
# http://www.crystallography.net/
#
# All data on this site have been placed in the public domain by the
# contributors.
#
data_7112746
loop_
_publ_author_name
'Markus Feurer'
'Georg Frey'
'Hieu-Trinh Luu'
'Daniel Kratzert'
'Jan Streuff'
_publ_section_title
;
 The cross-selective titanium(III)-catalysed acyloin reaction
;
_journal_name_full               Chem.Commun.
_journal_page_first              5370
_journal_paper_doi               10.1039/C3CC46894A
_journal_volume                  50
_journal_year                    2014
_chemical_formula_moiety         'C16 H16 O2'
_chemical_formula_sum            'C16 H16 O2'
_chemical_formula_weight         240.29
_chemical_name_systematic
;
 ?
;
_space_group_crystal_system      monoclinic
_space_group_IT_number           7
_space_group_name_Hall           'P -2yc'
_space_group_name_H-M_alt        'P 1 c 1'
_symmetry_space_group_name_Hall  'P -2yc'
_symmetry_space_group_name_H-M   'P 1 c 1'
_atom_sites_solution_hydrogens   mixed
_audit_creation_method           SHELXL-2013
_cell_angle_alpha                90
_cell_angle_beta                 90.240(3)
_cell_angle_gamma                90
_cell_formula_units_Z            2
_cell_length_a                   6.4499(11)
_cell_length_b                   13.834(2)
_cell_length_c                   7.0464(12)
_cell_measurement_reflns_used    7645
_cell_measurement_temperature    100(2)
_cell_measurement_theta_max      53.552
_cell_measurement_theta_min      5.890
_cell_volume                     628.73(18)
_computing_cell_refinement       'APEX 2013.4-1'
_computing_data_collection       'APEX 2013.4-1'
_computing_data_reduction        'SAINT V8.30C'
_computing_molecular_graphics    'XP (Sheldrick)'
_computing_publication_material  'XP (Sheldrick)'
_computing_structure_refinement  'SHELXL-2013 (Sheldrick, 2013)'
_computing_structure_solution    'SHELXT-2013 (Sheldrick, 2013)'
_diffrn_ambient_temperature      100(2)
_diffrn_measured_fraction_theta_full 0.999
_diffrn_measured_fraction_theta_max 0.999
_diffrn_measurement_device_type  'Bruker SMart APEXII'
_diffrn_measurement_method       'omega scans'
_diffrn_radiation_type           MoK\a
_diffrn_radiation_wavelength     0.71073
_diffrn_reflns_av_R_equivalents  0.0354
_diffrn_reflns_av_unetI/netI     0.0203
_diffrn_reflns_Laue_measured_fraction_full 0.999
_diffrn_reflns_Laue_measured_fraction_max 0.999
_diffrn_reflns_limit_h_max       8
_diffrn_reflns_limit_h_min       -8
_diffrn_reflns_limit_k_max       17
_diffrn_reflns_limit_k_min       -17
_diffrn_reflns_limit_l_max       9
_diffrn_reflns_limit_l_min       -9
_diffrn_reflns_number            19964
_diffrn_reflns_point_group_measured_fraction_full 0.999
_diffrn_reflns_point_group_measured_fraction_max 0.999
_diffrn_reflns_theta_full        25.242
_diffrn_reflns_theta_max         27.150
_diffrn_reflns_theta_min         2.945
_diffrn_source                   'INCOATEC Mo Microsource'
_exptl_absorpt_coefficient_mu    0.082
_exptl_absorpt_correction_T_max  0.7455
_exptl_absorpt_correction_T_min  0.6820
_exptl_absorpt_correction_type   multi-scan
_exptl_absorpt_process_details
;
SADABS-2012/1, G. Sheldrick,  Goettingen
;
_exptl_crystal_colour            colorless
_exptl_crystal_density_diffrn    1.269
_exptl_crystal_description       block
_exptl_crystal_F_000             256
_exptl_crystal_size_max          0.556
_exptl_crystal_size_mid          0.328
_exptl_crystal_size_min          0.173
_refine_diff_density_max         0.254
_refine_diff_density_min         -0.173
_refine_diff_density_rms         0.036
_refine_ls_abs_structure_details
;
 Flack x determined using 1314 quotients [(I+)-(I-)]/[(I+)+(I-)]
 (Parsons and Flack (2004), Acta Cryst. A60, s61).
;
_refine_ls_abs_structure_Flack   -0.1(3)
_refine_ls_extinction_method     none
_refine_ls_goodness_of_fit_ref   1.058
_refine_ls_hydrogen_treatment    mixed
_refine_ls_matrix_type           full
_refine_ls_number_parameters     167
_refine_ls_number_reflns         2806
_refine_ls_number_restraints     3
_refine_ls_restrained_S_all      1.058
_refine_ls_R_factor_all          0.0318
_refine_ls_R_factor_gt           0.0308
_refine_ls_shift/su_max          0.000
_refine_ls_shift/su_mean         0.000
_refine_ls_structure_factor_coef Fsqd
_refine_ls_weighting_details
'w=1/[\s^2^(Fo^2^)+(0.0431P)^2^+0.1389P] where P=(Fo^2^+2Fc^2^)/3'
_refine_ls_weighting_scheme      calc
_refine_ls_wR_factor_gt          0.0810
_refine_ls_wR_factor_ref         0.0817
_reflns_Friedel_coverage         0.987
_reflns_Friedel_fraction_full    0.998
_reflns_Friedel_fraction_max     0.999
_reflns_number_gt                2724
_reflns_number_total             2806
_reflns_threshold_expression     'I > 2\s(I)'
_iucr_refine_instructions_details
;
see below
;
_cod_data_source_file            c3cc46894a.txt
_cod_data_source_block           DK_JS_III_132
_cod_original_cell_volume        628.74(18)
_cod_database_code               7112746
#BEGIN Tags that were not found in dictionaries:
_shelx_space_group_comment
;
The symmetry employed for this shelxl refinement is uniquely defined
by the following loop, which should always be used as a source of
symmetry information in preference to the above space-group names.
They are only intended as comments.
;
_shelx_estimated_absorpt_t_min   0.956
_shelx_estimated_absorpt_t_max   0.986
_shelxl_version_number           2013-4
_shelx_res_file
;
REM Solution 1  R1  0.082  Rweak  0.018,  Alpha = 0.0084  in Pc
TITL pc in Pc
CELL  0.71073   6.4499  13.8343   7.0464   90.000   90.240   90.000
ZERR    2.00   0.0011   0.0022   0.0012   0.000   0.003   0.000
LATT -1
SYMM X, -Y, 1/2+Z
SFAC C H O
UNIT 32 32 4
TEMP -173.150
SIZE 0.173 0.328 0.556
L.S. 10
BOND $H
ACTA
CONF
LIST 4
FMAP 2
DFIX 0.84 O2 H1
PLAN 20
WGHT    0.043100    0.138900
FVAR       1.31632
O1    3    0.791333    0.569320    0.965554    11.00000    0.01592    0.02681 =
         0.02426   -0.00576   -0.00235    0.00330
O2    3    0.541617    0.599007    0.680022    11.00000    0.01903    0.02047 =
         0.01614   -0.00397   -0.00125    0.00091
H1    2    0.656724    0.576119    0.695815    11.00000   -1.50000
C1    1    0.788836    0.710496    1.280552    11.00000    0.01555    0.02009 =
         0.01086   -0.00141    0.00013   -0.00004
C2    1    0.793541    0.810149    1.260061    11.00000    0.01986    0.02166 =
         0.01539   -0.00070   -0.00108    0.00152
AFIX  43
H2    2    0.683231    0.842341    1.196497    11.00000   -1.20000
AFIX   0
C3    1    0.959797    0.863279    1.332517    11.00000    0.02965    0.01959 =
         0.02039   -0.00167    0.00218   -0.00489
AFIX  43
H3    2    0.961840    0.931597    1.319025    11.00000   -1.20000
AFIX   0
C4    1    1.121992    0.816692    1.424123    11.00000    0.02120    0.03184 =
         0.01633   -0.00353   -0.00070   -0.00896
AFIX  43
H4    2    1.234091    0.852985    1.475257    11.00000   -1.20000
AFIX   0
C5    1    1.119773    0.716726    1.440758    11.00000    0.01818    0.03065 =
         0.01427   -0.00020   -0.00168    0.00098
AFIX  43
H5    2    1.232329    0.684465    1.500774    11.00000   -1.20000
AFIX   0
C6    1    0.954089    0.663723    1.370213    11.00000    0.01938    0.02013 =
         0.01396    0.00063    0.00106    0.00062
AFIX  43
H6    2    0.953034    0.595362    1.382939    11.00000   -1.20000
AFIX   0
C7    1    0.604903    0.653203    1.208015    11.00000    0.01544    0.01936 =
         0.01528    0.00065   -0.00169    0.00007
AFIX  23
H7A   2    0.480026    0.694802    1.209445    11.00000   -1.20000
H7B   2    0.579664    0.597890    1.294015    11.00000   -1.20000
AFIX   0
C8    1    0.638783    0.615790    1.008539    11.00000    0.01408    0.01361 =
         0.01903    0.00053   -0.00029   -0.00277
C9    1    0.473054    0.637704    0.856475    11.00000    0.01495    0.01712 =
         0.01442   -0.00115    0.00041   -0.00044
C10   1    0.271962    0.586499    0.911463    11.00000    0.01467    0.02026 =
         0.02122   -0.00086   -0.00239   -0.00358
AFIX 137
H10A  2    0.164771    0.600245    0.816249    11.00000   -1.50000
H10B  2    0.226131    0.609807    1.035741    11.00000   -1.50000
H10C  2    0.296112    0.516630    0.917639    11.00000   -1.50000
AFIX   0
C11   1    0.456298    0.747591    0.841886    11.00000    0.01892    0.01724 =
         0.01227   -0.00043   -0.00454   -0.00004
C12   1    0.294400    0.799274    0.923795    11.00000    0.02250    0.02087 =
         0.01560    0.00174   -0.00043    0.00257
AFIX  43
H12   2    0.185471    0.765756    0.985865    11.00000   -1.20000
AFIX   0
C13   1    0.291378    0.899746    0.915185    11.00000    0.03566    0.02299 =
         0.01835   -0.00092    0.00028    0.00983
AFIX  43
H13   2    0.181027    0.934496    0.972373    11.00000   -1.20000
AFIX   0
C14   1    0.447816    0.949164    0.824021    11.00000    0.04793    0.01640 =
         0.01984    0.00000   -0.00093    0.00187
AFIX  43
H14   2    0.445211    1.017756    0.818069    11.00000   -1.20000
AFIX   0
C15   1    0.608861    0.898176    0.741133    11.00000    0.03699    0.02250 =
         0.01896   -0.00051    0.00312   -0.00812
AFIX  43
H15   2    0.716561    0.931950    0.677819    11.00000   -1.20000
AFIX   0
C16   1    0.613284    0.798261    0.750296    11.00000    0.02252    0.02169 =
         0.01605   -0.00274   -0.00044   -0.00055
AFIX  43
H16   2    0.724499    0.763923    0.693550    11.00000   -1.20000
REM #####
AFIX   0
HKLF 4

REM  pc in Pc
REM R1 =  0.0308 for    2724 Fo > 4sig(Fo)  and  0.0318 for all    2806 data
REM    167 parameters refined using      3 restraints

END

WGHT      0.0431      0.1389

REM Highest difference peak  0.254,  deepest hole -0.173,  1-sigma level  0.036
Q1    1   0.4581  0.6948  0.8415  11.00000  0.05    0.25
Q2    1   0.3845  0.7665  0.9002  11.00000  0.05    0.21
Q3    1   0.3784  0.6128  0.8874  11.00000  0.05    0.20
Q4    1   0.5527  0.7701  0.8343  11.00000  0.05    0.20
Q5    1   0.8273  0.7563  1.2364  11.00000  0.05    0.18
Q6    1   0.2987  0.8475  0.8977  11.00000  0.05    0.18
Q7    1   0.7644  0.7603  1.3130  11.00000  0.05    0.18
Q8    1   0.8603  0.6876  1.3454  11.00000  0.05    0.16
Q9    1   0.3518  0.9146  0.8348  11.00000  0.05    0.16
Q10   1   0.5983  0.8464  0.7257  11.00000  0.05    0.16
Q11   1   0.5444  0.9207  0.8178  11.00000  0.05    0.14
Q12   1   0.9382  0.5431  1.3745  11.00000  0.05    0.13
Q13   1   0.9028  0.8367  1.2481  11.00000  0.05    0.13
Q14   1   1.1394  0.7626  1.3852  11.00000  0.05    0.12
Q15   1   1.0927  0.7660  1.4644  11.00000  0.05    0.12
Q16   1   0.4897  0.6205  0.7739  11.00000  0.05    0.12
Q17   1   0.5979  0.5936  1.2480  11.00000  0.05    0.12
Q18   1   0.2782  0.4609  0.8058  11.00000  0.05    0.12
Q19   1   1.0528  0.6922  1.3576  11.00000  0.05    0.12
Q20   1   0.6013  0.7238  0.7568  11.00000  0.05    0.11
;
_shelx_res_checksum              6533
_shelx_hkl_file
;
   1   0   0 3029.60   85.69
   1   0   0 3190.18   82.89
   1   0   0 3113.19   83.49
   1   0   0 3115.49   85.29
   1   0   0 3204.68   84.69
   1   0   0 3044.00   77.39
   1   0   0 3048.79   85.59
   1   0   0 3147.69   79.89
   1   0   0 3210.98   82.69
   2   0   0  347.87   11.40
   2   0   0  349.07   10.80
   2   0   0  336.87   11.20
   2   0   0  329.27   10.80
   2   0   0  348.47   11.20
   2   0   0  352.36   11.00
   2   0   0  340.67   11.50
   2   0   0  355.06   11.20
   2   0   0  335.57   10.60
  -3   0   0  531.15   16.90
  -3   0   0  527.65   16.90
  -3   0   0  519.25   16.50
   3   0   0  515.65   17.50
   3   0   0  522.55   17.50
   3   0   0  525.95   16.80
   3   0   0  535.55   17.50
   3   0   0  519.05   16.20
   3   0   0  516.15   16.50
   3   0   0  548.15   17.30
   3   0   0  523.05   17.00
   3   0   0  542.85   16.90
   4   0   0  358.06   13.50
   4   0   0  321.57   12.30
   4   0   0  319.27   12.20
   4   0   0  322.97   12.10
  -4   0   0  318.27   11.80
   4   0   0  325.27   13.10
   4   0   0  313.17   13.30
   4   0   0  338.27   12.60
   4   0   0  332.47   11.80
  -4   0   0  332.17   12.20
  -4   0   0  329.17   12.20
  -4   0   0  313.57   12.10
   4   0   0  319.47   12.00
  -5   0   0   58.29    4.30
   5   0   0   53.09    4.30
   5   0   0   54.79    6.30
  -5   0   0   51.89    5.50
  -5   0   0   58.09    4.70
   5   0   0   60.69    4.80
  -5   0   0   58.29    4.60
  -5   0   0   44.80    5.40
   5   0   0   57.39    4.20
   5   0   0   51.89    5.80
  -5   0   0   52.09    4.20
   5   0   0   53.79    4.70
   5   0   0   52.89    5.50
   5   0   0   45.80    5.40
   5   0   0   56.39    4.50
  -6   0   0 2213.38   66.49
   6   0   0 2256.37   66.59
   6   0   0 2247.98   62.79
   6   0   0 2189.58   67.89
   6   0   0 2323.77   66.79
   6   0   0 2316.87   67.19
  -6   0   0 2220.38   67.39
  -6   0   0 2244.18   66.69
  -6   0   0 2242.38   62.59
  -6   0   0 2287.57   67.59
  -6   0   0 2246.58   65.99
  -6   0   0 2240.28   66.09
   6   0   0 2258.47   66.29
   6   0   0 2319.67   68.09
   6   0   0 2159.28   66.29
   6   0   0 2242.78   66.79
  -6   0   0 2284.07   66.59
   7   0   0    8.40    3.00
   7   0   0    7.80    2.60
  -7   0   0   11.10    4.00
  -7   0   0   13.50    3.60
  -7   0   0   18.90    3.60
  -7   0   0   15.30    4.50
  -7   0   0   19.00    3.80
  -7   0   0   11.20    3.30
   7   0   0   14.10    3.90
   7   0   0   13.60    4.40
   7   0   0   13.30    4.30
  -7   0   0   17.70    3.90
   7   0   0   10.10    3.00
  -8   0   0    8.10    3.00
  -8   0   0   13.20    4.70
  -8   0   0   10.60    4.30
  -8   0   0    3.60    2.50
   8   0   0    9.10    4.30
  -8   0   0    8.10    3.10
  -8   0   0    8.00    3.20
   8   0   0    9.70    4.60
   1  -1   0  834.32   23.70
   1  -1   0  840.22   23.00
   1  -1   0  841.02   23.10
  -1  -1   0  850.01   23.00
  -1  -1   0  809.72   22.30
   1  -1   0  818.12   22.70
   1  -1   0  837.42   22.30
  -1  -1   0  836.92   23.40
   1  -1   0  770.02   23.50
   1  -1   0  845.82   23.50
  -1  -1   0  815.62   23.20
   1  -1   0  856.41   23.10
  -1  -1   0  842.22   22.80
   1  -1   0  836.52   22.70
  -1  -1   0  870.31   23.10
   1   1   0  829.02   21.60
   1   1   0  797.92   22.80
  -1   1   0  815.52   23.00
   1   1   0  808.02   22.30
   1   1   0  795.92   23.00
   1   1   0  814.72   23.30
   1   1   0  844.32   23.20
  -1   1   0  840.72   23.60
  -1   1   0  845.72   21.80
   1   1   0  854.51   23.00
  -1   1   0  832.32   22.70
  -1   1   0  825.22   23.30
  -1   1   0  834.12   21.40
   1   1   0  822.02   23.60
  -1   1   0  827.02   22.70
   1   1   0  836.12   23.00
   2  -1   0   89.79    3.80
   2  -1   0   87.59    3.90
   2  -1   0   90.89    4.20
   2  -1   0   90.49    3.50
   2  -1   0   94.69    4.20
   2  -1   0   92.49    4.60
   2  -1   0   96.99    4.40
   2  -1   0   87.39    4.10
  -2  -1   0   90.59    4.50
  -2  -1   0   91.89    4.20
   2  -1   0   90.69    4.50
  -2   1   0   82.49    4.00
   2   1   0   92.19    3.90
  -2   1   0   86.49    3.80
  -2   1   0   93.49    4.00
   2   1   0   84.09    4.40
   2   1   0   85.99    3.80
   2   1   0   88.29    4.10
  -2   1   0   83.69    3.90
   2   1   0   99.39    3.90
   2   1   0   95.59    4.50
   2   1   0   86.89    4.20
   2   1   0   93.49    4.00
   2   1   0   87.69    4.00
   3  -1   0  278.07   10.10
   3  -1   0  273.87   10.00
   3  -1   0  263.07    9.10
   3  -1   0  263.27    9.50
   3  -1   0  285.57   10.60
   3  -1   0  261.97    9.60
   3  -1   0  264.37   10.60
   3  -1   0  265.47   10.70
   3  -1   0  271.57   10.20
  -3  -1   0  275.57   10.70
  -3  -1   0  274.87    9.60
  -3  -1   0  270.57   10.20
  -3   1   0  276.67    9.60
  -3   1   0  279.07    9.80
   3   1   0  268.07    9.80
   3   1   0  259.37    9.60
   3   1   0  254.77   10.30
   3   1   0  281.37   10.40
   3   1   0  259.47    9.40
   3   1   0  260.07    9.90
   3   1   0  267.67   10.60
   3   1   0  257.37    9.80
  -3   1   0  268.67    9.90
   3   1   0  269.87    9.80
  -3   1   0  271.07    9.70
   4  -1   0  229.48   10.30
   4  -1   0  231.08    9.30
  -4  -1   0  215.18    8.90
   4  -1   0  220.88    8.40
  -4  -1   0  214.48    8.50
   4  -1   0  229.18   10.60
   4  -1   0  213.98    9.20
  -4  -1   0  228.68    9.90
   4  -1   0  211.38    9.50
   4  -1   0  216.88   10.00
   4  -1   0  224.88    9.20
   4  -1   0  230.38    9.20
  -4  -1   0  210.88    8.80
  -4  -1   0  224.38   10.40
   4   1   0  212.68    8.80
   4   1   0  205.18    9.60
   4   1   0  208.38    9.70
   4   1   0  208.08   10.10
   4   1   0  205.88    9.20
  -4   1   0  213.38    9.20
   4   1   0  204.38    8.60
   4   1   0  217.28    9.00
   4   1   0  225.08    9.20
  -4   1   0  220.08    9.00
  -4   1   0  225.58    9.10
  -4   1   0  214.48    9.10
  -4   1   0  225.58    9.20
   4   1   0  202.48    9.20
   5  -1   0   17.70    3.50
  -5  -1   0   12.60    3.20
   5  -1   0   22.30    3.50
   5  -1   0   13.00    2.60
  -5  -1   0   17.90    3.00
   5  -1   0   14.70    2.80
  -5  -1   0   13.50    2.90
   5  -1   0   25.00    4.30
   5  -1   0   13.80    2.80
  -5  -1   0   22.70    3.20
  -5  -1   0   17.70    3.30
   5  -1   0   20.00    4.10
   5  -1   0   15.80    3.10
  -5  -1   0   20.10    2.80
   5  -1   0   24.00    3.10
   5   1   0   21.00    3.20
  -5   1   0   20.30    3.00
   5   1   0   20.80    3.70
  -5   1   0   19.60    3.30
   5   1   0   23.20    3.40
   5   1   0   23.10    3.80
   5   1   0   19.10    2.90
  -5   1   0   21.20    4.00
   5   1   0   20.70    4.10
  -5   1   0   18.00    3.20
  -5   1   0   18.90    3.20
  -5   1   0   17.20    3.00
   5   1   0   19.40    3.40
   5   1   0   18.60    3.60
   5   1   0   18.80    2.80
   6  -1   0    0.30    1.70
   6  -1   0    1.40    1.70
   6  -1   0    2.20    2.10
  -6  -1   0    3.90    2.10
   6  -1   0    3.70    2.70
   6  -1   0    3.60    2.20
   6  -1   0    2.90    1.70
  -6  -1   0    5.00    1.80
  -6  -1   0    2.00    1.80
   6  -1   0    2.90    1.50
  -6  -1   0    1.50    1.80
  -6  -1   0   -0.70    1.70
  -6  -1   0    5.10    2.00
   6  -1   0   -0.40    1.40
   6  -1   0    1.60    1.70
  -6  -1   0    3.50    2.10
  -6  -1   0    4.10    1.60
   6   1   0    0.20    1.70
  -6   1   0    5.40    2.60
  -6   1   0    4.10    2.00
   6   1   0    2.90    2.20
  -6   1   0    1.60    1.40
   6   1   0    3.70    2.30
  -6   1   0    2.30    1.90
   6   1   0    3.10    2.00
   6   1   0    2.90    1.40
  -6   1   0    3.50    1.40
   6   1   0    5.80    1.90
   6   1   0    1.60    2.20
  -6   1   0    1.70    1.70
  -6   1   0    6.50    2.20
  -7  -1   0   70.59    8.80
  -7  -1   0   67.29    5.80
  -7  -1   0   73.99    5.90
  -7  -1   0   68.29    7.50
  -7  -1   0   60.99    8.10
  -7  -1   0   51.09    6.70
   7  -1   0   68.19    7.90
   7  -1   0   57.29    8.20
   7  -1   0   65.69    7.80
   7  -1   0   76.49    9.70
  -7  -1   0   66.99    7.40
  -7  -1   0   74.19    5.90
   7  -1   0   64.79    7.10
  -7  -1   0   67.19    7.80
   7   1   0   67.29    6.00
   7   1   0   62.19    8.50
  -7   1   0   61.99    7.60
   7   1   0   58.99    7.20
  -7   1   0   60.69    8.50
   7   1   0   68.99    8.60
   7   1   0   89.99    9.10
  -7   1   0   54.89    6.40
  -7   1   0   51.99    7.50
   7   1   0   71.89    8.20
   7   1   0   76.79    6.40
  -7   1   0   61.39    6.70
   7   1   0   56.49    6.20
  -8  -1   0   31.60    5.50
   8  -1   0   31.70    6.30
  -8  -1   0   26.60    6.00
  -8  -1   0   15.40    5.00
   8  -1   0   28.20    6.60
  -8  -1   0   24.30    5.20
   8  -1   0   16.60    5.70
  -8   1   0   20.10    5.40
  -8   1   0   31.60    5.90
  -8   1   0   23.30    4.50
  -8   1   0   22.10    4.70
   8   1   0   23.40    5.00
  -8   1   0   23.40    5.80
   8   1   0   22.50    6.00
   8   1   0   17.40    5.30
   0  -2   0 1956.00   57.89
   0  -2   0 2157.28   57.49
   0  -2   0 2187.48   55.99
   0  -2   0 2208.78   57.99
   0  -2   0 2159.68   58.29
   0  -2   0 2175.68   56.09
   0  -2   0 2117.49   54.09
   0   2   0 1977.20   57.89
   0   2   0 2140.59   56.69
   0   2   0 2087.89   57.99
   0   2   0 2098.69   58.29
   0   2   0 2165.38   57.49
   0   2   0 2174.38   52.69
   0   2   0 2142.09   57.49
   0   2   0 2082.49   56.09
  -1  -2   0  259.17    8.10
   1  -2   0  273.47    7.90
   1  -2   0  280.17    8.50
  -1  -2   0  242.68    7.60
  -1  -2   0  272.27    8.40
   1  -2   0  264.87    8.20
   1  -2   0  265.37    8.60
  -1  -2   0  266.17    7.80
  -1  -2   0  271.47    8.00
   1  -2   0  271.07    8.60
  -1  -2   0  261.67    8.00
   1  -2   0  284.47    8.50
  -1  -2   0  273.97    8.10
   1  -2   0  266.67    8.70
   1   2   0  266.17    8.10
   1   2   0  266.77    8.00
  -1   2   0  264.57    8.60
   1   2   0  271.27    7.70
  -1   2   0  275.17    7.90
  -1   2   0  271.87    7.80
   1   2   0  259.87    8.50
   1   2   0  271.87    8.00
  -1   2   0  264.97    8.50
   1   2   0  258.67    7.70
  -2  -2   0  204.98    7.60
   2  -2   0  202.18    7.70
   2  -2   0  199.98    7.80
   2  -2   0  209.38    7.70
   2  -2   0  198.88    7.50
   2  -2   0  211.68    7.50
  -2  -2   0  193.88    7.20
  -2  -2   0  185.08    7.30
   2  -2   0  194.78    6.20
   2  -2   0  197.28    7.60
  -2   2   0  211.18    6.80
   2   2   0  202.68    6.80
  -2   2   0  204.58    7.30
   2   2   0  195.38    6.90
   2   2   0  176.28    7.30
   2   2   0  191.78    7.40
  -2   2   0  216.28    6.90
   2   2   0  196.78    7.30
   2   2   0  203.98    6.70
   2   2   0  195.88    7.20
  -2   2   0  198.38    7.40
   2   2   0  202.38    7.30
   2   2   0  194.08    7.20
   3  -2   0  132.29    6.00
   3  -2   0  114.59    5.90
   3  -2   0  117.09    4.80
   3  -2   0  116.99    6.20
   3  -2   0  121.09    5.40
   3  -2   0  109.49    6.30
  -3  -2   0  133.09    6.10
   3  -2   0  121.69    6.50
  -3  -2   0  123.99    6.20
  -3  -2   0  127.69    6.50
   3  -2   0  122.09    6.20
  -3  -2   0  133.39    5.40
   3   2   0  143.59    6.40
   3   2   0  126.29    5.70
  -3   2   0  126.09    5.70
   3   2   0  125.29    6.00
   3   2   0  133.09    5.60
   3   2   0  138.79    6.70
  -3   2   0  120.79    5.90
  -3   2   0  116.89    5.70
   3   2   0  136.39    5.40
   3   2   0  134.39    6.40
  -3   2   0  122.09    5.90
   3   2   0  131.29    6.20
  -3   2   0  125.59    5.50
   3   2   0  123.19    5.40
  -4  -2   0   76.29    5.20
   4  -2   0   88.29    5.80
   4  -2   0   86.69    5.40
   4  -2   0   86.89    5.80
  -4  -2   0   73.19    4.30
   4  -2   0   75.99    4.80
  -4  -2   0   75.29    4.10
   4  -2   0   78.29    4.00
   4  -2   0   72.89    5.70
  -4  -2   0   67.99    5.20
   4  -2   0   78.29    4.60
  -4  -2   0   68.39    4.30
   4  -2   0   75.19    4.90
  -4  -2   0   75.19    5.10
   4   2   0   70.19    5.00
   4   2   0   74.79    4.30
   4   2   0   74.39    5.20
   4   2   0   67.59    4.80
   4   2   0   76.89    4.50
  -4   2   0   69.79    4.70
   4   2   0   69.69    4.50
  -4   2   0   81.29    4.90
   4   2   0   75.79    5.20
  -4   2   0   81.79    4.90
   4   2   0   71.89    5.40
  -4   2   0   79.49    4.70
  -4   2   0   76.59    4.90
   4   2   0   71.09    4.60
   5  -2   0    8.10    3.00
   5  -2   0    6.20    2.00
   5  -2   0    8.60    2.20
   5  -2   0    8.60    2.60
  -5  -2   0    5.80    1.80
   5  -2   0    6.00    2.30
   5  -2   0    8.50    2.70
   5  -2   0    7.80    2.20
  -5  -2   0    7.70    2.40
  -5  -2   0    2.30    1.90
   5  -2   0    7.50    1.70
  -5  -2   0   10.20    2.20
  -5  -2   0    7.40    1.80
  -5  -2   0    5.00    2.10
   5   2   0    7.70    2.20
  -5   2   0    9.10    2.40
   5   2   0    7.40    2.40
  -5   2   0    9.00    2.20
  -5   2   0    9.40    2.30
   5   2   0    7.20    2.40
   5   2   0    7.80    2.10
  -5   2   0   12.20    2.00
   5   2   0    7.40    2.40
   5   2   0    9.90    2.10
   5   2   0    3.50    1.90
   5   2   0    9.40    2.90
  -5   2   0    5.90    1.90
   5   2   0    6.10    1.60
  -5   2   0    7.90    2.20
  -6  -2   0  237.08   11.90
  -6  -2   0  223.08   10.70
  -6  -2   0  231.28   11.70
   6  -2   0  227.88   11.40
  -6  -2   0  227.38   10.20
   6  -2   0  231.68   13.40
   6  -2   0  232.38   12.30
   6  -2   0  235.28   11.70
  -6  -2   0  243.78   11.20
   6  -2   0  230.68   12.90
   6  -2   0  213.48   11.80
  -6  -2   0  239.48   12.30
  -6  -2   0  210.78   12.20
  -6  -2   0  235.88   12.00
  -6  -2   0  216.38   10.30
   6   2   0  211.88   11.00
   6   2   0  234.18   10.60
  -6   2   0  248.68   11.40
  -6   2   0  236.18   11.30
   6   2   0  246.18   12.40
  -6   2   0  234.58    9.80
   6   2   0  219.08   11.70
  -6   2   0  227.68   12.50
  -6   2   0  247.98   12.00
   6   2   0  240.78   12.50
  -6   2   0  242.68   11.20
   6   2   0  242.38   11.20
   6   2   0  210.68   12.30
   6   2   0  214.48   11.50
  -6   2   0  224.88   10.80
   6   2   0  228.78   10.60
  -7  -2   0    2.40    2.00
  -7  -2   0    3.90    1.90
  -7  -2   0    3.50    2.50
   7  -2   0    0.30    1.80
  -7  -2   0    5.40    3.20
   7  -2   0    2.80    3.10
  -7  -2   0    2.00    1.80
  -7  -2   0    2.70    2.10
  -7  -2   0    2.80    2.20
   7  -2   0    3.20    2.40
  -7  -2   0    4.30    2.10
   7  -2   0    3.20    2.70
   7  -2   0    3.70    2.50
  -7  -2   0    7.60    3.00
   7   2   0    5.00    2.70
   7   2   0    2.30    2.50
   7   2   0    3.70    2.20
   7   2   0    0.60    2.60
  -7   2   0    2.30    2.00
   7   2   0    6.80    2.90
   7   2   0    4.30    3.10
  -7   2   0    5.90    2.60
   7   2   0    3.50    1.90
  -7   2   0    3.80    2.50
  -7   2   0    2.90    2.10
   7   2   0    4.50    2.50
  -8  -2   0   32.20    6.70
   8  -2   0   41.10    8.70
  -8  -2   0   31.70    5.50
  -8  -2   0   27.40    6.30
   8  -2   0   21.40    5.50
   8  -2   0   21.80    6.10
  -8  -2   0   25.80    5.10
  -8   2   0   24.30    6.20
   8   2   0   15.80    5.10
  -8   2   0   24.70    5.00
  -8   2   0   24.70    4.80
  -8   2   0   24.40    5.50
   8   2   0   23.90    4.90
  -8   2   0   32.00    7.20
   0  -3   0   73.59    2.90
   0  -3   0   64.29    2.60
   0  -3   0   75.99    2.80
   0  -3   0   73.09    2.60
   0   3   0   70.39    2.60
   0   3   0   70.19    2.80
   0   3   0   77.79    2.90
   0   3   0   71.79    2.80
   0   3   0   69.79    2.70
   0   3   0   75.79    3.00
   1  -3   0  681.13   19.90
   1  -3   0  689.43   19.30
  -1  -3   0  708.13   19.30
   1  -3   0  681.03   19.90
  -1  -3   0  715.73   19.80
  -1  -3   0  707.53   19.00
   1  -3   0  661.43   20.40
   1  -3   0  730.53   20.70
  -1  -3   0  709.83   19.10
   1   3   0  686.23   20.50
   1   3   0  699.13   19.20
  -1   3   0  691.63   20.50
  -1   3   0  687.63   20.20
   1   3   0  712.43   19.90
  -1   3   0  681.93   18.50
  -1   3   0  697.23   19.40
   1   3   0  672.33   20.00
   1   3   0  709.73   18.90
  -2  -3   0 1140.79   32.30
   2  -3   0 1141.49   31.90
   2  -3   0 1142.29   33.20
   2  -3   0 1162.08   32.20
  -2  -3   0 1131.19   32.60
  -2  -3   0 1159.68   31.80
   2  -3   0 1046.50   33.30
  -2  -3   0 1168.58   32.30
   2  -3   0 1131.99   34.00
   2  -3   0 1127.99   33.70
   2  -3   0 1143.49   33.10
   2   3   0 1165.58   32.40
  -2   3   0 1133.49   30.40
   2   3   0 1175.68   32.90
   2   3   0 1317.37   32.30
   2   3   0 1184.48   32.80
  -2   3   0 1119.19   33.70
   2   3   0 1153.78   33.80
  -2   3   0 1098.89   32.00
  -2   3   0 1211.58   32.10
   2   3   0 1187.98   33.20
   2   3   0 1143.09   31.20
  -2   3   0 1138.69   33.40
   3  -3   0  126.09    6.70
  -3  -3   0  130.89    6.40
   3  -3   0  121.29    6.30
  -3  -3   0  136.39    6.30
   3  -3   0  126.79    6.70
   3  -3   0  116.19    4.50
  -3  -3   0  127.79    5.20
  -3  -3   0  133.19    6.10
   3  -3   0  117.79    6.00
   3  -3   0  125.29    6.20
   3  -3   0  122.49    6.40
   3   3   0  129.69    5.50
   3   3   0  122.59    6.00
  -3   3   0  125.49    6.10
  -3   3   0  132.19    5.70
  -3   3   0  112.29    5.80
   3   3   0  127.89    6.30
  -3   3   0  132.59    5.40
  -3   3   0  125.29    6.10
   3   3   0  119.79    6.10
   3   3   0  125.49    5.30
   3   3   0  118.69    6.10
   3   3   0  127.39    5.10
   3   3   0  126.09    5.90
  -4  -3   0  209.58    9.10
  -4  -3   0  192.78    9.30
   4  -3   0  200.08   10.00
  -4  -3   0  198.58    7.60
   4  -3   0  188.38    9.50
  -4  -3   0  208.58    9.20
   4  -3   0  188.48    7.20
   4  -3   0  189.08    9.20
   4  -3   0  181.48    8.80
   4  -3   0  198.68    9.10
   4  -3   0  181.08    9.50
  -4  -3   0  206.58    8.10
  -4   3   0  198.48    7.20
   4   3   0  193.88    9.10
   4   3   0  215.58    8.10
   4   3   0  201.28    8.20
  -4   3   0  205.18    8.40
  -4   3   0  194.88    8.70
   4   3   0  190.28    9.00
  -4   3   0  198.48    9.10
   4   3   0  204.88    9.30
  -4   3   0  192.58    8.90
   4   3   0  211.18    9.70
   4   3   0  201.78    9.30
   4   3   0  202.68    8.90
  -4   3   0  189.78    8.00
   4   3   0  199.28    8.20
   5  -3   0   15.00    3.20
   5  -3   0   10.80    2.60
   5  -3   0   10.70    2.90
   5  -3   0   10.60    2.90
  -5  -3   0   15.80    2.60
  -5  -3   0   11.50    2.70
  -5  -3   0   11.70    3.00
  -5  -3   0   14.00    2.30
   5  -3   0   10.10    3.00
  -5  -3   0   12.90    3.10
  -5  -3   0   16.60    2.80
   5  -3   0   11.10    3.10
   5  -3   0   17.20    2.40
   5   3   0   12.70    2.40
   5   3   0   16.30    3.40
   5   3   0    9.20    2.80
   5   3   0   13.40    2.60
   5   3   0    7.20    2.30
  -5   3   0   17.20    2.80
  -5   3   0   15.50    3.00
  -5   3   0   17.30    3.40
   5   3   0   12.40    2.60
  -5   3   0    9.40    2.40
   5   3   0   11.50    2.10
   5   3   0   12.00    2.90
   5   3   0   11.80    2.90
  -5   3   0   10.50    2.40
  -5   3   0   13.90    2.00
   6  -3   0    1.00    1.50
   6  -3   0    1.10    1.90
   6  -3   0    2.10    2.50
   6  -3   0   -0.80    1.60
  -6  -3   0    0.90    1.10
  -6  -3   0    0.90    1.10
  -6  -3   0   -0.10    1.40
   6  -3   0    5.50    2.70
  -6  -3   0   -0.40    1.40
  -6  -3   0    1.80    1.70
  -6  -3   0   -0.70    1.70
   6   3   0    0.30    1.60
   6   3   0    1.10    1.80
  -6   3   0    2.00    1.80
   6   3   0    2.40    1.90
   6   3   0    0.70    1.30
   6   3   0    1.30    1.90
  -6   3   0    2.40    1.70
   6   3   0    3.10    2.20
   6   3   0    2.20    1.30
   6   3   0    1.90    1.70
  -6   3   0    0.80    1.50
  -6   3   0    1.70    1.50
   6   3   0   -0.20    1.40
   7  -3   0   14.60    3.80
  -7  -3   0   21.40    5.00
  -7  -3   0   16.20    3.90
   7  -3   0   26.00    5.20
   7  -3   0   13.40    4.70
  -7  -3   0   24.80    4.90
   7  -3   0   26.70    5.80
  -7  -3   0   20.80    4.80
  -7  -3   0   20.40    4.70
   7  -3   0   15.90    4.30
  -7  -3   0   25.20    4.50
  -7   3   0   15.50    4.50
   7   3   0   15.70    4.10
   7   3   0   18.30    4.60
  -7   3   0   23.40    4.60
   7   3   0   20.30    4.20
  -7   3   0   17.40    4.10
   7   3   0   25.60    4.50
  -7   3   0   16.30    3.90
  -8  -3   0   18.90    4.30
   8  -3   0   24.00    5.90
  -8  -3   0   22.00    5.50
  -8  -3   0   32.00    5.70
   8  -3   0   19.10    5.80
   8  -3   0   36.30    7.80
  -8   3   0   25.30    6.00
  -8   3   0   31.50    5.80
   8   3   0   23.40    5.10
  -8   3   0   29.10    5.40
  -8   3   0   29.20    6.50
   8   3   0   20.70    5.00
   0  -4   0 2829.22   82.09
   0  -4   0 3112.99   79.59
   0  -4   0 2996.90   76.69
   0  -4   0 3121.39   79.59
   0   4   0 2910.01   82.09
   0   4   0 3033.10   82.59
   0   4   0 3004.10   81.59
   0   4   0 3094.89   80.59
   0   4   0 2918.31   82.49
   0   4   0 2940.21   74.89
   1  -4   0  444.16   13.70
   1  -4   0  460.45   12.70
   1  -4   0  459.65   13.40
   1  -4   0  424.56   14.10
  -1  -4   0  467.45   13.00
  -1  -4   0  438.66   12.70
   1  -4   0  468.95   13.70
   1  -4   0  423.06   14.00
  -1  -4   0  464.25   13.60
  -1  -4   0  462.45   12.70
   1  -4   0  435.16   12.70
   1   4   0  459.15   13.50
   1   4   0  438.86   14.00
   1   4   0  460.55   12.80
   1   4   0  469.95   13.90
  -1   4   0  434.06   13.10
  -1   4   0  448.06   14.20
  -1   4   0  423.66   13.80
   1   4   0  453.55   13.20
  -1   4   0  448.66   12.80
  -2  -4   0  460.05   14.30
  -2  -4   0  458.05   13.50
   2  -4   0  461.45   15.40
  -2  -4   0  473.55   14.80
   2  -4   0  477.05   15.30
   2  -4   0  452.05   15.20
   2  -4   0  472.05   15.70
  -2  -4   0  473.65   14.20
  -2   4   0  461.85   15.40
   2   4   0  464.55   14.30
  -2   4   0  465.95   13.90
   2   4   0  471.25   13.50
  -2   4   0  486.75   13.80
   2   4   0  475.95   15.20
   2   4   0  460.85   14.60
  -2   4   0  490.35   15.30
   2   4   0  459.35   13.60
   3  -4   0 1867.51   52.29
   3  -4   0 1868.81   52.59
   3  -4   0 1806.12   54.89
  -3  -4   0 1914.51   53.09
   3  -4   0 1954.00   54.19
   3  -4   0 1946.31   54.19
   3  -4   0 1934.01   55.49
  -3  -4   0 1946.81   52.79
  -3  -4   0 1898.01   51.59
  -3  -4   0 1913.01   52.99
   3  -4   0 1897.81   54.79
   3   4   0 1906.41   53.19
   3   4   0 1893.71   54.89
  -3   4   0 1883.01   54.99
  -3   4   0 1881.81   49.50
  -3   4   0 1903.21   52.19
   3   4   0 1766.02   52.49
  -3   4   0 1878.21   54.79
  -3   4   0 1907.31   52.19
   3   4   0 1873.11   50.89
   3   4   0 1851.41   53.99
  -3   4   0 1903.71   54.39
   3   4   0 1913.51   53.49
   4  -4   0   23.60    3.40
  -4  -4   0   27.90    3.90
  -4  -4   0   21.80    2.30
  -4  -4   0   21.20    3.20
   4  -4   0   18.40    3.40
  -4  -4   0   29.90    2.50
   4  -4   0   20.90    3.50
  -4  -4   0   22.20    3.20
   4  -4   0   21.10    3.50
   4  -4   0   15.70    2.70
   4  -4   0   18.50    3.60
   4  -4   0   20.00    1.70
  -4   4   0   17.90    2.90
  -4   4   0   30.60    3.90
   4   4   0   22.40    2.40
   4   4   0   25.70    3.70
   4   4   0   22.00    2.70
  -4   4   0   25.50    2.90
  -4   4   0   29.80    3.30
  -4   4   0   23.90    1.70
   4   4   0   24.20    2.70
   4   4   0   29.60    3.80
   4   4   0   25.00    3.50
   4   4   0   28.80    4.00
  -4   4   0   18.50    2.80
  -5  -4   0   13.90    2.40
  -5  -4   0   17.50    2.40
   5  -4   0    9.30    2.80
  -5  -4   0   18.20    2.80
  -5  -4   0   21.10    3.90
  -5  -4   0   15.80    3.20
   5  -4   0   10.10    3.20
   5  -4   0   10.30    2.80
   5  -4   0    9.10    2.90
   5  -4   0   14.20    3.20
  -5  -4   0   14.80    2.90
   5   4   0   15.00    3.40
   5   4   0   14.70    3.30
  -5   4   0    8.70    2.30
   5   4   0    9.90    2.30
   5   4   0   11.30    2.60
  -5   4   0   15.10    3.00
  -5   4   0   11.20    2.50
  -5   4   0   12.40    2.90
   5   4   0   12.20    2.30
  -5   4   0    8.40    2.00
   5   4   0   14.50    3.10
   5   4   0   14.10    2.30
   6  -4   0   14.40    3.70
  -6  -4   0   20.80    3.10
   6  -4   0   11.30    3.30
  -6  -4   0   19.40    3.30
   6  -4   0   18.90    4.60
  -6  -4   0   14.10    3.50
  -6  -4   0   15.20    3.30
  -6  -4   0   18.50    4.20
  -6  -4   0   17.10    2.80
   6  -4   0   15.40    3.40
   6  -4   0   15.30    4.40
  -6   4   0   19.40    3.90
   6   4   0   17.10    3.90
   6   4   0   18.70    3.50
  -6   4   0   19.30    3.30
   6   4   0   27.20    5.10
  -6   4   0   22.60    4.10
  -6   4   0   12.50    3.30
   6   4   0   14.50    3.30
   7  -4   0   18.40    5.30
  -7  -4   0   27.70    4.90
  -7  -4   0   19.50    3.90
  -7  -4   0   19.70    4.70
   7  -4   0   16.90    4.40
   7  -4   0   19.00    5.10
   7   4   0   26.00    4.70
   7   4   0   19.90    4.90
  -7   4   0   18.90    4.40
  -7   4   0   15.10    4.60
  -7   4   0   12.10    3.50
   7   4   0   22.60    4.40
  -7   4   0   17.30    4.00
   7   4   0   33.30    6.00
  -8  -4   0    4.10    2.50
   8  -4   0    4.10    3.20
   8  -4   0    0.40    2.90
  -8  -4   0    7.80    3.60
   8  -4   0    3.00    3.40
  -8  -4   0    4.20    2.90
  -8   4   0    8.10    4.40
   8   4   0    5.40    3.80
  -8   4   0    3.10    2.70
   8   4   0    8.30    3.50
  -8   4   0    7.80    3.60
  -8   4   0    5.00    2.90
   8   4   0    6.90    3.40
   0  -5   0 1380.46   37.60
   0  -5   0 1379.46   36.40
   0  -5   0 1351.26   36.70
   0  -5   0 1315.27   35.40
   0   5   0 1325.17   38.20
   0   5   0 1365.96   37.10
   0   5   0 1324.27   34.80
   0   5   0 1299.87   37.40
   0   5   0 1324.57   37.80
   0   5   0 1283.77   37.40
   1  -5   0  659.03   21.90
   1  -5   0  737.73   22.20
  -1  -5   0  739.23   20.40
   1  -5   0  710.23   21.40
   1  -5   0  689.43   20.80
  -1  -5   0  754.72   20.40
   1  -5   0  720.03   21.40
  -1  -5   0  738.53   21.20
   1  -5   0  739.03   20.80
  -1  -5   0  758.82   20.30
   1  -5   0  721.83   20.60
  -1   5   0  722.53   21.90
  -1   5   0  760.52   20.90
   1   5   0  714.63   21.40
  -1   5   0  732.43   20.00
   1   5   0  744.63   20.60
   1   5   0  734.13   22.10
  -1   5   0  786.02   22.10
  -1   5   0  733.33   22.30
  -1   5   0  724.83   20.60
   1   5   0  730.73   20.50
   1   5   0  731.83   21.70
  -2  -5   0  178.98    6.80
   2  -5   0  185.68    7.70
  -2  -5   0  175.28    6.20
   2  -5   0  158.08    7.20
   2  -5   0  172.08    7.50
  -2  -5   0  172.98    7.00
   2  -5   0  173.78    7.50
   2  -5   0  186.78    7.50
   2   5   0  183.18    7.50
  -2   5   0  175.28    7.50
  -2   5   0  172.88    6.50
  -2   5   0  173.48    7.30
  -2   5   0  180.08    6.20
  -2   5   0  172.48    7.30
   2   5   0  177.68    7.30
   2   5   0  185.78    6.60
   2   5   0  167.28    5.50
   2   5   0  175.78    7.30
  -3  -5   0  116.59    6.10
   3  -5   0  127.39    6.90
  -3  -5   0  131.29    4.80
  -3  -5   0  121.39    6.10
   3  -5   0  123.89    6.80
   3  -5   0  134.99    7.10
   3  -5   0  133.39    6.90
   3  -5   0  140.79    6.90
  -3  -5   0  129.89    5.80
   3   5   0  122.39    6.50
  -3   5   0  127.39    6.40
   3   5   0  119.89    5.40
  -3   5   0  132.99    6.60
  -3   5   0  112.09    6.30
   3   5   0  118.99    4.70
   3   5   0  124.99    6.60
  -3   5   0  128.59    5.20
  -3   5   0  126.59    5.70
   3   5   0  127.79    6.40
  -4  -5   0  152.48    6.30
  -4  -5   0  161.58    7.80
  -4  -5   0  142.99    7.20
   4  -5   0  143.39    8.40
   4  -5   0  146.39    8.20
  -4  -5   0  151.28    5.90
  -4  -5   0  154.48    7.70
   4  -5   0  137.59    8.20
   4  -5   0  145.59    8.00
   4  -5   0  159.68    8.90
  -4   5   0  145.79    7.80
  -4   5   0  152.88    6.90
   4   5   0  153.68    6.60
   4   5   0  148.19    7.70
  -4   5   0  144.29    7.60
  -4   5   0  148.89    6.30
   4   5   0  143.79    8.00
   4   5   0  156.68    6.20
   4   5   0  147.39    8.10
   4   5   0  160.68    6.60
  -4   5   0  154.38    5.20
  -4   5   0  148.09    7.90
   4   5   0  141.09    7.60
  -5  -5   0   15.00    3.10
  -5  -5   0   15.20    2.60
  -5  -5   0   12.10    2.20
   5  -5   0   10.60    3.50
  -5  -5   0   13.90    2.10
   5  -5   0   15.90    3.70
  -5  -5   0   14.20    3.10
  -5  -5   0   13.20    2.70
   5  -5   0   15.10    3.40
   5  -5   0   13.10    3.30
   5  -5   0   18.20    3.70
   5   5   0   10.80    2.60
  -5   5   0   17.40    3.20
   5   5   0   12.10    3.00
  -5   5   0   17.30    3.60
   5   5   0    8.60    2.40
   5   5   0   13.30    2.30
  -5   5   0   13.40    2.90
  -5   5   0   17.80    2.90
   5   5   0   13.50    3.10
  -6  -5   0    7.10    2.80
   6  -5   0    5.70    2.90
   6  -5   0   15.50    4.80
  -6  -5   0    6.10    2.50
   6  -5   0    7.80    2.80
   6  -5   0    8.80    3.00
   6  -5   0    9.60    3.40
  -6  -5   0    4.60    2.20
   6   5   0    5.10    2.20
   6   5   0    9.60    3.30
  -6   5   0    8.40    2.80
   6   5   0    4.70    2.20
   6   5   0    5.60    2.50
  -6   5   0   10.00    3.20
  -6   5   0    5.40    2.40
   7  -5   0    4.40    2.90
   7  -5   0    6.80    3.90
   7  -5   0    3.20    2.80
  -7  -5   0    2.70    2.10
  -7  -5   0    6.20    2.70
  -7  -5   0    6.50    2.90
  -7   5   0    2.90    2.60
  -7   5   0    0.60    1.80
   7   5   0    7.50    3.60
   7   5   0    3.90    2.90
   7   5   0    3.40    2.30
  -7   5   0    8.40    3.40
   7   5   0    2.80    2.30
  -7   5   0    3.90    2.30
   0  -6   0  658.03   19.20
   0  -6   0  659.63   18.60
   0  -6   0  663.33   18.50
   0  -6   0  644.44   19.30
   0   6   0  658.33   19.40
   0   6   0  620.14   19.90
   0   6   0  662.33   18.40
   0   6   0  628.34   19.10
   0   6   0  639.14   19.20
   0   6   0  639.24   19.40
   1  -6   0  676.83   20.80
  -1  -6   0  702.53   19.70
  -1  -6   0  729.03   19.60
   1  -6   0  716.83   20.00
   1  -6   0  696.23   20.80
  -1  -6   0  672.73   20.60
   1  -6   0  698.53   21.60
   1  -6   0  709.23   20.30
  -1   6   0  699.93   20.00
   1   6   0  688.93   19.90
  -1   6   0  719.53   21.90
  -1   6   0  666.93   20.20
   1   6   0  694.53   21.20
   1   6   0  719.13   20.20
   1   6   0  703.33   21.50
  -1   6   0  691.63   21.30
  -1   6   0  707.93   21.40
   1   6   0  675.53   20.80
  -1   6   0  684.03   19.60
  -2  -6   0  126.49    5.80
   2  -6   0  123.89    6.20
   2  -6   0  124.09    6.30
  -2  -6   0  126.19    5.50
   2  -6   0  126.59    6.20
  -2  -6   0  134.49    4.80
   2  -6   0  117.59    6.20
   2  -6   0  131.69    6.30
  -2   6   0  122.89    6.10
   2   6   0  120.89    6.10
   2   6   0  124.89    6.20
   2   6   0  131.69    5.30
  -2   6   0  129.09    5.50
   2   6   0  134.89    6.20
  -2   6   0  130.39    5.00
  -2   6   0  123.89    6.30
  -2   6   0  136.79    6.30
  -3  -6   0  104.09    4.80
   3  -6   0  103.39    6.00
   3  -6   0   97.29    6.00
   3  -6   0   95.89    6.10
  -3  -6   0   96.59    5.20
   3  -6   0   93.49    5.90
  -3  -6   0   94.79    5.40
   3  -6   0   98.79    6.10
  -3   6   0   95.19    5.80
   3   6   0   88.79    5.70
  -3   6   0   91.89    4.20
   3   6   0  102.09    4.70
  -3   6   0  102.19    5.90
   3   6   0  102.09    5.80
   3   6   0   91.09    5.70
   3   6   0   93.19    3.70
  -3   6   0  105.09    5.80
  -3   6   0  104.79    5.10
   4  -6   0  161.58    9.20
  -4  -6   0  193.88    8.10
  -4  -6   0  184.28    8.50
   4  -6   0  174.58    9.10
   4  -6   0  152.98    9.20
   4  -6   0  179.28    9.60
  -4  -6   0  188.48    7.00
  -4  -6   0  183.58    8.60
  -4  -6   0  176.88    6.50
   4  -6   0  167.98    9.30
   4   6   0  175.18    9.20
   4   6   0  165.48    9.00
  -4   6   0  176.68    7.60
  -4   6   0  177.48    8.80
  -4   6   0  180.18    6.90
   4   6   0  172.08    6.60
   4   6   0  164.38    8.60
  -4   6   0  181.28    9.20
  -4   6   0  175.58    9.00
   4   6   0  174.28    7.30
  -5  -6   0   36.80    4.80
  -5  -6   0   41.90    5.20
   5  -6   0   40.50    5.80
   5  -6   0   35.70    5.30
   5  -6   0   43.80    6.20
   5  -6   0   45.50    6.10
   5  -6   0   40.30    5.20
  -5  -6   0   32.10    4.20
   5   6   0   37.60    4.90
   5   6   0   38.90    5.50
  -5   6   0   55.59    6.00
  -5   6   0   44.00    5.40
  -5   6   0   37.10    5.00
   5   6   0   34.70    5.20
  -5   6   0   47.50    4.60
  -6  -6   0    3.20    1.90
   6  -6   0    1.80    2.10
  -6  -6   0    1.50    1.60
   6  -6   0    5.20    3.00
   6  -6   0    6.60    3.20
   6  -6   0    3.00    2.20
   6  -6   0    3.70    2.50
  -6  -6   0    5.20    2.30
   6   6   0    4.80    2.80
   6   6   0    3.10    1.90
   6   6   0    1.20    1.90
  -6   6   0    4.70    2.50
  -6   6   0    4.30    2.10
  -6   6   0    6.30    2.70
  -7  -6   0   13.10    3.80
   7  -6   0   11.30    4.40
   7  -6   0   15.20    4.70
  -7  -6   0    8.30    3.00
  -7  -6   0   10.50    3.20
   7  -6   0    6.50    3.50
   7   6   0   11.00    4.00
  -7   6   0    3.50    2.80
   7   6   0    6.90    3.20
   7   6   0    6.50    3.30
  -7   6   0    8.50    3.10
  -7   6   0    9.20    3.40
  -7   6   0   11.40    4.40
   0  -7   0   14.70    1.80
   0  -7   0   18.80    2.00
   0  -7   0   15.70    1.70
   0   7   0   20.40    1.80
   0   7   0   17.90    2.00
   0   7   0   14.80    1.90
   0   7   0   13.90    2.00
   0   7   0   15.90    1.90
   0   7   0   23.20    2.50
   1  -7   0  758.22   22.40
   1  -7   0  769.32   23.20
   1  -7   0  791.72   23.10
  -1  -7   0  779.82   21.70
  -1  -7   0  765.92   22.80
  -1  -7   0  806.42   21.60
   1  -7   0  787.62   22.20
   1  -7   0  745.23   23.70
   1   7   0  748.33   22.00
  -1   7   0  758.72   24.10
  -1   7   0  755.32   22.30
  -1   7   0  756.82   23.50
   1   7   0  788.22   22.30
   1   7   0  729.33   23.00
  -1   7   0  775.32   21.70
   1   7   0  794.02   23.50
  -1   7   0  753.12   22.20
   1   7   0  765.22   23.70
  -1   7   0  718.23   23.40
   2  -7   0  224.48    9.60
   2  -7   0  243.68   10.00
  -2  -7   0  239.28    9.10
  -2  -7   0  234.48    7.60
  -2  -7   0  248.48    8.70
   2  -7   0  241.38    9.70
   2  -7   0  226.58    9.40
  -2   7   0  241.58    9.70
  -2   7   0  217.68    9.40
  -2   7   0  230.58    8.00
  -2   7   0  237.28    9.90
   2   7   0  239.28    9.60
  -2   7   0  239.88    8.60
   2   7   0  241.28    9.70
   2   7   0  231.58    9.60
   2   7   0  237.48    8.50
  -3  -7   0  295.57   11.10
  -3  -7   0  300.97   11.70
   3  -7   0  317.97   13.00
   3  -7   0  302.57   12.70
   3  -7   0  314.27   12.70
   3  -7   0  320.97   12.90
  -3  -7   0  316.47   10.30
   3  -7   0  310.47   12.80
   3   7   0  311.07   10.70
  -3   7   0  294.27   10.70
  -3   7   0  291.67   12.40
  -3   7   0  302.57   12.30
   3   7   0  309.57   12.60
   3   7   0  303.27   12.20
  -3   7   0  311.87   10.00
   3   7   0  301.27   12.30
  -3   7   0  316.87   12.70
  -4  -7   0  150.28    6.80
  -4  -7   0  158.38    7.60
   4  -7   0  148.19    8.80
   4  -7   0  136.99    8.30
   4  -7   0  141.79    8.60
  -4  -7   0  152.28    7.70
   4  -7   0  144.29    8.80
   4  -7   0  154.48    8.90
   4   7   0  136.09    7.90
  -4   7   0  144.99    6.90
  -4   7   0  143.69    8.20
  -4   7   0  143.89    8.10
  -4   7   0  146.19    8.30
   4   7   0  149.59    8.60
   4   7   0  143.49    8.40
   5  -7   0   86.49    7.20
  -5  -7   0   84.09    6.00
   5  -7   0   74.69    6.60
  -5  -7   0   88.59    6.10
   5  -7   0   66.79    7.50
   5  -7   0   71.69    7.90
   5  -7   0   98.89    9.80
   5   7   0   89.89    6.60
   5   7   0   70.69    7.70
   5   7   0   76.79    6.70
  -5   7   0   72.59    6.40
  -5   7   0   78.19    6.30
  -5   7   0   78.79    6.30
  -5   7   0   84.29    5.30
   6  -7   0    4.30    2.60
   6  -7   0   12.20    3.90
  -6  -7   0    9.50    2.90
   6  -7   0    8.70    4.10
  -6  -7   0    5.20    2.20
  -6  -7   0   11.60    3.20
  -6   7   0    6.70    2.80
   6   7   0    6.90    3.00
  -6   7   0    9.40    3.30
   6   7   0    9.00    3.00
   6   7   0    3.40    2.40
  -6   7   0   10.70    3.30
   7  -7   0  186.98   14.20
   7  -7   0  208.08   13.60
   7  -7   0  176.88   13.30
  -7  -7   0  201.58   11.90
  -7  -7   0  175.88   10.70
   7   7   0  193.08   12.00
  -7   7   0  202.58   12.30
  -7   7   0  177.58   11.60
   7   7   0  218.98   13.70
   7   7   0  179.48   12.80
  -7   7   0  204.18   13.00
   0  -8   0  193.48    7.80
   0  -8   0  197.28    7.10
   0  -8   0  193.38    7.30
   0   8   0  187.08    7.60
   0   8   0  185.38    7.50
   0   8   0  182.28    8.00
   0   8   0  189.98    7.50
   0   8   0  186.48    7.20
   0   8   0  184.48    7.30
   1  -8   0  286.27    9.10
   1  -8   0  282.17   10.60
  -1  -8   0  278.27    8.80
   1  -8   0  265.27   10.10
  -1  -8   0  280.97   10.20
   1  -8   0  286.57   10.20
   1  -8   0  259.67   10.40
  -1  -8   0  280.37    9.50
  -1   8   0  270.87   10.50
   1   8   0  271.67   10.40
   1   8   0  268.17    9.10
  -1   8   0  283.77   11.00
  -1   8   0  277.27    9.50
   1   8   0  271.97   10.50
   1   8   0  273.87   10.30
  -1   8   0  280.27   10.40
  -1   8   0  277.97    9.10
  -1   8   0  286.27    9.80
   1   8   0  266.27   10.00
   2  -8   0  549.95   18.30
  -2  -8   0  571.84   16.20
  -2  -8   0  549.95   17.00
   2  -8   0  568.34   18.80
   2  -8   0  588.44   19.50
   2  -8   0  541.75   18.80
  -2  -8   0  544.35   18.00
   2   8   0  566.74   17.60
  -2   8   0  542.35   16.80
  -2   8   0  568.74   17.00
  -2   8   0  568.44   19.10
   2   8   0  505.65   17.90
   2   8   0  593.64   19.20
  -2   8   0  529.55   18.80
   2   8   0  555.24   19.00
  -2   8   0  552.84   19.40
   3  -8   0  192.88    9.60
  -3  -8   0  183.18    7.90
   3  -8   0  201.48    9.70
   3  -8   0  185.58    9.40
  -3  -8   0  193.58    7.00
   3  -8   0  213.58   10.00
  -3  -8   0  177.38    8.40
   3   8   0  183.08    9.20
  -3   8   0  194.48    9.40
  -3   8   0  192.38    9.20
   3   8   0  191.28    7.50
   3   8   0  196.18    9.50
  -3   8   0  193.88    9.50
  -3   8   0  194.98    6.90
   3   8   0  196.28    9.30
  -3   8   0  179.18    7.80
   4  -8   0  222.78   11.50
   4  -8   0  204.48   11.10
   4  -8   0  194.28   11.00
  -4  -8   0  215.28   10.10
  -4  -8   0  224.78    9.70
   4  -8   0  229.68   11.70
  -4   8   0  239.28   11.40
   4   8   0  213.08   11.00
  -4   8   0  222.38   11.00
   4   8   0  224.78   10.90
   4   8   0  223.28   11.30
  -4   8   0  243.18   11.20
  -4   8   0  239.58    9.40
   5  -8   0   78.39    8.20
   5  -8   0   67.89    8.00
  -5  -8   0   76.49    5.60
   5  -8   0   71.79    8.50
  -5  -8   0   69.29    5.60
   5  -8   0   74.59    8.70
  -5   8   0   66.09    4.90
  -5   8   0   90.29    7.10
   5   8   0   86.19    6.60
   5   8   0   78.59    8.30
   5   8   0   62.39    7.20
  -5   8   0   70.49    6.10
  -5   8   0   57.29    6.40
   6  -8   0   59.59    8.20
   6  -8   0   47.10    7.20
  -6  -8   0   45.70    6.10
  -6  -8   0   47.10    5.70
  -6  -8   0   47.70    5.80
   6  -8   0   50.49    8.00
  -6   8   0   53.59    6.80
  -6   8   0   56.29    7.20
  -6   8   0   49.40    7.00
   6   8   0   48.80    7.30
   6   8   0   50.19    6.40
   6   8   0   45.80    6.80
   7  -8   0   13.10    4.80
   7  -8   0   16.50    5.50
  -7  -8   0   18.90    4.40
   7  -8   0   13.90    4.50
  -7  -8   0   22.70    4.40
  -7   8   0   19.30    4.80
   7   8   0   18.70    4.80
   7   8   0   20.80    5.40
   7   8   0   29.90    5.70
  -7   8   0   21.10    4.80
  -7   8   0   18.80    5.00
   0  -9   0   56.19    3.40
   0  -9   0   48.60    3.60
   0  -9   0   54.19    3.60
   0  -9   0   54.29    3.30
   0   9   0   58.39    3.50
   0   9   0   50.89    3.70
   0   9   0   52.49    4.00
   0   9   0   45.90    3.20
   0   9   0   51.09    3.50
   0   9   0   51.69    3.60
   1  -9   0   49.60    3.80
  -1  -9   0   45.50    2.70
  -1  -9   0   52.19    3.70
  -1  -9   0   54.29    3.40
   1  -9   0   45.20    3.70
   1  -9   0   50.69    2.80
   1  -9   0   47.60    3.60
   1  -9   0   47.10    3.60
  -1   9   0   50.29    3.20
  -1   9   0   51.49    3.70
  -1   9   0   54.39    2.90
  -1   9   0   54.99    4.20
   1   9   0   39.40    2.70
   1   9   0   44.50    3.40
   1   9   0   51.19    3.80
  -1   9   0   51.89    3.60
   1   9   0   45.80    3.50
  -1   9   0   53.89    3.90
   1   9   0   56.99    4.10
  -2  -9   0   98.19    4.00
   2  -9   0   88.79    5.90
   2  -9   0   99.99    6.00
  -2  -9   0   96.99    5.40
  -2  -9   0  100.39    5.10
   2  -9   0  101.09    5.90
   2  -9   0   84.79    5.70
  -2   9   0   95.19    5.80
  -2   9   0   89.79    5.80
   2   9   0  100.79    6.00
  -2   9   0   97.89    6.10
   2   9   0  101.29    5.80
   2   9   0  110.49    6.30
  -2   9   0   85.39    4.30
   2   9   0   96.89    4.90
  -2   9   0   94.89    5.20
  -3  -9   0  375.36   14.50
   3  -9   0  384.66   15.70
   3  -9   0  411.66   16.20
   3  -9   0  399.46   16.00
  -3  -9   0  396.26   13.80
   3  -9   0  445.86   16.80
  -3   9   0  424.76   16.30
  -3   9   0  414.76   15.90
  -3   9   0  406.26   13.70
   3   9   0  391.16   15.60
   3   9   0  417.16   16.20
   3   9   0  370.16   15.30
  -3   9   0  415.56   12.80
  -3   9   0  376.26   15.60
   4  -9   0   12.90    3.30
   4  -9   0    6.00    2.60
  -4  -9   0    6.10    2.00
  -4  -9   0    6.40    2.20
   4  -9   0    8.10    2.80
   4  -9   0   13.30    3.30
  -4   9   0    7.50    2.70
   4   9   0    8.10    2.70
  -4   9   0   10.80    2.90
   4   9   0    5.00    2.50
   4   9   0    8.20    2.60
  -4   9   0   10.00    2.10
  -4   9   0    6.90    2.40
   5  -9   0   36.20    5.90
   5  -9   0   23.80    5.10
  -5  -9   0   33.30    4.60
  -5  -9   0   34.90    4.60
   5  -9   0   41.20    6.60
   5  -9   0   33.30    5.50
  -5   9   0   31.70    5.20
   5   9   0   38.20    5.40
  -5   9   0   29.90    4.70
   5   9   0   41.30    6.30
  -5   9   0   29.90    5.00
   5   9   0   30.00    5.30
   6  -9   0   21.90    5.70
   6  -9   0   23.10    5.30
  -6  -9   0   17.70    3.70
  -6  -9   0   17.40    4.00
   6  -9   0   10.80    3.60
   6   9   0   19.40    4.80
  -6   9   0   21.20    4.40
   6   9   0   22.80    5.00
  -6   9   0   21.50    5.10
  -6   9   0   17.80    4.20
   6   9   0   15.90    3.80
   7  -9   0   26.90    6.80
   7  -9   0   31.20    7.20
   7  -9   0   24.50    5.90
  -7  -9   0   30.20    5.30
  -7  -9   0   32.90    5.80
  -7   9   0   20.70    5.40
  -7   9   0   24.10    5.10
   7   9   0   27.40    5.60
   7   9   0   38.50    7.20
  -7   9   0   33.40    6.00
   7   9   0   15.10    4.70
   0 -10   0  290.07   10.60
   0 -10   0  279.97   11.10
   0 -10   0  288.47   10.60
   0 -10   0  286.17   10.20
   0  10   0  271.27   10.80
   0  10   0  289.47   10.80
   0  10   0  280.27   10.90
   0  10   0  297.57   10.70
   0  10   0  259.67   10.30
   0  10   0  278.47   11.50
   1 -10   0   23.40    3.30
   1 -10   0   30.70    3.50
   1 -10   0   20.40    2.20
  -1 -10   0   17.10    2.60
   1 -10   0   17.80    3.00
   1 -10   0   27.70    3.50
  -1 -10   0   23.60    2.00
  -1 -10   0   28.70    3.10
  -1  10   0   21.80    3.00
  -1  10   0   22.00    2.60
  -1  10   0   23.20    3.20
  -1  10   0   20.40    2.80
   1  10   0   24.20    3.30
   1  10   0   24.70    3.30
  -1  10   0   21.40    3.40
  -1  10   0   24.80    2.50
   1  10   0   20.40    2.80
   1  10   0   17.80    2.10
   1  10   0   21.00    2.90
  -2 -10   0  591.94   18.60
   2 -10   0  611.64   21.00
  -2 -10   0  574.64   19.80
   2 -10   0  609.64   20.70
   2 -10   0  597.64   20.30
   2 -10   0  610.84   21.40
  -2  10   0  586.14   20.90
   2  10   0  570.94   20.10
  -2  10   0  663.93   18.70
  -2  10   0  596.94   18.80
   2  10   0  556.44   20.60
  -2  10   0  593.74   20.90
  -2  10   0  602.14   21.60
   2  10   0  610.34   21.00
  -3 -10   0  189.58    9.00
   3 -10   0  183.68    9.90
  -3 -10   0  186.68    8.20
   3 -10   0  192.48   10.10
   3 -10   0  192.88   10.30
   3 -10   0  186.88   10.10
   3  10   0  175.58    9.80
  -3  10   0  189.98   10.10
   3  10   0  205.08   10.30
  -3  10   0  191.88    9.90
  -3  10   0  198.18    8.40
  -3  10   0  178.58    9.70
   3  10   0  180.08    9.50
  -4 -10   0  531.25   19.90
  -4 -10   0  550.74   18.80
   4 -10   0  571.74   22.40
   4 -10   0  575.24   22.10
   4 -10   0  536.55   21.90
   4 -10   0  598.84   22.90
  -4  10   0  563.84   21.60
  -4  10   0  578.34   22.10
   4  10   0  575.04   21.70
  -4  10   0  576.64   18.50
   4  10   0  592.84   21.80
  -4  10   0  517.65   21.50
   4  10   0  572.34   22.20
  -5 -10   0   18.60    3.30
  -5 -10   0   18.40    3.80
   5 -10   0   13.70    4.20
  -5 -10   0   20.70    3.80
   5 -10   0   22.30    5.10
   5 -10   0   24.50    5.10
   5 -10   0   21.50    4.80
   5  10   0   16.90    4.30
   5  10   0   11.40    3.80
   5  10   0   14.40    3.50
  -5  10   0   17.90    4.00
  -5  10   0   12.40    3.60
  -5  10   0   19.40    4.60
  -6 -10   0    5.60    2.50
   6 -10   0    1.70    2.90
  -6 -10   0    2.40    2.10
   6 -10   0    3.50    3.10
   6 -10   0    4.70    2.90
   6  10   0    1.30    2.20
  -6  10   0    9.00    3.70
   6  10   0    2.30    2.60
  -6  10   0    1.40    2.40
  -6  10   0    1.20    2.20
   6  10   0    2.80    2.50
   0 -11   0   16.80    2.70
   0 -11   0   17.90    2.50
   0 -11   0   17.30    2.60
   0 -11   0   20.50    2.70
   0  11   0   16.40    2.50
   0  11   0   21.70    2.90
   0  11   0   24.40    3.40
   0  11   0   18.50    3.00
   0  11   0   24.70    3.00
   0  11   0   18.00    2.60
  -1 -11   0    5.90    1.90
   1 -11   0    8.00    2.30
  -1 -11   0    3.90    1.50
   1 -11   0    2.90    1.50
  -1 -11   0    3.70    1.40
  -1 -11   0    4.50    1.20
   1 -11   0    2.60    1.40
   1  11   0    4.70    1.60
   1  11   0    1.00    1.10
   1  11   0    5.30    1.90
  -1  11   0    9.10    2.30
  -1  11   0    8.00    1.60
   1  11   0    2.60    1.60
  -1  11   0    3.60    1.50
  -1  11   0    6.60    2.10
  -1  11   0    4.30    1.70
  -1  11   0    5.80    1.60
  -2 -11   0  113.29    6.60
   2 -11   0  118.29    7.20
   2 -11   0  113.39    7.00
  -2 -11   0  116.59    6.00
   2 -11   0  127.69    7.60
   2 -11   0  113.99    7.20
  -2  11   0  120.29    6.40
   2  11   0  122.09    7.30
   2  11   0  114.09    6.90
  -2  11   0  114.89    7.10
  -2  11   0  118.59    7.60
  -2  11   0  116.79    7.10
   2  11   0  122.19    7.40
  -2  11   0  113.19    5.50
   3 -11   0  100.29    7.50
   3 -11   0  115.89    7.90
  -3 -11   0   99.99    5.80
   3 -11   0  117.49    7.80
   3 -11   0  113.69    7.70
  -3 -11   0   93.79    6.30
   3  11   0   97.29    7.30
   3  11   0  101.29    7.30
  -3  11   0   99.29    7.20
   3  11   0  105.59    7.10
  -3  11   0  114.49    7.90
  -3  11   0  114.09    7.60
  -3  11   0  115.09    6.40
   4 -11   0  158.88   10.20
   4 -11   0  145.19    9.70
   4 -11   0  158.08   10.00
  -4 -11   0  160.38    9.40
  -4 -11   0  136.29    7.40
  -4 -11   0  144.09    8.30
   4 -11   0  131.29    9.70
  -4  11   0  127.39    9.00
  -4  11   0  144.99    9.50
  -4  11   0  156.48    7.70
   4  11   0  149.39    9.20
   4  11   0  151.28    9.80
  -4  11   0  145.39    9.30
   4  11   0  164.48   10.20
   5 -11   0    3.40    3.00
  -5 -11   0    3.30    2.30
  -5 -11   0    4.20    2.20
   5 -11   0    7.80    3.30
   5 -11   0    4.80    2.90
  -5  11   0    3.30    2.50
   5  11   0    4.40    2.80
  -5  11   0    1.80    2.10
   5  11   0    4.00    2.30
  -5  11   0    3.60    2.50
   5  11   0    1.90    2.40
   6 -11   0  101.59   11.20
  -6 -11   0  113.29    9.00
  -6 -11   0  111.09    8.10
   6 -11   0  105.39   11.90
   6 -11   0  105.79   12.10
   6  11   0   87.09   10.10
  -6  11   0  106.19    9.10
   6  11   0  101.49   11.50
  -6  11   0  107.29   11.70
   6  11   0  107.39    9.00
  -6  11   0  125.09    9.80
   0 -12   0   11.70    2.60
   0 -12   0   12.20    2.40
   0  12   0   13.40    2.40
   0  12   0   14.90    2.60
  -1 -12   0   10.10    2.50
  -1 -12   0   11.30    2.50
  -1 -12   0   14.10    2.50
   1 -12   0   11.90    2.60
   1 -12   0   13.10    2.80
   1 -12   0   14.60    2.80
  -1  12   0   13.40    2.90
  -1  12   0   15.70    3.00
   1  12   0   16.20    3.30
   1  12   0   15.70    2.90
   1  12   0   13.10    2.80
  -1  12   0   14.40    2.70
  -1  12   0   17.40    3.50
  -1  12   0   14.30    2.40
  -2 -12   0   21.80    3.70
   2 -12   0   15.80    3.20
   2 -12   0   17.10    3.40
  -2 -12   0   18.20    3.30
   2 -12   0   18.80    3.80
  -2 -12   0   16.50    2.70
   2 -12   0   11.70    3.00
  -2  12   0   13.50    2.90
  -2  12   0   19.40    3.00
   2  12   0   15.00    3.30
  -2  12   0   16.10    3.30
   2  12   0   18.80    3.40
  -2  12   0   19.80    3.90
   2  12   0   18.10    3.60
   3 -12   0   19.00    4.00
  -3 -12   0   20.50    3.10
  -3 -12   0   18.80    3.30
  -3 -12   0   20.10    3.80
   3 -12   0   16.90    3.80
   3 -12   0   20.50    4.20
   3 -12   0   22.40    4.40
  -3  12   0   22.60    3.30
  -3  12   0   24.20    4.40
   3  12   0   21.60    4.00
   3  12   0   22.60    4.10
   3  12   0   20.80    4.10
  -3  12   0   18.90    3.80
  -3  12   0   20.70    3.90
  -4 -12   0   23.60    4.60
   4 -12   0   22.60    4.90
   4 -12   0   17.90    4.30
   4 -12   0   25.50    4.90
  -4 -12   0   22.30    3.60
   4 -12   0   22.80    4.80
  -4 -12   0   26.10    4.30
  -4  12   0   24.60    4.50
  -4  12   0   20.00    3.20
  -4  12   0   20.80    4.50
  -4  12   0   24.90    4.90
   4  12   0   25.90    4.80
   4  12   0   33.70    6.00
   4  12   0   20.50    4.50
  -5 -12   0    6.00    3.00
   5 -12   0    3.40    2.60
   5 -12   0   13.20    4.40
   5 -12   0   10.70    3.90
  -5 -12   0   10.20    2.90
  -5  12   0    4.50    2.90
   5  12   0    8.90    3.40
  -5  12   0   13.60    4.00
   5  12   0   13.50    3.90
  -5  12   0    7.40    3.20
   5  12   0    7.00    3.60
   6 -12   0   49.80    8.00
   6 -12   0   31.60    6.70
   6 -12   0   20.40    5.90
  -6 -12   0   32.80    5.30
  -6 -12   0   30.70    5.90
   6  12   0   38.40    6.80
   6  12   0   30.30    6.30
  -6  12   0   25.60    5.50
  -6  12   0   32.10    6.70
   6  12   0   37.10    6.80
  -6  12   0   30.30    5.80
   0 -13   0  360.56   14.00
   0 -13   0  343.47   14.60
   0  13   0  355.76   14.20
   0  13   0  367.86   13.80
   0  13   0  359.96   15.20
   0  13   0  379.76   14.50
   1 -13   0    2.20    1.70
  -1 -13   0    0.30    1.10
   1 -13   0    0.80    1.40
   1 -13   0    1.30    1.30
  -1 -13   0    0.50    1.30
  -1 -13   0    0.90    1.20
  -1  13   0    0.10    1.20
   1  13   0    0.00    1.40
   1  13   0    2.00    1.60
   1  13   0   -1.10    1.20
  -1  13   0    1.60    1.20
  -1  13   0   -1.80    1.30
  -1  13   0    3.10    1.80
   2 -13   0   29.70    4.90
   2 -13   0   34.70    4.90
  -2 -13   0   36.50    4.10
   2 -13   0   33.50    4.90
  -2 -13   0   34.80    4.70
  -2 -13   0   24.70    3.80
  -2  13   0   28.60    4.80
   2  13   0   26.10    4.50
   2  13   0   27.30    4.30
   2  13   0   30.70    4.80
  -2  13   0   43.50    5.40
  -2  13   0   34.40    4.80
  -2  13   0   32.40    4.10
  -3 -13   0    7.10    2.70
  -3 -13   0    9.20    2.30
   3 -13   0   10.00    3.40
   3 -13   0   12.70    3.60
   3 -13   0   15.80    4.00
   3 -13   0    5.00    2.60
  -3 -13   0    8.10    2.50
  -3  13   0   13.40    3.60
  -3  13   0    9.30    2.90
  -3  13   0    9.90    3.20
   3  13   0    9.10    2.90
  -3  13   0   12.20    2.70
   3  13   0   11.30    3.30
   3  13   0   17.30    4.10
   4 -13   0   51.69    7.90
  -4 -13   0   44.60    5.80
   4 -13   0   53.69    7.70
   4 -13   0   31.40    5.80
  -4 -13   0   36.10    5.40
   4 -13   0   50.19    7.40
  -4 -13   0   40.30    5.20
  -4  13   0   42.90    6.60
   4  13   0   39.50    6.30
  -4  13   0   39.20    5.90
   4  13   0   48.70    6.40
  -4  13   0   50.19    6.90
   4  13   0   52.99    7.30
  -5 -13   0    2.20    2.00
   5 -13   0    5.80    3.10
   5 -13   0    3.40    2.90
  -5 -13   0    7.90    3.10
   5 -13   0    7.50    3.80
   5  13   0   11.50    4.10
   5  13   0    4.20    3.10
  -5  13   0    2.90    2.70
  -5  13   0    4.00    2.80
   5  13   0    6.50    2.90
  -5  13   0    3.90    2.60
   0 -14   0    6.30    2.20
   0 -14   0    9.60    2.40
   1 -14   0   65.79    6.90
  -1 -14   0   69.99    5.80
   1 -14   0   62.09    5.30
  -1 -14   0   73.99    5.40
  -1 -14   0   72.79    5.50
   1 -14   0   76.39    6.10
   1  14   0   60.19    5.30
  -1  14   0   64.99    5.00
  -1  14   0   73.59    6.40
   1  14   0   84.09    6.20
   1  14   0   71.59    7.10
  -1  14   0   86.99    6.20
  -2 -14   0   41.30    5.30
   2 -14   0   33.30    5.00
   2 -14   0   31.90    5.20
   2 -14   0   42.90    6.10
  -2 -14   0   34.40    4.60
  -2 -14   0   37.40    4.50
  -2  14   0   38.60    5.30
   2  14   0   50.49    6.10
  -2  14   0   40.20    4.80
   2  14   0   37.70    5.70
   2  14   0   39.40    5.50
  -2  14   0   31.90    5.40
   3 -14   0   13.70    3.70
  -3 -14   0   19.00    3.30
   3 -14   0   10.20    3.60
  -3 -14   0   16.60    3.70
  -3 -14   0   13.80    3.30
   3 -14   0   14.80    4.00
  -3  14   0   13.30    2.90
  -3  14   0   12.80    3.70
   3  14   0   14.00    3.60
   3  14   0   16.80    4.00
  -3  14   0   11.20    3.80
   3  14   0   10.00    3.20
  -3  14   0    9.90    3.30
  -4 -14   0   11.60    3.10
   4 -14   0   23.40    5.40
   4 -14   0   20.70    4.80
  -4 -14   0   21.40    4.70
   4  14   0   26.10    5.40
   4  14   0   18.60    4.60
  -4  14   0   13.90    3.70
   4  14   0   16.90    4.20
  -4  14   0   14.00    3.90
  -4  14   0   16.30    4.10
   5 -14   0   15.30    5.00
  -5 -14   0   27.30    4.90
  -5 -14   0   26.80    5.50
   5 -14   0   23.90    5.90
   5  14   0   15.60    4.50
  -5  14   0   23.30    5.70
   5  14   0   23.60    5.30
  -5  14   0   20.50    4.80
   5  14   0   27.90    6.20
  -5  14   0   23.10    5.40
   0 -15   0   35.60    5.30
   0 -15   0   41.60    5.30
   0  15   0   31.70    4.40
   0  15   0   31.00    4.60
   1 -15   0    4.80    2.50
   1 -15   0    6.80    2.60
  -1 -15   0    2.30    1.50
  -1 -15   0    2.40    1.90
   1  15   0    4.00    2.10
   1  15   0    7.10    2.70
   1  15   0    4.60    2.30
  -1  15   0    2.00    1.90
   2 -15   0   47.20    6.40
  -2 -15   0   37.20    5.30
  -2 -15   0   49.80    6.10
   2 -15   0   53.59    6.70
  -2 -15   0   43.00    4.90
   2 -15   0   45.70    6.50
   2  15   0   44.50    6.40
  -2  15   0   49.80    5.80
   2  15   0   49.90    6.60
  -2  15   0   38.90    6.10
   2  15   0   50.69    6.10
  -3 -15   0  142.89    8.80
  -3 -15   0  133.89    8.90
   3 -15   0  140.79   10.30
   3 -15   0  139.89    9.90
   3 -15   0  153.38   10.70
  -3 -15   0  127.69    9.00
   3  15   0  156.58   10.80
  -3  15   0  124.29   10.00
  -3  15   0  127.99    9.60
   3  15   0  146.49    9.70
   3  15   0  117.19    9.60
  -3  15   0  150.58    8.40
  -4 -15   0    5.80    2.60
  -4 -15   0    5.80    2.80
   4 -15   0    2.20    2.90
   4 -15   0    4.80    3.10
   4  15   0    9.90    3.80
   4  15   0    4.90    3.00
  -4  15   0    0.40    2.60
   4  15   0    9.40    3.80
  -4  15   0    3.20    3.10
  -4  15   0    3.50    3.00
   0 -16   0    6.50    2.90
   0 -16   0    9.60    2.70
   0  16   0   10.00    2.80
   0  16   0   12.50    3.50
   1 -16   0    8.60    3.40
   1 -16   0    9.10    3.20
  -1 -16   0   13.70    3.20
  -1 -16   0   11.40    3.30
   1  16   0    9.00    3.20
   1  16   0   11.70    3.50
  -1  16   0   18.00    3.70
  -2 -16   0   27.50    4.80
  -2 -16   0   29.40    4.40
  -2 -16   0   33.00    5.20
   2 -16   0   31.30    5.90
   2 -16   0   34.40    5.70
  -2  16   0   32.90    4.90
   2  16   0   32.30    5.70
   2  16   0   30.90    5.00
  -2  16   0   34.40    5.90
   2  16   0   46.50    6.70
  -3 -16   0  159.28   10.10
   3 -16   0  168.98   11.30
  -3 -16   0  144.39   10.00
   3 -16   0  162.58   11.50
   3  16   0  171.78   10.90
   3  16   0  148.19   11.00
  -3  16   0  158.68   11.50
   3  16   0  166.68   11.80
   0 -17   0    7.20    3.20
   0 -17   0    4.60    2.50
   0  17   0   16.60    4.00
  -1 -17   0    2.80    2.10
   1 -17   0    7.80    3.50
  -1 -17   0    8.70    3.40
   1 -17   0    8.40    3.40
   1  17   0    2.80    2.30
   1  17   0   12.10    3.70
  -1  17   0    6.10    2.80
   2 -17   0    0.70    2.60
  -2 -17   0   -0.20    1.80
   2 -17   0    2.30    2.50
  -2  17   0    1.10    2.00
   2  17   0    1.00    2.10
   2  17   0   -0.70    2.20
   8   0  -1    0.70    2.40
  -8   0   1    1.00    2.30
  -8   0   1    2.40    2.40
  -8   0   1   -0.60    1.60
   8   0  -1    1.70    3.00
   8   0  -1   -0.40    1.90
  -8   0   1   -1.20    1.70
   8   0  -1    0.20    1.90
  -8   0   1   -1.80    2.20
  -7   0   1   -1.10    1.70
   7   0  -1    2.50    2.40
  -7   0   1    3.90    2.10
   7   0  -1    0.30    2.10
  -7   0   1    2.30    1.60
  -7   0   1   -1.30    1.40
   7   0  -1    1.30    2.70
   7   0  -1    0.70    1.60
  -7   0   1    2.60    1.80
  -7   0   1    5.40    2.70
  -7   0   1    3.40    2.20
   7   0  -1    4.70    2.50
  -7   0   1    0.90    2.20
   7   0  -1    3.80    1.90
  -7   0   1    1.90    2.00
   7   0  -1    3.30    2.60
  -6   0   1   -2.20    1.30
   6   0  -1    0.50    1.30
   6   0  -1   -0.30    1.20
  -6   0   1    1.00    1.40
   6   0  -1   -1.00    1.20
  -6   0   1    0.30    1.20
   6   0  -1   -1.30    1.10
   6   0  -1    0.20    1.70
  -6   0   1   -0.70    1.20
   6   0  -1    0.20    1.60
   6   0  -1    0.60    1.80
   6   0  -1    0.50    2.10
  -6   0   1    0.60    1.20
   6   0  -1    1.00    1.40
  -6   0   1    1.90    1.80
  -6   0   1    2.60    1.80
   5   0  -1    0.80    1.30
   5   0  -1   -0.10    0.90
   5   0  -1    1.70    1.30
   5   0  -1    0.30    1.50
  -5   0   1    0.00    0.90
   5   0  -1   -1.30    1.00
   5   0  -1    1.10    1.70
  -5   0   1   -0.40    1.10
  -5   0   1   -1.10    0.90
   5   0  -1    0.90    1.10
  -5   0   1    1.10    1.30
   5   0  -1   -1.00    1.00
   5   0  -1   -0.20    1.10
   4   0  -1    1.70    1.00
  -4   0   1    0.30    0.80
  -4   0   1   -0.80    0.70
  -4   0   1   -0.60    0.80
   4   0  -1    0.10    0.80
   4   0  -1   -0.50    0.60
   4   0  -1    0.20    0.90
   4   0  -1    0.40    0.90
   4   0  -1    0.70    0.80
  -4   0   1   -0.40    0.50
   4   0  -1    0.60    1.00
   4   0  -1   -0.80    0.80
   4   0  -1   -0.50    0.60
   3   0  -1    0.60    0.70
  -3   0   1    0.80    0.60
   3   0  -1    0.90    0.80
   3   0  -1    0.90    1.00
   3   0  -1   -0.30    0.60
   3   0  -1    0.10    0.80
  -3   0   1    0.40    0.90
  -3   0   1   -0.20    0.90
   3   0  -1    0.60    0.70
   3   0  -1    0.10    0.60
   3   0  -1    0.60    0.80
   3   0  -1    0.60    0.80
  -3   0   1    1.30    0.80
  -2   0   1    0.30    0.40
  -2   0   1    1.50    0.70
   2   0  -1    0.10    0.40
   2   0  -1    0.60    0.50
   2   0  -1    0.20    0.40
   2   0  -1    0.60    0.60
  -2   0   1    0.10    0.40
   2   0  -1    1.30    0.80
   2   0  -1    0.00    0.40
   2   0  -1    0.00    0.40
   2   0  -1    0.20    0.40
  -2   0   1    0.70    0.70
   2   0  -1    0.70    0.60
  -1   0   1    0.30    0.50
   1   0  -1    1.10    0.60
   1   0  -1    0.70    0.30
   1   0  -1    0.90    0.50
  -1   0   1    0.70    0.40
   1   0  -1    0.70    0.40
  -1   0   1    0.40    0.50
  -1   0   1    0.60    0.30
   1   0  -1    1.00    0.30
   1   0  -1   -0.10    0.40
  -1   0   1    0.90    0.20
   0   0  -1    0.80    0.40
   0   0  -1    0.10    0.30
   0   0  -1    0.10    0.30
   0   0   1    0.80    0.40
   0   0  -1    0.00    0.20
   0   0   1    0.20    0.30
   0   0  -1    0.00    0.30
   0   0   1    0.00    0.30
   0   0  -1    0.20    0.20
   0   0   1    0.10    0.30
   0   0   1   -0.20    0.20
   0   0  -1    0.00    0.20
  -1   0  -1    0.40    0.40
   1   0   1    0.20    0.30
  -1   0  -1    0.30    0.60
  -1   0  -1    0.40    0.50
   1   0   1   -0.40    0.40
   1   0   1    0.10    0.50
   1   0   1    0.10    0.20
   1   0   1    0.00    0.40
  -1   0  -1    0.10    0.40
  -1   0  -1   -0.10    0.20
  -1   0  -1    0.10    0.40
   2   0   1    0.20    0.40
   2   0   1   -0.10    0.40
   2   0   1    0.70    0.80
   2   0   1    0.30    0.70
  -2   0  -1    1.80    0.80
   2   0   1   -0.40    0.70
  -2   0  -1    0.50    0.60
  -2   0  -1    1.00    0.50
   2   0   1    0.10    0.30
  -2   0  -1    0.60    0.40
   3   0   1    0.10    0.90
   3   0   1   -0.70    0.80
   3   0   1    0.60    1.00
   3   0   1    0.30    0.60
  -3   0  -1    0.40    0.60
  -3   0  -1    0.40    0.70
  -3   0  -1   -0.90    0.60
   3   0   1   -0.20    0.50
  -3   0  -1   -0.30    0.60
   3   0   1    0.40    0.60
   4   0   1    0.90    1.20
   4   0   1    0.60    0.80
  -4   0  -1    0.60    1.30
   4   0   1   -0.40    1.00
  -4   0  -1   -0.20    0.60
   4   0   1    1.60    1.40
   4   0   1    0.70    1.00
  -4   0  -1    0.70    0.90
   4   0   1   -0.10    0.70
  -4   0  -1   -0.60    0.90
   4   0   1    0.20    0.80
  -4   0  -1    0.40    0.70
   5   0   1    1.00    1.30
   5   0   1    1.90    1.60
   5   0   1    1.10    1.20
  -5   0  -1    0.90    1.00
  -5   0  -1    0.30    1.70
  -5   0  -1    2.00    1.20
   5   0   1    0.50    1.60
  -5   0  -1    1.50    1.20
   5   0   1   -1.90    1.40
   5   0   1    1.40    1.30
  -5   0  -1    1.00    1.20
  -5   0  -1   -0.80    1.30
   6   0   1    1.70    1.60
   6   0   1   -2.60    1.50
   6   0   1   -0.30    1.10
   6   0   1   -0.80    1.70
  -6   0  -1   -0.30    1.30
  -6   0  -1   -0.80    1.00
  -6   0  -1   -0.30    1.60
  -6   0  -1    0.40    1.70
  -6   0  -1    0.80    1.50
  -6   0  -1   -1.50    1.30
   6   0   1   -1.40    1.80
  -6   0  -1   -3.10    1.10
  -7   0  -1   -0.20    1.30
  -7   0  -1   -1.00    1.40
   7   0   1    0.30    2.60
  -7   0  -1    0.10    1.90
  -7   0  -1    0.80    2.00
   7   0   1    1.10    2.90
  -7   0  -1   -2.00    1.80
   7   0   1    1.20    2.20
   8   0   1   -2.30    2.40
  -8   0  -1   -1.60    2.50
  -8   0  -1    0.60    2.10
  -8   0  -1    0.30    2.40
   8   0   1    1.10    3.00
  -8   0  -1    2.80    3.00
  -8   0  -1   -0.50    2.10
  -8  -1   1   11.70    4.00
   8  -1  -1   14.10    5.10
  -8  -1   1   19.90    4.50
   8  -1  -1   20.10    4.60
   8  -1  -1   24.20    4.80
  -8  -1   1   21.00    4.30
   8  -1  -1   17.60    5.50
   8  -1  -1   11.60    4.10
  -8  -1   1   19.60    4.60
  -8   1   1   22.70    4.80
  -8   1   1   19.90    4.50
  -8   1   1   24.80    5.20
  -8   1   1   22.80    5.80
  -8   1   1   27.60    6.30
  -7  -1   1  390.06   16.60
   7  -1  -1  390.06   19.30
  -7  -1   1  412.36   18.60
  -7  -1   1  401.76   18.70
   7  -1  -1  377.56   17.10
   7  -1  -1  405.66   19.20
  -7  -1   1  420.46   18.90
  -7  -1   1  411.76   16.70
  -7  -1   1  389.46   16.80
  -7  -1   1  404.86   18.20
   7  -1  -1  378.66   17.90
   7  -1  -1  390.36   17.20
  -7  -1   1  389.66   16.40
  -7  -1   1  406.16   17.20
  -7   1   1  420.96   18.00
   7   1  -1  414.96   17.00
   7   1  -1  416.96   19.20
  -7   1   1  384.96   18.50
   7   1  -1  408.46   17.10
   7   1  -1  404.16   16.70
   7   1  -1  416.96   17.80
   7   1  -1  394.06   18.70
   7   1  -1  423.46   19.10
  -7   1   1  392.96   17.60
  -7   1   1  402.96   17.50
   7   1  -1  389.26   18.10
  -7   1   1  392.16   18.10
   7   1  -1  389.56   17.00
  -7   1   1  394.96   16.90
  -6  -1   1   25.90    4.10
   6  -1  -1   37.00    5.10
   6  -1  -1   21.50    4.60
  -6  -1   1   24.40    3.80
   6  -1  -1   30.80    4.50
  -6  -1   1   28.80    5.00
  -6  -1   1   26.20    4.10
   6  -1  -1   27.80    4.50
   6  -1  -1   28.20    3.80
  -6  -1   1   31.70    4.20
  -6  -1   1   22.70    3.80
   6  -1  -1   33.20    4.70
  -6  -1   1   24.50    4.60
   6  -1  -1   28.70    5.30
  -6  -1   1   30.20    4.90
  -6  -1   1   31.80    5.00
   6   1  -1   30.90    4.40
   6   1  -1   27.60    4.20
  -6   1   1   31.20    5.10
  -6   1   1   28.60    4.50
   6   1  -1   25.90    4.70
   6   1  -1   27.80    4.10
  -6   1   1   29.50    4.30
   6   1  -1   23.00    4.70
   6   1  -1   31.30    4.20
   6   1  -1   27.80    4.80
   6   1  -1   32.70    4.60
  -6   1   1   28.40    3.80
  -6   1   1   13.60    3.50
  -6   1   1   24.90    4.10
  -6   1   1   29.50    4.40
   6   1  -1   21.80    4.50
  -5  -1   1  223.08    9.90
   5  -1  -1  234.98   10.70
   5  -1  -1  222.68   10.30
  -5  -1   1  208.98   10.80
   5  -1  -1  202.98   11.00
  -5  -1   1  224.78   11.00
   5  -1  -1  212.48   10.50
   5  -1  -1  222.98   10.50
   5  -1  -1  237.68   10.30
   5  -1  -1  235.68   11.10
  -5  -1   1  205.68   10.70
  -5  -1   1  225.68    9.80
   5  -1  -1  234.68   10.90
   5  -1  -1  227.78    9.50
  -5   1   1  213.98   10.30
   5   1  -1  217.88    9.90
  -5   1   1  223.88   10.70
  -5   1   1  228.68    9.40
   5   1  -1  219.98   10.80
   5   1  -1  217.38   10.30
  -5   1   1  208.48   10.40
   5   1  -1  216.88    9.90
   5   1  -1  223.18   10.10
   5   1  -1  220.08   10.00
   5   1  -1  231.88   11.20
   5   1  -1  224.88   11.10
   5   1  -1  214.28   10.90
   4  -1  -1  181.08    8.40
   4  -1  -1  187.28    7.70
  -4  -1   1  190.88    9.00
   4  -1  -1  190.48    8.60
  -4  -1   1  180.98    9.00
   4  -1  -1  175.78    8.60
   4  -1  -1  181.18    9.00
  -4  -1   1  188.78    8.00
   4  -1  -1  177.78    8.60
   4  -1  -1  180.58    8.70
   4  -1  -1  179.28    8.10
  -4  -1   1  189.88    8.10
   4  -1  -1  172.88    8.50
   4   1  -1  178.08    8.10
   4   1  -1  186.78    8.40
  -4   1   1  174.68    8.60
   4   1  -1  180.98    8.10
   4   1  -1  171.48    7.90
   4   1  -1  191.88    9.10
  -4   1   1  190.38    8.80
  -4   1   1  178.28    7.50
   4   1  -1  196.38    9.00
   4   1  -1  192.18    8.60
   4   1  -1  187.18    9.10
   4   1  -1  191.08    8.20
   3  -1  -1  382.66   13.10
  -3  -1   1  371.96   12.70
   3  -1  -1  369.56   12.40
   3  -1  -1  382.76   13.00
   3  -1  -1  381.66   13.60
   3  -1  -1  373.46   13.20
   3  -1  -1  363.96   13.30
   3  -1  -1  367.36   13.20
  -3  -1   1  372.56   12.40
   3  -1  -1  381.26   12.60
   3  -1  -1  369.96   13.00
  -3  -1   1  361.56   13.50
   3   1  -1  391.06   13.50
   3   1  -1  387.26   12.50
   3   1  -1  362.26   12.80
  -3   1   1  381.96   13.20
  -3   1   1  381.56   12.40
   3   1  -1  377.66   12.90
   3   1  -1  379.46   13.70
   3   1  -1  401.56   12.80
   3   1  -1  348.07   12.70
   3   1  -1  365.06   12.80
   3   1  -1  367.26   13.40
  -3   1   1  397.26   13.50
  -2  -1   1  866.21   23.90
   2  -1  -1  837.32   25.30
  -2  -1   1  831.02   25.10
   2  -1  -1  853.31   24.00
   2  -1  -1  858.71   23.90
   2  -1  -1  839.12   25.50
  -2  -1   1  864.61   25.50
   2  -1  -1  849.61   25.80
   2  -1  -1  853.21   23.80
   2  -1  -1  879.11   24.50
   2   1  -1  842.32   25.40
   2   1  -1  837.42   23.60
   2   1  -1  819.62   24.00
  -2   1   1  865.61   24.80
   2   1  -1  862.01   23.90
   2   1  -1  847.52   25.20
   2   1  -1  843.12   24.00
   2   1  -1  844.52   25.20
  -2   1   1  884.91   24.20
   2   1  -1  879.71   25.20
  -2   1   1  850.51   25.30
   2   1  -1  836.02   25.80
   1  -1  -1 9274.07  255.77
  -1  -1   1 9444.05  250.17
   1   1  -1 9212.98  255.17
   1   1  -1 9679.83  249.88
  -1   1   1 8899.41  249.28
  -1   1   1 9515.25  231.68
   1   1  -1 9528.55  231.38
   0  -1   1  224.08    6.80
   0  -1  -1  211.78    6.60
   0  -1   1  213.28    6.30
   0  -1  -1  210.58    6.90
   0  -1  -1  220.28    6.90
   0  -1   1  222.08    7.20
   0  -1  -1  222.98    6.40
   0  -1   1  212.08    6.80
   0  -1   1  217.78    6.30
   0  -1  -1  213.08    7.00
   0  -1  -1  206.98    6.80
   0   1   1  195.68    7.10
   0   1  -1  219.88    7.20
   0   1   1  215.98    6.50
   0   1  -1  218.18    6.30
   0   1  -1  225.78    7.30
   0   1  -1  226.98    6.80
   0   1   1  213.88    6.50
   0   1  -1  220.88    7.20
   0   1  -1  217.18    6.20
  -1  -1  -1 6057.39  161.68
   1  -1   1 5997.40  155.38
   1  -1   1 5905.51  161.68
  -1  -1  -1 6154.28  165.68
   1  -1   1 6043.90  161.18
  -1  -1  -1 5982.90  166.48
  -1  -1  -1 6093.99  164.98
  -1  -1  -1 6150.58  155.48
   1  -1   1 6191.48  167.38
   1   1   1 6287.67  165.58
  -1   1  -1 6289.67  166.68
  -1   1  -1 6040.40  162.08
  -1   1  -1 6474.05  161.78
  -1   1  -1 6077.29  165.48
   1   1   1 5968.80  161.18
   1   1   1 6233.98  167.98
   1   1   1 5886.41  162.48
  -1   1  -1 5883.41  167.08
  -2  -1  -1 1345.87   38.10
   2  -1   1 1349.56   37.80
  -2  -1  -1 1321.07   37.10
   2  -1   1 1276.17   36.90
   2  -1   1 1301.37   35.80
   2  -1   1 1248.98   33.40
   2  -1   1 1323.97   38.00
   2  -1   1 1314.67   38.20
  -2  -1  -1 1331.47   37.80
  -2  -1  -1 1347.57   37.10
  -2  -1  -1 1309.27   36.90
   2   1   1 1295.27   34.00
   2   1   1 1307.57   36.50
  -2   1  -1 1328.27   37.70
   2   1   1 1356.06   38.20
   2   1   1 1367.96   38.20
  -2   1  -1 1349.27   38.50
  -2   1  -1 1329.17   37.80
  -2   1  -1 1310.97   37.80
  -2   1  -1 1263.07   33.40
  -3  -1  -1   67.29    4.60
   3  -1   1   68.89    4.80
   3  -1   1   68.09    3.50
  -3  -1  -1   65.99    3.50
   3  -1   1   77.99    3.80
   3  -1   1   72.79    5.20
   3  -1   1   70.89    4.60
   3  -1   1   67.19    5.00
  -3  -1  -1   60.39    4.80
  -3  -1  -1   64.69    4.00
   3  -1   1   75.29    3.50
  -3  -1  -1   70.09    3.70
   3   1   1   63.79    3.90
  -3   1  -1   70.69    4.10
   3   1   1   59.39    4.70
  -3   1  -1   72.89    4.00
  -3   1  -1   67.39    3.40
  -3   1  -1   78.49    4.60
   3   1   1   62.69    4.70
   3   1   1   69.49    4.80
   3   1   1   66.49    3.70
   3   1   1   58.69    3.50
  -3   1  -1   79.59    5.00
   4  -1   1   89.09    4.60
  -4  -1  -1   76.09    4.90
   4  -1   1   83.69    6.10
  -4  -1  -1   81.19    6.10
   4  -1   1   81.59    5.50
   4  -1   1   82.99    6.20
   4  -1   1   80.89    4.50
   4  -1   1   93.69    6.60
  -4  -1  -1   76.89    5.60
  -4  -1  -1   76.59    4.50
  -4  -1  -1   73.19    4.30
   4  -1   1   82.99    4.50
  -4   1  -1   79.09    5.80
   4   1   1   75.19    5.70
   4   1   1   78.19    6.00
  -4   1  -1   87.89    4.90
  -4   1  -1   81.69    5.30
  -4   1  -1   71.69    4.30
   4   1   1   82.69    6.00
  -4   1  -1   83.79    5.00
   4   1   1   76.29    4.70
   4   1   1   76.99    4.70
   4   1   1   79.89    4.80
   5  -1   1 1029.70   34.80
  -5  -1  -1 1027.70   33.50
   5  -1   1 1034.70   30.20
   5  -1   1 1042.60   34.90
  -5  -1  -1 1078.49   34.60
  -5  -1  -1 1064.09   32.20
   5  -1   1 1041.70   32.10
   5  -1   1 1030.70   32.10
   5  -1   1 1032.00   34.50
  -5  -1  -1 1066.99   34.40
  -5  -1  -1 1049.59   32.40
   5  -1   1 1055.49   35.10
   5   1   1 1079.99   31.20
   5   1   1 1058.29   32.90
  -5   1  -1 1064.09   34.70
  -5   1  -1 1020.60   30.20
  -5   1  -1 1029.00   33.90
  -5   1  -1 1064.69   33.00
   5   1   1 1037.20   34.50
   5   1   1 1050.19   32.70
   5   1   1 1012.70   34.40
  -5   1  -1 1012.10   32.70
   5   1   1 1044.80   34.60
  -6  -1  -1   83.69    6.20
  -6  -1  -1   74.19    8.30
   6  -1   1   90.49    9.20
   6  -1   1   82.89    9.50
  -6  -1  -1   89.29    6.10
   6  -1   1   68.69    5.20
  -6  -1  -1   89.09    9.10
  -6  -1  -1   80.69    6.50
   6  -1   1   81.09    9.00
  -6  -1  -1   82.69    5.60
  -6   1  -1   80.89    6.70
  -6   1  -1   76.89    6.10
   6   1   1   83.39    6.40
  -6   1  -1   72.69    8.30
   6   1   1   93.59    7.90
  -6   1  -1   80.79    6.00
   6   1   1   95.19    9.70
   6   1   1   78.69    6.10
   6   1   1   84.69    6.00
  -6   1  -1   92.79   10.10
   6   1   1   89.79    7.50
  -7  -1  -1   96.99    6.70
  -7  -1  -1   57.79    8.60
  -7  -1  -1   90.99    7.60
   7  -1   1   88.29   10.00
   7  -1   1   75.19    9.90
  -7  -1  -1   85.39    9.80
   7  -1   1  116.49   12.10
  -7  -1  -1   85.79    6.70
  -7   1  -1   67.99    9.40
  -7   1  -1   93.69    7.90
   7   1   1   83.79    6.50
  -7   1  -1   89.09    6.90
   7   1   1   81.29    9.20
  -7   1  -1   70.19    9.30
   7   1   1   80.09   10.20
  -7   1  -1   83.39    7.00
  -8  -1  -1   22.90    5.50
   8  -1   1   14.00    4.70
  -8  -1  -1   24.50    6.10
   8  -1   1   26.40    7.00
  -8  -1  -1   27.80    5.80
  -8  -1  -1   32.80    6.90
   8  -1   1   26.80    6.50
  -8   1  -1   15.90    3.90
  -8   1  -1   25.40    5.70
  -8   1  -1   29.20    5.30
  -8   1  -1   26.40    6.50
   8   1   1   27.20    6.90
  -8   1  -1   42.50    7.90
   8   1   1   24.60    5.50
  -8  -2   1   10.90    4.10
   8  -2  -1    7.10    4.30
   8  -2  -1    2.20    2.30
  -8  -2   1    2.10    2.90
   8  -2  -1    4.20    3.00
   8  -2  -1    6.00    2.80
   8  -2  -1   -0.30    3.00
  -8   2   1    7.70    3.10
  -8   2   1    5.90    3.30
  -8   2   1    1.70    2.10
  -8   2   1    7.70    3.90
  -8   2   1    7.30    3.40
   7  -2  -1   13.20    3.50
  -7  -2   1   13.60    3.40
  -7  -2   1    5.50    2.90
   7  -2  -1    4.70    2.40
   7  -2  -1   10.30    4.20
   7  -2  -1    8.30    3.30
   7  -2  -1   15.50    4.60
  -7  -2   1   12.50    3.80
  -7  -2   1    9.90    2.90
  -7  -2   1   11.00    3.10
  -7  -2   1    9.50    3.30
  -7  -2   1    8.20    2.50
  -7  -2   1   12.70    3.10
  -7  -2   1    7.30    3.40
  -7   2   1    7.80    2.90
   7   2  -1    5.80    2.20
  -7   2   1   10.80    3.00
   7   2  -1   11.80    3.80
   7   2  -1    9.30    3.50
  -7   2   1   13.30    3.60
   7   2  -1    6.70    2.60
  -7   2   1    9.50    3.10
   7   2  -1    8.60    3.40
   7   2  -1    9.80    3.60
   7   2  -1    9.70    2.90
   7   2  -1    7.30    2.60
   7   2  -1   12.80    3.20
  -6  -2   1   49.70    5.50
  -6  -2   1   44.40    6.00
  -6  -2   1   67.99    7.70
  -6  -2   1   46.00    5.30
  -6  -2   1   46.50    6.30
  -6  -2   1   40.50    4.80
  -6  -2   1   50.59    5.50
  -6  -2   1   47.00    5.10
   6  -2  -1   43.50    5.30
   6  -2  -1   54.89    6.40
   6  -2  -1   39.80    6.10
   6  -2  -1   43.00    6.30
   6  -2  -1   45.30    5.50
  -6  -2   1   49.70    6.30
   6  -2  -1   40.70    5.30
  -6   2   1   45.00    5.40
   6   2  -1   40.00    4.90
  -6   2   1   44.50    5.60
  -6   2   1   61.19    6.60
   6   2  -1   47.20    5.40
  -6   2   1   42.60    5.50
   6   2  -1   46.60    6.10
   6   2  -1   51.19    5.70
   6   2  -1   58.09    7.20
   6   2  -1   51.79    5.60
   6   2  -1   54.39    5.80
   6   2  -1   41.60    6.00
  -6   2   1   51.79    6.10
   6   2  -1   41.80    5.70
  -6   2   1   44.60    4.00
   5  -2  -1  211.68    9.00
   5  -2  -1  188.68   10.00
  -5  -2   1  221.48   10.20
   5  -2  -1  206.78   11.00
  -5  -2   1  209.88    9.50
   5  -2  -1  211.08   10.30
  -5  -2   1  203.68   10.60
  -5  -2   1  200.38    9.50
   5  -2  -1  199.08   10.50
   5  -2  -1  197.68    9.90
   5  -2  -1  218.38   10.00
  -5  -2   1  221.48   11.00
  -5  -2   1  211.08   10.50
   5   2  -1  235.48    9.90
   5   2  -1  198.58    9.30
  -5   2   1  219.08    8.90
   5   2  -1  210.18    9.70
   5   2  -1  212.38   10.00
   5   2  -1  203.98   10.10
  -5   2   1  198.58    9.60
   5   2  -1  183.28   10.30
  -5   2   1  199.98   10.00
  -5   2   1  221.48   10.30
   5   2  -1  211.48   10.80
   5   2  -1  207.28    9.50
   5   2  -1  218.38   10.70
   4  -2  -1  260.87   10.90
   4  -2  -1  254.87   10.90
   4  -2  -1  255.77    9.70
  -4  -2   1  269.47   10.90
  -4  -2   1  265.47   10.20
   4  -2  -1  258.17   11.30
   4  -2  -1  265.77   10.60
   4  -2  -1  260.37   11.10
   4  -2  -1  252.37   10.90
  -4  -2   1  274.27   11.60
  -4  -2   1  271.57   10.50
  -4   2   1  250.37   10.70
   4   2  -1  265.67   10.30
   4   2  -1  250.27   10.80
  -4   2   1  266.37    9.60
   4   2  -1  275.07   11.00
   4   2  -1  261.87   10.30
   4   2  -1  265.67   11.50
  -4   2   1  251.37   10.90
   4   2  -1  264.37   11.50
   4   2  -1  263.07   10.70
  -4   2   1  266.67   11.00
   4   2  -1  245.88   10.10
   4   2  -1  253.07   10.50
   3  -2  -1  464.55   15.60
  -3  -2   1  500.05   15.80
   3  -2  -1  483.15   16.50
  -3  -2   1  498.25   16.20
   3  -2  -1  484.55   16.10
   3  -2  -1  468.05   16.40
   3  -2  -1  486.05   16.10
  -3  -2   1  493.65   15.50
   3  -2  -1  512.25   17.00
   3   2  -1  485.65   15.50
   3   2  -1  482.05   15.50
  -3   2   1  468.45   15.20
   3   2  -1  502.55   16.80
   3   2  -1  505.75   15.80
   3   2  -1  510.55   16.60
   3   2  -1  464.05   15.80
   3   2  -1  494.15   16.40
  -3   2   1  500.15   16.40
   3   2  -1  497.45   15.80
   3   2  -1  484.95   16.90
  -3   2   1  487.65   16.00
   2  -2  -1  362.76   11.50
   2  -2  -1  331.37   11.80
  -2  -2   1  354.46   10.70
  -2  -2   1  362.46   10.90
   2  -2  -1  341.17   11.80
  -2  -2   1  354.16   11.70
   2  -2  -1  361.76   12.20
   2  -2  -1  336.47   10.80
   2   2  -1  349.17   10.60
   2   2  -1  353.56   11.80
  -2   2   1  340.17   10.90
   2   2  -1  345.37   10.70
  -2   2   1  336.47   11.40
   2   2  -1  350.16   12.10
  -2   2   1  350.26   11.80
   2   2  -1  343.87   11.50
   2   2  -1  348.87   11.70
   2   2  -1  344.57   11.10
   2   2  -1  349.57   12.00
  -1  -2   1  145.29    4.40
   1  -2  -1  151.38    5.30
   1  -2  -1  142.69    5.70
   1  -2  -1  141.79    4.50
  -1  -2   1  148.59    5.60
   1  -2  -1  150.28    4.90
  -1  -2   1  144.19    4.20
   1  -2  -1  149.29    5.60
   1  -2  -1  141.89    5.60
  -1  -2   1  151.38    4.90
  -1  -2   1  149.99    4.40
   1   2  -1  148.29    4.30
  -1   2   1  149.09    4.20
   1   2  -1  140.89    5.70
  -1   2   1  160.28    5.70
   1   2  -1  141.39    5.40
   1   2  -1  150.88    5.80
   1   2  -1  143.89    5.60
   1   2  -1  151.88    4.40
   1   2  -1  138.59    5.60
  -1   2   1  147.19    5.20
   1   2  -1  144.09    5.20
  -1   2   1  153.18    5.80
   0  -2  -1  479.15   14.60
   0  -2   1  519.15   13.60
   0  -2   1  519.45   15.20
   0  -2  -1  522.55   14.70
   0  -2  -1  494.75   13.90
   0  -2  -1  514.05   14.10
   0  -2   1  522.35   14.60
   0  -2  -1  502.55   15.00
   0  -2   1  502.35   14.60
   0  -2  -1  477.55   14.70
   0   2  -1  513.85   13.60
   0   2   1  491.85   15.20
   0   2  -1  504.55   14.60
   0   2   1  506.95   15.00
   0   2   1  499.65   13.80
   0   2  -1  524.75   13.50
   0   2   1  514.85   14.10
   0   2  -1  505.55   15.40
   0   2  -1  486.65   14.30
   0   2  -1  512.35   15.20
   0   2  -1  501.65   15.20
  -1  -2  -1 1480.45   39.20
   1  -2   1 1431.66   35.60
   1  -2   1 1445.66   40.50
  -1  -2  -1 1430.96   39.70
   1  -2   1 1381.36   38.30
  -1  -2  -1 1459.45   38.40
  -1  -2  -1 1479.85   39.50
   1  -2   1 1429.66   40.00
   1  -2   1 1408.36   39.90
  -1  -2  -1 1449.95   40.30
   1   2   1 1401.96   39.60
   1   2   1 1480.85   39.10
  -1   2  -1 1377.66   40.80
   1   2   1 1438.76   39.60
   1   2   1 1426.46   41.00
   1   2   1 1467.75   39.40
  -1   2  -1 1424.66   39.80
  -1   2  -1 1466.55   35.50
   1   2   1 1450.65   36.50
  -1   2  -1 1386.66   41.10
   2  -2   1  613.34   19.50
   2  -2   1  620.74   19.90
  -2  -2  -1  624.94   18.00
  -2  -2  -1  618.64   18.80
  -2  -2  -1  610.04   19.10
   2  -2   1  607.04   19.20
   2  -2   1  631.44   18.50
  -2  -2  -1  636.44   17.80
   2  -2   1  602.74   17.10
  -2  -2  -1  620.24   19.10
   2   2   1  599.24   18.30
  -2   2  -1  608.54   16.90
  -2   2  -1  602.74   16.10
  -2   2  -1  664.03   16.60
   2   2   1  623.54   19.30
  -2   2  -1  603.74   19.10
  -2   2  -1  637.64   19.60
  -2   2  -1  590.84   19.30
   2   2   1  603.44   19.40
  -2   2  -1  617.94   19.10
   2   2   1  607.04   17.10
   3  -2   1  926.81   29.20
  -3  -2  -1  970.00   27.80
  -3  -2  -1  958.20   29.10
  -3  -2  -1  979.20   27.70
  -3  -2  -1  977.90   28.90
   3  -2   1  930.21   29.70
   3  -2   1  923.01   29.90
  -3  -2  -1  984.40   29.50
   3  -2   1  940.31   27.00
   3  -2   1  954.30   30.20
   3  -2   1  961.90   28.10
   3   2   1  967.20   29.20
  -3   2  -1  936.21   29.00
   3   2   1  960.20   26.70
  -3   2  -1  937.01   28.90
  -3   2  -1  921.51   25.50
  -3   2  -1  956.10   29.70
   3   2   1 1000.00   29.90
   3   2   1  947.51   28.10
   3   2   1  965.40   29.20
  -3   2  -1  958.80   29.60
  -4  -2  -1  398.36   13.70
   4  -2   1  415.06   13.80
   4  -2   1  398.86   16.60
  -4  -2  -1  417.36   14.90
   4  -2   1  418.46   13.70
   4  -2   1  398.36   16.20
   4  -2   1  403.26   16.50
  -4  -2  -1  424.96   16.00
  -4  -2  -1  399.96   16.00
   4  -2   1  407.46   15.90
  -4  -2  -1  413.06   13.90
  -4   2  -1  416.06   14.90
  -4   2  -1  421.06   13.60
  -4   2  -1  417.96   16.20
   4   2   1  411.46   14.20
   4   2   1  419.26   14.70
  -4   2  -1  407.86   13.20
  -4   2  -1  431.16   15.70
   4   2   1  417.26   16.30
   4   2   1  383.06   15.80
   4   2   1  410.86   14.90
  -4   2  -1  410.36   14.90
  -5  -2  -1  329.77   13.30
  -5  -2  -1  330.97   14.50
   5  -2   1  328.77   15.50
   5  -2   1  326.07   15.20
   5  -2   1  289.27   13.90
   5  -2   1  324.77   12.20
  -5  -2  -1  326.77   12.30
   5  -2   1  335.27   15.10
   5  -2   1  326.57   12.00
  -5  -2  -1  292.47   14.30
  -5  -2  -1  309.57   12.00
   5   2   1  316.07   14.80
   5   2   1  320.27   13.00
  -5   2  -1  343.87   12.00
  -5   2  -1  332.27   12.20
  -5   2  -1  332.97   14.90
   5   2   1  312.07   12.80
   5   2   1  318.07   13.30
  -5   2  -1  321.77   13.90
  -5   2  -1  337.47   13.40
  -5   2  -1  319.47   13.10
   5   2   1  313.47   14.40
  -6  -2  -1  298.87   15.00
   6  -2   1  275.17   15.30
   6  -2   1  263.47   14.50
   6  -2   1  282.97   15.00
  -6  -2  -1  287.97   11.80
  -6  -2  -1  282.27   14.10
  -6  -2  -1  284.67   13.10
  -6  -2  -1  306.57   14.70
  -6  -2  -1  279.57   12.10
   6   2   1  272.07   14.80
  -6   2  -1  285.87   13.10
  -6   2  -1  293.37   14.00
   6   2   1  294.07   14.50
   6   2   1  289.17   13.30
   6   2   1  276.47   12.60
  -6   2  -1  286.87   14.80
  -6   2  -1  292.87   13.00
   6   2   1  289.77   13.00
  -7  -2  -1  271.27   15.40
   7  -2   1  280.67   15.50
  -7  -2  -1  261.47   14.30
   7  -2   1  267.67   15.70
  -7  -2  -1  264.27   13.10
  -7  -2  -1  265.27   13.60
  -7  -2  -1  275.97   15.10
   7  -2   1  284.17   16.70
   7   2   1  308.57   16.50
  -7   2  -1  267.87   14.40
  -7   2  -1  252.87   15.20
   7   2   1  274.47   13.10
  -7   2  -1  252.87   13.30
   7   2   1  255.27   14.30
  -7   2  -1  244.08   15.40
  -7   2  -1  274.97   13.30
   8  -2   1  101.29   11.20
  -8  -2  -1  111.59   12.40
  -8  -2  -1  103.79    8.10
  -8  -2  -1  122.19   12.80
   8  -2   1  113.39   13.30
   8  -2   1   90.59   11.40
  -8  -2  -1  105.89    9.00
  -8   2  -1  116.29   12.60
  -8   2  -1  105.49    8.40
  -8   2  -1  106.89    8.60
  -8   2  -1   83.99   10.30
   8   2   1  115.09    9.80
  -8   2  -1   92.59   11.80
  -8  -3   1   34.60    6.80
   8  -3  -1   22.40    5.00
   8  -3  -1   24.90    6.00
  -8  -3   1   23.70    4.80
  -8  -3   1   25.70    5.80
   8  -3  -1   40.80    8.10
   8  -3  -1   33.00    6.30
   8   3  -1   29.10    5.50
  -8   3   1   27.00    5.20
  -8   3   1   19.40    4.90
   8   3  -1   23.00    5.90
  -8   3   1   24.70    6.10
  -8   3   1   24.10    5.20
   7  -3  -1   13.50    4.40
   7  -3  -1   17.10    4.90
  -7  -3   1   14.50    3.30
   7  -3  -1   11.90    3.40
  -7  -3   1   16.50    3.70
   7  -3  -1   11.60    3.40
  -7  -3   1   15.30    3.30
  -7  -3   1   13.30    4.10
   7  -3  -1   16.60    4.30
  -7  -3   1   10.90    3.10
  -7  -3   1   14.20    4.00
  -7  -3   1   12.00    3.70
   7   3  -1   11.90    3.30
  -7   3   1   14.40    3.60
   7   3  -1   17.50    3.80
  -7   3   1   15.90    4.00
  -7   3   1   16.00    3.70
  -7   3   1    8.60    3.10
   7   3  -1   11.50    4.00
   7   3  -1   12.80    4.10
   7   3  -1   18.00    3.90
   6  -3  -1  193.48   10.50
   6  -3  -1  196.48   10.80
  -6  -3   1  203.78   10.30
  -6  -3   1  212.88   11.80
   6  -3  -1  191.58   11.40
   6  -3  -1  208.78   12.40
  -6  -3   1  197.78   10.60
  -6  -3   1  209.78   11.80
  -6  -3   1  228.98   11.50
   6  -3  -1  189.38   10.80
  -6  -3   1  201.98    9.70
  -6  -3   1  208.78   10.10
  -6  -3   1  212.58    9.60
   6  -3  -1  194.08   10.60
  -6   3   1  181.98   10.30
   6   3  -1  193.48    9.80
  -6   3   1  189.28   10.20
   6   3  -1  192.68    9.60
  -6   3   1  187.58   10.20
   6   3  -1  198.18   10.10
  -6   3   1  185.48   10.40
   6   3  -1  191.78   11.40
   6   3  -1  204.38   11.20
   6   3  -1  205.08   11.80
  -6   3   1  181.08   10.00
   6   3  -1  197.38   10.40
   6   3  -1  208.48   10.30
   6   3  -1  201.68   10.90
  -5  -3   1   54.19    4.50
   5  -3  -1   52.39    5.60
  -5  -3   1   63.99    6.60
   5  -3  -1   55.59    6.30
  -5  -3   1   63.69    5.00
  -5  -3   1   64.59    6.40
  -5  -3   1   48.20    4.20
   5  -3  -1   65.09    6.60
   5  -3  -1   60.19    5.00
   5  -3  -1   55.79    4.90
   5  -3  -1   55.89    6.40
   5   3  -1   61.09    6.30
  -5   3   1   52.59    4.70
   5   3  -1   65.99    4.60
   5   3  -1   65.89    6.90
   5   3  -1   60.69    6.00
   5   3  -1   55.59    4.70
   5   3  -1   66.59    7.00
  -5   3   1   48.30    5.20
  -5   3   1   56.99    5.60
  -5   3   1   55.59    3.70
   5   3  -1   49.00    4.30
   5   3  -1   58.19    4.40
   5   3  -1   50.89    4.40
  -5   3   1   52.69    4.50
   4  -3  -1  596.94   20.80
   4  -3  -1  623.04   20.40
   4  -3  -1  625.64   21.30
   4  -3  -1  576.44   20.70
  -4  -3   1  619.24   19.80
  -4  -3   1  636.44   20.10
   4  -3  -1  588.24   20.80
  -4  -3   1  601.14   20.60
  -4  -3   1  608.74   19.80
   4  -3  -1  596.54   21.20
   4   3  -1  616.84   21.50
   4   3  -1  601.34   19.90
  -4   3   1  600.24   21.00
  -4   3   1  636.54   20.10
   4   3  -1  581.64   19.60
  -4   3   1  597.44   20.40
   4   3  -1  619.64   20.90
   4   3  -1  640.24   21.20
   4   3  -1  597.34   20.00
   4   3  -1  644.84   19.90
   4   3  -1  646.54   20.10
   4   3  -1  614.54   20.70
  -4   3   1  607.74   19.10
   3  -3  -1  137.29    7.00
   3  -3  -1  148.29    7.00
  -3  -3   1  144.29    6.20
  -3  -3   1  157.38    6.60
   3  -3  -1  155.88    7.20
  -3  -3   1  154.58    6.90
   3  -3  -1  163.78    6.90
   3  -3  -1  159.48    7.10
   3  -3  -1  166.98    7.30
   3   3  -1  135.29    6.20
   3   3  -1  136.59    7.10
   3   3  -1  139.09    6.10
   3   3  -1  135.79    6.70
  -3   3   1  160.58    7.30
  -3   3   1  153.88    7.00
   3   3  -1  136.79    6.30
   3   3  -1  144.79    7.30
  -3   3   1  155.58    5.70
   3   3  -1  151.68    6.10
   3   3  -1  132.69    6.70
  -3   3   1  158.48    7.00
   2  -3  -1 1285.07   38.30
   2  -3  -1 1310.07   38.00
   2  -3  -1 1314.17   36.90
   2  -3  -1 1311.57   36.20
   2  -3  -1 1270.37   38.30
   2  -3  -1 1277.07   35.50
  -2  -3   1 1262.47   38.10
  -2  -3   1 1370.76   36.30
  -2  -3   1 1314.57   34.70
   2   3  -1 1306.27   38.30
   2   3  -1 1307.57   37.40
  -2   3   1 1299.57   35.30
   2   3  -1 1355.46   37.10
  -2   3   1 1303.07   37.40
  -2   3   1 1323.07   36.90
   2   3  -1 1369.56   35.90
   2   3  -1 1274.37   37.80
   2   3  -1 1288.17   35.60
   1  -3  -1  326.77    9.60
   1  -3  -1  355.06   10.50
   1  -3  -1  324.87   10.70
  -1  -3   1  333.27   10.90
   1  -3  -1  323.77   10.90
  -1  -3   1  343.67   10.20
  -1  -3   1  353.36    9.00
   1  -3  -1  326.47    9.90
   1  -3  -1  304.27   10.80
  -1   3   1  306.37   10.70
  -1   3   1  338.57   10.40
   1   3  -1  350.06   10.60
   1   3  -1  325.37   11.10
   1   3  -1  341.47   10.70
   1   3  -1  330.87   10.90
   1   3  -1  346.37   11.10
  -1   3   1  321.97   10.30
   1   3  -1  327.97   10.20
   0  -3  -1 3638.24   90.19
   0  -3  -1 3549.34   96.29
   0  -3  -1 3585.14   93.89
   0  -3   1 3538.85   97.39
   0  -3  -1 3602.74   96.89
   0  -3   1 3530.45   93.59
   0  -3   1 3446.26   93.49
   0  -3  -1 3706.53   93.09
   0  -3   1 3610.34   89.79
   0  -3  -1 3502.25   95.89
   0   3   1 3611.04   95.09
   0   3  -1 3453.95   94.49
   0   3  -1 3660.33   87.79
   0   3  -1 3438.96   97.19
   0   3   1 3431.66   97.39
   0   3  -1 3381.76   93.49
   0   3  -1 3417.56   96.49
   0   3  -1 3483.55   97.39
   0   3   1 3433.46   87.99
   1  -3   1  406.66   13.00
  -1  -3  -1  406.76   12.60
   1  -3   1  406.36   13.20
   1  -3   1  389.96   11.20
   1  -3   1  402.46   12.50
   1  -3   1  403.46   11.00
   1  -3   1  395.56   12.40
  -1  -3  -1  419.76   12.50
  -1  -3  -1  406.66   12.70
  -1  -3  -1  409.06   11.50
  -1  -3  -1  407.66   12.20
  -1   3  -1  392.96   13.30
   1   3   1  402.26   12.60
   1   3   1  397.16   12.70
  -1   3  -1  401.26   10.70
   1   3   1  422.46   13.20
   1   3   1  417.16   11.50
  -1   3  -1  393.26   13.30
  -1   3  -1  406.76   11.20
   1   3   1  412.86   11.60
  -1   3  -1  424.86   13.30
  -2  -3  -1 1131.19   32.00
   2  -3   1 1106.29   31.70
  -2  -3  -1 1130.99   31.90
  -2  -3  -1 1056.09   32.10
   2  -3   1 1117.99   31.60
   2  -3   1 1152.38   33.10
  -2  -3  -1 1079.89   31.00
  -2  -3  -1 1091.59   30.50
   2  -3   1 1125.39   32.70
  -2  -3  -1 1131.69   30.90
  -2  -3  -1 1091.09   31.30
   2   3   1 1095.39   32.20
   2   3   1 1112.59   32.80
  -2   3  -1 1108.69   32.70
  -2   3  -1 1091.89   33.10
   2   3   1 1064.19   31.50
  -2   3  -1 1081.59   32.60
  -2   3  -1 1118.09   28.10
   2   3   1 1096.89   29.40
   3  -3   1  760.62   24.50
  -3  -3  -1  780.02   24.20
   3  -3   1  792.92   25.40
  -3  -3  -1  775.32   22.50
   3  -3   1  751.22   24.90
   3  -3   1  785.92   25.20
  -3  -3  -1  788.82   24.20
  -3  -3  -1  750.32   23.40
  -3  -3  -1  738.33   22.10
   3  -3   1  779.92   22.60
  -3  -3  -1  739.33   24.30
  -3   3  -1  745.33   20.60
  -3   3  -1  754.82   24.10
   3   3   1  761.82   22.30
  -3   3  -1  768.62   24.70
  -3   3  -1  790.12   21.60
   3   3   1  749.23   23.30
   3   3   1  788.72   24.30
   3   3   1  719.33   24.30
  -3   3  -1  768.02   24.20
   3   3   1  748.83   22.10
  -4  -3  -1  218.88    7.90
   4  -3   1  195.48   10.00
   4  -3   1  225.98   11.10
  -4  -3  -1  210.08   10.10
  -4  -3  -1  221.48   10.10
  -4  -3  -1  214.68   10.40
  -4  -3  -1  219.78    9.10
   4  -3   1  203.38   10.40
   4  -3   1  195.48    7.80
  -4  -3  -1  221.88    8.20
   4  -3   1  191.38   10.50
   4  -3   1  217.68    7.90
  -4   3  -1  200.88    9.20
   4   3   1  213.38    9.30
   4   3   1  233.98    8.20
  -4   3  -1  208.78    7.80
  -4   3  -1  193.98   10.10
   4   3   1  221.58   10.40
  -4   3  -1  193.98    9.20
  -4   3  -1  215.68    7.80
   4   3   1  199.58    9.00
   4   3   1  209.68    9.30
  -4   3  -1  201.88    9.80
  -5  -3  -1   31.80    5.10
   5  -3   1   38.40    5.10
  -5  -3  -1   48.10    5.90
  -5  -3  -1   31.10    4.70
   5  -3   1   45.00    6.10
   5  -3   1   50.29    6.80
  -5  -3  -1   42.20    4.70
   5  -3   1   31.60    5.00
  -5  -3  -1   40.00    3.40
  -5  -3  -1   44.10    3.30
   5  -3   1   39.90    3.10
   5   3   1   46.50    5.10
   5   3   1   49.99    6.30
   5   3   1   40.80    5.00
   5   3   1   42.80    5.00
  -5   3  -1   40.90    3.30
   5   3   1   39.50    5.60
  -5   3  -1   43.40    4.90
  -5   3  -1   43.70    5.50
  -5   3  -1   42.50    4.00
  -5   3  -1   48.20    5.20
  -5   3  -1   37.70    5.30
  -6  -3  -1  178.08    8.60
  -6  -3  -1  176.98    8.80
   6  -3   1  173.18   12.00
  -6  -3  -1  186.68   11.40
   6  -3   1  175.58   11.70
   6  -3   1  197.08   12.00
  -6  -3  -1  184.88   10.90
  -6  -3  -1  171.78   10.70
  -6  -3  -1  197.48   10.10
  -6   3  -1  196.38   11.80
   6   3   1  167.48   10.60
   6   3   1  192.88   10.50
  -6   3  -1  199.68   10.30
  -6   3  -1  193.38   11.00
  -6   3  -1  207.68   10.60
   6   3   1  174.68    9.70
   6   3   1  206.48   10.60
   7  -3   1   72.79    9.40
  -7  -3  -1   59.19    7.80
  -7  -3  -1   68.89    9.00
   7  -3   1   76.09   10.40
   7  -3   1   63.29    8.50
  -7  -3  -1   53.99    7.40
  -7   3  -1   69.29    8.70
  -7   3  -1   65.99    7.20
   7   3   1   75.59    8.50
   7   3   1   69.09    8.40
  -7   3  -1   82.59    8.70
  -7   3  -1   80.79    9.20
   7   3   1   73.39    6.40
   8  -3   1  169.78   13.60
   8  -3   1  190.68   15.00
  -8  -3  -1  189.58   13.40
  -8  -3  -1  183.98   12.10
   8  -3   1  189.18   13.40
  -8  -3  -1  174.08   13.40
  -8  -3  -1  188.58   11.20
  -8   3  -1  200.38   14.90
  -8   3  -1  178.28   11.50
  -8   3  -1  182.38   13.00
  -8   3  -1  165.08   13.20
   8   3   1  197.08   11.70
   8   3   1  182.88   12.30
  -8   3  -1  206.78   12.40
  -8  -4   1   51.59    8.20
   8  -4  -1   43.90    8.40
  -8  -4   1   43.20    6.00
   8  -4  -1   40.00    7.80
  -8  -4   1   59.89    8.70
   8  -4  -1   42.40    7.60
  -8  -4   1   59.39    7.60
   8  -4  -1   50.79    7.80
   8   4  -1   50.49    8.10
  -8   4   1   43.60    7.90
  -8   4   1   50.19    7.70
   8   4  -1   52.59    8.20
  -8   4   1   50.39    7.40
   8   4  -1   49.10    7.00
  -8   4   1   55.69    7.50
  -7  -4   1   12.40    3.20
   7  -4  -1   21.90    5.30
  -7  -4   1   16.90    3.50
   7  -4  -1   17.50    4.40
  -7  -4   1   16.90    4.50
   7  -4  -1   24.10    4.50
   7  -4  -1   19.70    4.80
  -7  -4   1   18.20    4.80
   7  -4  -1   21.00    5.30
  -7   4   1   15.80    4.10
   7   4  -1   19.20    4.70
   7   4  -1   21.50    4.40
  -7   4   1    9.50    2.90
  -7   4   1   22.10    4.40
   7   4  -1   16.20    4.60
  -6  -4   1  125.39    8.00
   6  -4  -1  129.59    8.80
  -6  -4   1  125.49    7.50
  -6  -4   1  130.29    8.40
   6  -4  -1  118.99    8.20
  -6  -4   1  133.79    7.30
   6  -4  -1  121.99    9.10
  -6  -4   1  134.69    8.20
  -6  -4   1  128.59    6.90
  -6  -4   1  119.59    8.90
   6  -4  -1  130.49    8.30
   6  -4  -1  125.79    9.70
   6   4  -1  124.39    9.20
  -6   4   1  114.69    8.10
  -6   4   1  122.99    8.10
   6   4  -1  116.69    8.00
   6   4  -1  135.99    9.50
   6   4  -1  121.39    7.10
   6   4  -1  131.29    7.70
  -6   4   1  109.79    7.50
  -6   4   1  126.49    8.30
  -5  -4   1   78.09    5.60
   5  -4  -1   74.79    5.80
   5  -4  -1   70.29    5.90
   5  -4  -1   82.99    6.00
  -5  -4   1   81.99    5.40
   5  -4  -1   79.49    6.00
  -5  -4   1   76.49    5.50
   5  -4  -1   80.19    8.10
  -5  -4   1   79.19    5.80
   5  -4  -1   72.99    6.10
   5   4  -1   81.39    5.70
   5   4  -1   84.99    6.70
   5   4  -1   72.09    7.30
  -5   4   1   76.99    5.50
  -5   4   1   79.69    5.80
   5   4  -1   71.99    4.80
  -5   4   1   67.99    5.50
   5   4  -1   75.89    5.70
  -5   4   1   76.59    5.60
   5   4  -1   76.19    5.30
   5   4  -1   78.09    5.00
   4  -4  -1   80.19    5.30
   4  -4  -1   78.59    5.30
  -4  -4   1   65.79    4.50
  -4  -4   1   70.69    4.50
  -4  -4   1   76.89    4.90
   4  -4  -1   78.09    5.70
   4  -4  -1   74.99    5.40
   4  -4  -1   78.19    5.40
   4  -4  -1   72.69    5.30
  -4  -4   1   66.29    4.80
  -4   4   1   85.59    5.40
   4   4  -1   66.99    4.20
   4   4  -1   67.79    4.90
  -4   4   1   84.39    5.50
   4   4  -1   70.19    4.10
  -4   4   1   78.39    3.80
  -4   4   1   83.09    5.30
   4   4  -1   69.59    4.60
   4   4  -1   71.19    5.50
   4   4  -1   69.89    5.60
  -4   4   1   80.79    5.00
   4   4  -1   74.59    5.00
   3  -4  -1  560.24   18.40
   3  -4  -1  468.75   18.30
  -3  -4   1  558.74   16.80
   3  -4  -1  541.35   18.50
  -3  -4   1  550.44   18.40
   3  -4  -1  566.54   17.90
   3  -4  -1  545.45   18.00
   3  -4  -1  527.35   18.60
  -3  -4   1  558.54   16.80
  -3  -4   1  571.64   17.40
  -3   4   1  553.14   17.50
  -3   4   1  556.84   16.50
   3   4  -1  566.34   18.50
   3   4  -1  562.74   18.50
   3   4  -1  538.85   16.90
  -3   4   1  543.75   18.70
   3   4  -1  549.25   18.50
   3   4  -1  549.65   17.40
   3   4  -1  555.44   16.80
   3   4  -1  562.54   19.00
  -3   4   1  552.84   17.90
   2  -4  -1 1414.76   38.90
   2  -4  -1 1401.76   39.60
  -2  -4   1 1376.06   41.60
   2  -4  -1 1489.85   42.00
  -2  -4   1 1427.26   37.60
   2  -4  -1 1379.06   41.70
  -2  -4   1 1451.55   38.50
  -2  -4   1 1447.86   38.10
   2  -4  -1 1450.85   40.40
   2  -4  -1 1253.27   41.10
  -2  -4   1 1444.66   39.60
  -2   4   1 1447.86   40.00
   2   4  -1 1435.66   41.40
   2   4  -1 1471.15   39.10
  -2   4   1 1455.35   38.50
   2   4  -1 1427.26   40.20
  -2   4   1 1485.65   41.90
   2   4  -1 1425.46   41.60
   2   4  -1 1434.86   40.60
  -2   4   1 1466.75   40.70
   1  -4  -1  656.33   19.20
   1  -4  -1  660.23   19.20
   1  -4  -1  628.64   18.50
   1  -4  -1  612.64   17.70
   1  -4  -1  652.33   19.00
  -1  -4   1  640.34   16.70
   1  -4  -1  597.44   17.50
  -1  -4   1  632.84   18.20
   1   4  -1  627.94   18.10
  -1   4   1  617.84   19.00
  -1   4   1  598.64   18.20
  -1   4   1  577.14   18.70
  -1   4   1  619.14   17.90
   1   4  -1  628.24   19.30
   1   4  -1  629.14   18.20
   1   4  -1  629.44   19.00
   1   4  -1  621.64   19.20
   1   4  -1  617.24   18.60
   0  -4  -1  768.52   21.90
   0  -4  -1  770.52   20.90
   0  -4  -1  778.92   21.10
   0  -4  -1  790.52   21.70
   0  -4   1  749.23   20.30
   0  -4   1  745.83   21.20
   0  -4   1  780.32   21.80
   0  -4   1  752.02   22.30
   0  -4  -1  801.82   21.70
   0  -4  -1  752.32   21.50
   0   4   1  783.02   22.30
   0   4   1  787.52   21.70
   0   4   1  739.73   20.60
   0   4  -1  708.03   22.80
   0   4  -1  689.83   22.30
   0   4   1  756.42   22.30
   0   4  -1  729.73   21.50
   0   4  -1  747.13   20.30
   0   4  -1  696.43   22.30
   1  -4   1   60.69    3.40
  -1  -4  -1   48.20    2.90
  -1  -4  -1   50.99    2.30
   1  -4   1   57.89    2.70
  -1  -4  -1   50.19    3.00
   1  -4   1   54.49    3.10
   1  -4   1   62.29    3.60
   1  -4   1   59.69    2.10
  -1  -4  -1   51.59    2.90
   1   4   1   51.59    2.80
   1   4   1   48.80    3.00
  -1   4  -1   55.59    2.40
   1   4   1   53.29    3.10
  -1   4  -1   53.59    3.30
  -1   4  -1   57.49    2.20
   1   4   1   47.00    3.00
  -1   4  -1   59.69    3.50
  -1   4  -1   53.59    3.40
   2  -4   1  362.46   12.90
  -2  -4  -1  345.87   12.60
  -2  -4  -1  391.06   12.60
  -2  -4  -1  380.36   11.60
  -2  -4  -1  377.26   12.60
   2  -4   1  349.37   11.40
   2  -4   1  370.96   13.50
  -2  -4  -1  354.96   10.60
   2  -4   1  374.96   13.30
   2  -4   1  371.76   13.50
   2   4   1  372.76   12.90
  -2   4  -1  374.46   10.40
   2   4   1  373.06   11.70
   2   4   1  390.86   12.50
  -2   4  -1  364.66   12.90
   2   4   1  372.26   12.90
  -2   4  -1  383.16   13.20
  -2   4  -1  349.17   13.10
  -3  -4  -1  261.07   10.70
   3  -4   1  266.77   11.20
  -3  -4  -1  266.57   10.70
   3  -4   1  258.57    8.50
  -3  -4  -1  252.37    8.50
   3  -4   1  272.57   11.70
  -3  -4  -1  270.37    9.50
  -3  -4  -1  259.17    8.30
  -3  -4  -1  257.17   10.40
   3  -4   1  263.47   11.30
   3  -4   1  254.27   11.20
  -3   4  -1  258.67    8.20
   3   4   1  254.37    9.70
   3   4   1  258.47    8.30
  -3   4  -1  250.67   10.70
   3   4   1  264.47   10.10
   3   4   1  272.27   10.50
   3   4   1  251.37   10.70
  -3   4  -1  253.17   10.40
  -3   4  -1  262.77   10.50
  -4  -4  -1  343.57   14.20
  -4  -4  -1  383.36   14.30
  -4  -4  -1  340.17   14.20
   4  -4   1  357.06   14.80
   4  -4   1  323.97   14.70
   4  -4   1  344.37   15.20
  -4  -4  -1  359.96   11.90
  -4  -4  -1  347.77   11.60
  -4  -4  -1  364.96   12.90
   4  -4   1  339.07   11.50
  -4   4  -1  362.26   14.00
   4   4   1  371.06   13.80
  -4   4  -1  358.16   11.20
  -4   4  -1  349.27   13.80
  -4   4  -1  362.66   14.50
   4   4   1  339.47   13.70
   4   4   1  339.47   14.20
  -4   4  -1  359.66   11.30
   4   4   1  362.06   13.40
   4   4   1  355.66   11.70
  -5  -4  -1    9.10    2.20
  -5  -4  -1   11.10    2.10
  -5  -4  -1    4.90    2.10
   5  -4   1    6.10    2.40
  -5  -4  -1    5.90    2.40
  -5  -4  -1    7.40    2.50
   5  -4   1   11.30    3.30
  -5  -4  -1    9.40    1.80
   5  -4   1    9.20    3.00
   5  -4   1    9.40    2.80
  -5   4  -1    8.60    2.80
   5   4   1    9.80    2.70
  -5   4  -1    6.00    2.20
   5   4   1    7.40    2.50
   5   4   1   12.60    2.90
  -5   4  -1    7.70    1.80
  -5   4  -1    5.60    1.90
  -5   4  -1    5.30    2.30
   5   4   1    7.20    2.20
   6  -4   1   36.30    6.20
   6  -4   1   44.30    6.80
   6  -4   1   40.70    6.50
  -6  -4  -1   36.50    4.80
  -6  -4  -1   39.30    6.20
  -6  -4  -1   36.20    5.80
  -6  -4  -1   41.70    6.10
   6  -4   1   35.80    5.90
  -6   4  -1   45.80    5.90
  -6   4  -1   40.70    6.20
  -6   4  -1   35.80    5.90
   6   4   1   29.40    5.00
   6   4   1   42.80    5.80
   6   4   1   35.10    4.80
   6   4   1   46.40    6.10
  -6   4  -1   34.60    4.90
   7  -4   1   22.60    5.60
  -7  -4  -1   26.30    5.40
  -7  -4  -1   23.20    4.70
  -7  -4  -1   29.30    6.00
   7  -4   1   27.70    6.70
   7  -4   1   25.30    5.80
   7   4   1   20.50    4.70
  -7   4  -1   30.40    5.30
   7   4   1   24.30    5.10
  -7   4  -1   23.70    4.80
  -7   4  -1   21.30    5.50
   7   4   1   19.00    4.00
  -7   4  -1   30.80    5.90
  -8  -4  -1   17.90    4.20
   8  -4   1   11.40    5.00
  -8  -4  -1   18.90    5.30
   8  -4   1   24.00    6.50
  -8  -4  -1   17.10    4.60
  -8   4  -1   14.30    4.20
  -8   4  -1   25.70    5.30
  -8   4  -1   22.90    6.50
  -8   4  -1   18.00    5.30
  -8   4  -1   10.60    4.10
   8   4   1   13.30    4.30
   8   4   1   11.90    3.70
   7  -5  -1    3.00    2.40
   7  -5  -1    4.60    3.40
  -7  -5   1    2.80    2.00
  -7  -5   1    2.00    2.40
  -7  -5   1    9.70    3.20
   7  -5  -1    6.30    3.20
   7  -5  -1    5.00    2.50
   7  -5  -1    3.90    3.00
  -7   5   1    4.10    2.40
  -7   5   1    3.10    2.30
  -7   5   1    7.20    2.80
   7   5  -1    3.10    2.90
   7   5  -1    3.60    3.00
   7   5  -1    4.80    2.70
  -6  -5   1  138.29    8.00
   6  -5  -1  137.09   10.20
   6  -5  -1  138.49    9.50
   6  -5  -1  144.49    9.10
  -6  -5   1  145.69    8.90
   6  -5  -1  140.79    9.20
  -6  -5   1  135.89    8.40
   6  -5  -1  134.79    9.70
  -6   5   1  141.99    9.00
   6   5  -1  141.19    9.90
  -6   5   1  129.69    8.70
  -6   5   1  150.18    8.60
  -6   5   1  144.79    8.90
   6   5  -1  134.59    9.80
   6   5  -1  148.89    9.10
  -5  -5   1   24.70    3.70
  -5  -5   1   25.30    3.60
   5  -5  -1   23.90    3.90
   5  -5  -1   28.60    4.90
   5  -5  -1   30.10    4.80
  -5  -5   1   24.80    3.60
  -5  -5   1   15.30    3.00
   5  -5  -1   21.80    3.80
   5  -5  -1   19.50    3.80
  -5  -5   1   28.00    3.20
   5  -5  -1   20.70    3.80
   5   5  -1   15.00    3.30
   5   5  -1   23.90    4.50
  -5   5   1   19.30    3.40
  -5   5   1   19.70    3.50
  -5   5   1   21.00    3.60
   5   5  -1   18.00    2.70
   5   5  -1   21.50    3.20
   5   5  -1   26.70    3.30
   5   5  -1   14.30    3.60
  -5   5   1   24.80    3.60
   4  -5  -1  249.18   11.20
   4  -5  -1  271.07   11.70
  -4  -5   1  254.27   10.20
  -4  -5   1  253.37   11.00
   4  -5  -1  264.27   11.10
  -4  -5   1  253.97   10.00
   4  -5  -1  259.97   11.50
   4  -5  -1  275.77   11.90
   4  -5  -1  223.28   10.90
  -4  -5   1  262.67    9.90
  -4   5   1  265.47    8.60
  -4   5   1  262.27   10.50
  -4   5   1  247.58   10.80
   4   5  -1  245.48    9.60
   4   5  -1  246.88    9.30
   4   5  -1  256.07   11.80
  -4   5   1  260.87   10.70
   4   5  -1  248.28   11.70
  -4   5   1  243.78   11.10
   4   5  -1  248.88   11.10
   4   5  -1  263.07   10.80
  -3  -5   1   83.59    5.00
   3  -5  -1   85.99    5.20
   3  -5  -1   77.19    5.00
   3  -5  -1   74.19    5.00
   3  -5  -1   78.39    5.00
   3  -5  -1   83.19    5.20
  -3  -5   1   83.59    4.20
  -3  -5   1   84.69    4.60
   3  -5  -1   83.39    4.90
  -3  -5   1   79.89    3.80
   3   5  -1   85.79    4.30
   3   5  -1   85.29    3.80
   3   5  -1   86.99    5.70
  -3   5   1   77.69    4.90
  -3   5   1   75.19    4.90
   3   5  -1   89.19    5.00
  -3   5   1   77.99    4.60
  -3   5   1   77.39    3.20
  -3   5   1   76.69    4.80
   3   5  -1   81.79    5.00
   3   5  -1   77.29    5.30
   2  -5  -1   49.30    3.20
   2  -5  -1   52.09    3.50
   2  -5  -1   48.60    3.50
  -2  -5   1   52.09    3.20
   2  -5  -1   47.80    3.30
  -2  -5   1   53.99    2.70
  -2  -5   1   51.79    3.50
   2  -5  -1   47.80    1.90
   2  -5  -1   51.79    3.60
   2  -5  -1   49.50    3.50
  -2   5   1   50.19    3.50
   2   5  -1   53.29    3.00
   2   5  -1   52.49    2.40
   2   5  -1   55.69    3.70
   2   5  -1   49.99    3.40
  -2   5   1   51.99    3.30
   2   5  -1   51.39    3.80
  -2   5   1   52.49    3.50
  -2   5   1   42.80    2.00
   2   5  -1   56.39    3.90
   1  -5  -1  424.76   12.90
   1  -5  -1  448.26   14.10
  -1  -5   1  447.66   12.20
  -1  -5   1  429.46   14.10
   1  -5  -1  422.06   13.10
   1  -5  -1  412.06   13.60
   1  -5  -1  429.26   13.90
   1  -5  -1  446.86   14.10
  -1  -5   1  418.96   13.40
   1   5  -1  447.46   14.30
   1   5  -1  422.86   13.50
  -1   5   1  443.76   14.00
  -1   5   1  414.06   13.00
   1   5  -1  433.66   13.60
  -1   5   1  422.66   13.90
   1   5  -1  432.56   14.30
   1   5  -1  432.46   13.00
  -1   5   1  446.16   13.50
   1   5  -1  428.66   14.10
   0  -5   1 2060.59   57.49
   0  -5   1 2154.28   54.89
   0  -5   1 2085.69   56.89
   0  -5  -1 2179.48   57.49
   0  -5  -1 2208.98   58.19
   0  -5  -1 2213.38   58.89
   0  -5  -1 2225.18   55.39
   0  -5  -1 2123.69   56.69
   0  -5   1 2109.89   59.49
   0   5  -1 2107.59   59.49
   0   5  -1 2116.69   53.99
   0   5   1 2186.18   58.59
   0   5  -1 2034.20   57.69
   0   5   1 2079.59   54.19
   0   5  -1 2010.90   59.99
   0   5   1 2108.39   58.39
   0   5   1 2032.20   59.19
   0   5  -1 1990.50   59.19
   1  -5   1   73.49    4.20
  -1  -5  -1   69.99    2.80
  -1  -5  -1   67.69    3.60
  -1  -5  -1   67.99    3.50
  -1  -5  -1   72.39    3.70
   1  -5   1   79.39    3.40
   1  -5   1   69.79    3.80
   1  -5   1   74.79    4.00
  -1   5  -1   77.19    2.90
  -1   5  -1   71.39    4.20
  -1   5  -1   70.19    3.10
  -1   5  -1   74.59    4.20
   1   5   1   73.39    3.70
   1   5   1   70.49    2.50
   1   5   1   68.89    3.80
  -1   5  -1   71.59    4.30
   1   5   1   66.59    2.60
   1   5   1   71.29    3.90
  -2  -5  -1  694.03   21.90
   2  -5   1  743.23   22.80
   2  -5   1  747.83   22.30
  -2  -5  -1  742.73   21.60
   2  -5   1  706.53   23.30
   2  -5   1  707.23   20.80
  -2  -5  -1  727.43   20.60
  -2  -5  -1  694.83   21.40
   2  -5   1  738.83   23.10
   2   5   1  725.83   22.70
  -2   5  -1  744.73   19.20
   2   5   1  696.53   22.10
   2   5   1  703.23   20.60
  -2   5  -1  720.03   23.10
  -2   5  -1  721.43   22.80
  -2   5  -1  672.33   22.80
   2   5   1  683.73   21.90
  -3  -5  -1   92.19    3.80
   3  -5   1   92.99    3.70
  -3  -5  -1  101.09    5.50
  -3  -5  -1  100.59    3.60
   3  -5   1   93.79    6.10
   3  -5   1  104.59    6.40
   3  -5   1   92.79    6.20
   3  -5   1  102.29    6.60
  -3  -5  -1   97.69    5.80
  -3  -5  -1  108.69    4.70
  -3  -5  -1  104.69    5.90
   3   5   1  102.29    3.70
  -3   5  -1   89.59    5.60
   3   5   1   99.79    5.70
  -3   5  -1   94.29    5.90
   3   5   1  103.19    5.90
  -3   5  -1   96.49    4.10
   3   5   1  101.99    5.60
   3   5   1   96.79    5.40
  -3   5  -1   99.19    5.80
  -4  -5  -1   10.50    1.40
   4  -5   1    8.70    2.60
   4  -5   1   10.90    3.00
   4  -5   1    9.60    1.30
  -4  -5  -1   12.40    2.10
  -4  -5  -1    7.80    2.20
   4  -5   1    9.00    2.70
  -4  -5  -1    6.10    1.90
  -4  -5  -1    8.50    1.40
  -4  -5  -1   11.30    2.60
   4  -5   1   10.50    2.70
   4   5   1    9.00    2.40
   4   5   1   12.50    2.70
  -4   5  -1   10.00    2.30
   4   5   1   11.10    2.50
  -4   5  -1    7.10    2.20
   4   5   1    9.50    1.40
   4   5   1    9.30    2.20
  -4   5  -1    6.10    2.10
   5  -5   1  103.79   10.20
  -5  -5  -1  107.29    6.10
  -5  -5  -1  112.79    7.20
   5  -5   1   95.99    7.50
  -5  -5  -1   98.49    7.10
  -5  -5  -1  103.39    7.10
   5  -5   1   88.99    9.30
   5  -5   1  103.19    8.10
   5   5   1  102.19    7.00
  -5   5  -1   98.19    7.60
   5   5   1   88.69    6.60
  -5   5  -1   98.99    6.80
  -5   5  -1   93.19    7.10
  -5   5  -1   94.39    6.70
   5   5   1  104.69    7.30
   5   5   1   91.79    6.50
  -6  -5  -1  127.89    8.70
   6  -5   1  140.59   10.30
   6  -5   1  142.69   11.00
  -6  -5  -1  150.88    9.30
   6  -5   1  135.59   10.10
  -6  -5  -1  157.78    9.80
  -6   5  -1  129.69    9.20
   6   5   1  123.59    8.40
  -6   5  -1  137.09    9.00
  -6   5  -1  139.59    8.90
   6   5   1  124.09    8.80
   6   5   1  136.69    9.10
  -6   5  -1  143.09   10.20
   6   5   1  117.99    8.60
  -7  -5  -1   22.60    4.80
   7  -5   1   46.80    7.80
   7  -5   1   28.80    6.50
  -7  -5  -1   41.20    6.70
   7  -5   1   28.30    6.90
  -7   5  -1   26.80    6.00
   7   5   1   41.50    6.50
   7   5   1   35.80    6.00
  -7   5  -1   26.70    5.60
   7   5   1   37.90    5.70
  -7   5  -1   29.40    5.20
  -7   5  -1   27.50    5.10
  -7  -6   1    6.00    3.20
   7  -6  -1    4.00    2.90
   7  -6  -1    5.60    3.60
  -7  -6   1    3.80    1.90
   7  -6  -1    3.00    2.50
   7  -6  -1    4.40    2.70
  -7  -6   1    1.30    2.10
   7   6  -1    8.60    3.80
   7   6  -1    3.40    3.00
  -7   6   1    5.10    2.50
  -7   6   1    1.10    1.90
  -7   6   1    4.80    2.70
   7   6  -1    5.00    2.80
   6  -6  -1   62.69    7.50
   6  -6  -1   54.59    7.50
  -6  -6   1   72.69    7.60
   6  -6  -1   56.79    6.70
   6  -6  -1   68.19    8.90
  -6  -6   1   65.59    5.50
   6  -6  -1   72.29    7.90
   6   6  -1   68.69    8.30
  -6   6   1   54.29    6.40
   6   6  -1   53.59    7.40
  -6   6   1   62.89    7.60
   6   6  -1   67.19    7.40
  -6   6   1   58.39    6.20
  -6   6   1   62.09    7.00
  -5  -6   1   13.90    2.80
  -5  -6   1    9.50    2.50
   5  -6  -1   12.60    3.00
   5  -6  -1   10.70    2.80
  -5  -6   1    9.80    2.40
   5  -6  -1   10.80    3.10
   5  -6  -1   10.90    3.10
   5  -6  -1   12.00    3.10
   5  -6  -1   12.60    3.70
  -5   6   1   14.30    3.30
   5   6  -1   15.20    2.80
   5   6  -1   13.90    3.60
  -5   6   1    9.60    2.60
  -5   6   1   11.30    2.90
   5   6  -1   11.10    2.90
  -5   6   1   13.70    3.10
   5   6  -1   14.30    3.70
   4  -6  -1    3.30    1.70
   4  -6  -1    0.60    1.30
  -4  -6   1    2.30    1.20
  -4  -6   1    1.90    1.20
  -4  -6   1    3.20    1.20
   4  -6  -1    1.50    1.40
   4  -6  -1    0.80    1.30
   4  -6  -1    1.90    1.30
   4  -6  -1    1.40    1.40
  -4  -6   1    0.70    1.10
  -4   6   1    1.30    1.10
  -4   6   1    0.40    1.00
   4   6  -1    2.00    0.90
   4   6  -1    3.30    1.80
   4   6  -1    2.50    1.30
   4   6  -1    2.40    1.70
   4   6  -1    3.10    1.60
  -4   6   1    1.60    1.20
   4   6  -1    1.70    0.90
  -4   6   1    1.60    1.30
   3  -6  -1  101.49    6.00
  -3  -6   1  111.59    5.00
   3  -6  -1  104.59    6.10
   3  -6  -1  104.79    5.90
  -3  -6   1  113.79    4.20
   3  -6  -1   99.19    6.00
  -3  -6   1  107.69    5.50
  -3  -6   1  109.99    6.10
   3  -6  -1  103.89    6.20
   3   6  -1  111.89    5.00
   3   6  -1  109.39    6.20
   3   6  -1  101.19    6.40
   3   6  -1  105.69    4.20
  -3   6   1  106.89    5.50
  -3   6   1  109.39    6.20
  -3   6   1  104.49    5.90
  -3   6   1  115.19    6.00
   3   6  -1  104.39    6.50
   3   6  -1  102.29    5.70
   2  -6  -1  439.96   15.40
  -2  -6   1  426.66   15.20
  -2  -6   1  436.76   14.30
   2  -6  -1  396.86   15.10
  -2  -6   1  452.25   13.00
   2  -6  -1  448.66   15.00
   2  -6  -1  455.85   15.30
   2  -6  -1  440.46   14.30
   2  -6  -1  425.86   14.40
   2   6  -1  446.96   15.60
   2   6  -1  438.96   15.10
   2   6  -1  445.76   15.50
  -2   6   1  437.16   14.30
   2   6  -1  426.46   12.90
  -2   6   1  454.75   14.70
   2   6  -1  460.85   14.10
  -2   6   1  431.16   14.80
   2   6  -1  450.65   15.10
  -2   6   1  455.75   15.40
   1  -6  -1   45.90    3.00
   1  -6  -1   48.70    3.10
   1  -6  -1   46.80    3.00
   1  -6  -1   43.80    3.00
   1  -6  -1   45.00    3.10
  -1  -6   1   47.70    2.40
  -1  -6   1   43.30    2.90
   1  -6  -1   46.30    2.70
  -1  -6   1   41.30    3.00
  -1   6   1   45.90    3.20
  -1   6   1   42.50    2.30
  -1   6   1   49.10    3.00
   1   6  -1   43.10    3.10
   1   6  -1   45.90    3.20
   1   6  -1   39.20    2.80
  -1   6   1   42.60    3.00
   1   6  -1   44.20    2.40
   1   6  -1   41.60    3.20
  -1   6   1   44.50    3.00
   1   6  -1   45.80    3.20
   0  -6   1 1033.80   29.60
   0  -6  -1  992.10   28.50
   0  -6   1 1015.50   27.30
   0  -6  -1  967.20   28.50
   0  -6  -1  981.30   27.70
   0  -6  -1  946.91   28.90
   0  -6   1 1023.70   28.10
   0  -6   1 1060.09   29.20
   0  -6  -1  977.70   28.10
   0   6   1  987.90   29.30
   0   6  -1 1023.30   27.30
   0   6  -1  991.80   29.90
   0   6   1  995.80   29.00
   0   6  -1  965.30   28.70
   0   6   1 1039.40   27.70
   0   6  -1 1055.39   30.70
   0   6  -1  964.00   29.60
   0   6   1  986.70   29.30
   0   6   1 1045.00   28.50
   1  -6   1  370.06   12.50
   1  -6   1  351.46   12.70
  -1  -6  -1  367.26   12.10
  -1  -6  -1  381.76   11.90
   1  -6   1  364.26   11.80
   1  -6   1  361.86   12.10
  -1  -6  -1  406.56   11.00
  -1  -6  -1  370.06   11.90
   1   6   1  358.06   11.10
   1   6   1  348.57   11.70
  -1   6  -1  352.86   12.90
  -1   6  -1  374.56   11.10
  -1   6  -1  364.56   13.40
   1   6   1  382.96   12.70
  -1   6  -1  340.07   11.00
  -1   6  -1  349.37   13.00
   1   6   1  375.26   12.60
  -2  -6  -1   46.80    3.40
   2  -6   1   40.50    1.90
   2  -6   1   47.00    4.60
   2  -6   1   36.70    4.00
  -2  -6  -1   40.50    3.10
   2  -6   1   37.80    2.20
  -2  -6  -1   48.20    3.10
   2  -6   1   35.10    3.80
   2   6   1   43.90    3.40
  -2   6  -1   42.40    3.60
  -2   6  -1   43.40    2.50
   2   6   1   46.10    3.30
  -2   6  -1   33.00    3.60
   2   6   1   47.70    3.40
  -2   6  -1   42.50    3.60
   3  -6   1   57.29    5.90
  -3  -6  -1   56.69    4.20
  -3  -6  -1   57.99    2.80
   3  -6   1   36.30    4.60
   3  -6   1   53.29    5.50
  -3  -6  -1   56.09    3.80
  -3  -6  -1   45.10    4.60
   3  -6   1   51.59    4.60
   3  -6   1   47.90    2.10
  -3   6  -1   52.19    4.30
   3   6   1   52.09    4.10
   3   6   1   54.09    4.10
   3   6   1   55.19    4.10
  -3   6  -1   48.20    4.10
  -3   6  -1   52.29    2.90
   3   6   1   56.39    4.30
  -3   6  -1   53.19    4.40
   4  -6   1  247.98   12.60
   4  -6   1  266.77   13.00
  -4  -6  -1  245.18   11.30
  -4  -6  -1  280.77    9.90
  -4  -6  -1  256.77   11.50
   4  -6   1  276.87   12.90
  -4  -6  -1  264.17   11.10
   4  -6   1  258.37   12.70
  -4   6  -1  262.27   11.80
   4   6   1  265.17   11.40
  -4   6  -1  262.37   12.20
   4   6   1  263.57   11.70
   4   6   1  261.07   11.50
   4   6   1  251.27   11.40
  -4   6  -1  261.97   11.80
  -4   6  -1  269.37    9.10
   5  -6   1  105.59    8.40
  -5  -6  -1  119.19    7.60
   5  -6   1  100.29    8.40
   5  -6   1  111.89    8.70
  -5  -6  -1  120.49    7.40
   5  -6   1  121.29    8.60
  -5  -6  -1  105.49    7.50
  -5   6  -1  110.49    7.90
   5   6   1  110.49    7.30
   5   6   1  104.29    7.40
   5   6   1  109.19    7.60
   5   6   1  104.69    7.30
  -5   6  -1  111.49    7.60
  -5   6  -1  113.29    7.50
  -6  -6  -1   71.99    7.50
   6  -6   1   86.69    9.70
   6  -6   1   70.59    8.80
  -6  -6  -1   52.39    6.70
   6  -6   1   66.39    8.80
  -6  -6  -1   72.09    7.90
  -6   6  -1   68.09    7.40
   6   6   1   80.19    8.20
   6   6   1   68.89    7.80
  -6   6  -1   55.39    7.00
   6   6   1   52.49    6.30
  -6   6  -1   58.39    7.60
   6   6   1   68.39    7.50
  -6   6  -1   54.19    6.50
  -7  -6  -1    4.70    2.60
   7  -6   1    1.20    3.30
  -7  -6  -1    7.40    3.00
   7  -6   1    9.40    4.30
   7  -6   1    6.10    4.00
   7   6   1    7.80    3.10
   7   6   1   12.60    3.80
  -7   6  -1    6.90    3.00
  -7   6  -1    4.40    3.00
   7   6   1   10.90    4.00
   7   6   1   10.10    3.40
  -7   6  -1    9.20    3.30
  -7   6  -1   13.10    4.70
   7  -7  -1    4.30    3.50
   7  -7  -1    4.10    3.30
  -7  -7   1    2.50    2.70
   7  -7  -1    4.60    3.60
   7  -7  -1    5.70    3.10
  -7  -7   1    2.00    2.10
  -7  -7   1    4.70    2.40
   7   7  -1    1.10    3.10
   7   7  -1    4.00    2.50
  -7   7   1    1.50    2.30
  -7   7   1    4.40    2.90
   7   7  -1    5.30    3.30
  -7   7   1    7.60    3.10
   6  -7  -1  133.09    9.70
   6  -7  -1  137.29    9.50
  -6  -7   1  126.59    8.00
   6  -7  -1  132.79   10.60
  -6  -7   1  141.69    9.20
   6  -7  -1  142.29   10.30
   6   7  -1  129.99    9.20
  -6   7   1  151.18    9.60
  -6   7   1  136.69    8.20
   6   7  -1  124.59    9.80
  -6   7   1  141.39    9.50
  -6   7   1  137.29    9.10
   6   7  -1  129.79   10.00
   5  -7  -1   49.00    5.90
   5  -7  -1   44.00    6.30
  -5  -7   1   39.90    4.60
   5  -7  -1   39.20    5.20
   5  -7  -1   42.90    5.90
   5  -7  -1   49.00    6.40
  -5  -7   1   50.19    5.90
  -5  -7   1   46.80    4.80
  -5   7   1   59.19    6.40
  -5   7   1   40.50    5.10
  -5   7   1   42.90    5.40
   5   7  -1   55.29    6.20
  -5   7   1   43.60    4.90
   5   7  -1   35.90    5.50
   5   7  -1   50.89    6.70
   4  -7  -1   98.09    6.90
   4  -7  -1   97.49    6.60
   4  -7  -1   98.99    6.50
  -4  -7   1   94.19    5.20
  -4  -7   1   87.09    6.10
   4  -7  -1  102.79    6.60
   4  -7  -1   88.29    6.50
   4  -7  -1   87.69    6.70
  -4  -7   1   93.69    5.70
   4   7  -1   96.29    5.90
   4   7  -1   99.99    7.20
  -4   7   1   98.69    6.00
  -4   7   1   98.89    5.50
   4   7  -1   87.79    6.30
  -4   7   1   95.09    6.30
   4   7  -1  102.69    7.20
  -4   7   1  102.69    6.60
   3  -7  -1  145.69    7.70
   3  -7  -1  136.39    7.70
   3  -7  -1  147.29    7.40
  -3  -7   1  150.68    6.20
   3  -7  -1  154.78    7.80
   3  -7  -1  163.38    7.90
  -3  -7   1  143.69    7.60
  -3  -7   1  152.28    7.00
   3  -7  -1  162.28    8.00
   3   7  -1  147.09    6.10
  -3   7   1  152.18    7.20
   3   7  -1  148.59    7.30
   3   7  -1  149.19    8.20
  -3   7   1  140.49    7.50
   3   7  -1  149.39    8.10
  -3   7   1  155.48    7.60
   3   7  -1  139.69    5.20
  -3   7   1  155.48    7.00
   3   7  -1  148.19    7.80
   2  -7  -1  161.68    7.30
   2  -7  -1  163.18    7.40
   2  -7  -1  161.58    7.60
   2  -7  -1  156.58    7.30
  -2  -7   1  153.18    6.90
  -2  -7   1  167.18    7.60
  -2  -7   1  166.38    6.00
   2  -7  -1  156.88    6.90
  -2   7   1  164.48    7.00
  -2   7   1  158.08    7.10
   2   7  -1  167.88    7.90
   2   7  -1  163.28    7.80
  -2   7   1  159.48    7.30
   2   7  -1  161.98    7.70
  -2   7   1  158.48    7.50
   2   7  -1  155.48    7.20
   2   7  -1  166.18    6.40
   1  -7  -1  144.79    6.30
  -1  -7   1  138.89    5.30
  -1  -7   1  139.79    6.40
   1  -7  -1  130.89    6.10
   1  -7  -1  149.39    5.90
   1  -7  -1  159.48    6.40
   1  -7  -1  134.99    6.00
   1   7  -1  146.89    6.50
  -1   7   1  132.39    5.20
   1   7  -1  145.99    5.30
   1   7  -1  155.48    6.80
  -1   7   1  140.89    6.30
   1   7  -1  139.19    6.50
  -1   7   1  141.99    6.10
  -1   7   1  134.29    6.20
   1   7  -1  137.69    6.00
  -1   7   1  132.09    6.10
   1   7  -1  132.29    6.50
   0  -7   1 1523.35   42.70
   0  -7   1 1544.25   41.50
   0  -7  -1 1573.34   43.60
   0  -7   1 1521.65   44.80
   0  -7  -1 1583.84   43.30
   0  -7  -1 1617.34   43.00
   0  -7  -1 1569.04   44.00
   0  -7   1 1552.54   43.80
   0  -7  -1 1552.64   41.90
   0   7  -1 1457.95   44.70
   0   7   1 1540.95   44.50
   0   7  -1 1641.44   43.80
   0   7   1 1593.34   41.50
   0   7   1 1588.44   43.50
   0   7  -1 1578.34   46.00
   0   7   1 1584.94   44.30
   0   7  -1 1528.45   41.10
   0   7  -1 1456.95   44.80
   0   7   1 1459.45   44.00
  -1  -7  -1  321.17   11.40
   1  -7   1  336.37   11.90
   1  -7   1  345.87   11.30
  -1  -7  -1  333.47   11.30
  -1  -7  -1  356.46   10.20
   1  -7   1  354.06   11.80
   1  -7   1  340.17   12.50
  -1  -7  -1  341.47   11.20
   1   7   1  330.47   10.70
   1   7   1  336.37   10.00
  -1   7  -1  320.67   12.40
   1   7   1  338.37   11.50
  -1   7  -1  348.17   10.70
  -1   7  -1  341.27   10.80
   1   7   1  363.36   12.30
  -1   7  -1  330.27   12.70
  -1   7  -1  329.87   13.00
   1   7   1  341.87   12.10
  -2  -7  -1    0.40    0.70
   2  -7   1    1.60    1.30
  -2  -7  -1    0.50    0.80
   2  -7   1    0.50    0.60
   2  -7   1    0.80    0.90
  -2  -7  -1    2.20    1.00
   2  -7   1    0.60    1.00
  -2   7  -1    1.00    1.00
  -2   7  -1    0.70    0.50
  -2   7  -1    0.80    1.00
   2   7   1    0.30    0.90
  -2   7  -1    1.10    0.70
   2   7   1    2.50    1.20
  -2   7  -1    1.60    1.20
   2   7   1    1.80    1.00
  -3  -7  -1   41.30    3.30
  -3  -7  -1   42.20    4.30
  -3  -7  -1   32.50    3.80
   3  -7   1   24.10    3.70
   3  -7   1   35.30    4.70
   3  -7   1   47.60    5.60
   3  -7   1   32.80    4.50
  -3   7  -1   33.30    2.40
  -3   7  -1   34.70    4.30
   3   7   1   36.60    4.20
   3   7   1   39.10    4.30
  -3   7  -1   33.80    4.00
  -3   7  -1   32.00    4.00
   3   7   1   47.20    4.70
  -4  -7  -1  104.89    6.10
  -4  -7  -1   95.59    6.40
   4  -7   1  101.29    7.40
   4  -7   1  108.49    7.70
  -4  -7  -1  103.79    6.60
   4  -7   1  116.39    8.10
   4  -7   1   99.59    7.60
  -4   7  -1  107.59    5.00
   4   7   1  106.79    6.80
   4   7   1   96.09    6.50
  -4   7  -1  111.39    7.40
  -4   7  -1  102.99    6.90
   4   7   1  100.09    6.60
  -4   7  -1   96.39    6.70
   5  -7   1   49.20    7.00
  -5  -7  -1   59.19    6.00
   5  -7   1   48.20    6.90
   5  -7   1   59.99    7.50
  -5  -7  -1   54.89    6.10
  -5  -7  -1   52.49    6.20
   5  -7   1   56.79    7.60
   5   7   1   51.69    6.10
  -5   7  -1   45.00    5.60
   5   7   1   47.80    5.80
  -5   7  -1   60.49    7.00
   5   7   1   40.30    5.30
   5   7   1   49.50    6.00
  -5   7  -1   60.39    6.70
   6  -7   1   70.49    9.30
   6  -7   1   99.39   11.00
  -6  -7  -1   68.89    7.40
  -6  -7  -1   67.19    7.60
   6  -7   1   84.49    9.80
  -6   7  -1   81.19    8.60
   6   7   1   81.39    8.70
   6   7   1   72.29    8.10
  -6   7  -1   73.99    8.40
   6   7   1   81.59    7.00
  -6   7  -1   88.89    7.50
   6   7   1   79.59    8.40
  -6   7  -1   62.99    8.30
   7  -7   1    8.20    4.20
   7  -7   1   21.30    6.10
  -7  -7  -1    7.70    3.40
  -7  -7  -1   12.60    3.50
  -7   7  -1   14.20    4.60
  -7   7  -1   10.40    4.00
   7   7   1    9.90    3.60
  -7   7  -1    7.90    3.10
   7   7   1   11.10    3.70
   7   7   1   11.30    4.10
  -7   7  -1   13.10    4.00
   7  -8  -1    5.50    4.20
   7  -8  -1    2.90    2.60
   7  -8  -1    2.90    3.20
  -7  -8   1    7.50    3.30
  -7  -8   1   -0.30    1.90
   7  -8  -1   -0.70    2.30
   7   8  -1    8.80    3.60
  -7   8   1    5.30    2.90
  -7   8   1    5.10    3.10
  -7   8   1    6.60    3.10
   7   8  -1   -0.80    2.50
   7   8  -1    0.70    2.80
   6  -8  -1   58.79    8.20
   6  -8  -1   63.99    7.80
  -6  -8   1   61.19    6.40
   6  -8  -1   51.09    7.20
  -6  -8   1   77.49    8.40
   6  -8  -1   56.29    8.40
  -6   8   1   55.29    7.10
   6   8  -1   69.99    8.00
  -6   8   1   67.09    7.50
   6   8  -1   52.99    7.60
  -6   8   1   49.99    7.00
   6   8  -1   64.19    8.20
   5  -8  -1   89.29    7.60
  -5  -8   1  109.19    7.60
   5  -8  -1  102.49    7.90
   5  -8  -1   99.79    8.20
  -5  -8   1  104.89    6.70
   5  -8  -1  107.99    7.80
  -5   8   1  104.39    7.40
  -5   8   1  106.49    7.70
   5   8  -1  102.49    9.90
  -5   8   1  100.39    7.40
   5   8  -1  104.59    8.10
  -5   8   1  100.09    6.60
   5   8  -1  103.29    7.60
  -4  -8   1   22.70    3.40
  -4  -8   1   20.10    2.80
   4  -8  -1   21.20    3.80
   4  -8  -1   20.00    3.80
  -4  -8   1   30.70    4.40
   4  -8  -1   25.90    4.10
   4  -8  -1   23.10    4.30
   4  -8  -1   21.40    4.00
  -4   8   1   20.80    3.20
   4   8  -1   27.20    4.30
   4   8  -1   20.60    4.10
  -4   8   1   21.90    3.60
  -4   8   1   23.60    3.10
   4   8  -1   24.80    4.40
   4   8  -1   27.50    3.70
  -4   8   1   19.30    3.30
   3  -8  -1  103.09    6.50
  -3  -8   1  100.29    6.30
   3  -8  -1   95.59    6.30
   3  -8  -1  109.39    6.60
  -3  -8   1  108.09    5.90
   3  -8  -1  103.09    6.20
   3  -8  -1   99.09    6.50
  -3  -8   1   99.79    4.90
  -3   8   1  103.79    5.90
   3   8  -1  106.39    4.80
   3   8  -1  101.89    6.80
   3   8  -1  107.59    7.00
   3   8  -1  101.79    6.50
  -3   8   1  109.49    6.60
  -3   8   1  102.19    6.10
   3   8  -1  102.89    5.90
  -3   8   1   98.59    5.40
   2  -8  -1   26.10    3.10
  -2  -8   1   23.70    2.80
   2  -8  -1   25.20    3.30
  -2  -8   1   30.80    2.20
   2  -8  -1   26.50    3.40
   2  -8  -1   20.80    3.00
   2  -8  -1   32.80    3.90
  -2  -8   1   27.70    3.50
  -2   8   1   23.40    3.00
   2   8  -1   23.10    3.10
   2   8  -1   27.30    3.30
   2   8  -1   34.30    4.10
   2   8  -1   33.10    2.50
  -2   8   1   28.20    3.20
  -2   8   1   21.80    3.00
  -2   8   1   22.90    2.90
   2   8  -1   30.50    3.90
  -1  -8   1  224.78    9.20
   1  -8  -1  236.78    8.70
   1  -8  -1  225.68    8.90
   1  -8  -1  220.18    8.80
   1  -8  -1  242.68    9.20
  -1  -8   1  224.78    7.90
  -1  -8   1  229.48    7.20
   1  -8  -1  216.58    8.90
  -1  -8   1  236.38    9.20
   1   8  -1  242.58    9.70
  -1   8   1  224.78    8.90
   1   8  -1  217.58    8.60
   1   8  -1  241.38    9.60
   1   8  -1  224.68    7.90
  -1   8   1  230.08    9.20
   1   8  -1  221.58    9.20
   1   8  -1  218.28    9.20
  -1   8   1  232.48    7.90
  -1   8   1  235.88    9.00
  -1   8   1  233.38    8.80
   0  -8   1  115.29    5.00
   0  -8   1  112.79    5.40
   0  -8   1  114.89    5.20
   0  -8  -1  115.39    5.40
   0  -8  -1  114.79    5.30
   0  -8   1  112.69    5.80
   0  -8  -1  122.09    5.10
   0  -8  -1  109.69    5.10
   0   8  -1  113.99    6.40
   0   8   1  109.09    5.20
   0   8   1  112.09    5.60
   0   8  -1  116.29    6.00
   0   8   1  106.69    5.20
   0   8   1  112.79    4.90
   0   8   1  105.49    5.60
   0   8  -1  122.79    5.80
   0   8  -1  107.09    5.30
   0   8  -1  122.49    5.70
   1  -8   1   43.60    3.40
   1  -8   1   52.59    4.00
  -1  -8  -1   49.30    3.10
  -1  -8  -1   46.40    3.20
  -1  -8  -1   44.40    3.20
   1  -8   1   50.89    3.00
  -1  -8  -1   41.00    2.20
   1  -8   1   48.60    3.50
  -1   8  -1   55.29    4.20
  -1   8  -1   49.10    4.10
  -1   8  -1   48.10    3.80
   1   8   1   47.00    2.30
   1   8   1   45.90    2.80
  -1   8  -1   47.00    3.10
  -1   8  -1   48.20    2.80
   1   8   1   48.00    3.50
   1   8   1   43.90    3.40
   1   8   1   45.40    3.50
   2  -8   1  218.88    9.80
  -2  -8  -1  227.28    9.10
  -2  -8  -1  227.78    9.30
   2  -8   1  231.98   10.10
   2  -8   1  220.28    7.60
   2  -8   1  226.08   10.40
  -2  -8  -1  226.28    8.40
  -2   8  -1  227.58    8.10
  -2   8  -1  235.28   10.60
   2   8   1  223.78    9.60
  -2   8  -1  211.38   10.00
  -2   8  -1  225.18   10.20
   2   8   1  217.38    9.30
  -2   8  -1  243.88    7.40
   2   8   1  217.98    9.60
   3  -8   1   17.80    3.60
  -3  -8  -1   18.00    2.90
  -3  -8  -1   11.60    2.10
  -3  -8  -1   12.60    2.60
   3  -8   1   18.60    3.70
   3  -8   1   15.90    3.30
  -3   8  -1   18.70    3.40
   3   8   1   15.70    2.80
   3   8   1   16.10    3.00
   3   8   1   11.40    2.60
  -3   8  -1   19.00    2.30
  -3   8  -1   11.70    2.80
  -3   8  -1   15.80    3.10
   4  -8   1  102.39    7.70
  -4  -8  -1   96.19    6.40
  -4  -8  -1  110.19    6.00
   4  -8   1  100.79    7.80
  -4  -8  -1  110.99    6.70
   4  -8   1   95.69    7.60
   4  -8   1  103.19    7.90
  -4   8  -1   87.79    7.00
   4   8   1  103.99    7.00
   4   8   1   98.49    6.70
  -4   8  -1  105.29    7.30
   4   8   1  107.79    7.10
  -4   8  -1  101.19    5.00
  -4   8  -1  113.69    7.40
  -5  -8  -1   38.50    5.20
   5  -8   1   34.90    6.00
  -5  -8  -1   41.50    5.40
   5  -8   1   45.30    6.70
   5  -8   1   47.10    7.30
   5   8   1   42.20    5.60
   5   8   1   30.70    5.00
  -5   8  -1   43.80    6.60
  -5   8  -1   43.20    6.10
   5   8   1   32.70    5.10
  -5   8  -1   42.40    5.60
   6  -8   1   34.30    6.50
  -6  -8  -1   36.90    5.50
   6  -8   1   49.60    8.20
  -6  -8  -1   50.79    6.40
   6  -8   1   45.80    7.50
  -6   8  -1   41.20    6.70
  -6   8  -1   43.70    6.90
   6   8   1   43.90    6.80
   6   8   1   42.60    6.10
   6   8   1   44.30    6.40
  -6   8  -1   46.20    6.60
  -6   8  -1   27.50    5.10
  -7  -8  -1   66.59    8.00
   7  -8   1   64.89    9.90
   7  -8   1   77.49   11.30
  -7  -8  -1   62.29    7.80
   7   8   1   82.29   10.10
  -7   8  -1   62.79    9.30
  -7   8  -1   81.29    9.60
  -7   8  -1   77.39   10.30
   7   8   1   73.59    8.90
   7   8   1   65.29    8.50
  -7   8  -1   70.49    8.60
   7  -9  -1    8.60    3.90
   7  -9  -1    3.10    3.30
  -7  -9   1   11.40    3.30
  -7  -9   1   14.00    4.00
   7  -9  -1    5.60    3.90
  -7   9   1   18.00    5.00
  -7   9   1   15.00    4.00
   7   9  -1   11.00    3.90
   7   9  -1   12.30    4.50
   7   9  -1   10.50    4.50
  -7   9   1   10.80    3.90
   6  -9  -1   45.40    7.40
  -6  -9   1   64.69    7.80
  -6  -9   1   56.99    6.30
   6  -9  -1   61.89    9.00
   6  -9  -1   42.00    6.60
   6  -9  -1   44.00    6.50
   6   9  -1   41.40    6.80
  -6   9   1   64.99    7.80
  -6   9   1   49.20    7.20
   6   9  -1   60.89    7.60
   6   9  -1   57.89    8.20
  -6   9   1   60.09    7.70
   5  -9  -1   12.60    3.30
   5  -9  -1   24.70    5.00
  -5  -9   1   18.60    3.80
   5  -9  -1   28.30    5.30
   5  -9  -1   21.20    4.70
  -5  -9   1   17.80    3.50
   5   9  -1   16.90    4.20
  -5   9   1   31.20    4.30
  -5   9   1   25.60    4.40
  -5   9   1   21.20    4.10
  -5   9   1   19.50    4.00
   5   9  -1   20.70    4.10
   5   9  -1   24.50    5.00
  -4  -9   1    9.10    2.70
   4  -9  -1    5.60    2.30
  -4  -9   1    7.40    1.90
   4  -9  -1    8.80    2.70
  -4  -9   1    4.90    1.90
   4  -9  -1   13.90    3.60
   4  -9  -1    6.90    2.50
   4  -9  -1    4.70    2.20
  -4   9   1    8.70    2.50
  -4   9   1    9.30    2.50
   4   9  -1    5.50    2.50
  -4   9   1    9.90    2.80
  -4   9   1    7.40    2.00
   4   9  -1    3.90    2.10
   4   9  -1    7.70    2.50
  -3  -9   1 1269.77   34.20
   3  -9  -1 1226.18   37.30
  -3  -9   1 1263.87   39.10
   3  -9  -1 1209.18   38.20
   3  -9  -1 1268.37   38.90
   3  -9  -1 1292.27   39.40
   3  -9  -1 1222.78   37.40
  -3  -9   1 1195.08   36.60
   3   9  -1 1144.59   38.80
   3   9  -1 1238.58   37.40
   3   9  -1 1290.17   37.90
  -3   9   1 1188.28   38.80
  -3   9   1 1226.88   36.20
  -3   9   1 1204.68   38.10
  -3   9   1 1221.88   35.30
   3   9  -1 1245.38   39.20
  -2  -9   1  876.71   24.80
   2  -9  -1  875.91   27.10
   2  -9  -1  847.32   26.80
   2  -9  -1  869.31   27.70
  -2  -9   1  850.91   27.00
   2  -9  -1  898.81   28.50
  -2  -9   1  913.61   28.60
   2  -9  -1  862.71   28.10
  -2   9   1  856.01   28.30
  -2   9   1  893.51   27.80
   2   9  -1  884.31   28.50
   2   9  -1  895.61   27.50
   2   9  -1  892.81   26.20
   2   9  -1  872.01   27.90
   2   9  -1  925.71   28.70
  -2   9   1  882.11   26.80
  -2   9   1  843.32   26.00
   1  -9  -1   60.29    4.00
  -1  -9   1   57.19    3.40
  -1  -9   1   63.19    4.20
  -1  -9   1   61.09    2.90
   1  -9  -1   58.89    3.90
   1  -9  -1   65.49    4.20
   1  -9  -1   58.59    4.00
   1  -9  -1   64.59    4.20
  -1  -9   1   58.79    4.20
   1   9  -1   59.09    4.40
   1   9  -1   58.39    3.20
  -1   9   1   56.19    3.90
  -1   9   1   54.79    4.10
   1   9  -1   55.09    4.20
  -1   9   1   65.29    3.30
   1   9  -1   56.99    3.80
   1   9  -1   58.19    4.30
  -1   9   1   55.99    3.90
   1   9  -1   63.49    4.30
  -1   9   1   62.39    4.30
   0  -9  -1   57.69    3.80
   0  -9  -1   60.29    3.60
   0  -9   1   51.49    4.00
   0  -9   1   57.79    3.60
   0  -9   1   51.49    3.60
   0  -9   1   58.69    3.50
   0  -9  -1   61.99    3.80
   0  -9  -1   53.39    3.30
   0   9  -1   52.99    4.40
   0   9  -1   45.50    3.90
   0   9   1   59.29    3.60
   0   9   1   49.90    3.20
   0   9   1   49.70    3.80
   0   9  -1   54.59    3.90
   0   9   1   59.79    4.00
   0   9  -1   43.90    3.40
   0   9  -1   49.30    3.70
   0   9   1   57.39    3.80
   1  -9   1   98.19    6.10
  -1  -9  -1   99.69    5.20
  -1  -9  -1  100.59    4.90
  -1  -9  -1  110.19    5.50
   1  -9   1  110.69    5.10
   1  -9   1  103.89    5.60
  -1  -9  -1  103.59    4.00
   1  -9   1  105.39    5.70
   1   9   1   99.39    4.80
  -1   9  -1  113.49    4.90
  -1   9  -1   95.89    5.80
  -1   9  -1   93.99    6.00
   1   9   1  105.99    4.00
   1   9   1   99.69    5.60
   1   9   1   95.29    4.00
   1   9   1  103.59    5.60
   1   9   1  100.49    5.70
  -1   9  -1  109.39    6.70
  -1   9  -1  101.69    5.20
  -2  -9  -1  200.18    8.50
   2  -9   1  187.88    9.00
  -2  -9  -1  194.38    7.40
  -2  -9  -1  191.38    8.10
   2  -9   1  182.28    9.40
   2  -9   1  180.48    9.00
   2   9   1  195.08    8.80
  -2   9  -1  164.88    8.90
  -2   9  -1  164.98    8.90
  -2   9  -1  190.48    7.40
  -2   9  -1  177.78    9.60
   2   9   1  182.68    8.50
  -2   9  -1  179.78    6.50
   2   9   1  198.48    8.90
  -3  -9  -1  823.92   26.70
   3  -9   1  794.12   28.40
  -3  -9  -1  843.42   25.80
  -3  -9  -1  843.82   25.20
   3  -9   1  820.42   27.80
   3  -9   1  829.62   28.40
  -3   9  -1  829.22   28.70
  -3   9  -1  870.81   29.10
   3   9   1  816.72   28.00
  -3   9  -1  867.21   28.80
   3   9   1  853.61   26.60
  -3   9  -1  845.82   23.80
   3   9   1  831.22   27.80
   4  -9   1  363.26   16.90
   4  -9   1  367.96   16.90
  -4  -9  -1  379.46   14.90
  -4  -9  -1  376.66   15.20
   4  -9   1  412.16   17.80
   4   9   1  384.06   16.00
   4   9   1  352.06   15.80
  -4   9  -1  388.26   16.90
  -4   9  -1  381.16   16.70
  -4   9  -1  387.96   16.50
   4   9   1  426.76   16.30
   5  -9   1   22.80    5.10
  -5  -9  -1   27.90    4.40
  -5  -9  -1   33.10    4.80
   5  -9   1   20.60    4.90
   5  -9   1   27.20    5.60
  -5   9  -1   26.30    4.70
   5   9   1   30.00    4.90
  -5   9  -1   24.70    4.80
  -5   9  -1   30.80    5.60
   5   9   1   29.40    5.10
   5   9   1   30.50    5.20
   6  -9   1    5.60    3.70
  -6  -9  -1    6.10    2.60
   6  -9   1    5.10    3.60
  -6  -9  -1    3.80    2.40
   6  -9   1    2.20    2.80
  -6   9  -1    2.80    2.70
  -6   9  -1    7.10    3.00
  -6   9  -1    5.90    2.80
  -6   9  -1    2.60    2.30
   6   9   1    5.20    3.00
   6   9   1    7.30    2.60
   6   9   1    6.50    3.40
  -7  -9  -1   55.19    7.20
   7  -9   1   44.20    8.30
   7  -9   1   31.90    7.50
   7   9   1   59.59    8.50
  -7   9  -1   51.29    7.50
   7   9   1   64.69    9.20
   7   9   1   34.30    6.00
  -7   9  -1   50.99    7.60
  -7   9  -1   45.20    7.60
  -7   9  -1   41.60    8.00
  -6 -10   1   23.40    4.70
   6 -10  -1   19.50    4.90
   6 -10  -1   12.70    4.00
  -6 -10   1   19.40    3.80
   6 -10  -1   21.40    5.50
   6 -10  -1   35.10    6.70
   6  10  -1   14.70    4.70
  -6  10   1   16.60    4.40
  -6  10   1   24.60    5.00
   6  10  -1   14.70    4.60
  -6  10   1   23.10    5.40
   6  10  -1   21.00    4.60
  -5 -10   1    4.50    2.50
   5 -10  -1    4.20    2.70
   5 -10  -1    3.90    2.80
   5 -10  -1    8.50    3.50
   5 -10  -1    7.80    2.90
  -5 -10   1    6.70    2.30
   5  10  -1    3.80    2.50
  -5  10   1    4.20    2.50
   5  10  -1    7.00    2.90
  -5  10   1    6.50    2.70
   5  10  -1    6.50    3.10
  -5  10   1    3.50    2.40
  -5  10   1    4.80    2.10
  -4 -10   1  138.29    8.90
  -4 -10   1  154.28    8.30
   4 -10  -1  154.18    9.60
   4 -10  -1  173.88    9.90
  -4 -10   1  149.69    7.10
   4 -10  -1  157.58    9.80
   4 -10  -1  147.99    9.40
  -4  10   1  158.48    9.30
   4  10  -1  152.48    9.90
   4  10  -1  170.58   10.40
  -4  10   1  158.18    8.20
  -4  10   1  148.09    9.20
  -4  10   1  142.59    8.80
   4  10  -1  134.39    8.90
  -3 -10   1  229.58    8.50
  -3 -10   1  211.48    9.70
   3 -10  -1  197.58   10.40
   3 -10  -1  195.58   10.40
  -3 -10   1  217.98   10.70
   3 -10  -1  218.38   10.90
   3 -10  -1  205.18   10.50
   3 -10  -1  223.18   10.50
  -3  10   1  211.28   10.40
  -3  10   1  224.38    9.80
  -3  10   1  220.88    9.00
   3  10  -1  220.98   11.20
   3  10  -1  226.18   10.90
  -3  10   1  214.28   10.40
   3  10  -1  229.58   11.50
  -3  10   1  215.08   10.70
   2 -10  -1  364.46   14.40
   2 -10  -1  393.26   14.40
   2 -10  -1  411.86   15.30
   2 -10  -1  405.36   14.90
  -2 -10   1  388.46   12.60
   2 -10  -1  406.66   15.20
  -2 -10   1  366.56   14.80
  -2 -10   1  357.06   14.10
  -2  10   1  406.66   14.80
   2  10  -1  348.27   14.70
  -2  10   1  392.76   14.00
  -2  10   1  397.26   13.70
  -2  10   1  381.16   15.00
   2  10  -1  366.66   14.40
   2  10  -1  395.56   15.30
   2  10  -1  375.16   15.30
   1 -10  -1  135.79    6.80
  -1 -10   1  124.69    6.70
  -1 -10   1  127.59    5.00
  -1 -10   1  130.79    6.70
   1 -10  -1  125.79    6.50
   1 -10  -1  134.49    6.60
   1 -10  -1  125.69    6.50
  -1 -10   1  135.99    5.90
  -1  10   1  132.59    6.50
   1  10  -1  120.49    6.10
   1  10  -1  118.29    6.80
   1  10  -1  119.69    6.90
  -1  10   1  133.49    6.50
  -1  10   1  114.79    6.40
  -1  10   1  143.89    5.60
   1  10  -1  122.99    6.90
   1  10  -1  127.39    6.80
  -1  10   1  115.69    6.60
   0 -10  -1   30.40    3.50
   0 -10  -1   26.10    3.30
   0 -10   1   28.10    3.30
   0 -10   1   30.00    3.10
   0 -10  -1   32.40    2.80
   0 -10   1   30.80    3.50
   0 -10   1   23.70    3.50
   0 -10  -1   30.70    3.10
   0  10  -1   28.30    3.60
   0  10   1   31.00    3.70
   0  10  -1   25.70    3.80
   0  10  -1   30.90    3.60
   0  10   1   27.00    3.30
   0  10   1   27.30    2.40
   0  10  -1   27.30    3.40
   0  10   1   30.70    2.60
   0  10   1   30.80    2.70
   0  10   1   27.40    3.20
   0  10  -1   27.80    3.30
  -1 -10  -1   22.80    2.70
  -1 -10  -1   30.40    3.60
   1 -10   1   23.90    3.20
   1 -10   1   27.80    2.90
   1 -10   1   26.20    3.40
  -1 -10  -1   23.30    3.00
   1 -10   1   22.50    3.60
   1  10   1   22.60    2.60
   1  10   1   23.50    3.30
   1  10   1   17.90    2.80
  -1  10  -1   23.20    3.70
  -1  10  -1   19.30    3.50
  -1  10  -1   22.70    2.70
  -1  10  -1   26.90    3.10
  -1  10  -1   23.10    3.40
   1  10   1   21.10    3.00
  -2 -10  -1  273.87    9.80
  -2 -10  -1  277.97   11.00
   2 -10   1  276.47   11.90
   2 -10   1  267.07   11.70
  -2 -10  -1  259.07   10.50
   2 -10   1  277.67   12.50
  -2  10  -1  264.17   12.10
   2  10   1  274.67   11.60
  -2  10  -1  273.47   12.20
   2  10   1  269.87   11.60
   2  10   1  252.97   11.20
  -2  10  -1  256.27   12.40
  -2  10  -1  276.97   10.00
  -2  10  -1  257.77    9.20
  -3 -10  -1  172.58    8.70
   3 -10   1  168.88   10.10
  -3 -10  -1  188.98    8.70
   3 -10   1  177.18   10.10
   3 -10   1  175.38    9.90
   3  10   1  191.48    9.80
  -3  10  -1  179.48    7.40
  -3  10  -1  166.28    9.70
   3  10   1  183.38    9.40
  -3  10  -1  160.28    9.80
  -3  10  -1  182.78   10.10
   3  10   1  183.18    9.50
  -4 -10  -1  217.78   10.30
   4 -10   1  227.78   12.80
   4 -10   1  226.88   12.70
  -4 -10  -1  225.08   10.90
   4 -10   1  219.48   12.40
  -4  10  -1  234.08   12.50
   4  10   1  231.18   11.90
  -4  10  -1  219.28   12.00
   4  10   1  203.78   11.20
   4  10   1  237.88   11.80
  -4  10  -1  227.38   12.20
  -5 -10  -1   24.90    4.40
   5 -10   1   19.70    4.90
  -5 -10  -1   24.60    4.30
   5 -10   1   24.40    5.20
   5 -10   1   27.60    5.80
   5  10   1   27.20    5.30
   5  10   1   17.70    4.20
  -5  10  -1   24.90    5.30
  -5  10  -1   25.30    4.80
   5  10   1   28.70    4.90
  -5  10  -1   20.90    4.60
  -6 -10  -1   38.90    5.50
   6 -10   1   34.80    6.90
   6 -10   1   37.30    7.10
   6 -10   1   29.10    6.70
  -6 -10  -1   28.60    4.90
  -6  10  -1   27.60    6.20
   6  10   1   33.70    6.10
  -6  10  -1   38.30    6.40
   6  10   1   40.00    6.40
  -6  10  -1   28.70    5.90
  -6  10  -1   24.50    5.20
   6  10   1   47.50    7.30
  -6 -11   1    8.50    3.40
   6 -11  -1    3.00    3.40
  -6 -11   1    5.60    2.50
   6 -11  -1    4.60    3.00
   6 -11  -1    5.00    3.20
  -6  11   1    1.00    2.50
   6  11  -1    2.20    2.30
   6  11  -1    5.90    2.80
   6  11  -1   11.80    4.30
  -6  11   1    3.90    2.80
  -6  11   1    3.40    2.80
  -5 -11   1   25.10    4.90
   5 -11  -1   26.80    5.30
   5 -11  -1   14.80    4.10
  -5 -11   1   19.80    3.80
   5 -11  -1   17.30    4.50
  -5  11   1   26.00    4.10
  -5  11   1   16.20    4.00
  -5  11   1   22.80    4.60
   5  11  -1   20.30    4.90
  -5  11   1   24.70    4.90
   5  11  -1   26.20    5.00
   5  11  -1   17.80    4.60
   4 -11  -1  129.69    8.90
  -4 -11   1  117.89    8.30
   4 -11  -1  156.68    9.70
   4 -11  -1  131.99    9.20
  -4 -11   1  122.79    7.60
   4 -11  -1  142.69    9.30
  -4  11   1  121.19    8.50
  -4  11   1  109.69    8.20
  -4  11   1  129.59    8.60
   4  11  -1  122.99    9.20
   4  11  -1  128.89    9.40
   4  11  -1  135.69    8.90
  -4  11   1  132.99    7.60
  -3 -11   1 1148.29   35.40
   3 -11  -1 1239.38   37.90
   3 -11  -1 1084.09   35.90
   3 -11  -1 1085.79   35.70
   3 -11  -1 1217.18   37.90
  -3 -11   1 1148.69   32.40
  -3 -11   1 1144.19   37.30
   3 -11  -1 1100.09   36.50
   3  11  -1 1108.49   36.00
  -3  11   1 1123.69   37.30
  -3  11   1 1141.19   37.00
  -3  11   1 1150.48   33.70
   3  11  -1 1152.38   37.60
  -3  11   1 1148.79   36.80
   3  11  -1 1134.59   37.80
   2 -11  -1  206.18   10.00
  -2 -11   1  223.78    8.50
  -2 -11   1  205.28    9.70
   2 -11  -1  219.48   10.20
   2 -11  -1  202.38    9.70
   2 -11  -1  207.48   10.20
  -2 -11   1  208.08   10.10
   2  11  -1  216.78   10.30
   2  11  -1  211.08   10.60
   2  11  -1  198.98    9.60
  -2  11   1  207.48   10.30
   2  11  -1  215.58   10.80
  -2  11   1  226.38   10.10
  -2  11   1  213.48    9.90
  -2  11   1  207.78    9.60
  -2  11   1  226.48    9.20
   1 -11  -1    0.00    1.00
  -1 -11   1    2.50    1.30
  -1 -11   1    3.70    1.70
   1 -11  -1    2.00    1.30
   1 -11  -1    1.30    1.20
   1 -11  -1    3.30    1.40
  -1 -11   1    1.40    1.00
   1  11  -1    2.60    1.50
   1  11  -1    3.20    1.50
  -1  11   1    2.10    1.00
  -1  11   1    2.60    1.30
  -1  11   1    0.40    1.20
   1  11  -1    1.90    1.40
  -1  11   1    0.40    1.10
  -1  11   1    2.10    1.30
  -1  11   1    0.40    1.00
   1  11  -1    2.50    1.40
   0 -11  -1   24.80    2.90
   0 -11  -1   25.40    3.10
   0 -11   1   29.20    4.00
   0 -11  -1   25.60    3.50
   0 -11   1   27.80    3.20
   0 -11   1   28.90    3.50
   0 -11   1   29.90    3.50
   0 -11  -1   26.00    3.40
   0  11   1   31.10    3.60
   0  11   1   20.20    3.00
   0  11   1   28.10    3.10
   0  11   1   28.20    3.50
   0  11  -1   24.10    3.70
   0  11   1   30.90    3.30
   0  11  -1   26.20    3.50
   0  11   1   30.30    3.80
   0  11  -1   29.70    3.80
   0  11  -1   27.20    3.50
   0  11  -1   30.70    3.60
   1 -11   1   91.39    5.70
  -1 -11  -1   91.79    5.40
   1 -11   1   90.29    5.60
  -1 -11  -1   82.29    4.50
   1 -11   1   85.99    6.20
  -1 -11  -1   72.89    4.90
   1  11   1   93.09    5.50
  -1  11  -1   81.49    6.20
   1  11   1   84.49    5.60
  -1  11  -1   87.09    5.20
  -1  11  -1   84.59    5.90
  -1  11  -1   76.59    4.60
  -1  11  -1   75.59    5.80
   1  11   1   76.99    5.50
   2 -11   1  136.49    8.10
   2 -11   1  142.39    8.80
  -2 -11  -1  152.28    6.50
  -2 -11  -1  160.58    7.50
   2 -11   1  145.99    8.40
  -2 -11  -1  137.79    7.40
  -2  11  -1  152.98    8.90
  -2  11  -1  141.79    8.50
  -2  11  -1  127.79    8.60
   2  11   1  146.89    7.90
   2  11   1  138.09    8.00
   2  11   1  152.08    8.30
  -2  11  -1  141.09    6.80
   3 -11   1  592.44   22.50
  -3 -11  -1  578.14   20.70
   3 -11   1  584.84   22.90
   3 -11   1  593.94   22.40
  -3 -11  -1  583.24   19.80
  -3  11  -1  596.44   23.50
  -3  11  -1  585.04   18.40
   3  11   1  596.94   21.40
   3  11   1  596.84   22.00
  -3  11  -1  600.34   22.80
  -3  11  -1  616.34   23.10
   3  11   1  594.34   22.10
  -4 -11  -1   23.40    4.00
   4 -11   1   20.70    4.70
  -4 -11  -1   20.70    3.70
   4 -11   1   20.10    4.60
   4 -11   1   29.40    5.40
  -4  11  -1   32.70    5.40
   4  11   1   26.40    4.90
  -4  11  -1   18.60    4.20
   4  11   1   23.80    4.50
  -4  11  -1   26.10    5.00
   4  11   1   24.00    4.70
   5 -11   1   46.80    7.30
  -5 -11  -1   40.20    5.20
  -5 -11  -1   33.80    5.10
   5 -11   1   45.60    7.50
   5 -11   1   37.90    6.90
  -5  11  -1   51.69    7.10
   5  11   1   44.10    6.50
   5  11   1   55.39    7.10
  -5  11  -1   33.10    5.60
  -5  11  -1   50.19    7.30
   5  11   1   35.00    5.90
   6 -11   1   23.70    5.90
  -6 -11  -1   19.70    4.40
  -6 -11  -1   17.70    4.00
   6 -11   1   19.60    5.60
   6  11   1   19.60    5.00
   6  11   1   15.40    4.20
  -6  11  -1   17.80    4.70
   6  11   1   13.70    4.20
  -6  11  -1    8.20    4.10
  -6  11  -1   12.90    4.60
  -6  11  -1   16.20    4.40
   6 -12  -1   14.60    4.90
   6 -12  -1   22.90    6.40
   6 -12  -1    8.10    3.80
  -6 -12   1   14.80    4.20
  -6 -12   1   12.40    3.50
   6  12  -1   18.40    5.40
   6  12  -1   10.30    4.10
  -6  12   1   10.70    3.60
  -6  12   1   15.70    4.30
   6  12  -1   12.70    4.10
  -6  12   1   17.10    4.90
  -5 -12   1   25.00    4.20
   5 -12  -1   18.60    4.70
   5 -12  -1   38.60    6.90
   5 -12  -1   28.00    5.60
  -5 -12   1   30.20    5.50
  -5  12   1   23.20    4.80
   5  12  -1   26.30    5.20
   5  12  -1   26.30    5.70
  -5  12   1   33.00    5.80
   5  12  -1   22.50    5.10
  -5  12   1   16.80    4.20
  -4 -12   1  224.08   12.40
  -4 -12   1  240.38   11.60
   4 -12  -1  235.88   13.00
   4 -12  -1  228.48   13.00
   4 -12  -1  255.97   13.50
  -4  12   1  259.37   13.00
   4  12  -1  238.38   13.60
  -4  12   1  228.98   12.70
  -4  12   1  252.67   11.20
  -4  12   1  236.08   12.40
   4  12  -1  254.07   13.90
   4  12  -1  235.98   12.80
  -3 -12   1   44.40    5.20
  -3 -12   1   42.80    3.50
   3 -12  -1   43.00    5.70
   3 -12  -1   38.10    5.20
  -3 -12   1   54.59    6.00
   3 -12  -1   52.69    6.60
   3 -12  -1   42.80    5.90
  -3  12   1   39.70    4.80
  -3  12   1   46.20    5.60
   3  12  -1   44.40    5.90
  -3  12   1   47.10    5.70
   3  12  -1   54.79    6.30
   3  12  -1   34.00    5.40
  -3  12   1   42.20    5.60
   2 -12  -1   64.69    5.50
   2 -12  -1   63.49    5.30
   2 -12  -1   52.29    5.70
  -2 -12   1   66.09    4.30
  -2 -12   1   58.99    5.00
  -2 -12   1   64.29    5.30
   2 -12  -1   63.79    6.50
   2  12  -1   65.59    6.90
   2  12  -1   62.99    6.60
   2  12  -1   71.09    5.60
  -2  12   1   62.49    5.50
  -2  12   1   63.49    5.10
  -2  12   1   61.99    4.50
  -2  12   1   66.29    5.30
  -2  12   1   70.09    5.40
  -1 -12   1   37.40    4.50
   1 -12  -1   36.40    4.40
   1 -12  -1   35.60    4.40
   1 -12  -1   44.70    4.90
  -1 -12   1   31.50    4.20
   1 -12  -1   40.00    4.70
  -1 -12   1   39.50    4.10
   1  12  -1   38.80    4.90
  -1  12   1   38.50    4.70
   1  12  -1   54.19    5.50
   1  12  -1   39.00    4.70
  -1  12   1   38.60    4.30
   1  12  -1   40.00    4.90
  -1  12   1   37.10    4.20
  -1  12   1   43.90    4.50
  -1  12   1   38.30    4.30
   0 -12  -1   41.70    4.10
   0 -12   1   30.40    3.80
   0 -12  -1   28.10    3.70
   0 -12  -1   26.70    3.60
   0 -12   1   27.90    4.20
   0 -12   1   33.60    3.90
   0  12  -1   33.60    4.70
   0  12  -1   33.90    4.30
   0  12   1   36.50    3.80
   0  12  -1   30.70    4.10
   0  12   1   28.00    3.70
   0  12  -1   36.70    4.30
   0  12   1   35.70    4.40
   0  12   1   38.20    4.30
  -1 -12  -1   22.30    3.20
  -1 -12  -1   21.30    2.80
  -1 -12  -1   30.00    4.00
   1 -12   1   20.80    3.60
   1 -12   1   23.10    4.10
   1 -12   1   20.20    3.30
   1  12   1   19.00    3.30
  -1  12  -1   19.30    3.60
   1  12   1   15.50    3.10
  -1  12  -1   21.40    2.90
  -1  12  -1   16.80    3.30
  -1  12  -1   20.30    3.10
   1  12   1   22.10    3.40
  -1  12  -1   20.80    4.10
   2 -12   1   95.69    6.90
   2 -12   1  104.79    7.70
  -2 -12  -1  104.29    6.20
  -2 -12  -1  105.09    6.40
   2 -12   1   95.89    7.00
   2  12   1  101.39    7.00
  -2  12  -1  112.79    7.60
  -2  12  -1  103.29    7.50
  -2  12  -1   97.19    5.90
  -2  12  -1  108.79    8.00
   2  12   1   94.59    6.80
   2  12   1   99.19    6.70
  -3 -12  -1  145.19    8.20
  -3 -12  -1  133.49    7.60
   3 -12   1  150.58    9.70
   3 -12   1  152.68    9.60
   3 -12   1  149.79    9.90
  -3  12  -1  130.19    9.40
   3  12   1  151.98    8.90
   3  12   1  140.39    9.00
  -3  12  -1  142.79    9.40
  -3  12  -1  140.79    7.10
  -3  12  -1  157.08    9.80
   3  12   1  150.38    9.20
   4 -12   1   58.09    7.60
   4 -12   1   56.39    7.80
  -4 -12  -1   68.29    5.40
   4 -12   1   60.09    8.10
  -4 -12  -1   54.49    6.10
  -4  12  -1   60.39    7.60
   4  12   1   57.79    7.40
  -4  12  -1   59.89    7.50
  -4  12  -1   59.39    7.60
   4  12   1   53.49    6.70
   4  12   1   65.29    7.40
   5 -12   1   29.10    6.50
   5 -12   1   35.10    6.80
  -5 -12  -1   32.00    5.00
   5 -12   1   33.30    6.70
  -5 -12  -1   32.00    4.80
  -5  12  -1   22.20    5.00
   5  12   1   43.10    6.20
   5  12   1   30.50    5.80
  -5  12  -1   19.70    4.90
   5  12   1   25.40    5.40
  -5  12  -1   35.80    6.20
  -6 -12  -1   14.80    3.90
   6 -12   1   13.40    4.80
   6 -12   1    4.70    4.00
  -6  12  -1   10.70    4.20
  -6  12  -1   11.80    4.20
   6  12   1    4.10    3.20
  -6  12  -1    5.00    3.50
   6  12   1   10.70    3.70
   6  12   1   20.90    5.70
  -6  12  -1   11.90    4.50
  -5 -13   1   15.20    4.00
   5 -13  -1   19.40    5.10
  -5 -13   1   24.70    4.60
   5 -13  -1   16.20    4.70
   5 -13  -1   18.10    5.00
  -5  13   1   17.80    4.40
  -5  13   1   13.30    4.20
   5  13  -1   18.60    4.70
   5  13  -1   20.10    5.20
   5  13  -1   24.00    5.80
  -5  13   1   19.00    4.80
   4 -13  -1   54.09    7.50
   4 -13  -1   49.99    6.90
  -4 -13   1   45.00    6.20
  -4 -13   1   53.79    6.20
   4 -13  -1   55.89    7.40
  -4  13   1   44.10    6.20
   4  13  -1   46.40    7.40
   4  13  -1   44.60    6.90
  -4  13   1   48.30    5.60
  -4  13   1   41.60    6.20
   4  13  -1   53.29    7.10
  -4  13   1   54.59    7.10
   3 -13  -1   68.49    7.70
   3 -13  -1   74.89    8.00
  -3 -13   1   61.59    6.80
  -3 -13   1   67.79    5.70
   3 -13  -1   76.29    6.60
   3  13  -1   57.59    7.10
   3  13  -1   73.59    6.40
  -3  13   1   71.69    6.20
  -3  13   1   67.99    7.20
  -3  13   1   61.39    6.80
   3  13  -1   67.29    7.70
  -3  13   1   70.39    6.90
   2 -13  -1   34.60    4.90
   2 -13  -1   28.60    4.40
   2 -13  -1   26.10    4.20
  -2 -13   1   32.80    3.80
  -2 -13   1   30.90    4.70
  -2 -13   1   37.80    5.00
   2 -13  -1   27.90    4.50
  -2  13   1   30.70    3.80
  -2  13   1   35.30    4.60
   2  13  -1   23.50    4.30
  -2  13   1   31.80    4.80
   2  13  -1   33.80    4.70
  -2  13   1   29.90    4.20
   2  13  -1   35.10    5.10
  -2  13   1   32.70    4.50
   1 -13  -1   54.79    5.80
  -1 -13   1   41.10    4.40
   1 -13  -1   47.50    5.20
  -1 -13   1   51.39    5.80
   1 -13  -1   37.70    4.90
  -1 -13   1   47.80    5.40
   1  13  -1   44.20    5.50
   1  13  -1   48.70    5.60
  -1  13   1   53.49    4.30
   1  13  -1   48.00    5.70
   1  13  -1   57.39    6.10
  -1  13   1   49.00    5.50
  -1  13   1   49.20    5.30
   0 -13   1   35.40    4.80
   0 -13  -1   51.89    5.40
   0 -13  -1   48.40    4.00
   0 -13  -1   37.10    4.50
   0 -13   1   49.10    5.20
   0  13   1   41.50    5.10
   0  13  -1   53.99    6.00
   0  13  -1   53.89    5.70
   0  13  -1   54.59    5.50
   0  13   1   52.89    4.10
   0  13   1   49.70    5.20
   1 -13   1   40.20    4.90
  -1 -13  -1   40.70    4.70
   1 -13   1   50.39    5.70
  -1 -13  -1   44.10    4.90
   1 -13   1   33.20    5.20
   1  13   1   38.70    4.90
   1  13   1   31.10    4.30
   1  13   1   48.70    5.20
  -1  13  -1   39.10    5.70
  -1  13  -1   37.20    5.00
  -1  13  -1   41.70    4.90
  -2 -13  -1    8.60    2.30
   2 -13   1   10.10    3.30
  -2 -13  -1    6.10    2.20
   2 -13   1    6.70    2.70
   2 -13   1    8.80    2.60
   2  13   1    9.50    2.70
  -2  13  -1    6.10    2.70
  -2  13  -1    4.20    1.70
  -2  13  -1    8.50    2.90
  -2  13  -1    7.50    2.70
   2  13   1    6.10    2.50
   2  13   1    8.50    2.70
   3 -13   1   -0.40    1.70
  -3 -13  -1    0.60    1.40
   3 -13   1    1.50    2.00
   3 -13   1    2.20    2.60
  -3 -13  -1   -0.30    1.20
  -3  13  -1    4.70    2.70
   3  13   1    1.20    1.70
  -3  13  -1    1.80    1.40
   3  13   1    1.40    1.90
  -3  13  -1    1.90    2.40
   3  13   1    3.20    1.80
  -3  13  -1    5.00    2.70
  -4 -13  -1   35.90    4.80
   4 -13   1   38.00    6.50
   4 -13   1   39.10    6.80
   4 -13   1   34.60    6.60
  -4 -13  -1   40.20    5.50
  -4  13  -1   32.50    6.10
   4  13   1   19.80    4.60
   4  13   1   28.00    5.20
  -4  13  -1   35.80    6.30
   4  13   1   27.50    5.40
  -4  13  -1   33.90    6.10
  -5 -13  -1   25.60    4.60
   5 -13   1   33.10    6.80
   5 -13   1   26.70    6.20
  -5 -13  -1   37.60    5.30
   5 -13   1   33.20    7.00
  -5  13  -1   34.90    6.60
  -5  13  -1   33.10    6.10
   5  13   1   45.40    7.20
   5  13   1   40.70    6.60
   5  13   1   29.30    5.70
  -5  13  -1   38.90    6.90
   5 -14  -1   44.40    7.50
   5 -14  -1   51.79    8.30
  -5 -14   1   36.90    6.20
   5 -14  -1   43.50    7.60
  -5 -14   1   37.50    5.70
  -5  14   1   38.70    6.60
   5  14  -1   35.30    6.80
  -5  14   1   37.80    6.40
  -5  14   1   38.00    6.80
   4 -14  -1   18.40    5.10
   4 -14  -1   20.40    5.10
  -4 -14   1   29.80    5.00
  -4 -14   1   21.50    4.50
   4 -14  -1   29.60    5.90
  -4  14   1   23.80    4.10
  -4  14   1   26.20    5.30
   4  14  -1   24.30    5.00
  -4  14   1   22.00    4.90
   4  14  -1   23.50    5.20
   4  14  -1   26.60    5.90
  -4  14   1   21.40    4.70
  -3 -14   1    3.10    1.90
   3 -14  -1    4.00    2.50
   3 -14  -1    7.00    2.80
  -3 -14   1    5.90    2.20
   3 -14  -1    4.80    3.00
   3  14  -1    3.40    2.20
   3  14  -1    1.40    2.20
  -3  14   1    4.80    2.00
  -3  14   1    7.20    2.70
  -3  14   1    7.20    2.60
  -3  14   1    4.60    2.60
   3  14  -1    1.30    2.20
  -2 -14   1   39.50    5.30
   2 -14  -1   40.80    5.60
   2 -14  -1   28.50    4.60
  -2 -14   1   37.80    4.20
   2 -14  -1   40.30    5.30
  -2 -14   1   34.10    5.00
   2 -14  -1   53.69    6.80
   2  14  -1   33.80    5.20
  -2  14   1   44.00    5.10
   2  14  -1   33.90    5.20
  -2  14   1   47.00    6.10
   2  14  -1   43.30    6.10
  -1 -14   1   46.40    5.70
   1 -14  -1   51.39    6.10
  -1 -14   1   51.79    5.80
   1 -14  -1   54.09    5.80
  -1 -14   1   53.39    5.20
   1 -14  -1   44.90    5.40
  -1  14   1   49.80    4.30
   1  14  -1   44.30    5.60
   1  14  -1   47.50    5.80
   1  14  -1   53.29    6.20
  -1  14   1   46.10    5.50
   0 -14  -1   10.30    2.70
   0 -14  -1   12.40    3.00
   0 -14   1   11.50    2.70
   0 -14   1   12.00    3.50
   0  14  -1    9.60    2.70
   0  14  -1    6.40    2.50
   0  14   1    5.50    2.20
   0  14   1   10.20    2.70
   0  14  -1    9.40    2.80
   1 -14   1  162.38    9.40
  -1 -14  -1  176.58    8.90
  -1 -14  -1  171.68    9.20
   1 -14   1  154.48   10.00
   1  14   1  187.58    9.90
  -1  14  -1  150.08   10.20
  -1  14  -1  162.78    8.90
   1  14   1  188.68    9.30
   1  14   1  182.08    9.90
  -2 -14  -1   18.70    3.80
  -2 -14  -1   26.40    4.00
   2 -14   1   26.90    5.10
   2 -14   1   29.50    4.80
   2 -14   1   29.20    5.10
  -2  14  -1   18.20    3.30
   2  14   1   20.10    3.80
   2  14   1   29.80    5.20
  -2  14  -1   26.10    4.80
   2  14   1   28.00    4.70
  -2  14  -1   25.90    4.80
   3 -14   1    1.10    2.70
  -3 -14  -1    1.90    1.60
  -3 -14  -1    2.70    1.90
   3 -14   1    1.10    2.10
   3 -14   1    5.70    3.10
  -3  14  -1    2.80    2.30
  -3  14  -1    7.60    3.10
   3  14   1    5.80    2.50
   3  14   1    4.50    2.70
  -3  14  -1    2.40    2.60
   3  14   1    1.50    1.90
  -4 -14  -1   23.00    3.90
   4 -14   1   15.30    4.50
   4 -14   1   16.60    4.60
  -4 -14  -1   22.10    4.20
   4 -14   1   15.30    4.60
  -4  14  -1   21.70    4.80
   4  14   1   11.50    3.90
   4  14   1   27.50    5.40
   4  14   1   29.30    5.20
  -4  14  -1   14.00    4.40
  -4  14  -1   16.40    4.40
   5 -14   1   83.39   10.90
  -5 -14  -1   56.89    6.80
  -5 -14  -1   52.39    7.40
   5 -14   1   71.59   10.50
  -5  14  -1   85.69   10.80
  -5  14  -1   62.99    8.60
   4 -15  -1   48.30    7.50
   4 -15  -1   32.40    6.30
  -4 -15   1   35.60    5.90
   4 -15  -1   36.90    6.60
  -4 -15   1   33.80    5.50
  -4  15   1   34.10    6.20
   4  15  -1   39.40    7.10
   4  15  -1   32.80    6.20
   4  15  -1   34.00    6.10
  -4  15   1   41.40    6.30
  -4  15   1   30.60    4.60
  -4  15   1   38.40    6.40
   3 -15  -1    2.70    2.80
  -3 -15   1    3.30    2.40
  -3 -15   1    3.10    2.20
   3 -15  -1    4.90    2.90
   3 -15  -1    0.90    2.20
   3  15  -1    6.20    3.00
   3  15  -1    0.60    2.50
  -3  15   1    1.60    1.80
  -3  15   1    3.40    2.60
  -3  15   1    7.60    3.20
   3  15  -1   10.90    3.40
   2 -15  -1   84.19    8.30
  -2 -15   1   73.49    6.50
  -2 -15   1   82.59    6.90
   2 -15  -1   75.79    8.00
   2 -15  -1   79.19    8.10
  -2  15   1   87.39    6.60
  -2  15   1   97.19    7.90
   2  15  -1   81.59    8.70
   2  15  -1   88.59    7.40
   2  15  -1   84.69    8.80
  -1 -15   1   51.69    5.50
   1 -15  -1   60.89    6.90
  -1 -15   1   53.09    6.70
   1 -15  -1   62.19    6.80
   1 -15  -1   66.49    7.20
   1  15  -1   61.59    7.00
   1  15  -1   64.19    7.10
  -1  15   1   68.09    5.40
  -1  15   1   58.29    6.50
   0 -15  -1   35.20    5.00
   0 -15   1   35.20    5.80
   0 -15   1   36.60    4.90
   0 -15  -1   34.90    5.00
   0  15  -1   32.80    5.00
   0  15  -1   41.80    5.40
   0  15   1   24.20    4.00
   0  15   1   35.20    5.00
   1 -15   1   13.40    3.70
  -1 -15  -1   11.90    2.90
  -1 -15  -1   12.00    3.10
   1 -15   1   24.10    4.30
   1  15   1   11.20    2.90
   1  15   1   15.70    3.60
   1  15   1   16.40    3.60
  -1  15  -1   18.10    4.40
  -1  15  -1   16.20    3.50
  -2 -15  -1   25.70    4.10
  -2 -15  -1   30.20    4.70
   2 -15   1   32.50    6.10
   2 -15   1   35.60    5.90
  -2 -15  -1   36.70    5.30
   2  15   1   32.50    5.30
   2  15   1   33.80    5.00
  -2  15  -1   26.30    5.50
  -2  15  -1   36.80    6.10
   2  15   1   34.50    5.30
  -2  15  -1   39.80    5.00
  -3 -15  -1   16.60    3.80
  -3 -15  -1   11.10    2.80
   3 -15   1   12.20    4.80
   3 -15   1   17.30    4.60
  -3 -15  -1   13.40    3.50
   3 -15   1   24.00    5.50
   3  15   1   10.10    3.40
   3  15   1    8.30    3.20
  -3  15  -1   10.60    3.60
   3  15   1   14.20    3.70
  -3  15  -1    8.80    3.70
   4 -15   1   43.90    7.70
  -4 -15  -1   70.29    7.60
   4 -15   1   62.79    8.60
  -4 -15  -1   56.09    7.20
  -4 -15  -1   57.89    6.30
   4 -15   1   54.49    8.40
  -4  15  -1   66.89    8.70
   4  15   1   70.59    8.20
   4  15   1   74.99    9.40
  -4  15  -1   58.89    8.50
   4  15   1   45.50    7.30
  -4  15  -1   61.39    8.80
  -3 -16   1   10.90    3.50
   3 -16  -1    5.10    3.20
  -3 -16   1    5.70    2.60
   3 -16  -1    4.70    3.20
  -3  16   1   11.40    3.10
  -3  16   1    4.30    3.10
   3  16  -1    9.10    3.80
   3  16  -1    9.60    4.00
   3  16  -1    9.00    3.60
  -2 -16   1   46.20    6.10
   2 -16  -1   75.69    8.00
   2 -16  -1   80.19    8.70
  -2 -16   1   69.79    7.90
  -2  16   1   74.09    7.30
   2  16  -1   58.69    7.50
   2  16  -1   86.69    8.90
   2  16  -1   71.49    8.40
   1 -16  -1    6.30    3.00
  -1 -16   1    6.40    2.80
  -1 -16   1    3.30    2.10
   1 -16  -1    7.40    2.90
  -1  16   1    3.70    2.30
   1  16  -1    6.60    2.90
   1  16  -1    7.90    3.30
   0 -16  -1   20.00    4.00
   0 -16   1   20.50    4.10
   0 -16  -1   27.70    4.70
   0 -16   1   20.80    4.50
   0  16   1   20.90    4.10
   0  16   1   23.00    4.10
   0  16  -1   18.40    4.00
   1 -16   1    4.30    2.40
  -1 -16  -1   13.00    3.20
   1 -16   1    5.30    2.80
  -1 -16  -1    5.00    2.50
  -1  16  -1    8.10    2.90
   1  16   1   10.20    3.50
   1  16   1   11.60    3.30
   2 -16   1  108.09    8.70
  -2 -16  -1  105.89    7.20
   2 -16   1   89.19   10.20
  -2 -16  -1   93.69    7.50
  -2 -16  -1   85.99    7.60
   2  16   1  106.39    8.50
   2  16   1  107.79   10.10
  -2  16  -1  107.99    7.50
  -2  16  -1  104.09   10.70
   2  16   1  107.79    8.00
  -3 -16  -1   12.20    3.00
  -3 -16  -1   12.90    3.70
  -3 -16  -1    8.90    3.10
   3 -16   1    8.70    3.90
   3 -16   1    8.90    4.20
  -3  16  -1   12.60    3.90
  -3  16  -1    9.90    4.00
   3  16   1   16.10    4.30
   3  16   1   11.40    3.70
   3  16   1   13.40    3.80
  -2 -17   1    3.10    2.40
   2 -17  -1   11.60    3.90
  -2  17   1    9.40    3.10
   2  17  -1   12.80    4.10
   2  17  -1    7.90    3.40
  -1 -17   1    7.10    3.20
   1 -17  -1    8.40    3.30
   1 -17  -1   10.60    3.40
   1  17  -1    6.60    3.10
  -1  17   1    7.40    2.80
   0 -17   1   36.40    5.50
   0 -17  -1   20.30    4.20
   0 -17   1   17.60    4.50
   0 -17  -1   30.60    5.20
   0  17   1   23.80    4.30
   0  17  -1   35.50    5.60
   0  17   1   22.60    4.60
  -1 -17  -1    5.40    2.50
   1 -17   1    0.80    2.60
   1 -17   1    1.60    2.40
  -1 -17  -1    0.60    1.80
   1  17   1    1.30    2.00
  -1  17  -1   -1.30    1.70
   1  17   1    6.60    3.10
   2 -17   1    2.20    3.30
  -2 -17  -1   15.10    3.60
   2 -17   1    6.40    3.10
  -2 -17  -1    6.60    2.70
   2  17   1    8.40    3.30
   2  17   1   12.00    3.60
  -2  17  -1    8.30    3.90
   8   0  -2   58.09    7.50
  -8   0   2   53.99    7.20
  -8   0   2   57.19    8.20
   8   0  -2   56.29    7.40
  -8   0   2   58.79    7.90
  -8   0   2   56.09    7.20
   8   0  -2   64.19    8.30
   7   0  -2   41.10    5.70
  -7   0   2   41.50    7.30
  -7   0   2   39.00    5.50
  -7   0   2   56.49    7.80
   7   0  -2   48.00    6.40
  -7   0   2   60.69    8.20
  -7   0   2   45.70    6.30
   7   0  -2   52.39    7.60
  -7   0   2   42.10    5.80
   7   0  -2   36.40    5.70
  -6   0   2 1176.98   37.80
   6   0  -2 1169.38   38.50
   6   0  -2 1217.88   38.30
   6   0  -2 1149.29   38.10
   6   0  -2 1151.48   38.20
   6   0  -2 1190.38   38.20
  -6   0   2 1210.28   38.30
  -6   0   2 1164.48   35.40
   6   0  -2 1140.39   38.90
  -6   0   2 1199.18   39.70
   5   0  -2  454.95   18.20
   5   0  -2  453.15   17.20
  -5   0   2  426.06   18.10
   5   0  -2  450.75   17.30
  -5   0   2  477.05   17.10
  -5   0   2  443.86   18.00
   5   0  -2  438.16   17.20
   5   0  -2  463.35   15.50
   5   0  -2  467.65   17.60
   5   0  -2  444.66   17.90
  -5   0   2  469.15   15.40
  -4   0   2  237.08   10.10
   4   0  -2  255.67   11.30
   4   0  -2  227.18   10.40
  -4   0   2  232.48   11.20
   4   0  -2  245.88    8.90
   4   0  -2  256.77   11.50
   4   0  -2  253.87   10.40
  -4   0   2  248.88   11.30
   4   0  -2  257.97   10.70
   4   0  -2  245.38   10.10
  -4   0   2  245.38    8.90
   3   0  -2   56.29    3.90
   3   0  -2   49.30    3.40
  -3   0   2   56.39    4.40
  -3   0   2   57.49    4.50
   3   0  -2   48.60    4.20
  -3   0   2   54.09    3.70
   3   0  -2   61.39    4.60
  -3   0   2   53.09    2.70
   3   0  -2   62.29    4.20
   3   0  -2   55.29    3.50
   2   0  -2   44.30    2.40
  -2   0   2   45.50    3.20
   2   0  -2   44.10    3.50
   2   0  -2   43.10    2.60
  -2   0   2   47.00    4.30
   2   0  -2   45.20    3.60
   2   0  -2   45.30    3.20
   2   0  -2   38.10    3.10
  -2   0   2   44.50    3.50
  -2   0   2   45.70    1.90
  -1   0   2 5637.04  154.78
   1   0  -2 5647.24  139.99
   1   0  -2 5527.45  154.28
   1   0  -2 5586.34  153.08
   1   0  -2 5528.95  154.18
  -1   0   2 5619.04  146.69
   1   0  -2 5576.54  148.29
  -1   0   2 5642.84  140.09
  -1   0   2 5630.44  151.08
   0   0  -2 9999.00  246.28
   0   0   2 9981.90  267.57
   0   0  -2 9880.71  265.07
   0   0   2 9777.12  240.18
   0   0   2 9460.95  255.37
   0   0  -2 9795.92  266.47
   0   0  -2 9631.54  263.37
   0   0  -2 9496.65  256.77
   0   0   2 9460.55  259.67
  -1   0  -2 8935.51  242.88
  -1   0  -2 9040.50  227.68
   1   0   2 9185.08  219.88
  -1   0  -2 9068.89  243.68
   1   0   2 8992.10  238.28
   1   0   2 8417.86  235.88
  -1   0  -2 8823.22  245.08
  -1   0  -2 8959.90  236.98
   1   0   2 8991.10  227.68
   2   0   2 5828.22  160.88
  -2   0  -2 5943.50  155.28
   2   0   2 6077.79  160.18
  -2   0  -2 5818.72  165.78
   2   0   2 5967.00  147.49
   2   0   2 5835.72  155.28
  -2   0  -2 6117.89  164.48
  -2   0  -2 6107.19  163.98
   2   0   2 6235.58  166.28
  -3   0  -2  406.26   13.70
   3   0   2  403.36   15.90
   3   0   2  423.66   14.50
   3   0   2  420.16   15.70
   3   0   2  389.26   11.70
  -3   0  -2  396.36   14.20
   3   0   2  384.66   12.60
  -3   0  -2  408.16   15.00
  -3   0  -2  379.26   15.20
  -3   0  -2  405.36   15.50
   4   0   2  286.37   11.50
   4   0   2  302.27   10.70
   4   0   2  274.97   13.20
   4   0   2  278.47    9.80
  -4   0  -2  283.07   13.30
  -4   0  -2  291.37   11.70
  -4   0  -2  302.27   13.30
   4   0   2  274.27   13.50
  -4   0  -2  300.67   11.30
  -4   0  -2  317.97   12.80
  -5   0  -2  330.77   15.90
  -5   0  -2  337.57   15.60
  -5   0  -2  333.37   12.00
  -5   0  -2  331.07   14.70
   5   0   2  346.47   16.30
  -5   0  -2  349.07   13.40
   5   0   2  333.87   13.40
  -5   0  -2  343.17   13.90
   5   0   2  342.47   16.30
   5   0   2  356.46   13.10
  -6   0  -2  658.63   26.10
   6   0   2  641.14   26.20
  -6   0  -2  686.63   25.30
  -6   0  -2  655.33   23.70
   6   0   2  656.03   26.60
  -6   0  -2  629.44   22.90
  -6   0  -2  618.14   26.00
   6   0   2  688.93   23.40
  -7   0  -2  153.48   11.80
  -7   0  -2  138.09   10.90
  -7   0  -2  106.39    9.00
   7   0   2  130.49   10.60
   7   0   2  138.19   13.40
  -7   0  -2  125.09    8.70
  -7   0  -2  134.79    8.50
   8   0   2   56.69    9.40
  -8   0  -2   76.49   10.80
   8   0   2   90.89   11.30
  -8   0  -2  102.19   12.40
  -8   0  -2   95.99   10.90
  -8  -1   2   12.90    4.40
  -8  -1   2   14.00    3.90
   8  -1  -2    7.90    4.00
   8  -1  -2   14.80    4.10
   8  -1  -2   12.70    4.20
  -8  -1   2   19.70    4.40
  -8  -1   2   14.70    4.20
  -8  -1   2   21.60    5.20
   8  -1  -2   19.10    4.70
  -8   1   2   18.00    4.80
  -8   1   2   11.20    3.80
  -8   1   2   15.70    5.00
   8   1  -2   15.40    4.00
   8   1  -2    9.80    3.60
  -8   1   2   16.10    4.20
  -8   1   2   17.40    4.10
  -7  -1   2   53.39    6.40
   7  -1  -2   41.50    6.80
  -7  -1   2   55.69    6.90
   7  -1  -2   53.29    7.20
  -7  -1   2   42.60    6.80
  -7  -1   2   55.09    7.10
  -7  -1   2   43.30    6.80
  -7  -1   2   49.40    6.30
   7  -1  -2   49.00    6.30
   7  -1  -2   41.30    6.10
  -7   1   2   49.50    7.20
   7   1  -2   52.09    6.60
   7   1  -2   55.89    7.60
   7   1  -2   49.60    6.50
  -7   1   2   57.49    7.30
  -7   1   2   40.10    6.40
   7   1  -2   64.69    7.10
  -7   1   2   57.19    6.60
   7   1  -2   42.80    6.70
  -6  -1   2  124.19    7.70
   6  -1  -2  112.19    8.50
  -6  -1   2  111.59    8.60
   6  -1  -2  123.19    8.50
   6  -1  -2  137.19    8.70
   6  -1  -2  114.59    7.90
   6  -1  -2  135.99    8.40
  -6  -1   2  115.69    8.20
  -6  -1   2  113.79    8.80
  -6  -1   2  113.09    6.50
   6   1  -2  129.39    8.00
  -6   1   2  125.09    8.60
   6   1  -2  117.69    8.50
   6   1  -2  114.99    8.90
   6   1  -2  116.99    9.00
  -6   1   2  114.99    8.60
  -6   1   2  124.69    8.20
  -6   1   2  114.09    7.20
   6   1  -2  112.39    7.60
   6   1  -2  126.39    8.40
   6   1  -2  101.49    7.70
   5  -1  -2  106.89    5.60
   5  -1  -2   95.99    7.00
   5  -1  -2   93.29    6.90
   5  -1  -2  105.29    6.90
   5  -1  -2   97.49    6.70
  -5  -1   2  114.39    5.80
  -5  -1   2  117.09    8.00
  -5  -1   2  122.09    8.10
   5  -1  -2   96.29    6.70
  -5  -1   2  110.99    6.70
  -5   1   2  101.29    7.40
  -5   1   2  102.19    6.20
   5   1  -2  129.39    8.40
   5   1  -2   96.39    6.40
  -5   1   2   97.19    7.10
   5   1  -2  102.59    6.90
   5   1  -2  111.79    7.80
  -5   1   2  108.89    5.60
   5   1  -2  113.29    6.90
   5   1  -2  108.89    7.20
   5   1  -2  113.39    6.80
   4  -1  -2    9.60    2.20
  -4  -1   2    3.70    1.80
   4  -1  -2    1.40    1.30
  -4  -1   2    3.10    1.40
   4  -1  -2    5.10    1.20
   4  -1  -2    5.30    1.70
  -4  -1   2    7.50    1.50
  -4  -1   2    6.60    2.20
   4  -1  -2    1.20    1.20
   4  -1  -2    2.60    1.40
   4  -1  -2    4.50    1.60
  -4   1   2    4.80    1.90
   4   1  -2    2.30    1.30
   4   1  -2    5.60    1.70
  -4   1   2    5.40    2.00
   4   1  -2    3.50    1.80
   4   1  -2    2.70    1.50
   4   1  -2    4.30    1.90
   4   1  -2    6.30    1.70
  -4   1   2    3.20    1.30
   4   1  -2    5.90    1.70
  -4   1   2    5.00    1.20
   3  -1  -2   26.00    2.90
   3  -1  -2   21.30    2.90
   3  -1  -2   27.20    3.60
   3  -1  -2   24.20    2.80
  -3  -1   2   27.70    3.20
   3  -1  -2   23.60    3.20
   3  -1  -2   26.20    3.10
   3  -1  -2   30.10    1.90
  -3  -1   2   30.30    4.00
  -3  -1   2   27.80    2.00
  -3  -1   2   33.00    4.00
   3   1  -2   28.00    2.30
   3   1  -2   33.40    4.10
  -3   1   2   26.60    2.90
   3   1  -2   30.70    4.00
  -3   1   2   28.60    1.80
   3   1  -2   28.60    3.20
  -3   1   2   23.90    3.40
   3   1  -2   31.20    3.00
   3   1  -2   28.30    3.40
  -3   1   2   35.60    4.20
   3   1  -2   30.90    3.90
   2  -1  -2  342.67   10.40
   2  -1  -2  341.97   12.70
   2  -1  -2  325.57   12.10
  -2  -1   2  337.07   10.10
   2  -1  -2  343.27   11.20
  -2  -1   2  338.07   12.60
  -2  -1   2  347.67   12.10
   2  -1  -2  334.17   12.30
  -2  -1   2  373.26   12.50
   2   1  -2  354.86   12.40
   2   1  -2  334.17   12.70
   2   1  -2  333.67   10.10
  -2   1   2  344.57   12.60
   2   1  -2  346.37   12.00
  -2   1   2  342.57   12.20
  -2   1   2  332.57   10.00
   2   1  -2  342.07   12.60
  -2   1   2  344.87    9.40
  -2   1   2  331.77   11.90
   2   1  -2  347.57   12.20
   2   1  -2  339.47   10.60
  -1  -1   2  182.68    7.30
   1  -1  -2  180.58    7.20
   1  -1  -2  165.18    7.10
   1  -1  -2  172.08    5.50
  -1  -1   2  188.98    5.10
  -1  -1   2  187.78    5.90
  -1  -1   2  180.38    7.40
  -1  -1   2  175.38    7.00
   1  -1  -2  171.68    7.30
   1  -1  -2  173.98    4.90
   1  -1  -2  161.38    6.30
  -1   1   2  162.48    7.00
   1   1  -2  184.18    6.10
   1   1  -2  176.58    7.40
  -1   1   2  171.18    6.90
   1   1  -2  185.98    7.30
   1   1  -2  183.58    7.10
   1   1  -2  190.28    7.20
  -1   1   2  179.18    7.50
   1   1  -2  186.18    4.90
   0  -1  -2  828.42   25.10
   0  -1   2  842.52   24.60
   0  -1  -2  824.32   24.80
   0  -1  -2  806.02   24.80
   0  -1   2  867.51   22.60
   0  -1   2  866.51   24.10
   0  -1  -2  827.02   24.20
   0  -1   2  867.11   25.50
   0  -1  -2  828.32   22.80
   0   1  -2  833.72   22.50
   0   1  -2  867.51   25.40
   0   1   2  834.62   24.70
   0   1   2  816.22   22.60
   0   1  -2  819.42   22.70
   0   1   2  821.92   25.50
   0   1   2  786.42   23.60
   0   1  -2  857.71   25.30
   0   1  -2  864.71   24.10
   0   1  -2  864.91   25.10
   1  -1   2 1600.34   45.70
   1  -1   2 1575.04   39.30
  -1  -1  -2 1558.44   42.70
  -1  -1  -2 1569.74   44.30
   1  -1   2 1571.54   44.60
   1  -1   2 1655.13   43.40
  -1  -1  -2 1574.84   44.60
   1  -1   2 1574.04   42.80
  -1  -1  -2 1600.34   44.50
  -1  -1  -2 1502.45   45.30
   1  -1   2 1571.34   39.50
  -1   1  -2 1578.84   45.20
  -1   1  -2 1571.64   42.80
   1   1   2 1598.64   43.90
   1   1   2 1550.64   45.80
  -1   1  -2 1604.84   44.50
   1   1   2 1582.04   39.90
  -1   1  -2 1531.15   39.50
  -1   1  -2 1550.44   45.70
   1   1   2 1544.25   44.30
  -2  -1  -2  451.95   14.10
   2  -1   2  455.85   15.00
   2  -1   2  395.46   15.60
  -2  -1  -2  453.75   14.60
  -2  -1  -2  438.76   15.30
  -2  -1  -2  421.36   15.30
   2  -1   2  442.36   13.00
  -2  -1  -2  425.36   15.10
   2  -1   2  412.16   15.10
   2   1   2  446.76   13.80
  -2   1  -2  433.16   15.50
   2   1   2  440.56   15.80
   2   1   2  461.25   15.40
   2   1   2  450.25   15.30
  -2   1  -2  449.46   15.10
   2   1   2  445.76   12.20
  -2   1  -2  457.15   14.80
  -2   1  -2  426.66   15.40
  -2   1  -2  434.56   15.30
  -3  -1  -2  166.68    6.90
   3  -1   2  189.08    9.50
  -3  -1  -2  165.68    8.50
   3  -1   2  160.08    5.40
   3  -1   2  173.08    9.00
  -3  -1  -2  180.78    7.60
   3  -1   2  158.98    6.10
  -3  -1  -2  166.98    8.00
  -3  -1  -2  161.18    8.60
   3  -1   2  183.88    7.70
  -3   1  -2  175.68    9.00
   3   1   2  182.98    8.00
  -3   1  -2  169.38    7.50
  -3   1  -2  181.98    8.00
   3   1   2  162.38    6.60
   3   1   2  170.08    9.00
  -3   1  -2  181.28    5.60
  -3   1  -2  162.58    8.50
   3   1   2  169.08    6.20
  -3   1  -2  176.28    8.40
  -4  -1  -2   55.49    3.80
   4  -1   2   60.59    3.60
  -4  -1  -2   53.59    4.10
   4  -1   2   58.79    6.70
   4  -1   2   58.59    3.20
  -4  -1  -2   62.79    6.50
   4  -1   2   58.59    4.10
   4  -1   2   67.29    7.30
  -4  -1  -2   56.19    6.20
  -4  -1  -2   51.09    4.50
   4  -1   2   64.19    7.20
   4   1   2   57.39    4.30
   4   1   2   58.49    6.50
   4   1   2   56.69    3.70
   4   1   2   53.69    3.70
  -4   1  -2   56.09    3.20
   4   1   2   42.30    5.20
  -4   1  -2   53.19    4.10
  -4   1  -2   66.69    5.50
  -4   1  -2   55.49    6.30
  -4   1  -2   54.59    4.40
  -4   1  -2   60.69    5.00
  -5  -1  -2  207.78    9.10
   5  -1   2  204.18   12.00
   5  -1   2  205.88   12.00
   5  -1   2  202.08   11.60
   5  -1   2  208.48    8.80
  -5  -1  -2  207.28    9.70
  -5  -1  -2  197.78   10.40
   5  -1   2  192.28    9.10
  -5  -1  -2  206.98   11.40
  -5  -1  -2  195.18   11.50
  -5   1  -2  218.78   11.10
  -5   1  -2  201.88    9.50
   5   1   2  204.28    9.20
   5   1   2  208.08   11.80
   5   1   2  210.28   12.00
   5   1   2  209.98    8.90
  -5   1  -2  192.28   11.60
  -5   1  -2  198.18   11.30
   5   1   2  205.98    9.70
  -5   1  -2  194.58    9.90
   6  -1   2  133.89    7.50
  -6  -1  -2  121.89    8.60
   6  -1   2  137.19   13.10
  -6  -1  -2  128.69    7.30
  -6  -1  -2  141.89   10.00
  -6  -1  -2  134.09    8.00
   6  -1   2  131.99   10.20
  -6  -1  -2  101.69   10.50
  -6   1  -2  138.79   10.00
   6   1   2  114.59    9.40
   6   1   2  121.09    8.50
  -6   1  -2  129.09    7.80
   6   1   2  115.69    9.70
  -6   1  -2  130.89    8.30
  -6   1  -2  113.79    8.60
   6   1   2  139.99    8.00
  -6   1  -2  107.49   10.90
  -7  -1  -2   45.60    5.90
  -7  -1  -2   43.90    7.30
  -7  -1  -2   42.80    7.20
   7  -1   2   51.89    8.50
  -7  -1  -2   44.10    6.70
   7  -1   2   47.60    8.00
   7   1   2   41.70    7.80
  -7   1  -2   57.89    7.00
   7   1   2   50.89    6.00
  -7   1  -2   46.40    7.20
  -7   1  -2   31.00    6.00
  -7   1  -2   40.90    7.20
  -7   1  -2   44.80    5.90
   7   1   2   38.90    6.70
  -8  -1  -2   -1.10    2.30
  -8  -1  -2   -2.50    2.60
   8  -1   2    2.70    3.10
   8  -1   2    0.70    3.80
  -8  -1  -2   -0.90    2.40
  -8   1  -2    4.60    3.80
  -8   1  -2    0.70    3.30
  -8   1  -2    4.30    3.30
   8   1   2   -1.80    3.20
   8   1   2   -1.30    2.50
  -8   1  -2    4.30    2.50
   8  -2  -2   25.70    6.00
   8  -2  -2   25.70    5.10
  -8  -2   2   26.60    6.00
   8  -2  -2   18.70    4.40
   8  -2  -2   21.10    5.10
  -8  -2   2   21.80    4.70
  -8  -2   2   30.10    6.70
   8   2  -2   13.00    4.60
  -8   2   2   26.00    5.50
  -8   2   2   23.20    5.10
   8   2  -2   18.90    4.80
  -8   2   2   21.90    5.70
  -8   2   2   18.30    4.50
  -7  -2   2  109.79   11.00
   7  -2  -2  135.49   10.70
  -7  -2   2  141.49    9.10
   7  -2  -2  123.99    9.80
   7  -2  -2  122.69    9.10
   7  -2  -2  123.49    9.10
   7  -2  -2  129.09    9.40
  -7  -2   2  129.99    8.60
  -7  -2   2  124.69   10.00
  -7  -2   2  135.79    9.10
   7   2  -2  127.29    8.80
  -7   2   2  134.89    8.90
   7   2  -2  138.29   10.70
  -7   2   2  139.49    9.80
   7   2  -2  107.39   10.90
  -7   2   2  125.19    9.00
  -7   2   2  142.49    9.80
   7   2  -2  129.49    8.50
   7   2  -2  118.09    8.70
  -6  -2   2  147.19    8.90
  -6  -2   2  139.69    9.80
  -6  -2   2  138.39    8.50
   6  -2  -2  142.09    8.90
   6  -2  -2  135.59    9.50
  -6  -2   2  144.79   10.00
   6  -2  -2  135.19    8.80
   6  -2  -2  145.49    9.30
  -6  -2   2  133.89    7.20
   6  -2  -2  134.79    8.90
   6   2  -2  133.59    8.70
   6   2  -2  131.59    8.10
   6   2  -2  126.49    9.40
   6   2  -2  118.29    9.20
   6   2  -2  137.69    8.30
   6   2  -2  136.79    8.70
  -6   2   2  142.09    9.30
  -6   2   2  146.19    8.00
  -6   2   2  135.79    9.10
  -6   2   2  138.29    8.90
  -5  -2   2  179.28   10.30
  -5  -2   2  158.98    8.70
  -5  -2   2  150.98    9.60
   5  -2  -2  173.48    7.90
   5  -2  -2  182.58    9.40
   5  -2  -2  162.88    9.00
  -5  -2   2  172.28    7.60
   5  -2  -2  156.58    8.90
  -5  -2   2  174.08    8.90
   5  -2  -2  178.68    9.70
   5  -2  -2  176.88    9.60
   5   2  -2  172.58   10.10
  -5   2   2  181.08    9.80
   5   2  -2  159.58    9.10
   5   2  -2  168.58    8.70
   5   2  -2  178.78    8.80
  -5   2   2  172.48    9.60
  -5   2   2  163.68    7.50
   5   2  -2  164.68    9.90
   5   2  -2  165.38    8.80
   5   2  -2  156.78    8.30
  -5   2   2  165.28    8.10
   4  -2  -2  140.69    7.80
  -4  -2   2  158.78    7.40
  -4  -2   2  144.29    7.60
   4  -2  -2  153.08    6.30
  -4  -2   2  137.69    6.20
  -4  -2   2  147.49    8.60
   4  -2  -2  148.49    8.20
  -4  -2   2  145.19    8.50
   4  -2  -2  164.68    8.00
   4  -2  -2  159.58    8.00
   4  -2  -2  150.78    7.60
   4   2  -2  152.48    7.30
   4   2  -2  153.38    8.60
   4   2  -2  149.99    7.40
  -4   2   2  167.18    6.50
  -4   2   2  158.38    7.20
   4   2  -2  154.08    7.10
   4   2  -2  150.18    8.30
   4   2  -2  151.28    8.60
   4   2  -2  152.78    7.70
  -4   2   2  148.59    8.30
  -4   2   2  148.29    8.20
   3  -2  -2   98.49    5.20
  -3  -2   2  113.89    5.90
   3  -2  -2  102.69    5.40
   3  -2  -2  104.89    4.20
   3  -2  -2  107.59    6.00
  -3  -2   2  105.19    6.40
   3  -2  -2   98.79    5.80
   3  -2  -2   97.99    6.00
  -3  -2   2  111.39    4.60
   3   2  -2  118.19    5.00
   3   2  -2  110.59    5.50
  -3   2   2   95.09    6.00
   3   2  -2  111.09    6.60
   3   2  -2  107.79    6.30
  -3   2   2  109.89    5.40
   3   2  -2  113.19    5.10
   3   2  -2  106.59    6.40
  -3   2   2  103.09    4.10
  -3   2   2  117.19    6.50
   3   2  -2  106.19    5.80
  -2  -2   2  601.24   16.30
  -2  -2   2  605.84   17.20
  -2  -2   2  573.84   19.30
   2  -2  -2  631.94   20.10
  -2  -2   2  618.84   20.00
   2  -2  -2  617.94   18.40
   2  -2  -2  593.34   17.20
   2  -2  -2  566.34   19.30
   2  -2  -2  555.34   19.30
   2   2  -2  595.44   19.80
  -2   2   2  602.44   19.00
   2   2  -2  618.24   17.20
   2   2  -2  601.54   16.30
   2   2  -2  604.24   18.90
   2   2  -2  582.74   19.90
   2   2  -2  602.74   19.00
  -2   2   2  620.94   19.80
  -2   2   2  588.04   18.60
   2   2  -2  605.14   19.40
   1  -2  -2 2095.19   59.59
   1  -2  -2 2107.99   60.09
   1  -2  -2 2118.09   54.59
  -1  -2   2 2157.68   56.69
   1  -2  -2 2199.58   60.19
   1  -2  -2 2101.19   57.59
  -1  -2   2 1985.40   58.99
  -1  -2   2 2106.49   60.39
  -1   2   2 2205.78   55.09
  -1   2   2 2109.99   59.19
   1   2  -2 2073.89   58.99
   1   2  -2 2086.99   59.69
   1   2  -2 2087.79   59.59
   1   2  -2 2167.98   56.69
   1   2  -2 2117.09   54.99
   1   2  -2 2107.49   60.39
  -1   2   2 2096.39   60.09
   0  -2  -2  814.32   23.60
   0  -2  -2  787.82   23.20
   0  -2   2  770.82   23.80
   0  -2   2  773.52   22.90
   0  -2  -2  778.02   22.80
   0  -2   2  814.72   22.70
   0  -2   2  763.02   21.20
   0  -2  -2  762.22   23.10
   0  -2  -2  806.02   21.50
   0   2   2  747.03   23.80
   0   2  -2  794.82   22.50
   0   2  -2  780.62   21.10
   0   2   2  776.92   21.30
   0   2  -2  766.62   21.30
   0   2   2  781.82   22.00
   0   2  -2  784.22   23.70
   0   2  -2  755.82   23.70
   0   2   2  765.02   23.30
   0   2  -2  736.63   23.80
   1  -2   2 1239.28   33.70
  -1  -2  -2 1188.98   35.30
  -1  -2  -2 1186.08   34.50
   1  -2   2 1239.58   30.30
   1  -2   2 1240.98   33.50
   1  -2   2 1292.27   35.30
  -1  -2  -2 1190.88   33.40
  -1  -2  -2 1181.68   34.20
  -1  -2  -2 1178.08   34.60
   1  -2   2 1193.58   35.60
   1  -2   2 1205.88   30.50
  -1   2  -2 1284.47   35.90
   1   2   2 1203.28   34.60
  -1   2  -2 1224.68   34.90
  -1   2  -2 1143.39   35.40
   1   2   2 1220.08   31.30
  -1   2  -2 1205.18   36.10
   1   2   2 1208.28   36.00
   1   2   2 1123.49   34.30
  -1   2  -2 1201.68   30.40
  -2  -2  -2  692.23   19.70
   2  -2   2  652.23   20.90
   2  -2   2  642.74   21.00
   2  -2   2  635.94   21.80
  -2  -2  -2  659.93   21.00
  -2  -2  -2  660.43   21.20
  -2  -2  -2  663.33   20.20
  -2  -2  -2  648.34   20.80
   2  -2   2  642.44   18.40
  -2   2  -2  620.84   21.30
   2   2   2  687.13   21.70
   2   2   2  625.44   21.20
  -2   2  -2  669.93   21.10
  -2   2  -2  674.73   21.40
   2   2   2  682.53   20.00
   2   2   2  681.03   18.00
  -2   2  -2  650.03   21.70
  -3  -2  -2   70.19    4.10
   3  -2   2   65.19    5.40
  -3  -2  -2   64.69    5.10
   3  -2   2   63.09    2.90
   3  -2   2   67.99    4.20
   3  -2   2   68.79    5.30
  -3  -2  -2   70.69    3.70
   3  -2   2   65.09    5.30
  -3  -2  -2   71.69    4.60
  -3  -2  -2   66.29    5.00
  -3   2  -2   68.49    4.60
  -3   2  -2   63.59    5.00
   3   2   2   70.39    3.70
  -3   2  -2   66.29    4.90
   3   2   2   70.99    5.40
   3   2   2   78.29    4.80
  -3   2  -2   71.49    4.50
   3   2   2   67.79    3.80
   4  -2   2  131.59    6.30
  -4  -2  -2  128.79    5.90
  -4  -2  -2  130.39    6.50
   4  -2   2  136.69    8.40
   4  -2   2  138.79    8.70
  -4  -2  -2  129.09    8.20
  -4  -2  -2  129.89    7.90
   4  -2   2  123.19    5.40
   4  -2   2  129.49    8.60
  -4  -2  -2  121.99    7.00
  -4   2  -2  123.39    7.60
  -4   2  -2  124.89    4.70
   4   2   2  136.89    7.10
  -4   2  -2  123.29    7.10
   4   2   2  116.09    7.90
  -4   2  -2  124.69    8.00
  -4   2  -2  123.19    6.80
   4   2   2  142.19    6.40
   4   2   2  131.99    8.30
   4   2   2  127.99    6.30
   5  -2   2  419.46   18.50
  -5  -2  -2  395.36   16.00
  -5  -2  -2  405.86   17.10
  -5  -2  -2  382.76   14.80
   5  -2   2  395.66   18.00
   5  -2   2  402.96   14.60
  -5  -2  -2  378.36   17.10
  -5  -2  -2  387.56   14.10
   5  -2   2  372.06   17.40
  -5   2  -2  411.56   15.70
  -5   2  -2  412.86   17.00
  -5   2  -2  411.86   16.10
   5   2   2  386.46   14.20
   5   2   2  393.66   17.50
  -5   2  -2  376.66   17.10
   5   2   2  367.46   17.10
   5   2   2  376.66   14.80
   5   2   2  391.76   15.50
  -6  -2  -2   65.29    8.30
  -6  -2  -2   79.29    6.70
  -6  -2  -2   77.59    8.30
   6  -2   2   95.49   10.30
  -6  -2  -2   90.39    6.20
   6  -2   2   66.69    8.40
   6  -2   2   76.09    9.10
  -6   2  -2   89.99   10.10
   6   2   2   80.19    6.20
  -6   2  -2   79.49    8.90
   6   2   2   86.49    9.50
   6   2   2   82.59    9.40
  -6   2  -2   74.59    6.50
  -6   2  -2   83.79    7.30
  -6   2  -2   80.29    6.20
   6   2   2   94.29    6.60
   7  -2   2   89.09   11.20
   7  -2   2   71.69   10.00
   7  -2   2   71.29    9.60
  -7  -2  -2   85.19    9.00
  -7  -2  -2   74.09    9.10
  -7  -2  -2   98.09   11.00
   7   2   2   86.19    6.80
  -7   2  -2   80.19   10.90
  -7   2  -2   78.59    6.90
  -7   2  -2   87.29    8.90
  -7   2  -2   98.69   10.70
  -7   2  -2   76.49   10.10
   7   2   2   66.69    8.70
  -8  -2  -2   10.00    4.50
   8  -2   2   -3.00    2.70
  -8  -2  -2   10.70    4.50
   8  -2   2    4.50    4.00
  -8  -2  -2    4.30    3.30
  -8   2  -2    5.00    3.80
  -8   2  -2    6.70    3.50
  -8   2  -2    6.20    3.40
   8   2   2   -1.00    2.40
  -8   2  -2    7.80    4.30
  -7  -3   2   57.09    8.10
   7  -3  -2   62.19    7.50
   7  -3  -2   53.49    7.10
  -7  -3   2   69.89    8.70
   7  -3  -2   58.49    7.90
   7  -3  -2   44.00    6.60
   7  -3  -2   53.79    8.00
  -7  -3   2   53.89    6.70
  -7   3   2   60.59    7.50
   7   3  -2   55.19    7.80
  -7   3   2   55.89    7.20
   7   3  -2   68.89    6.00
   7   3  -2   51.09    6.50
   7   3  -2   69.49    8.90
  -7   3   2   64.29    7.40
   6  -3  -2    9.40    3.10
  -6  -3   2    7.10    2.00
  -6  -3   2    9.60    3.30
   6  -3  -2    8.30    3.30
   6  -3  -2    9.30    2.70
   6  -3  -2    4.00    2.30
   6  -3  -2    7.60    2.60
  -6  -3   2    8.90    2.80
  -6  -3   2    6.90    2.90
  -6  -3   2    6.10    2.30
   6   3  -2    4.30    2.00
   6   3  -2    6.10    2.90
  -6   3   2    3.60    2.40
  -6   3   2    4.80    2.50
  -6   3   2    9.50    2.90
   6   3  -2    2.70    1.70
   6   3  -2    8.40    2.60
   6   3  -2    6.40    2.50
   6   3  -2    5.10    2.70
   5  -3  -2    6.80    2.20
  -5  -3   2   10.30    2.40
  -5  -3   2    6.60    2.40
  -5  -3   2   11.20    3.20
  -5  -3   2    7.00    1.70
   5  -3  -2    6.20    2.40
   5  -3  -2    8.40    2.80
  -5  -3   2    5.30    2.00
   5  -3  -2    9.80    2.70
   5  -3  -2    5.30    2.30
  -5   3   2    6.50    1.90
  -5   3   2    4.70    1.80
   5   3  -2    8.70    2.50
   5   3  -2    7.10    2.00
   5   3  -2   10.90    2.30
   5   3  -2    4.70    2.00
   5   3  -2   13.30    2.90
   5   3  -2   10.40    3.10
   5   3  -2   10.40    3.20
   5   3  -2    9.60    2.60
  -5   3   2    5.20    2.30
  -5   3   2    8.10    2.60
  -4  -3   2   44.50    3.10
  -4  -3   2   41.00    3.40
   4  -3  -2   30.80    3.90
  -4  -3   2   46.00    4.80
   4  -3  -2   38.60    4.60
  -4  -3   2   38.30    5.10
   4  -3  -2   34.60    2.80
   4  -3  -2   37.40    4.70
   4  -3  -2   27.30    3.70
   4  -3  -2   34.80    4.30
   4   3  -2   40.80    4.70
   4   3  -2   37.10    4.80
   4   3  -2   42.10    4.70
   4   3  -2   35.10    3.90
   4   3  -2   44.40    4.20
  -4   3   2   35.20    3.00
   4   3  -2   33.40    3.50
  -4   3   2   38.00    4.70
  -4   3   2   33.20    4.30
   4   3  -2   36.00    4.80
   4   3  -2   40.90    3.40
   3  -3  -2  155.08    5.70
  -3  -3   2  165.58    7.70
  -3  -3   2  157.18    6.10
   3  -3  -2  182.78    7.60
   3  -3  -2  157.58    7.00
  -3  -3   2  157.48    6.20
   3  -3  -2  173.08    7.90
   3  -3  -2  164.08    7.80
  -3  -3   2  169.78    8.50
   3  -3  -2  139.49    7.60
   3   3  -2  150.58    8.00
   3   3  -2  158.48    6.90
   3   3  -2  157.38    8.00
  -3   3   2  163.48    6.90
  -3   3   2  149.29    7.70
  -3   3   2  163.88    8.00
   3   3  -2  152.88    8.20
   3   3  -2  153.78    7.40
   3   3  -2  166.88    6.30
   2  -3  -2  659.03   21.90
   2  -3  -2  708.53   21.80
  -2  -3   2  671.93   21.70
   2  -3  -2  690.03   19.50
  -2  -3   2  664.23   19.50
   2  -3  -2  688.53   20.70
  -2  -3   2  631.04   21.80
   2  -3  -2  708.63   21.80
  -2   3   2  685.43   20.70
  -2   3   2  665.93   21.00
   2   3  -2  668.63   22.20
   2   3  -2  672.73   21.00
   2   3  -2  660.73   20.90
   2   3  -2  679.33   21.50
   2   3  -2  649.04   18.90
   2   3  -2  670.13   21.90
  -2   3   2  718.63   22.00
   1  -3  -2  456.55   13.50
   1  -3  -2  429.26   15.30
  -1  -3   2  440.86   15.40
   1  -3  -2  473.05   13.00
   1  -3  -2  456.25   12.60
   1  -3  -2  500.25   15.60
  -1  -3   2  481.85   14.10
  -1  -3   2  469.55   15.60
   1  -3  -2  439.06   15.10
   1   3  -2  469.55   15.90
   1   3  -2  474.05   15.50
   1   3  -2  482.55   14.70
   1   3  -2  481.25   13.30
   1   3  -2  463.75   15.40
  -1   3   2  477.75   15.70
  -1   3   2  495.95   14.80
   1   3  -2  467.85   15.10
  -1   3   2  454.25   15.20
   0  -3  -2   51.49    2.80
   0  -3  -2   56.19    2.60
   0  -3  -2   47.00    3.00
   0  -3  -2   46.60    2.80
   0  -3   2   59.19    3.30
   0  -3   2   46.10    2.50
   0  -3   2   54.99    3.10
   0  -3   2   41.00    3.00
   0  -3  -2   52.29    3.00
   0  -3  -2   48.10    3.00
   0   3  -2   47.50    3.30
   0   3  -2   49.00    3.00
   0   3  -2   49.50    2.80
   0   3  -2   53.39    3.30
   0   3   2   46.80    2.90
   0   3  -2   51.69    2.80
   0   3   2   50.69    2.60
   0   3  -2   46.40    3.40
   0   3   2   49.30    3.30
   0   3   2   50.29    3.30
   1  -3   2  117.69    6.00
   1  -3   2  127.89    5.60
  -1  -3  -2  123.19    5.50
  -1  -3  -2  120.89    5.30
  -1  -3  -2  122.39    4.90
  -1  -3  -2  120.59    5.60
  -1  -3  -2  118.19    4.40
   1  -3   2  125.99    5.70
   1  -3   2  117.59    4.60
   1   3   2  121.59    4.80
  -1   3  -2  123.49    6.10
  -1   3  -2  118.69    4.10
  -1   3  -2  117.49    5.70
  -1   3  -2  134.19    6.20
  -1   3  -2  128.09    6.20
   1   3   2  121.39    5.60
   1   3   2  121.69    5.60
   1   3   2  117.59    5.80
   2  -3   2  156.78    8.20
  -2  -3  -2  165.78    7.60
  -2  -3  -2  156.18    7.50
  -2  -3  -2  168.98    7.10
   2  -3   2  174.38    7.10
   2  -3   2  168.48    5.00
  -2  -3  -2  166.68    6.40
  -2  -3  -2  171.78    5.80
   2  -3   2  165.98    8.00
  -2   3  -2  170.98    8.10
   2   3   2  160.98    7.60
  -2   3  -2  174.68    7.70
  -2   3  -2  174.18    7.90
   2   3   2  150.08    6.70
  -2   3  -2  173.08    5.30
  -2   3  -2  171.68    8.00
   2   3   2  163.98    6.00
   2   3   2  175.88    8.00
  -3  -3  -2  356.06   13.00
   3  -3   2  348.67   14.30
  -3  -3  -2  344.47   13.80
  -3  -3  -2  356.66   12.10
  -3  -3  -2  352.66   13.80
   3  -3   2  370.36   15.00
  -3  -3  -2  354.26   11.30
   3  -3   2  344.37   10.20
   3  -3   2  339.07   14.10
   3  -3   2  342.77   12.40
   3   3   2  348.97   11.50
  -3   3  -2  351.36   13.60
   3   3   2  343.27   14.00
  -3   3  -2  351.56   13.30
  -3   3  -2  362.76   14.30
   3   3   2  354.76   12.30
   3   3   2  351.76   13.30
  -3   3  -2  350.46   14.00
   4  -3   2  513.85   19.90
   4  -3   2  510.25   20.30
  -4  -3  -2  497.15   18.00
  -4  -3  -2  493.65   16.00
   4  -3   2  505.95   15.20
   4  -3   2  499.75   16.80
  -4  -3  -2  525.75   17.00
  -4  -3  -2  477.35   18.70
   4  -3   2  506.35   19.70
  -4  -3  -2  500.45   19.00
  -4   3  -2  492.55   19.40
   4   3   2  481.85   16.20
   4   3   2  471.15   17.90
   4   3   2  508.85   19.40
  -4   3  -2  525.15   18.30
   4   3   2  487.85   17.10
  -4   3  -2  501.75   18.40
  -4   3  -2  487.15   19.00
  -4   3  -2  503.65   13.60
   5  -3   2   56.59    4.10
  -5  -3  -2   66.79    5.40
  -5  -3  -2   68.39    4.80
  -5  -3  -2   60.39    6.80
  -5  -3  -2   68.19    7.70
  -5  -3  -2   71.29    4.30
   5  -3   2   59.49    7.60
   5  -3   2   59.59    7.40
   5  -3   2   47.30    7.00
   5   3   2   60.59    4.90
   5   3   2   48.10    6.10
  -5   3  -2   68.29    5.50
   5   3   2   64.49    5.00
  -5   3  -2   60.59    6.40
  -5   3  -2   53.09    6.60
   5   3   2   75.29    5.50
  -5   3  -2   60.59    6.90
  -6  -3  -2    1.40    1.80
   6  -3   2    0.00    2.10
  -6  -3  -2    5.40    2.50
   6  -3   2    0.40    2.20
   6  -3   2    2.40    2.70
  -6  -3  -2    1.40    2.00
  -6   3  -2    5.10    2.70
  -6   3  -2    2.10    1.90
   6   3   2    6.20    2.30
  -6   3  -2    4.50    2.30
  -6   3  -2    5.90    2.70
   6   3   2    3.50    2.80
   6   3   2    3.30    2.00
   7  -3   2   15.30    5.10
  -7  -3  -2   17.00    4.60
   7  -3   2    8.90    4.10
  -7  -3  -2   11.20    3.90
   7  -3   2   14.10    5.00
  -7  -3  -2   13.90    4.10
  -7   3  -2   18.00    5.20
  -7   3  -2   11.80    3.90
  -7   3  -2   12.40    3.90
  -7   3  -2    7.50    2.80
   7   3   2   10.80    4.00
   7   3   2   13.40    3.50
  -7   3  -2   18.70    5.30
  -7  -4   2    5.40    2.80
  -7  -4   2    3.40    2.80
   7  -4  -2    0.90    3.00
   7  -4  -2    3.30    2.20
   7  -4  -2    3.30    2.70
  -7  -4   2    2.40    1.70
   7  -4  -2    0.90    1.90
  -7  -4   2    4.50    2.30
   7  -4  -2    3.30    2.70
  -7   4   2    1.40    2.10
  -7   4   2    3.20    2.40
  -7   4   2    2.30    2.20
  -7   4   2    5.70    2.80
   7   4  -2    2.10    3.10
   7   4  -2    6.80    3.70
   6  -4  -2   59.59    7.20
   6  -4  -2   45.00    6.60
  -6  -4   2   53.49    7.10
  -6  -4   2   52.29    4.50
   6  -4  -2   42.80    6.10
  -6  -4   2   62.39    7.90
  -6  -4   2   42.50    5.60
   6  -4  -2   42.00    5.60
   6  -4  -2   53.69    6.80
   6   4  -2   57.89    7.80
   6   4  -2   46.10    5.60
   6   4  -2   49.60    5.40
  -6   4   2   57.39    6.60
   6   4  -2   48.60    6.20
  -6   4   2   50.99    6.20
  -6   4   2   47.70    6.10
  -6   4   2   52.89    6.40
   6   4  -2   52.79    7.30
  -5  -4   2   56.79    4.40
   5  -4  -2   57.19    6.40
  -5  -4   2   48.40    6.20
  -5  -4   2   56.49    6.00
   5  -4  -2   49.60    5.70
   5  -4  -2   43.40    5.30
  -5  -4   2   52.49    5.10
   5  -4  -2   61.29    6.90
  -5  -4   2   50.69    4.00
   5  -4  -2   36.20    5.00
   5   4  -2   46.10    4.00
   5   4  -2   43.50    6.10
  -5   4   2   43.20    5.50
   5   4  -2   44.20    4.60
  -5   4   2   46.30    5.60
   5   4  -2   46.80    5.50
   5   4  -2   43.40    5.30
   5   4  -2   48.00    6.50
  -5   4   2   41.90    5.10
  -4  -4   2  143.59    6.40
   4  -4  -2  133.49    7.60
   4  -4  -2  123.39    7.50
   4  -4  -2  135.39    6.20
  -4  -4   2  142.09    8.50
  -4  -4   2  134.39    7.50
  -4  -4   2  135.59    6.40
   4  -4  -2  137.99    7.60
   4  -4  -2  130.59    7.80
   4  -4  -2  143.59    7.70
  -4   4   2  146.99    6.50
  -4   4   2  148.79    8.00
   4   4  -2  136.69    7.70
   4   4  -2  133.79    8.40
   4   4  -2  146.29    8.10
   4   4  -2  137.39    8.40
  -4   4   2  130.79    7.60
   4   4  -2  135.69    6.50
   4   4  -2  143.39    7.20
   4   4  -2  145.69    6.80
   3  -4  -2  516.15   17.90
   3  -4  -2  480.35   16.80
   3  -4  -2  465.85   16.20
   3  -4  -2  527.85   17.80
  -3  -4   2  491.65   17.60
  -3  -4   2  512.85   15.80
  -3  -4   2  491.45   18.30
  -3  -4   2  514.15   14.50
   3  -4  -2  508.25   18.10
   3  -4  -2  512.05   15.20
  -3   4   2  481.95   17.00
   3   4  -2  526.25   17.30
   3   4  -2  513.65   18.00
   3   4  -2  499.95   18.10
   3   4  -2  501.85   15.10
  -3   4   2  487.15   16.20
   3   4  -2  474.65   17.70
  -3   4   2  501.75   17.70
   3   4  -2  489.05   16.40
   3   4  -2  498.15   18.40
  -2  -4   2  284.67    7.50
   2  -4  -2  259.97   10.40
  -2  -4   2  272.87   11.10
  -2  -4   2  291.87    8.00
   2  -4  -2  279.97    9.50
  -2  -4   2  289.97    9.40
   2  -4  -2  260.97   10.00
  -2  -4   2  269.27   10.70
   2  -4  -2  268.77   10.70
   2  -4  -2  237.58   10.40
   2  -4  -2  274.77    8.40
   2   4  -2  275.77   11.20
   2   4  -2  280.77   10.50
  -2   4   2  280.07   10.50
  -2   4   2  264.67    9.80
   2   4  -2  280.27    9.90
   2   4  -2  272.47   10.80
   2   4  -2  268.07    8.10
   2   4  -2  298.37   11.30
  -2   4   2  244.28   10.50
  -1  -4   2  489.05   13.20
   1  -4  -2  475.85   16.20
   1  -4  -2  485.65   16.00
  -1  -4   2  486.95   15.10
   1  -4  -2  491.85   14.60
  -1  -4   2  512.45   16.50
   1  -4  -2  500.05   16.20
   1  -4  -2  485.35   15.60
  -1  -4   2  510.15   16.60
   1  -4  -2  480.15   13.70
  -1   4   2  493.05   15.50
   1   4  -2  497.45   15.90
   1   4  -2  487.35   16.80
   1   4  -2  509.85   13.10
   1   4  -2  516.35   16.40
   1   4  -2  503.15   13.80
  -1   4   2  466.65   16.30
  -1   4   2  481.05   16.00
   1   4  -2  516.15   16.50
   1   4  -2  497.45   15.60
   0  -4  -2    7.80    1.20
   0  -4   2    4.80    1.30
   0  -4   2    5.80    1.10
   0  -4  -2    8.40    1.50
   0  -4  -2    9.10    1.20
   0  -4  -2    7.00    1.30
   0  -4   2    4.80    1.10
   0  -4   2    5.20    1.30
   0  -4  -2   10.80    1.60
   0  -4  -2   10.60    1.70
   0   4   2    5.20    1.30
   0   4  -2    7.30    1.40
   0   4   2    6.70    1.30
   0   4  -2    6.20    1.50
   0   4  -2    5.60    1.20
   0   4  -2    5.90    1.20
   0   4  -2    7.10    1.50
   0   4  -2    6.00    1.60
   0   4   2    7.20    1.60
  -1  -4  -2  605.24   18.60
   1  -4   2  615.24   19.40
   1  -4   2  605.94   18.20
  -1  -4  -2  583.74   17.90
   1  -4   2  579.04   18.80
  -1  -4  -2  587.24   17.00
  -1  -4  -2  596.34   18.30
   1  -4   2  593.24   18.90
  -1  -4  -2  549.65   17.40
  -1  -4  -2  611.64   18.40
   1  -4   2  582.34   17.20
   1   4   2  582.84   16.90
  -1   4  -2  570.44   18.60
  -1   4  -2  600.14   19.70
   1   4   2  605.34   18.70
  -1   4  -2  570.24   19.50
   1   4   2  595.44   18.30
   1   4   2  586.34   19.30
  -1   4  -2  589.74   19.70
  -1   4  -2  599.84   16.00
  -2  -4  -2 1184.88   34.40
   2  -4   2 1178.28   34.30
  -2  -4  -2 1158.78   32.80
   2  -4   2 1100.09   33.70
   2  -4   2 1149.78   35.00
   2  -4   2 1102.99   29.10
  -2  -4  -2 1177.58   33.50
  -2  -4  -2 1159.28   34.40
  -2  -4  -2 1165.68   34.10
   2  -4   2 1124.59   35.30
   2   4   2 1163.68   34.50
  -2   4  -2 1163.78   35.50
   2   4   2 1116.29   35.20
  -2   4  -2 1193.58   35.60
   2   4   2 1184.58   34.00
  -2   4  -2 1162.08   29.00
  -2   4  -2 1204.98   35.00
   2   4   2 1164.58   31.00
  -2   4  -2 1118.99   35.80
  -3  -4  -2   38.60    2.60
  -3  -4  -2   43.40    4.60
  -3  -4  -2   32.50    4.00
   3  -4   2   34.10    4.40
   3  -4   2   33.40    4.30
  -3  -4  -2   37.40    2.10
   3  -4   2   41.70    5.20
  -3  -4  -2   31.60    3.40
   3  -4   2   40.20    3.00
  -3  -4  -2   39.80    4.50
   3   4   2   37.50    3.00
  -3   4  -2   40.90    4.90
  -3   4  -2   36.60    4.10
  -3   4  -2   45.20    4.90
  -3   4  -2   40.90    4.50
   3   4   2   47.10    5.10
   3   4   2   45.30    3.80
   3   4   2   46.80    3.40
   4  -4   2  138.59    8.70
  -4  -4  -2  139.29    7.10
   4  -4   2  120.09    8.50
  -4  -4  -2  132.69    6.20
  -4  -4  -2  116.19    7.70
  -4  -4  -2  137.59    5.60
   4  -4   2  143.69    6.30
   4  -4   2  136.59    9.10
  -4  -4  -2  127.79    8.00
  -4  -4  -2  125.19    7.70
   4   4   2  139.39    7.10
  -4   4  -2  138.69    7.90
   4   4   2  126.89    8.00
  -4   4  -2  136.79    8.50
  -4   4  -2  121.39    7.90
   4   4   2  127.49    6.60
  -4   4  -2  134.39    7.60
   4   4   2  129.69    7.30
  -5  -4  -2  155.58    9.90
   5  -4   2  164.78   11.10
  -5  -4  -2  172.68   10.10
  -5  -4  -2  172.18    8.00
  -5  -4  -2  172.68    9.00
   5  -4   2  178.48   11.50
   5  -4   2  163.68   10.70
  -5  -4  -2  160.08   10.00
   5   4   2  184.28    9.30
  -5   4  -2  175.58    9.50
  -5   4  -2  163.08   10.00
   5   4   2  166.68    9.20
   5   4   2  167.98   10.10
  -5   4  -2  176.98   10.80
  -5   4  -2  171.88    9.70
   5   4   2  175.58    8.80
   6  -4   2   37.00    6.40
  -6  -4  -2   40.20    6.20
   6  -4   2   33.70    6.40
  -6  -4  -2   52.19    6.30
  -6  -4  -2   35.50    6.20
   6  -4   2   30.20    6.00
  -6  -4  -2   39.10    6.10
   6   4   2   41.20    6.30
  -6   4  -2   38.80    6.40
  -6   4  -2   52.69    6.70
   6   4   2   33.00    4.90
  -6   4  -2   34.60    5.60
   6   4   2   43.10    5.70
  -6   4  -2   46.00    6.30
  -7  -4  -2   67.59    8.70
  -7  -4  -2   66.49    8.30
  -7  -4  -2   60.59    8.40
   7  -4   2   48.10    8.50
   7  -4   2   43.40    7.60
   7  -4   2   75.49   10.20
  -7   4  -2   70.49    9.30
   7   4   2   85.59    9.90
   7   4   2   64.29    7.70
  -7   4  -2   63.09    8.30
  -7   4  -2   56.09    7.00
   7   4   2   69.29    7.40
  -7   4  -2   60.99    7.70
   7  -5  -2   49.99    7.70
  -7  -5   2   63.39    8.60
   7  -5  -2   48.50    7.50
   7  -5  -2   56.69    8.60
   7  -5  -2   50.69    7.00
  -7  -5   2   60.49    8.80
   7  -5  -2   67.59    8.20
  -7  -5   2   66.79    6.60
  -7  -5   2   72.79    8.50
  -7   5   2   54.89    7.10
   7   5  -2   64.39    9.00
  -7   5   2   46.30    7.10
   7   5  -2   78.99    9.00
  -7   5   2   58.39    7.20
  -7   5   2   49.00    6.80
   7   5  -2   62.29    8.80
   6  -5  -2   85.49    7.30
  -6  -5   2   92.49    6.10
  -6  -5   2   99.19   10.60
   6  -5  -2   79.99    7.10
   6  -5  -2   81.79    7.00
  -6  -5   2   96.59    7.30
   6  -5  -2   90.99    9.60
   6  -5  -2   82.09    8.90
   6   5  -2  101.99   10.50
  -6   5   2   93.09    7.30
   6   5  -2   91.69    7.50
   6   5  -2   86.09    9.60
  -6   5   2   90.79    7.00
   6   5  -2   99.69    7.20
  -6   5   2   74.29    6.40
  -5  -5   2   28.30    3.60
  -5  -5   2   36.90    5.60
  -5  -5   2   34.00    4.70
   5  -5  -2   29.40    4.70
   5  -5  -2   25.50    4.40
   5  -5  -2   35.10    5.40
   5  -5  -2   31.00    5.00
   5  -5  -2   24.30    4.30
  -5   5   2   35.80    4.80
   5   5  -2   34.70    3.90
  -5   5   2   27.90    4.30
   5   5  -2   27.70    5.00
   5   5  -2   35.80    4.00
   5   5  -2   25.40    4.20
   5   5  -2   30.60    5.40
   5   5  -2   35.40    4.80
  -5   5   2   28.20    4.30
   4  -5  -2    6.40    2.20
  -4  -5   2    4.40    1.30
   4  -5  -2    5.40    2.00
   4  -5  -2    5.50    1.70
  -4  -5   2    5.60    1.90
   4  -5  -2    4.30    1.80
   4  -5  -2    7.00    2.10
   4  -5  -2    9.70    2.50
  -4  -5   2    5.40    2.30
  -4  -5   2    5.60    1.60
  -4  -5   2    4.50    1.40
   4   5  -2    5.70    1.80
   4   5  -2    4.90    1.80
  -4   5   2    6.60    1.90
   4   5  -2    5.20    2.20
   4   5  -2    5.20    1.40
  -4   5   2    4.30    1.90
   4   5  -2   10.00    3.00
  -4   5   2    8.10    2.40
  -4   5   2    6.80    1.50
   4   5  -2    7.40    2.40
  -3  -5   2    4.00    1.20
   3  -5  -2    5.40    1.30
   3  -5  -2    4.50    1.50
  -3  -5   2    6.20    1.10
   3  -5  -2    4.80    1.60
  -3  -5   2    6.20    1.10
   3  -5  -2    2.70    1.20
   3  -5  -2    4.80    1.80
  -3  -5   2    4.30    1.60
   3  -5  -2    5.60    1.90
   3   5  -2    5.30    1.10
  -3   5   2    2.90    1.30
   3   5  -2    5.00    1.60
   3   5  -2    6.80    1.70
   3   5  -2    6.40    1.40
   3   5  -2    5.60    1.90
   3   5  -2    2.80    1.50
  -3   5   2    6.30    1.40
  -3   5   2    4.30    1.60
  -3   5   2    8.90    2.10
   3   5  -2    5.30    1.70
   2  -5  -2  295.07   12.30
   2  -5  -2  327.07   10.40
   2  -5  -2  333.47   11.30
  -2  -5   2  331.87   11.20
   2  -5  -2  328.97   11.90
  -2  -5   2  309.97   12.40
  -2  -5   2  340.37    9.20
   2  -5  -2  339.47   12.60
   2  -5  -2  335.77   12.40
  -2   5   2  347.97   12.70
   2   5  -2  329.27   12.50
  -2   5   2  355.36   12.40
   2   5  -2  332.87   12.90
   2   5  -2  326.37   12.10
  -2   5   2  340.87   11.50
   2   5  -2  334.57   11.40
   2   5  -2  341.87   13.00
   1  -5  -2   46.20    2.20
   1  -5  -2   41.20    3.10
   1  -5  -2   45.60    3.20
   1  -5  -2   48.50    3.20
  -1  -5   2   49.40    3.10
   1  -5  -2   44.70    2.90
  -1  -5   2   48.80    3.50
   1  -5  -2   36.10    3.00
  -1  -5   2   48.20    2.10
   1   5  -2   44.20    3.00
   1   5  -2   42.60    3.30
   1   5  -2   49.00    3.60
  -1   5   2   42.60    3.00
  -1   5   2   38.90    3.40
   1   5  -2   42.60    3.30
   1   5  -2   47.40    3.70
  -1   5   2   46.20    3.40
   0  -5  -2   67.59    3.50
   0  -5  -2   73.29    3.70
   0  -5   2   68.99    4.10
   0  -5  -2   67.19    3.90
   0  -5   2   69.79    4.20
   0  -5  -2   78.39    3.90
   0  -5  -2   74.59    3.40
   0  -5  -2   73.59    3.90
   0  -5   2   70.19    3.90
   0  -5   2   72.39    3.50
   0   5   2   65.49    4.10
   0   5  -2   78.89    4.10
   0   5   2   65.89    3.90
   0   5  -2   73.59    3.70
   0   5   2   79.59    4.50
   0   5  -2   74.29    4.60
   0   5  -2   67.79    3.70
   0   5  -2   69.79    4.60
   0   5  -2   72.69    4.40
  -1  -5  -2  229.38    8.40
  -1  -5  -2  213.98    8.60
  -1  -5  -2  242.58    7.10
  -1  -5  -2  232.98    9.00
   1  -5   2  234.68    9.30
  -1  -5  -2  234.48    7.70
   1  -5   2  239.28    9.00
   1  -5   2  237.38    9.00
   1  -5   2  233.38    9.70
   1  -5   2  223.88    7.80
  -1  -5  -2  231.78    8.70
  -1   5  -2  238.08    7.50
  -1   5  -2  233.48    9.90
   1   5   2  248.08    9.40
   1   5   2  205.78    9.20
   1   5   2  236.18    8.40
  -1   5  -2  233.38    7.80
  -1   5  -2  246.88   10.10
   1   5   2  236.98    8.80
  -1   5  -2  238.78    9.90
   1   5   2  227.98    7.10
  -1   5  -2  237.78    9.30
  -2  -5  -2  287.97   10.00
  -2  -5  -2  291.77   11.00
  -2  -5  -2  292.77   11.10
   2  -5   2  272.27   11.50
  -2  -5  -2  299.47   11.00
   2  -5   2  273.47   11.30
   2  -5   2  286.77   12.10
  -2  -5  -2  284.87    8.80
   2  -5   2  280.77   10.30
  -2   5  -2  278.67   11.50
   2   5   2  293.57    9.80
   2   5   2  264.87   11.10
  -2   5  -2  291.97   12.00
   2   5   2  281.67   10.70
   2   5   2  278.07   11.00
  -2   5  -2  278.97   11.60
  -2   5  -2  264.87   11.50
  -2   5  -2  280.67    8.10
  -3  -5  -2  158.78    5.90
  -3  -5  -2  160.18    7.90
  -3  -5  -2  157.18    6.80
   3  -5   2  149.19    8.90
   3  -5   2  151.98    6.50
   3  -5   2  153.08    8.60
  -3  -5  -2  140.59    7.80
   3  -5   2  144.89    8.40
  -3  -5  -2  141.69    7.80
  -3   5  -2  152.48    4.60
   3   5   2  153.98    8.10
  -3   5  -2  150.98    8.10
   3   5   2  156.18    7.80
  -3   5  -2  159.28    8.30
  -3   5  -2  141.89    8.20
  -3   5  -2  151.78    8.40
   3   5   2  160.28    7.30
   3   5   2  158.08    6.90
   4  -5   2    3.10    1.10
  -4  -5  -2    2.10    1.40
  -4  -5  -2    3.10    1.80
  -4  -5  -2    2.60    1.60
   4  -5   2    2.50    2.00
  -4  -5  -2    2.80    1.40
   4  -5   2    1.00    1.50
   4  -5   2    2.30    1.70
  -4  -5  -2    1.60    1.00
   4   5   2    2.20    1.40
   4   5   2    2.50    1.80
  -4   5  -2    2.80    1.80
  -4   5  -2    3.70    1.80
  -4   5  -2   -0.10    1.20
  -4   5  -2    1.50    1.40
   4   5   2    2.90    1.60
   4   5   2    0.80    1.10
   5  -5   2  161.88   10.70
   5  -5   2  175.38   11.40
  -5  -5  -2  159.58    9.50
  -5  -5  -2  171.78    8.60
   5  -5   2  175.68   11.40
  -5  -5  -2  141.49    9.40
  -5  -5  -2  152.98    9.60
  -5   5  -2  173.08    9.90
  -5   5  -2  166.78    9.60
   5   5   2  157.08    9.80
   5   5   2  166.58    8.90
   5   5   2  167.48    9.40
   5   5   2  162.68    9.00
  -5   5  -2  170.58   10.40
  -5   5  -2  160.18   10.40
   6  -5   2   59.89    8.10
  -6  -5  -2   58.29    7.40
   6  -5   2   82.79   10.30
  -6  -5  -2   63.39    7.70
   6  -5   2   85.59   10.20
  -6  -5  -2   72.19    8.10
   6   5   2   60.09    6.60
  -6   5  -2   63.39    7.30
  -6   5  -2   88.49    7.40
   6   5   2   71.19    7.40
   6   5   2   69.69    7.80
   6   5   2   78.89    6.70
  -6   5  -2   75.79    9.00
  -6   5  -2   55.69    7.70
  -7  -5  -2    0.60    2.00
  -7  -5  -2    2.60    2.60
   7  -5   2    2.10    3.00
   7  -5   2    1.70    3.10
   7  -5   2    2.80    3.30
  -7  -5  -2    5.30    2.90
   7   5   2    1.00    2.00
   7   5   2    1.50    2.50
   7   5   2    2.50    2.20
  -7   5  -2    1.70    2.70
  -7   5  -2   -1.30    2.00
  -7   5  -2    1.30    2.60
  -7   5  -2   -0.30    1.80
  -7  -6   2  128.29    7.90
  -7  -6   2  127.59   10.60
   7  -6  -2  123.39    9.40
  -7  -6   2  110.99    8.90
   7  -6  -2  113.09    9.20
   7  -6  -2  128.89   10.00
   7  -6  -2  104.19   11.60
   7  -6  -2  120.29   10.10
  -7  -6   2  126.79   12.50
  -7   6   2  100.59    8.50
   7   6  -2  123.39   12.40
  -7   6   2  108.89    8.90
   7   6  -2  123.59   12.50
  -7   6   2  110.19    9.10
  -7   6   2  103.19    8.30
   7   6  -2  123.59    9.80
   6  -6  -2  158.08   10.10
  -6  -6   2  147.99   10.80
   6  -6  -2  147.19    9.80
   6  -6  -2  161.28   11.10
   6  -6  -2  136.39    9.90
   6  -6  -2  152.18   10.50
  -6  -6   2  160.08    8.50
  -6  -6   2  177.38   10.40
   6   6  -2  149.19   10.10
  -6   6   2  151.48    9.60
  -6   6   2  162.78   10.10
   6   6  -2  173.78   11.70
   6   6  -2  171.48   11.60
  -6   6   2  163.88    9.80
  -5  -6   2   38.20    6.00
   5  -6  -2   54.49    6.70
  -5  -6   2   44.00    4.60
  -5  -6   2   27.70    4.50
   5  -6  -2   52.89    6.40
   5  -6  -2   54.59    6.60
   5  -6  -2   44.70    5.60
   5  -6  -2   45.10    5.80
  -5   6   2   51.09    5.60
   5   6  -2   41.80    4.40
  -5   6   2   34.60    4.70
   5   6  -2   43.80    5.50
   5   6  -2   29.00    5.00
  -5   6   2   51.39    5.80
   5   6  -2   52.79    6.30
   5   6  -2   37.90    6.00
  -5   6   2   42.90    5.50
   4  -6  -2   29.30    4.30
  -4  -6   2   29.00    4.00
   4  -6  -2   36.00    4.80
  -4  -6   2   32.80    2.60
   4  -6  -2   26.90    4.00
   4  -6  -2   41.30    5.10
   4  -6  -2   27.80    4.10
  -4  -6   2   32.20    3.60
  -4   6   2   25.90    3.90
  -4   6   2   27.10    3.90
   4   6  -2   28.40    4.10
  -4   6   2   33.00    4.50
   4   6  -2   36.20    5.40
   4   6  -2   34.70    4.60
   4   6  -2   30.30    4.80
   4   6  -2   33.10    2.80
   4   6  -2   30.70    3.70
   3  -6  -2    5.40    1.90
   3  -6  -2    6.10    1.70
  -3  -6   2    8.10    1.80
  -3  -6   2    9.00    2.30
   3  -6  -2    3.20    1.50
   3  -6  -2    4.10    1.70
   3  -6  -2    4.60    1.80
  -3  -6   2    7.20    1.20
   3  -6  -2    6.60    1.60
   3   6  -2    5.80    2.00
   3   6  -2    9.10    2.50
   3   6  -2    9.10    1.60
  -3   6   2    5.60    1.20
  -3   6   2    9.20    2.20
   3   6  -2    6.70    2.00
  -3   6   2    5.00    1.80
   3   6  -2    8.10    2.10
   3   6  -2    5.20    1.60
  -3   6   2    2.10    1.20
   2  -6  -2  563.64   17.80
   2  -6  -2  528.25   19.10
   2  -6  -2  556.34   19.30
   2  -6  -2  595.24   19.30
   2  -6  -2  567.74   18.60
  -2  -6   2  567.44   18.00
  -2  -6   2  560.14   19.60
  -2  -6   2  588.34   15.50
   2  -6  -2  565.74   17.00
   2   6  -2  581.24   19.90
  -2   6   2  577.64   17.80
   2   6  -2  576.84   17.90
   2   6  -2  577.14   19.10
  -2   6   2  572.14   19.30
  -2   6   2  553.24   19.10
   2   6  -2  561.04   19.70
  -2   6   2  579.44   18.50
   2   6  -2  588.64   18.90
  -1  -6   2  400.46   11.20
   1  -6  -2  384.36   13.40
   1  -6  -2  385.56   12.60
  -1  -6   2  399.16   13.20
   1  -6  -2  386.56   13.30
   1  -6  -2  389.66   13.30
   1  -6  -2  357.36   13.50
   1  -6  -2  375.06   11.70
  -1  -6   2  411.46   14.20
  -1   6   2  394.86   13.10
   1   6  -2  398.76   14.00
   1   6  -2  380.56   13.70
   1   6  -2  403.26   14.60
   1   6  -2  396.86   13.20
  -1   6   2  390.96   13.40
   1   6  -2  385.16   13.30
  -1   6   2  370.16   13.90
   0  -6  -2  102.69    4.60
   0  -6   2  110.39    5.60
   0  -6   2   90.29    5.20
   0  -6  -2  121.89    5.20
   0  -6  -2  114.89    4.70
   0  -6  -2  111.69    4.50
   0  -6  -2  101.69    4.90
   0  -6  -2  105.89    5.20
   0  -6   2  101.39    4.60
   0   6  -2  107.29    5.00
   0   6   2   98.09    5.10
   0   6  -2  100.09    5.00
   0   6  -2  103.09    4.80
   0   6   2  105.29    4.50
   0   6  -2   90.79    5.70
   0   6  -2  102.39    5.70
   0   6   2  106.59    5.30
   0   6  -2   99.29    5.40
   0   6   2  105.39    5.70
  -1  -6  -2  287.47   10.70
   1  -6   2  283.57   10.60
  -1  -6  -2  309.27   10.50
  -1  -6  -2  281.57    9.10
   1  -6   2  296.77   11.70
   1  -6   2  292.47   11.10
   1  -6   2  270.77   10.60
   1  -6   2  284.57    9.60
  -1  -6  -2  296.87   10.50
  -1  -6  -2  285.17    9.90
  -1   6  -2  288.17   11.80
  -1   6  -2  294.37   11.00
  -1   6  -2  312.07    9.70
   1   6   2  297.87    8.80
   1   6   2  298.47   10.20
  -1   6  -2  284.47    9.20
   1   6   2  290.87   11.20
  -1   6  -2  290.17   11.80
   1   6   2  291.07   11.10
  -1   6  -2  285.47   12.00
  -2  -6  -2  623.74   19.70
  -2  -6  -2  622.24   18.50
   2  -6   2  595.34   20.00
   2  -6   2  603.64   20.60
  -2  -6  -2  614.54   19.60
   2  -6   2  621.14   19.20
  -2  -6  -2  592.64   19.30
   2  -6   2  592.24   21.00
  -2   6  -2  569.44   21.00
   2   6   2  599.64   18.10
   2   6   2  602.24   20.40
  -2   6  -2  591.94   20.30
   2   6   2  615.84   19.80
  -2   6  -2  586.34   16.30
   2   6   2  553.64   19.50
  -2   6  -2  577.44   20.90
  -2   6  -2  609.74   21.00
   3  -6   2   28.60    4.70
  -3  -6  -2   37.20    4.20
  -3  -6  -2   44.60    4.90
  -3  -6  -2   35.00    4.30
   3  -6   2   36.60    4.80
   3  -6   2   34.40    4.60
  -3  -6  -2   38.40    2.90
   3  -6   2   35.60    2.80
   3   6   2   34.50    4.10
  -3   6  -2   25.80    4.00
   3   6   2   30.60    3.60
  -3   6  -2   34.00    4.60
  -3   6  -2   39.40    1.90
  -3   6  -2   36.40    4.70
  -3   6  -2   40.60    4.90
   3   6   2   34.90    4.30
   3   6   2   31.20    3.50
  -4  -6  -2   37.60    3.30
   4  -6   2   26.50    4.60
  -4  -6  -2   29.90    4.40
   4  -6   2   37.70    5.80
  -4  -6  -2   32.70    4.70
  -4  -6  -2   29.50    4.20
   4  -6   2   35.90    5.60
   4   6   2   34.00    4.50
   4   6   2   37.30    4.50
   4   6   2   35.40    4.30
  -4   6  -2   34.30    5.00
  -4   6  -2   28.60    4.60
  -4   6  -2   37.10    5.00
   4   6   2   38.20    5.00
  -4   6  -2   24.10    3.80
  -5  -6  -2  336.77   15.30
   5  -6   2  351.86   17.30
   5  -6   2  306.57   16.40
   5  -6   2  330.57   16.60
  -5  -6  -2  372.26   15.40
  -5  -6  -2  313.47   14.90
  -5   6  -2  342.27   15.60
   5   6   2  336.17   15.40
  -5   6  -2  330.07   16.30
   5   6   2  336.17   14.50
  -5   6  -2  343.37   15.40
  -5   6  -2  350.06   16.30
   5   6   2  329.77   14.10
   5   6   2  345.47   15.10
   6  -6   2   48.90    7.90
  -6  -6  -2   53.09    6.90
  -6  -6  -2   49.80    6.70
  -6  -6  -2   48.80    6.60
   6  -6   2   50.09    7.90
   6  -6   2   43.10    7.30
   6   6   2   51.19    6.40
  -6   6  -2   66.49    8.60
   6   6   2   47.70    6.70
   6   6   2   50.09    6.40
  -6   6  -2   60.19    7.50
  -6   6  -2   56.29    7.30
  -6   6  -2   47.80    7.40
   6   6   2   59.89    6.80
   7  -6   2   10.20    4.30
   7  -6   2    5.00    4.30
   7  -6   2    9.50    4.70
  -7  -6  -2    4.00    2.80
  -7  -6  -2   24.30    5.30
  -7   6  -2   12.10    4.50
   7   6   2   12.00    4.10
  -7   6  -2   10.90    4.30
   7   6   2    6.40    3.10
   7   6   2   12.00    3.70
  -7   6  -2    9.00    3.40
   7  -7  -2   20.00    4.90
  -7  -7   2   24.80    6.30
   7  -7  -2   10.30    3.60
   7  -7  -2   18.00    5.20
   7  -7  -2   17.70    4.70
  -7  -7   2   20.60    3.90
   7  -7  -2   23.50    5.90
  -7  -7   2   18.50    4.60
  -7   7   2   14.60    4.00
   7   7  -2   25.90    6.30
   7   7  -2   15.20    5.20
   7   7  -2   15.70    4.40
  -7   7   2   14.80    4.10
  -7   7   2   17.20    4.40
  -6  -7   2  108.49    9.40
   6  -7  -2  104.49    8.70
   6  -7  -2  111.09    8.50
  -6  -7   2  105.29    6.90
   6  -7  -2   89.59    9.60
   6  -7  -2  114.69    8.70
   6  -7  -2  118.99   11.50
  -6  -7   2  113.69    8.40
  -6   7   2  117.59    8.30
   6   7  -2  121.19   12.10
  -6   7   2  118.59    8.60
   6   7  -2  113.89    9.60
  -6   7   2  115.19    8.40
   6   7  -2  114.49    8.90
   5  -7  -2  133.39    9.20
   5  -7  -2  154.88    9.50
   5  -7  -2  156.88    9.40
   5  -7  -2  150.08    9.60
   5  -7  -2  142.99    9.40
  -5  -7   2  147.29    9.10
  -5  -7   2  143.89    7.70
   5   7  -2  147.79    8.90
  -5   7   2  143.99    9.10
  -5   7   2  158.58    9.00
   5   7  -2  157.58   10.50
   5   7  -2  134.99    9.90
  -5   7   2  154.88    9.00
  -5   7   2  154.38    8.50
   5   7  -2  158.88    9.60
   4  -7  -2   78.69    6.10
   4  -7  -2   88.19    6.30
  -4  -7   2   84.39    5.20
   4  -7  -2   84.89    6.40
   4  -7  -2   77.19    6.00
  -4  -7   2   84.49    6.20
   4  -7  -2   75.19    6.00
  -4   7   2   88.09    6.20
  -4   7   2   84.59    6.00
  -4   7   2   75.89    5.60
   4   7  -2   80.59    6.00
   4   7  -2   95.39    7.20
   4   7  -2   84.69    6.30
   4   7  -2   90.29    5.40
   4   7  -2   85.49    6.90
   3  -7  -2   43.60    4.80
   3  -7  -2   49.50    4.30
  -3  -7   2   48.70    2.50
   3  -7  -2   47.30    5.00
  -3  -7   2   43.10    3.40
   3  -7  -2   43.30    4.70
   3  -7  -2   42.30    3.40
  -3  -7   2   46.60    4.90
   3  -7  -2   38.10    4.40
  -3   7   2   40.10    4.40
   3   7  -2   50.19    5.60
  -3   7   2   38.90    2.50
   3   7  -2   33.70    4.30
   3   7  -2   49.60    5.20
  -3   7   2   42.60    4.70
   3   7  -2   43.50    3.60
   3   7  -2   46.50    2.90
   3   7  -2   37.40    4.80
  -3   7   2   49.99    5.20
  -2  -7   2   85.09    5.40
   2  -7  -2   87.69    5.30
   2  -7  -2   80.89    4.10
   2  -7  -2   95.29    5.40
  -2  -7   2   80.29    3.30
  -2  -7   2   73.29    4.50
   2  -7  -2   75.99    4.90
   2  -7  -2   93.89    5.40
   2  -7  -2   84.99    4.90
  -2   7   2   80.19    5.20
   2   7  -2   78.79    4.10
  -2   7   2   72.99    5.00
  -2   7   2   71.49    3.80
   2   7  -2   77.29    5.40
   2   7  -2   73.29    5.30
  -2   7   2   85.39    5.10
   2   7  -2   74.19    5.20
   2   7  -2   77.69    4.70
  -1  -7   2   51.09    3.90
   1  -7  -2   52.79    2.90
   1  -7  -2   46.90    3.40
  -1  -7   2   55.89    3.70
   1  -7  -2   51.69    3.50
   1  -7  -2   48.30    3.40
   1  -7  -2   50.19    3.60
  -1  -7   2   54.49    2.70
   1  -7  -2   46.80    3.50
   1   7  -2   49.70    4.10
   1   7  -2   49.30    3.90
  -1   7   2   44.10    3.10
  -1   7   2   55.29    3.60
   1   7  -2   50.39    3.70
  -1   7   2   53.39    3.90
   1   7  -2   50.29    3.40
   1   7  -2   53.99    4.00
  -1   7   2   53.89    4.00
   0  -7   2  166.28    6.60
   0  -7  -2  171.58    6.40
   0  -7   2  158.68    6.40
   0  -7   2  161.68    7.50
   0  -7  -2  169.58    6.80
   0  -7  -2  161.78    6.30
   0  -7  -2  151.38    6.20
   0  -7   2  162.98    7.40
   0  -7  -2  152.98    6.70
   0  -7  -2  156.18    7.00
   0   7  -2  167.28    8.30
   0   7   2  162.18    7.10
   0   7  -2  169.88    6.60
   0   7   2  162.18    6.30
   0   7   2  161.28    7.10
   0   7  -2  154.18    6.80
   0   7  -2  162.38    7.50
   0   7  -2  156.58    7.70
   0   7  -2  166.18    7.10
   0   7   2  155.08    7.40
   1  -7   2  655.53   21.30
  -1  -7  -2  565.84   18.00
   1  -7   2  629.24   20.20
  -1  -7  -2  658.03   19.20
  -1  -7  -2  657.73   19.90
   1  -7   2  649.04   20.40
   1  -7   2  605.24   19.50
  -1  -7  -2  614.84   19.30
  -1  -7  -2  633.04   19.40
  -1   7  -2  630.24   18.90
  -1   7  -2  636.34   18.10
  -1   7  -2  645.74   22.10
  -1   7  -2  650.43   21.70
   1   7   2  631.64   20.60
   1   7   2  625.14   18.10
  -1   7  -2  605.34   21.40
   1   7   2  604.24   20.60
   1   7   2  607.94   18.90
  -1   7  -2  617.34   20.10
   2  -7   2  266.07   11.40
  -2  -7  -2  259.87   10.60
  -2  -7  -2  273.97   10.80
  -2  -7  -2  287.37   10.90
   2  -7   2  271.37   12.30
  -2  -7  -2  274.77    9.30
   2  -7   2  287.57   11.90
   2  -7   2  261.37   10.00
  -2   7  -2  276.17    8.70
   2   7   2  283.67   11.40
  -2   7  -2  266.47   11.50
   2   7   2  283.67   10.40
   2   7   2  286.67   11.20
  -2   7  -2  264.57   12.00
  -2   7  -2  283.67   12.30
  -2   7  -2  274.87   12.20
   3  -7   2   15.10    3.20
  -3  -7  -2   17.00    2.10
   3  -7   2   14.20    3.30
  -3  -7  -2   21.40    3.50
  -3  -7  -2   22.40    3.30
  -3  -7  -2   17.20    3.00
   3  -7   2   27.40    4.30
   3  -7   2   23.90    2.50
  -3   7  -2   20.40    3.70
   3   7   2   19.90    3.30
  -3   7  -2   23.00    1.70
   3   7   2   23.20    3.40
  -3   7  -2   20.30    3.50
  -3   7  -2   18.60    3.50
  -3   7  -2   17.10    3.30
   3   7   2   20.40    3.00
   3   7   2   21.80    3.50
   4  -7   2   57.19    7.10
  -4  -7  -2   60.59    5.10
   4  -7   2   60.39    7.20
  -4  -7  -2   69.29    6.90
   4  -7   2   83.39    8.60
  -4  -7  -2   63.99    5.40
   4   7   2   62.39    5.40
  -4   7  -2   59.09    6.60
   4   7   2   71.99    5.50
   4   7   2   73.39    5.40
   4   7   2   56.99    6.30
  -4   7  -2   64.09    6.80
  -4   7  -2   63.09    7.00
  -4   7  -2   62.59    7.20
   5  -7   2   32.00    6.00
  -5  -7  -2   31.10    4.80
  -5  -7  -2   51.69    6.10
  -5  -7  -2   34.40    5.40
   5  -7   2   34.00    6.00
   5  -7   2   45.20    7.00
  -5   7  -2   30.70    4.80
  -5   7  -2   36.40    5.40
   5   7   2   40.70    5.20
   5   7   2   36.10    5.40
   5   7   2   38.50    5.20
  -5   7  -2   30.10    5.40
  -5   7  -2   36.00    5.80
   5   7   2   29.00    4.50
  -6  -7  -2   45.50    6.60
   6  -7   2   51.29    8.20
  -6  -7  -2   55.09    7.10
   6  -7   2   64.89    9.20
  -6  -7  -2   52.79    7.00
   6  -7   2   52.49    8.50
   6   7   2   46.80    6.30
   6   7   2   71.39    8.20
  -6   7  -2   53.69    7.10
   6   7   2   74.59    7.90
  -6   7  -2   50.49    6.80
  -6   7  -2   50.49    7.60
   6   7   2   65.89    7.50
  -6   7  -2   46.10    7.00
  -7  -7  -2   34.40    6.10
  -7  -7  -2   32.00    6.30
   7  -7   2   40.50    7.70
   7  -7   2   28.50    6.80
   7  -7   2   21.80    6.20
  -7   7  -2   25.10    5.20
   7   7   2   21.40    5.00
  -7   7  -2   28.60    6.40
   7   7   2   26.60    5.70
   7   7   2   27.20    5.40
  -7   7  -2   28.60    6.60
  -7   7  -2   26.60    5.60
  -7  -8   2   64.99    9.30
  -7  -8   2   76.79    6.50
   7  -8  -2   77.89    9.80
   7  -8  -2   77.99    9.70
  -7  -8   2   72.19    8.80
   7  -8  -2   58.49    8.80
   7  -8  -2   71.09    9.90
  -7   8   2   77.39    8.60
  -7   8   2   86.69    9.50
   7   8  -2   75.69   10.10
   7   8  -2   75.89   10.10
   7   8  -2   77.99    9.40
  -7   8   2   79.69    9.80
   6  -8  -2    9.60    3.60
  -6  -8   2    5.20    2.10
   6  -8  -2    7.20    3.40
   6  -8  -2   10.80    3.40
   6  -8  -2    7.70    2.80
   6  -8  -2    7.20    3.10
  -6  -8   2    5.10    2.60
  -6  -8   2    0.50    2.20
   6   8  -2    1.80    2.50
  -6   8   2    7.80    2.90
   6   8  -2    4.60    3.50
  -6   8   2    5.80    2.60
   6   8  -2    8.20    3.30
  -6   8   2    8.30    2.80
   5  -8  -2   17.20    3.70
   5  -8  -2   16.30    4.00
  -5  -8   2   13.90    3.30
   5  -8  -2   19.20    4.40
   5  -8  -2   13.10    3.60
  -5  -8   2   22.50    3.60
   5  -8  -2   15.40    3.60
   5   8  -2   16.10    4.10
  -5   8   2   19.80    3.80
  -5   8   2   17.60    3.70
   5   8  -2   26.00    5.20
  -5   8   2   15.00    3.70
   5   8  -2   18.00    3.90
   4  -8  -2   25.60    4.30
   4  -8  -2   30.30    4.60
   4  -8  -2   35.20    5.00
   4  -8  -2   33.00    4.90
  -4  -8   2   26.10    3.50
   4  -8  -2   45.50    5.50
  -4  -8   2   36.40    5.10
  -4   8   2   39.40    4.80
  -4   8   2   30.10    4.30
   4   8  -2   35.60    4.90
  -4   8   2   43.50    5.20
   4   8  -2   35.10    5.50
   4   8  -2   37.50    4.80
   4   8  -2   33.30    5.20
  -4   8   2   33.40    4.40
   3  -8  -2   14.70    2.80
   3  -8  -2   15.90    3.00
   3  -8  -2   15.40    2.90
  -3  -8   2   14.60    2.50
   3  -8  -2   17.80    3.30
  -3  -8   2   14.80    2.90
   3  -8  -2   14.10    2.80
  -3  -8   2   23.50    1.80
  -3   8   2   24.40    3.60
  -3   8   2   18.00    3.20
  -3   8   2   14.80    2.90
   3   8  -2   15.00    3.10
   3   8  -2   25.00    4.30
   3   8  -2   19.20    3.80
  -3   8   2   18.60    3.10
   3   8  -2   21.80    3.00
   3   8  -2   20.20    3.40
  -2  -8   2  196.28    9.40
   2  -8  -2  212.08    9.20
   2  -8  -2  172.58    8.50
   2  -8  -2  184.08    8.60
   2  -8  -2  169.68    8.70
  -2  -8   2  210.38    8.70
   2  -8  -2  197.98    8.60
   2  -8  -2  194.58    7.70
  -2  -8   2  209.78    6.70
   2   8  -2  205.38    9.70
   2   8  -2  206.88    8.60
   2   8  -2  195.18    9.40
  -2   8   2  199.18    9.00
  -2   8   2  175.38    8.60
  -2   8   2  197.58    8.90
   2   8  -2  205.38    9.70
  -2   8   2  180.88    7.00
   2   8  -2  197.18    7.40
   1  -8  -2  226.98    9.30
   1  -8  -2  237.78    8.40
   1  -8  -2  231.58    9.10
  -1  -8   2  222.48    9.90
   1  -8  -2  234.38    9.30
   1  -8  -2  251.67    9.50
  -1  -8   2  227.68    9.50
  -1  -8   2  236.58    7.90
   1  -8  -2  256.87    9.80
   1   8  -2  214.98    9.80
  -1   8   2  223.88    8.70
   1   8  -2  235.98    9.80
   1   8  -2  230.58   10.50
   1   8  -2  215.48    9.60
  -1   8   2  243.18    9.40
  -1   8   2  244.08    9.80
  -1   8   2  223.28    9.80
   1   8  -2  238.58    9.00
   0  -8   2   58.49    3.50
   0  -8   2   54.29    3.50
   0  -8   2   54.19    3.90
   0  -8   2   56.29    4.20
   0  -8  -2   52.29    3.20
   0  -8  -2   58.99    3.80
   0  -8  -2   57.29    3.80
   0  -8  -2   48.40    3.00
   0  -8  -2   52.29    3.40
   0   8  -2   55.49    4.10
   0   8   2   54.39    4.00
   0   8  -2   56.49    3.80
   0   8   2   56.49    3.70
   0   8   2   53.39    3.20
   0   8  -2   46.40    3.20
   0   8   2   53.39    4.10
   0   8  -2   49.10    4.10
   0   8  -2   51.79    4.50
   0   8  -2   43.20    3.50
   1  -8   2   43.60    4.60
   1  -8   2   37.30    3.10
   1  -8   2   37.60    3.90
  -1  -8  -2   34.90    3.50
  -1  -8  -2   37.90    3.10
   1  -8   2   36.10    4.00
  -1  -8  -2   33.50    1.90
  -1  -8  -2   39.70    3.20
  -1  -8  -2   41.20    2.60
  -1   8  -2   37.10    4.00
   1   8   2   39.90    3.40
   1   8   2   37.00    4.00
  -1   8  -2   43.10    4.90
  -1   8  -2   41.90    2.80
  -1   8  -2   33.90    2.70
   1   8   2   33.00    2.10
   1   8   2   29.50    3.50
   1   8   2   38.00    2.00
  -1   8  -2   41.50    4.70
  -1   8  -2   38.30    4.50
  -2  -8  -2   81.19    3.50
  -2  -8  -2   76.49    5.00
   2  -8   2   77.69    4.30
   2  -8   2   80.19    6.10
   2  -8   2   75.89    5.60
  -2  -8  -2   78.49    4.90
   2  -8   2   75.69    5.50
  -2  -8  -2   69.49    4.60
  -2   8  -2   78.09    5.90
  -2   8  -2   75.69    3.80
  -2   8  -2   72.39    5.80
  -2   8  -2   77.09    5.90
   2   8   2   66.99    4.90
   2   8   2   68.19    4.70
   2   8   2   74.59    5.10
  -2   8  -2   87.99    5.80
  -3  -8  -2   25.60    3.60
  -3  -8  -2   29.90    4.10
  -3  -8  -2   30.30    4.00
   3  -8   2   21.60    3.90
   3  -8   2   20.60    3.90
   3  -8   2   27.90    4.80
  -3   8  -2   26.60    2.00
  -3   8  -2   20.10    3.80
  -3   8  -2   24.80    4.20
  -3   8  -2   23.60    4.10
   3   8   2   27.70    4.00
   3   8   2   25.40    3.70
   3   8   2   21.70    3.30
  -3   8  -2   32.90    4.80
   4  -8   2  256.77   13.10
  -4  -8  -2  239.88   10.80
  -4  -8  -2  208.38   10.90
  -4  -8  -2  247.18   11.40
   4  -8   2  218.08   12.50
   4  -8   2  230.08   13.10
  -4   8  -2  236.28   12.50
  -4   8  -2  237.68   12.40
  -4   8  -2  235.38   12.50
   4   8   2  242.08   11.70
   4   8   2  227.08   11.50
  -4   8  -2  218.78   11.90
   4   8   2  241.48   11.40
   4   8   2  216.18   10.50
  -5  -8  -2  127.89    8.50
   5  -8   2  122.29   10.00
   5  -8   2  142.49   10.40
   5  -8   2  147.49   10.80
  -5  -8  -2  118.49    8.30
  -5  -8  -2  150.48    8.60
   5   8   2  125.39    8.60
  -5   8  -2  120.29    9.40
  -5   8  -2  163.38   10.20
  -5   8  -2  128.39    9.70
   5   8   2  123.39    8.30
   5   8   2  141.69    8.90
  -5   8  -2  145.29    9.70
   5   8   2  143.39    9.20
   6  -8   2    8.80    4.30
  -6  -8  -2    7.30    2.90
   6  -8   2   12.10    4.30
   6  -8   2    4.10    3.10
  -6  -8  -2    2.50    2.20
  -6   8  -2    5.90    3.00
  -6   8  -2    9.50    3.50
   6   8   2    8.50    3.10
   6   8   2    8.10    3.10
  -6   8  -2    8.60    4.00
   6   8   2    4.90    2.70
   6   8   2    8.60    3.20
  -6   8  -2   12.30    4.20
   7  -8   2   12.60    5.20
   7  -8   2   16.90    5.50
   7  -8   2    9.30    4.60
  -7  -8  -2    8.50    3.70
  -7  -8  -2    9.10    3.20
  -7   8  -2    8.00    3.70
  -7   8  -2   10.60    3.90
   7   8   2    8.60    3.60
  -7   8  -2   12.60    4.80
   7   8   2   12.90    4.10
   7   8   2    6.60    3.60
  -7   8  -2    4.20    3.10
   6  -9  -2   14.80    4.60
  -6  -9   2   14.30    4.20
   6  -9  -2   16.50    4.50
   6  -9  -2   22.90    5.20
   6  -9  -2   19.00    4.40
  -6  -9   2   19.60    3.70
  -6  -9   2   22.10    4.70
   6   9  -2   24.90    5.30
   6   9  -2   20.80    5.10
  -6   9   2   16.90    4.40
   6   9  -2   16.10    5.00
  -6   9   2   25.30    4.90
  -6   9   2   23.20    4.40
  -6   9   2   15.40    3.90
  -5  -9   2   54.39    5.80
   5  -9  -2   52.99    7.10
  -5  -9   2   45.40    6.40
   5  -9  -2   49.40    6.90
   5  -9  -2   54.59    6.80
   5  -9  -2   61.39    7.70
   5  -9  -2   43.30    5.90
  -5   9   2   54.59    6.50
  -5   9   2   65.99    7.50
   5   9  -2   66.89    8.60
   5   9  -2   66.29    7.70
  -5   9   2   60.99    6.50
   5   9  -2   61.19    8.10
   4  -9  -2  368.06   15.90
   4  -9  -2  382.36   16.20
   4  -9  -2  384.26   16.30
   4  -9  -2  395.86   16.20
  -4  -9   2  388.26   16.40
  -4  -9   2  376.16   14.50
   4  -9  -2  359.26   16.20
   4   9  -2  358.56   16.30
  -4   9   2  366.06   15.00
   4   9  -2  392.66   17.50
   4   9  -2  392.96   17.20
  -4   9   2  381.66   14.90
   4   9  -2  376.16   15.60
  -4   9   2  351.46   15.40
  -4   9   2  356.56   15.70
  -3  -9   2  221.48   11.10
  -3  -9   2  220.98   10.00
   3  -9  -2  234.58   10.80
   3  -9  -2  252.17   11.60
   3  -9  -2  235.18   11.10
   3  -9  -2  234.08   11.10
   3  -9  -2  229.78   10.90
   3   9  -2  237.88   11.60
   3   9  -2  232.38   11.00
   3   9  -2  227.68   11.80
   3   9  -2  241.58   12.00
  -3   9   2  248.08   11.20
  -3   9   2  241.38   10.70
  -3   9   2  230.98   10.40
  -3   9   2  235.68   10.70
   2  -9  -2  414.46   14.00
  -2  -9   2  403.56   12.40
   2  -9  -2  363.56   15.00
  -2  -9   2  403.86   14.90
   2  -9  -2  402.86   14.80
   2  -9  -2  419.66   15.20
   2  -9  -2  402.76   15.50
  -2  -9   2  410.86   16.00
   2  -9  -2  406.06   15.30
   2   9  -2  392.76   15.90
  -2   9   2  421.26   15.10
   2   9  -2  420.76   16.30
  -2   9   2  412.86   13.00
   2   9  -2  410.36   14.60
  -2   9   2  433.56   15.50
   2   9  -2  400.16   15.80
  -2   9   2  408.16   14.90
  -2   9   2  431.16   15.50
  -1  -9   2   22.90    3.30
   1  -9  -2   25.10    3.20
   1  -9  -2   31.20    3.60
  -1  -9   2   25.90    2.60
   1  -9  -2   23.60    2.60
   1  -9  -2   26.30    3.20
  -1  -9   2   27.00    3.70
   1  -9  -2   31.40    3.60
   1   9  -2   27.90    3.80
  -1   9   2   31.20    3.90
  -1   9   2   29.70    3.40
  -1   9   2   32.20    3.30
   1   9  -2   18.60    3.00
  -1   9   2   27.50    2.40
  -1   9   2   30.10    3.70
   1   9  -2   23.20    3.20
   1   9  -2   25.00    2.90
   1   9  -2   21.60    3.50
   0  -9  -2    4.40    1.30
   0  -9   2    1.90    1.40
   0  -9   2    3.90    1.40
   0  -9   2    6.10    1.60
   0  -9  -2    6.70    1.40
   0  -9  -2    3.40    1.20
   0  -9   2    3.10    1.40
   0  -9  -2    1.80    1.10
   0  -9  -2    3.60    1.40
   0   9  -2    3.00    1.10
   0   9   2    2.40    1.10
   0   9  -2    3.70    1.60
   0   9  -2    4.60    1.50
   0   9  -2    3.70    1.50
   0   9   2    5.50    1.70
   0   9  -2    4.40    1.40
   0   9  -2    0.80    1.30
   0   9   2    2.50    1.20
   0   9   2    6.10    1.30
   0   9   2    2.80    1.40
   1  -9   2    4.80    1.80
   1  -9   2    8.90    1.90
   1  -9   2    3.00    1.50
  -1  -9  -2    2.90    1.30
   1  -9   2    2.90    1.60
  -1  -9  -2    8.80    1.90
  -1  -9  -2    5.90    1.20
  -1  -9  -2    4.70    1.50
   1   9   2    6.50    1.90
  -1   9  -2    7.20    2.20
  -1   9  -2    2.40    1.80
  -1   9  -2    4.70    1.40
   1   9   2    4.90    1.20
   1   9   2    7.50    2.00
   1   9   2    5.40    1.70
  -1   9  -2    5.90    2.10
  -1   9  -2    7.40    1.60
  -1   9  -2    4.40    1.70
   2  -9   2  471.75   17.80
   2  -9   2  488.15   16.00
   2  -9   2  449.06   18.40
  -2  -9  -2  452.75   16.20
   2  -9   2  480.35   17.50
  -2  -9  -2  502.45   16.30
  -2  -9  -2  445.46   16.30
   2   9   2  475.45   17.50
   2   9   2  481.25   16.40
  -2   9  -2  474.25   14.60
  -2   9  -2  464.05   18.50
  -2   9  -2  520.25   18.00
  -2   9  -2  449.06   18.60
   2   9   2  439.26   17.00
  -2   9  -2  467.35   18.50
   3  -9   2  513.75   20.10
  -3  -9  -2  517.95   18.10
  -3  -9  -2  529.75   18.50
   3  -9   2  526.35   20.50
   3  -9   2  508.35   20.90
  -3  -9  -2  504.65   18.50
  -3   9  -2  512.05   20.00
  -3   9  -2  526.85   20.90
  -3   9  -2  530.95   20.90
   3   9   2  549.74   19.40
  -3   9  -2  495.75   20.40
  -3   9  -2  513.95   15.50
   3   9   2  558.24   20.00
   3   9   2  514.25   18.20
   4  -9   2  377.86   17.40
   4  -9   2  366.46   17.70
  -4  -9  -2  368.26   15.40
   4  -9   2  366.46   17.30
  -4  -9  -2  355.56   15.10
  -4  -9  -2  372.56   14.70
  -4   9  -2  370.36   17.00
  -4   9  -2  385.16   17.30
   4   9   2  380.46   16.20
   4   9   2  349.27   15.50
   4   9   2  388.46   15.40
  -4   9  -2  391.56   17.20
  -4   9  -2  378.26   17.40
   5  -9   2   28.30    6.00
   5  -9   2   28.40    5.90
  -5  -9  -2   32.70    5.10
  -5  -9  -2   35.10    5.10
   5  -9   2   36.40    6.80
   5   9   2   35.70    5.30
  -5   9  -2   37.00    6.10
  -5   9  -2   22.40    4.90
  -5   9  -2   42.20    6.30
   5   9   2   39.00    5.60
  -5   9  -2   33.70    5.60
   5   9   2   34.50    5.30
  -6  -9  -2   15.40    3.80
  -6  -9  -2   13.90    3.70
   6  -9   2    8.00    3.80
   6  -9   2   10.10    4.30
   6  -9   2    5.50    3.50
  -6   9  -2   12.80    4.10
  -6   9  -2   15.70    4.90
   6   9   2    5.80    2.90
   6   9   2    8.40    3.40
   6   9   2   12.40    3.70
  -6   9  -2    6.60    3.30
  -6   9  -2    6.20    3.10
   6 -10  -2   33.50    6.70
   6 -10  -2   38.00    6.90
   6 -10  -2   31.60    6.00
  -6 -10   2   37.90    6.50
   6 -10  -2   43.20    7.10
  -6 -10   2   41.60    5.40
  -6  10   2   34.60    5.80
  -6  10   2   44.60    6.00
  -6  10   2   31.40    5.70
   6  10  -2   43.70    7.50
   6  10  -2   30.80    6.10
  -6  10   2   40.80    6.20
   6  10  -2   33.60    6.60
   5 -10  -2  142.09    9.80
  -5 -10   2  139.19    9.60
   5 -10  -2  152.28   10.40
  -5 -10   2  141.79    8.30
   5 -10  -2  152.48   10.30
   5 -10  -2  136.19    9.90
   5  10  -2  129.99   10.30
  -5  10   2  148.09    9.00
  -5  10   2  136.09    9.40
   5  10  -2  125.49    9.50
   5  10  -2  162.88   11.30
  -5  10   2  137.29    9.00
   4 -10  -2  408.16   17.60
   4 -10  -2  417.66   17.80
   4 -10  -2  405.76   17.20
  -4 -10   2  391.26   15.70
  -4 -10   2  408.86   17.70
   4 -10  -2  405.26   17.30
  -4  10   2  400.76   16.10
  -4  10   2  425.86   17.60
   4  10  -2  406.16   18.30
  -4  10   2  426.26   17.10
   4  10  -2  413.16   18.70
   4  10  -2  419.96   18.20
   3 -10  -2  207.78   10.50
   3 -10  -2  220.68   10.40
  -3 -10   2  212.48    9.70
  -3 -10   2  205.78   10.60
   3 -10  -2  182.68   10.00
   3 -10  -2  199.08   10.10
   3  10  -2  197.58   10.70
   3  10  -2  194.98   10.00
  -3  10   2  183.98    9.90
  -3  10   2  174.98    9.40
   3  10  -2  204.58   11.10
   3  10  -2  200.88   11.10
  -3  10   2  201.18    9.90
  -3  10   2  192.18    9.40
  -2 -10   2  745.53   20.70
   2 -10  -2  700.83   23.80
   2 -10  -2  758.02   24.70
   2 -10  -2  711.63   23.30
  -2 -10   2  687.13   23.50
   2 -10  -2  649.64   23.50
  -2 -10   2  703.13   25.00
   2 -10  -2  692.93   22.50
  -2  10   2  744.93   24.40
   2  10  -2  730.83   25.00
   2  10  -2  740.93   23.30
  -2  10   2  706.83   23.00
  -2  10   2  690.73   23.60
   2  10  -2  737.93   24.40
  -2  10   2  721.73   23.80
   2  10  -2  725.23   25.20
  -1 -10   2  618.24   22.60
   1 -10  -2  675.83   22.50
  -1 -10   2  701.63   23.70
   1 -10  -2  694.53   21.50
  -1 -10   2  687.43   20.40
   1 -10  -2  685.23   21.90
   1 -10  -2  767.02   22.60
   1 -10  -2  700.03   22.80
  -1  10   2  689.03   22.10
  -1  10   2  709.33   22.20
   1  10  -2  665.03   23.30
   1  10  -2  706.23   24.50
  -1  10   2  697.63   22.70
   1  10  -2  667.73   22.40
  -1  10   2  671.23   21.40
   1  10  -2  679.03   22.90
  -1  10   2  688.43   23.00
   0 -10  -2   16.40    2.80
   0 -10  -2   23.90    2.80
   0 -10   2   23.70    3.00
   0 -10   2   21.40    2.90
   0 -10  -2   26.60    2.80
   0 -10   2   22.40    3.30
   0 -10  -2   20.50    2.90
   0 -10  -2   21.00    2.80
   0 -10   2   24.60    3.60
   0  10  -2   23.90    3.90
   0  10  -2   24.30    3.40
   0  10   2   25.20    3.50
   0  10   2   22.80    2.50
   0  10  -2   22.30    3.50
   0  10  -2   27.10    3.60
   0  10  -2   22.10    2.80
   0  10   2   23.10    3.00
   0  10  -2   28.20    3.50
   0  10   2   23.40    3.30
   0  10   2   17.90    2.40
   1 -10   2  155.88    7.70
   1 -10   2  171.18    9.20
   1 -10   2  174.68    8.30
  -1 -10  -2  163.88    7.80
   1 -10   2  168.78    8.30
  -1 -10  -2  172.68    7.70
  -1 -10  -2  171.98    7.70
   1  10   2  166.58    8.10
  -1  10  -2  168.78    7.50
   1  10   2  169.18    8.50
  -1  10  -2  181.08    8.40
  -1  10  -2  165.88    7.20
  -1  10  -2  155.38    9.40
   1  10   2  161.78    8.00
  -1  10  -2  154.28    9.00
  -1  10  -2  170.88    9.10
  -2 -10  -2  412.76   15.60
   2 -10   2  459.75   17.50
  -2 -10  -2  420.56   15.50
   2 -10   2  419.36   16.70
  -2 -10  -2  441.46   15.30
   2 -10   2  445.36   18.30
   2  10   2  409.16   16.50
  -2  10  -2  444.76   14.20
  -2  10  -2  434.36   16.90
  -2  10  -2  461.65   18.20
   2  10   2  452.75   16.80
  -2  10  -2  412.96   18.00
  -2  10  -2  470.85   18.30
   2  10   2  456.55   16.00
  -3 -10  -2   84.89    6.10
   3 -10   2   87.99    7.30
   3 -10   2   92.29    7.70
  -3 -10  -2   92.99    5.70
  -3 -10  -2   87.09    6.10
   3 -10   2   83.39    7.00
  -3  10  -2  104.29    7.80
  -3  10  -2  100.29    7.40
   3  10   2   99.29    6.70
   3  10   2   91.99    6.40
   3  10   2   86.19    6.40
  -3  10  -2   87.89    7.30
  -3  10  -2   90.09    7.40
  -4 -10  -2  155.18    8.70
   4 -10   2  160.38   10.50
   4 -10   2  123.59    9.80
  -4 -10  -2  135.99    8.30
   4 -10   2  138.99   10.10
  -4  10  -2  140.69    9.80
  -4  10  -2  125.99    9.40
  -4  10  -2  136.69    9.90
  -4  10  -2  131.89    9.50
   4  10   2  144.29    8.80
   4  10   2  153.98    9.20
   4  10   2  150.58    9.20
  -5 -10  -2  167.68   10.00
   5 -10   2  214.48   13.20
   5 -10   2  150.38   11.70
  -5 -10  -2  184.28   10.50
   5 -10   2  159.68   12.00
   5  10   2  175.68   10.70
  -5  10  -2  165.18   11.60
   5  10   2  159.68   10.40
  -5  10  -2  157.18   11.10
  -5  10  -2  167.88   11.30
   5  10   2  174.28   10.70
  -5  10  -2  161.28   11.40
  -6 -10  -2    1.50    2.20
  -6 -10  -2    3.80    2.70
   6 -10   2    3.20    3.50
   6 -10   2   10.50    4.90
   6 -10   2    3.10    3.20
  -6  10  -2    2.40    3.00
  -6  10  -2    6.20    3.70
  -6  10  -2    2.20    2.60
   6  10   2    3.20    2.70
   6  10   2    4.80    3.20
   6  10   2    3.00    2.60
  -6  10  -2    7.70    3.70
   6 -11  -2   33.40    6.80
   6 -11  -2   30.60    6.50
  -6 -11   2   45.70    6.00
   6 -11  -2   40.70    6.80
  -6 -11   2   46.90    7.50
   6 -11  -2   40.60    6.60
  -6  11   2   29.20    5.60
  -6  11   2   34.90    6.00
   6  11  -2   45.20    8.20
   6  11  -2   32.10    6.30
  -6  11   2   39.10    6.90
   6  11  -2   30.40    6.70
  -5 -11   2  153.48   10.60
   5 -11  -2  167.98   10.90
  -5 -11   2  160.78    9.30
   5 -11  -2  168.38   11.40
   5 -11  -2  162.58   11.40
   5 -11  -2  167.08   11.20
  -5  11   2  156.68   10.50
   5  11  -2  151.68   11.50
  -5  11   2  201.08   10.50
   5  11  -2  159.78   11.20
  -5  11   2  171.98   10.80
  -5  11   2  174.38   10.60
   5  11  -2  181.18   12.40
   4 -11  -2   63.99    7.30
   4 -11  -2   75.79    6.70
  -4 -11   2   84.39    6.10
   4 -11  -2   57.09    6.80
   4 -11  -2   71.89    7.90
  -4 -11   2   73.89    6.60
  -4  11   2   57.69    6.50
  -4  11   2   61.99    6.80
   4  11  -2   81.59    8.70
  -4  11   2   63.29    6.50
   4  11  -2   73.79    8.30
   4  11  -2   76.79    8.10
   3 -11  -2   85.99    6.50
   3 -11  -2   92.99    6.80
   3 -11  -2   69.19    7.10
  -3 -11   2   68.89    6.20
   3 -11  -2   96.39    7.00
  -3 -11   2   78.89    5.90
  -3  11   2   82.39    6.10
   3  11  -2   87.19    7.00
  -3  11   2   89.59    6.60
  -3  11   2   84.89    5.90
  -3  11   2   90.29    6.30
   3  11  -2   94.89    8.90
   3  11  -2   95.09    7.50
   2 -11  -2   14.90    3.10
   2 -11  -2   10.60    2.60
  -2 -11   2   13.50    3.00
   2 -11  -2   13.50    2.70
   2 -11  -2   10.10    2.50
  -2 -11   2   11.50    1.90
  -2 -11   2    8.50    2.30
   2 -11  -2   12.50    2.60
   2  11  -2    9.20    2.80
   2  11  -2    6.10    2.20
  -2  11   2    8.20    2.20
   2  11  -2   11.20    3.10
  -2  11   2    9.60    2.50
  -2  11   2    8.00    2.20
  -2  11   2   11.30    2.40
   1 -11  -2    6.10    1.80
   1 -11  -2    4.40    1.60
  -1 -11   2    4.00    1.80
   1 -11  -2    3.50    1.40
  -1 -11   2    4.30    1.90
   1 -11  -2    3.10    1.40
   1 -11  -2    5.80    1.90
  -1 -11   2    8.10    1.80
   1  11  -2    2.50    1.70
  -1  11   2    6.10    1.60
  -1  11   2    4.40    1.90
  -1  11   2    2.70    1.70
   1  11  -2    7.10    2.20
   1  11  -2    6.40    2.10
   1  11  -2    4.30    1.80
  -1  11   2    4.90    1.60
  -1  11   2    4.10    1.60
   0 -11   2   13.80    2.90
   0 -11   2   19.50    3.20
   0 -11  -2   15.20    2.60
   0 -11  -2   16.00    2.60
   0 -11   2   16.80    2.80
   0 -11  -2   14.50    2.70
   0 -11  -2   16.10    2.40
   0  11   2   16.30    2.90
   0  11  -2   15.50    2.90
   0  11   2   15.00    2.50
   0  11   2   15.60    3.00
   0  11  -2   15.20    3.10
   0  11  -2   18.90    3.20
   0  11  -2   17.60    3.00
   0  11  -2   13.80    3.30
   0  11   2   15.40    2.60
   1 -11   2  206.08    9.60
  -1 -11  -2  193.38    8.80
   1 -11   2  189.48   10.40
   1 -11   2  199.38    9.10
  -1 -11  -2  189.58    8.90
  -1 -11  -2  195.28    8.70
   1 -11   2  191.68    9.40
  -1  11  -2  206.58   10.70
   1  11   2  201.28    9.80
  -1  11  -2  204.78    8.90
   1  11   2  192.08    9.30
   1  11   2  184.58    9.10
  -1  11  -2  202.28   11.20
  -1  11  -2  198.78   10.30
  -1  11  -2  210.78    9.50
  -1  11  -2  221.28    8.80
   2 -11   2  180.18    9.90
  -2 -11  -2  179.68    8.70
   2 -11   2  192.48   10.10
  -2 -11  -2  170.48    8.60
   2 -11   2  164.58   10.30
  -2 -11  -2  179.18    8.20
  -2  11  -2  163.28   10.30
   2  11   2  193.78    9.60
  -2  11  -2  175.68    9.50
   2  11   2  181.58    9.30
  -2  11  -2  185.68    7.90
  -2  11  -2  161.88    9.90
  -2  11  -2  180.08   10.40
   2  11   2  180.28    9.10
  -3 -11  -2  137.99    7.30
   3 -11   2  147.49   10.00
  -3 -11  -2  132.59    7.80
   3 -11   2  147.49    9.60
   3 -11   2  128.09    9.10
  -3 -11  -2  131.09    7.70
   3  11   2  137.49    8.40
   3  11   2  144.89    8.70
  -3  11  -2  124.89    9.00
   3  11   2  125.69    8.00
  -3  11  -2  137.69    9.00
  -3  11  -2  150.68    9.80
  -3  11  -2  108.09    8.70
   4 -11   2   28.90    5.90
   4 -11   2   25.40    5.40
  -4 -11  -2   24.00    4.00
  -4 -11  -2   15.30    3.30
   4 -11   2   14.60    4.30
   4  11   2   20.60    4.30
   4  11   2   26.90    4.60
   4  11   2   19.40    4.10
  -4  11  -2   19.80    4.60
  -4  11  -2   16.80    4.40
  -4  11  -2   21.20    4.90
   5 -11   2  124.59   12.80
  -5 -11  -2  116.29    8.10
   5 -11   2  122.49   12.80
   5 -11   2  101.69   11.20
  -5 -11  -2  110.79    8.10
  -5  11  -2  107.79   11.40
  -5  11  -2  107.89   11.20
   5  11   2  120.79    9.10
   5  11   2   86.89    9.00
  -5  11  -2  118.69    9.70
  -5  11  -2  119.29   10.00
   5  11   2  119.69    8.90
   6 -11   2    1.70    3.30
  -6 -11  -2    6.20    2.80
   6 -11   2   -0.20    3.00
   6 -11   2    3.00    3.60
  -6 -11  -2    9.00    3.30
   6  11   2    6.60    3.40
   6  11   2    5.80    3.20
   6  11   2    4.50    3.30
  -6  11  -2    2.50    2.80
  -6  11  -2    2.50    2.90
  -6  11  -2    3.80    3.70
   5 -12  -2   10.50    3.80
   5 -12  -2    9.20    3.30
  -5 -12   2    5.70    2.90
   5 -12  -2   10.10    3.80
   5 -12  -2   14.10    4.30
  -5 -12   2    6.90    2.50
  -5  12   2    8.20    3.00
  -5  12   2    3.50    2.50
  -5  12   2    6.60    3.20
   5  12  -2   10.60    4.10
   5  12  -2    8.20    3.50
  -5  12   2    7.90    3.30
   5  12  -2    7.40    3.70
   4 -12  -2   68.59    7.90
  -4 -12   2   59.69    6.60
  -4 -12   2   66.49    8.00
   4 -12  -2   58.59    7.30
   4 -12  -2   59.29    7.10
   4 -12  -2   50.89    6.80
  -4  12   2   47.60    6.10
  -4  12   2   53.19    6.80
   4  12  -2   72.19    8.40
  -4  12   2   49.10    6.10
   4  12  -2   59.19    8.00
   4  12  -2   66.49    8.50
  -4  12   2   51.09    6.70
   3 -12  -2   51.09    6.40
   3 -12  -2   42.80    5.70
   3 -12  -2   50.09    6.00
  -3 -12   2   49.10    5.80
  -3 -12   2   57.19    6.60
   3 -12  -2   48.10    5.90
  -3  12   2   48.50    5.90
   3  12  -2   57.39    6.90
   3  12  -2   59.29    7.30
   3  12  -2   48.20    6.50
  -3  12   2   52.79    5.80
  -3  12   2   53.59    6.20
  -3  12   2   56.19    6.10
   2 -12  -2   78.89    6.10
  -2 -12   2   76.49    6.30
   2 -12  -2   69.69    5.80
  -2 -12   2   77.69    6.10
   2 -12  -2   87.49    6.10
   2 -12  -2   77.99    5.70
   2 -12  -2   77.79    6.00
   2  12  -2   78.49    8.10
  -2  12   2   87.19    5.80
   2  12  -2   81.49    6.40
  -2  12   2   78.59    5.70
  -2  12   2   68.59    5.60
   2  12  -2   85.59    6.80
  -2  12   2   87.79    6.30
  -1 -12   2    2.60    1.30
   1 -12  -2    5.70    2.00
   1 -12  -2    4.20    1.70
  -1 -12   2    3.40    2.00
   1 -12  -2    3.00    1.70
  -1 -12   2    0.60    1.50
   1 -12  -2    5.70    2.10
   1 -12  -2    3.20    1.50
   1  12  -2    3.60    1.90
  -1  12   2    3.40    1.70
  -1  12   2    4.60    1.60
   1  12  -2    4.90    2.20
  -1  12   2    6.20    2.20
  -1  12   2    4.00    1.70
   1  12  -2    4.60    2.10
   0 -12  -2    3.10    1.50
   0 -12  -2    3.00    1.40
   0 -12  -2    5.50    1.70
   0 -12   2    6.10    2.00
   0 -12   2    6.30    2.40
   0 -12   2    7.80    2.20
   0  12  -2    4.40    2.20
   0  12   2    4.70    2.00
   0  12  -2    4.60    2.30
   0  12  -2    5.00    1.80
   0  12   2    4.70    1.60
   0  12   2    5.10    2.00
   0  12  -2    3.50    1.80
  -1 -12  -2   78.29    5.50
  -1 -12  -2   84.69    5.40
  -1 -12  -2   85.39    5.50
   1 -12   2   87.49    7.00
   1 -12   2   96.79    6.40
   1 -12   2   81.09    6.00
   1  12   2   77.29    6.00
  -1  12  -2   85.19    7.30
  -1  12  -2   75.69    6.50
  -1  12  -2   83.49    5.60
  -1  12  -2   76.89    6.40
   1  12   2   90.49    5.90
   1  12   2   75.49    5.80
   2 -12   2   86.89    8.90
  -2 -12  -2   74.89    5.50
   2 -12   2   85.69    6.80
  -2 -12  -2   91.59    6.00
  -2 -12  -2   79.29    5.10
   2 -12   2   79.29    7.80
  -2  12  -2   73.59    6.20
  -2  12  -2   79.89    7.00
   2  12   2   87.89    6.40
  -2  12  -2   93.09    7.50
  -2  12  -2   87.89    5.40
  -2  12  -2   84.69    7.50
   2  12   2   95.29    6.50
   2  12   2   79.49    6.20
   3 -12   2   25.10    4.90
  -3 -12  -2   21.60    3.70
   3 -12   2   26.60    5.10
  -3 -12  -2   28.60    4.40
   3 -12   2   25.40    5.30
   3  12   2   25.90    4.40
  -3  12  -2   24.30    5.00
  -3  12  -2   26.30    5.20
  -3  12  -2   18.40    4.30
  -3  12  -2   29.00    4.90
   3  12   2   23.10    4.20
   3  12   2   18.10    3.60
   4 -12   2   12.80    4.10
   4 -12   2    8.00    3.40
  -4 -12  -2   11.30    3.00
  -4 -12  -2    8.50    2.80
   4 -12   2    9.60    4.00
  -4  12  -2    6.00    3.10
  -4  12  -2   17.80    4.60
   4  12   2   12.40    3.60
  -4  12  -2   13.90    4.10
  -4  12  -2   13.40    3.90
   4  12   2   12.70    3.50
   4  12   2    9.90    3.10
   5 -12   2   29.00    6.50
  -5 -12  -2   26.40    4.80
   5 -12   2   40.80    7.40
  -5 -12  -2   30.40    5.00
   5 -12   2   39.10    7.60
  -5  12  -2   42.70    7.50
   5  12   2   29.10    5.60
  -5  12  -2   32.20    6.50
   5  12   2   36.00    5.90
   5  12   2   30.70    5.70
  -5  12  -2   33.20    6.30
  -5  12  -2   30.20    6.00
   5 -13  -2  146.89   11.30
  -5 -13   2  178.98   10.50
   5 -13  -2  171.38   12.00
  -5 -13   2  167.88   11.70
   5 -13  -2  174.28   12.60
   5 -13  -2  172.88   12.20
  -5  13   2  191.28   11.80
   5  13  -2  163.88   12.50
   5  13  -2  157.58   11.80
  -5  13   2  174.58   10.20
  -5  13   2  179.78   11.80
  -5  13   2  175.18   11.70
   5  13  -2  163.88   12.60
   4 -13  -2   87.99    7.90
   4 -13  -2   89.29    7.70
  -4 -13   2   78.69    6.60
   4 -13  -2   86.39    9.30
   4 -13  -2   67.89    8.50
  -4 -13   2   88.19    9.50
  -4  13   2   89.59    7.40
   4  13  -2   90.69   10.10
   4  13  -2   69.59    8.90
   4  13  -2  117.69    9.20
  -4  13   2   84.19    7.30
  -4  13   2   75.59    8.10
  -4  13   2   82.59    6.60
   3 -13  -2   26.70    4.80
   3 -13  -2   25.90    4.60
  -3 -13   2   29.10    4.70
  -3 -13   2   24.40    4.60
   3 -13  -2   22.60    4.20
   3 -13  -2   16.60    3.80
  -3  13   2   23.00    4.10
  -3  13   2   30.20    5.00
   3  13  -2   24.40    5.00
  -3  13   2   21.30    4.00
   3  13  -2   24.90    4.90
  -3  13   2   17.30    3.70
  -2 -13   2   87.79    6.60
   2 -13  -2   91.69    6.80
   2 -13  -2   86.29    6.70
  -2 -13   2   90.69    7.00
   2 -13  -2   97.49    6.90
  -2  13   2   91.19    6.10
  -2  13   2   99.69    7.00
  -2  13   2   84.19    6.20
  -2  13   2   89.69    6.70
   2  13  -2   95.89    7.60
   2  13  -2   84.39    7.10
   1 -13  -2   94.89    6.20
   1 -13  -2   89.69    6.40
  -1 -13   2   99.39    5.80
   1 -13  -2   92.39    6.20
  -1 -13   2   86.29    6.60
  -1 -13   2   86.09    6.80
  -1  13   2   88.09    6.20
  -1  13   2   93.29    6.60
   1  13  -2   85.19    7.00
   1  13  -2   79.49    6.50
   1  13  -2   91.79    6.90
   0 -13  -2  169.48    8.40
   0 -13  -2  167.48    8.30
   0 -13   2  178.68    8.70
   0 -13   2  165.28    9.00
   0 -13  -2  173.38    8.70
   0 -13   2  146.49    9.40
   0  13   2  169.38    8.10
   0  13  -2  143.59    9.00
   0  13  -2  146.29    8.60
   0  13  -2  148.49    9.80
   0  13  -2  164.68    8.80
   0  13   2  165.68    9.00
   0  13   2  159.58    8.80
  -1 -13  -2  222.88   10.40
  -1 -13  -2  238.68   10.00
   1 -13   2  224.68   12.40
  -1 -13  -2  222.38   10.40
   1 -13   2  228.98   11.20
  -1  13  -2  239.78   13.00
  -1  13  -2  232.78   10.60
   1  13   2  227.48   11.20
   1  13   2  232.98   10.80
   1  13   2  220.18   11.00
  -1  13  -2  238.48   12.30
   2 -13   2   76.59    7.90
   2 -13   2   55.59    7.30
   2 -13   2   73.49    7.70
  -2 -13  -2   65.69    5.30
  -2 -13  -2   69.59    5.40
   2  13   2   56.49    6.20
   2  13   2   70.69    6.00
  -2  13  -2   72.09    7.90
  -2  13  -2   67.39    7.50
   2  13   2   72.29    5.90
  -2  13  -2   68.89    5.00
  -2  13  -2   55.79    7.30
  -3 -13  -2   67.09    6.70
   3 -13   2   53.69    7.40
   3 -13   2   62.39    8.30
  -3 -13  -2   56.99    6.00
   3 -13   2   50.29    6.90
  -3  13  -2   53.79    7.40
  -3  13  -2   46.50    6.70
  -3  13  -2   53.79    7.20
   3  13   2   52.09    6.50
  -3  13  -2   57.69    7.70
   3  13   2   55.89    6.70
   3  13   2   60.19    6.80
  -4 -13  -2   48.20    6.00
   4 -13   2   42.20    7.00
   4 -13   2   49.40    7.80
  -4 -13  -2   48.60    5.80
   4 -13   2   51.99    7.90
  -4  13  -2   43.10    6.90
   4  13   2   55.49    7.10
  -4  13  -2   52.19    7.80
   4  13   2   47.80    6.60
   4  13   2   59.89    7.70
  -4  13  -2   55.99    7.50
  -4  13  -2   46.70    7.70
  -5 -13  -2   65.39    7.30
  -5 -13  -2   62.09    6.90
   5 -13   2   51.09    8.50
   5 -13   2   65.99    9.80
   5 -13   2   55.89    8.90
  -5  13  -2   54.49    8.40
  -5  13  -2   45.60    7.50
  -5  13  -2   41.60    7.30
   5  13   2   59.09    8.00
  -5  13  -2   48.70    8.10
   5  13   2   84.89    9.40
   5  13   2   60.19    8.40
   4 -14  -2   42.00    6.70
   4 -14  -2   38.50    6.40
  -4 -14   2   30.20    5.00
   4 -14  -2   39.50    6.40
  -4 -14   2   31.90    5.70
  -4  14   2   38.30    6.20
   4  14  -2   41.30    6.80
   4  14  -2   42.10    7.30
  -4  14   2   34.00    5.50
  -4  14   2   44.50    6.60
  -4  14   2   31.40    4.80
  -3 -14   2   29.90    4.90
  -3 -14   2   27.60    5.20
   3 -14  -2   34.70    5.80
   3 -14  -2   28.70    4.90
   3 -14  -2   30.20    5.30
   3  14  -2   37.40    6.40
  -3  14   2   21.90    4.00
   3  14  -2   24.30    5.40
  -3  14   2   17.60    4.00
  -3  14   2   25.20    4.50
  -3  14   2   24.20    4.70
  -2 -14   2    1.60    1.90
  -2 -14   2    0.70    1.60
   2 -14  -2    2.50    2.10
   2 -14  -2    0.70    1.60
  -2  14   2    0.70    1.70
   2  14  -2    2.00    2.10
   2  14  -2    3.20    2.30
  -2  14   2    2.80    1.80
  -2  14   2    2.40    1.80
   1 -14  -2    4.70    2.20
   1 -14  -2    4.50    2.20
   1 -14  -2    6.50    2.10
  -1 -14   2    4.00    2.20
  -1 -14   2    9.40    2.90
   1  14  -2   11.40    3.20
  -1  14   2    9.70    2.80
   1  14  -2    8.40    2.80
   1  14  -2    6.20    2.60
  -1  14   2   10.80    2.80
   0 -14  -2   13.20    3.00
   0 -14   2   13.70    3.70
   0 -14   2   16.70    3.30
   0 -14  -2   20.60    3.50
   0 -14  -2   18.90    3.40
   0  14   2   23.80    4.20
   0  14  -2   15.10    3.40
   0  14   2   15.90    3.40
   0  14  -2   17.60    4.00
   1 -14   2   22.50    4.20
  -1 -14  -2   14.80    3.00
  -1 -14  -2   15.20    3.10
   1 -14   2   18.10    4.20
  -1  14  -2   19.00    4.20
  -1  14  -2   18.60    4.40
   1  14   2   18.80    3.80
   1  14   2   25.90    4.40
   1  14   2   24.30    3.80
  -1  14  -2   22.40    3.80
   2 -14   2   11.60    4.10
  -2 -14  -2   11.50    2.70
   2 -14   2    8.00    3.20
  -2 -14  -2    8.60    2.60
   2  14   2    9.10    3.00
  -2  14  -2   17.60    4.40
   2  14   2   10.90    3.00
  -2  14  -2   14.10    4.00
   2  14   2   17.70    3.60
   3 -14   2   85.69    9.50
   3 -14   2   75.99    9.10
  -3 -14  -2   83.19    6.40
   3 -14   2   83.09    9.80
  -3 -14  -2   96.69    7.00
  -3  14  -2   85.79    9.30
  -3  14  -2   84.49    9.50
   3  14   2  102.39    9.50
   3  14   2   86.29    7.20
   3  14   2   93.29    7.80
  -3  14  -2   69.39    8.60
  -4 -14  -2   27.00    4.70
   4 -14   2   29.50    6.20
  -4 -14  -2   29.60    4.80
   4 -14   2   32.40    6.60
   4 -14   2   33.10    7.20
  -4  14  -2   21.60    5.40
  -4  14  -2   33.20    6.70
  -4  14  -2   20.80    5.30
   4  14   2   30.40    5.30
   4  14   2   31.20    5.70
  -4  14  -2   28.90    5.80
   4  14   2   23.60    5.10
   4 -15  -2   27.00    5.80
   4 -15  -2   34.60    6.60
   4 -15  -2   37.80    6.70
  -4 -15   2   22.30    4.50
  -4 -15   2   28.90    5.70
   4  15  -2   37.70    6.90
  -4  15   2   25.10    5.10
  -4  15   2   36.00    5.60
   4  15  -2   37.30    7.00
  -4  15   2   40.70    6.60
  -4  15   2   29.40    5.70
  -3 -15   2   81.69    9.00
  -3 -15   2   79.19    8.50
   3 -15  -2   80.89    8.60
   3 -15  -2   85.89    8.90
   3  15  -2  108.49   11.00
   3  15  -2   96.49   10.20
  -3  15   2   93.79    8.00
  -3  15   2   97.29    7.50
   2 -15  -2    2.40    2.20
  -2 -15   2    2.50    2.20
   2 -15  -2    4.40    2.40
  -2 -15   2    0.70    1.70
   2  15  -2    4.30    2.60
  -2  15   2    1.20    1.90
   2  15  -2    1.30    2.20
   1 -15  -2  149.88    9.30
  -1 -15   2  138.99    9.80
   1 -15  -2  152.58    9.10
   1  15  -2  161.48   10.00
   1  15  -2  167.78   10.30
  -1  15   2  159.68    9.00
  -1  15   2  152.78    9.30
   0 -15  -2   36.10    5.00
   0 -15  -2   39.70    5.40
   0 -15   2   43.80    5.50
   0 -15   2   28.00    5.20
   0  15   2   37.30    5.10
   0  15  -2   34.40    5.70
   0  15  -2   35.80    5.30
   0  15   2   36.10    5.00
   1 -15   2   12.10    3.90
  -1 -15  -2   15.10    3.30
  -1 -15  -2   23.00    4.00
   1 -15   2   23.10    4.50
  -1  15  -2   19.50    4.80
  -1  15  -2   25.40    4.30
   1  15   2   19.20    3.90
   1  15   2   16.10    3.80
   2 -15   2   23.60    5.00
   2 -15   2   27.50    5.90
  -2 -15  -2   18.80    3.70
  -2 -15  -2   14.30    3.40
  -2  15  -2   19.10    5.00
   2  15   2   14.60    3.60
  -2  15  -2   14.20    4.10
   2  15   2   17.40    4.10
   2  15   2   21.70    4.10
  -3 -15  -2   46.50    5.90
  -3 -15  -2   51.29    6.00
   3 -15   2   58.89    8.10
   3 -15   2   46.80    7.70
   3  15   2   45.10    6.80
  -3  15  -2   41.50    6.90
   3  15   2   42.40    6.30
  -3  15  -2   38.50    6.80
   3  15   2   49.30    6.60
  -4 -15  -2   37.10    5.50
  -4 -15  -2   46.30    6.00
   4 -15   2   47.60    8.10
   4 -15   2   45.00    8.20
   4 -15   2   31.90    7.00
  -4  15  -2   40.00    7.00
  -4  15  -2   46.70    7.60
  -4  15  -2   55.09    8.60
   4  15   2   46.70    6.60
   4  15   2   59.29    8.10
   4  15   2   50.49    7.30
   3 -16  -2   92.69    9.80
  -3 -16   2   93.49    8.10
   3 -16  -2   83.89    9.30
  -3 -16   2  105.39    8.90
  -3  16   2  105.39    7.90
   3  16  -2   91.49   10.40
   3  16  -2  100.69   11.00
   2 -16  -2  180.78   11.30
  -2 -16   2  187.68   11.50
  -2 -16   2  177.68   11.40
   2 -16  -2  171.08   10.90
  -2  16   2  174.78   10.40
   2  16  -2  186.98   11.90
   2  16  -2  172.68   11.80
  -1 -16   2  164.18   11.20
   1 -16  -2  181.28   10.80
  -1  16   2  184.58   10.70
  -1  16   2  183.58   10.10
   1  16  -2  202.38   12.00
   0 -16  -2   35.10    5.30
   0 -16   2   24.80    5.20
   0 -16  -2   21.30    4.20
   0  16  -2   29.20    5.30
   0  16   2   23.60    4.30
   0  16   2   44.30    6.00
   1 -16   2   38.80    6.60
  -1 -16  -2   43.70    5.80
  -1 -16  -2   54.59    6.20
   1 -16   2   46.20    6.40
  -1  16  -2   56.99    7.80
   1  16   2   55.49    6.80
   1  16   2   53.99    6.60
  -1  16  -2   48.30    6.10
   2 -16   2    7.60    3.40
   2 -16   2    3.30    3.10
  -2 -16  -2    6.00    2.60
  -2 -16  -2    4.50    2.30
   2  16   2    4.60    2.80
  -2  16  -2    0.20    2.60
   2  16   2    5.90    2.60
   2  16   2    3.10    2.30
   3 -16   2   28.00    6.70
  -3 -16  -2   23.30    4.30
   3 -16   2   39.50    7.00
  -3 -16  -2   20.10    4.20
   3  16   2   20.90    4.60
  -3  16  -2   20.70    5.40
   3  16   2   13.00    4.20
   3  16   2   19.40    4.70
  -3  16  -2   23.30    5.60
   1 -17  -2   27.80    5.00
  -1 -17   2   26.60    5.70
   1  17  -2   26.60    5.60
  -1  17   2   27.50    4.90
   0 -17  -2   32.50    5.10
   0 -17   2   26.30    5.60
   0 -17  -2   29.40    5.10
   0  17   2   29.00    5.00
   0  17  -2   40.60    6.10
   0  17   2   28.90    4.90
   1 -17   2   41.50    7.30
  -1 -17  -2   59.79    7.00
  -1 -17  -2   51.29    6.60
   1  17   2   45.00    6.20
   1  17   2   52.49    6.90
  -7   0   3   -2.40    1.60
   7   0  -3    0.90    1.80
   7   0  -3    1.10    2.10
  -7   0   3    1.60    2.40
   7   0  -3   -0.10    1.80
   7   0  -3    0.70    2.10
  -6   0   3   -0.50    1.30
   6   0  -3    0.50    1.50
   6   0  -3   -0.50    1.40
   6   0  -3   -0.50    1.30
   6   0  -3   -0.40    1.40
  -6   0   3    0.60    2.00
  -6   0   3    1.00    1.80
   5   0  -3   -0.90    1.50
   5   0  -3   -0.10    1.10
  -5   0   3    0.70    1.30
   5   0  -3    0.40    1.30
  -5   0   3    0.20    1.40
   5   0  -3    1.40    1.70
   5   0  -3    0.40    1.30
   5   0  -3    1.20    1.30
  -5   0   3    0.40    1.50
   4   0  -3    2.40    1.30
   4   0  -3    1.90    1.70
   4   0  -3   -0.20    1.30
  -4   0   3    1.10    1.50
  -4   0   3    0.60    1.10
   4   0  -3    0.60    1.00
   4   0  -3    0.50    0.90
  -4   0   3    0.70    0.60
   4   0  -3    0.10    1.10
  -4   0   3    0.50    1.60
  -3   0   3    0.20    0.40
   3   0  -3   -0.10    0.70
   3   0  -3    0.20    1.00
   3   0  -3    0.90    0.80
   3   0  -3    0.70    1.20
  -3   0   3    0.30    0.90
   3   0  -3    0.60    0.70
   3   0  -3    1.20    1.10
  -3   0   3    0.40    1.10
  -3   0   3    0.90    1.10
   2   0  -3    0.50    0.50
   2   0  -3    2.40    1.30
   2   0  -3    0.50    0.60
  -2   0   3    0.00    0.90
   2   0  -3   -0.70    0.70
   2   0  -3    1.00    1.00
  -2   0   3    0.50    1.10
   2   0  -3    1.50    1.00
  -2   0   3    1.00    0.50
  -2   0   3    0.20    0.80
   1   0  -3   -0.50    0.80
   1   0  -3   -0.40    0.50
   1   0  -3    0.80    1.00
  -1   0   3    0.40    0.90
   1   0  -3    1.50    0.50
   1   0  -3    0.70    0.90
  -1   0   3    0.10    0.90
  -1   0   3   -0.30    0.80
  -1   0   3    0.60    0.60
   0   0  -3    0.60    0.60
   0   0   3    0.80    0.70
   0   0  -3    0.50    0.90
   0   0  -3    0.20    0.70
   0   0  -3   -0.10    0.60
   0   0   3    0.20    0.70
   0   0   3    0.80    0.90
   0   0   3    0.80    0.90
   0   0  -3   -0.10    0.70
   1   0   3    0.20    0.50
  -1   0  -3    1.10    1.00
  -1   0  -3    0.70    0.90
  -1   0  -3    0.00    0.80
   1   0   3    0.10    0.90
  -1   0  -3    0.60    1.00
   1   0   3    0.50    0.90
   1   0   3    0.80    0.80
  -1   0  -3   -0.20    0.80
  -2   0  -3    1.30    0.90
  -2   0  -3    1.00    1.20
   2   0   3    0.20    0.40
   2   0   3    1.50    1.20
  -2   0  -3    0.50    1.20
  -2   0  -3    1.60    1.40
  -2   0  -3    0.00    0.80
   2   0   3   -1.10    0.90
   2   0   3    2.10    1.30
   2   0   3    9.90    1.70
   3   0   3    0.10    1.10
   3   0   3    0.30    0.60
  -3   0  -3    0.50    1.00
   3   0   3    0.00    1.10
   3   0   3    0.60    0.50
  -3   0  -3    0.10    0.80
  -3   0  -3    1.00    0.90
  -3   0  -3    0.80    1.10
   3   0   3    3.10    1.60
  -3   0  -3   -0.10    1.00
   4   0   3    0.30    0.80
  -4   0  -3    1.50    1.50
  -4   0  -3    3.20    1.90
   4   0   3    0.40    1.40
  -4   0  -3   -0.10    1.10
  -4   0  -3   -0.80    1.10
   4   0   3    0.80    1.30
   4   0   3    0.80    1.20
  -4   0  -3    1.60    1.30
   5   0   3    0.50    1.60
  -5   0  -3    0.50    1.50
  -5   0  -3    0.10    1.40
  -5   0  -3    1.50    1.40
   5   0   3   -0.10    1.00
   5   0   3    0.30    2.00
  -5   0  -3   -0.40    1.60
   5   0   3    2.30    1.50
  -5   0  -3   -1.30    1.70
  -6   0  -3    0.10    2.00
  -6   0  -3    2.60    2.00
  -6   0  -3   -0.20    1.70
  -6   0  -3    0.70    1.70
  -6   0  -3    0.20    1.30
   6   0   3    0.20    2.10
   6   0   3   -1.60    1.90
   6   0   3   -1.20    1.20
  -7   0  -3   -0.70    1.90
  -7   0  -3   -1.80    1.80
  -7   0  -3    0.00    2.50
   7   0   3    0.30    2.90
  -7   0  -3   -1.30    2.10
   7   0   3    1.20    2.60
   7  -1  -3  223.98   12.70
   7  -1  -3  223.88   13.10
  -7  -1   3  225.78   14.10
   7  -1  -3  216.18   12.70
   7  -1  -3  217.88   12.90
  -7  -1   3  212.58   12.20
  -7  -1   3  237.38   14.40
   7   1  -3  212.88   13.80
   7   1  -3  209.78   12.20
  -7   1   3  217.58   13.60
  -7   1   3  224.28   12.90
   7   1  -3  231.68   13.30
  -7   1   3  247.78   14.20
   7   1  -3  218.38   12.40
  -6  -1   3   29.60    5.60
   6  -1  -3   26.10    4.50
   6  -1  -3   24.90    4.40
  -6  -1   3   40.60    6.60
   6  -1  -3   23.90    4.60
  -6  -1   3   30.30    4.80
   6  -1  -3   32.10    5.00
   6   1  -3   33.10    4.80
  -6   1   3   39.80    6.20
  -6   1   3   31.70    5.80
  -6   1   3   42.40    5.50
   6   1  -3   38.70    5.90
   6   1  -3   35.40    5.10
   6   1  -3   32.90    5.00
   6   1  -3   26.60    5.30
  -5  -1   3   93.09    4.70
   5  -1  -3   99.09    7.00
   5  -1  -3   88.79    6.70
  -5  -1   3   90.39    6.50
  -5  -1   3   94.29    7.60
   5  -1  -3   95.99    6.50
  -5  -1   3   92.79    7.60
   5  -1  -3   87.19    7.00
   5  -1  -3  102.59    6.90
   5   1  -3  102.19    7.90
   5   1  -3  104.49    7.10
   5   1  -3  101.29    6.40
  -5   1   3  112.09    6.90
  -5   1   3   96.09    9.10
   5   1  -3   98.19    6.70
   5   1  -3   83.79    6.90
  -5   1   3  106.49    7.90
  -4  -1   3  882.61   28.80
  -4  -1   3  869.21   24.70
  -4  -1   3  830.92   29.70
   4  -1  -3  876.31   27.20
   4  -1  -3  901.91   26.60
   4  -1  -3  836.02   28.70
   4  -1  -3  874.61   29.90
   4  -1  -3  835.42   28.90
  -4  -1   3  863.81   28.80
   4   1  -3  889.41   26.00
   4   1  -3  861.31   30.00
   4   1  -3  891.01   26.80
  -4   1   3  867.01   28.50
  -4   1   3  874.31   24.10
   4   1  -3  853.81   28.70
  -4   1   3  895.11   29.90
  -4   1   3  857.51   28.60
   4   1  -3  865.71   28.60
   4   1  -3  850.81   28.90
   3  -1  -3  251.47    9.80
  -3  -1   3  252.37   11.70
   3  -1  -3  262.87   11.80
  -3  -1   3  267.77    8.40
   3  -1  -3  248.78   11.10
   3  -1  -3  270.77   11.20
  -3  -1   3  246.18   10.90
  -3  -1   3  260.67   11.60
   3  -1  -3  260.57    9.30
  -3   1   3  263.77    7.50
  -3   1   3  251.57   10.80
   3   1  -3  241.38   11.60
   3   1  -3  251.07   11.20
  -3   1   3  242.28   11.20
   3   1  -3  264.77   11.60
   3   1  -3  253.67    8.80
   3   1  -3  259.17    9.30
  -3   1   3  270.27   11.90
   3   1  -3  257.97   10.90
  -2  -1   3 1357.66   41.40
  -2  -1   3 1369.36   41.60
   2  -1  -3 1353.96   41.90
   2  -1  -3 1427.66   36.40
  -2  -1   3 1389.96   37.40
   2  -1  -3 1357.26   41.30
  -2  -1   3 1393.96   39.00
   2  -1  -3 1320.37   41.30
   2  -1  -3 1372.06   38.90
   2   1  -3 1380.86   38.90
  -2   1   3 1401.16   41.60
   2   1  -3 1345.27   38.30
  -2   1   3 1377.36   38.90
   2   1  -3 1349.77   41.10
   2   1  -3 1301.27   41.90
   2   1  -3 1386.76   35.70
  -2   1   3 1405.96   41.60
   2   1  -3 1373.06   41.40
  -1  -1   3 1736.63   49.40
   1  -1  -3 1692.23   50.09
   1  -1  -3 1705.53   44.30
   1  -1  -3 1732.43   49.70
   1  -1  -3 1762.52   50.09
  -1  -1   3 1745.53   46.00
  -1  -1   3 1734.93   50.49
  -1  -1   3 1724.23   46.60
   1  -1  -3 1681.33   47.40
  -1   1   3 1617.34   49.20
  -1   1   3 1659.03   45.70
   1   1  -3 1704.53   47.00
  -1   1   3 1683.83   50.19
   1   1  -3 1726.53   49.80
   1   1  -3 1675.23   49.80
  -1   1   3 1663.03   45.80
   1   1  -3 1734.63   43.60
   1   1  -3 1676.93   45.70
   1   1  -3 1620.94   50.09
   0  -1  -3  191.48    8.50
   0  -1   3  201.78    8.40
   0  -1   3  214.58    7.70
   0  -1   3  194.98    8.00
   0  -1   3  204.38    8.90
   0  -1  -3  201.18    7.20
   0  -1  -3  193.58    8.00
   0  -1  -3  192.78    8.30
   0   1  -3  207.88    8.00
   0   1   3  200.08    7.60
   0   1  -3  196.68    8.60
   0   1   3  196.08    7.80
   0   1  -3  214.78    8.90
   0   1  -3  199.58    8.70
   0   1   3  194.28    8.40
   0   1   3  198.18    8.90
   0   1  -3  202.88    7.10
   1  -1   3  467.85   16.50
  -1  -1  -3  464.25   16.50
   1  -1   3  450.45   16.60
   1  -1   3  480.95   15.60
  -1  -1  -3  461.95   15.90
  -1  -1  -3  476.35   15.40
  -1  -1  -3  454.45   15.60
  -1  -1  -3  470.55   16.10
   1  -1   3  464.75   13.20
   1  -1   3  469.05   15.20
   1   1   3  470.55   13.60
   1   1   3  463.45   16.20
  -1   1  -3  468.95   16.20
  -1   1  -3  482.65   16.50
  -1   1  -3  472.75   15.50
  -1   1  -3  465.25   16.20
   1   1   3  476.15   15.60
   1   1   3  464.95   16.80
  -2  -1  -3 2488.55   68.29
   2  -1   3 2483.25   69.99
   2  -1   3 2448.16   59.39
   2  -1   3 2387.16   65.89
   2  -1   3 2392.06   66.09
  -2  -1  -3 2435.56   68.49
   2  -1   3 2497.35   68.99
  -2  -1  -3 2324.97   65.79
   2  -1   3 2329.07   60.09
  -2  -1  -3 2395.96   69.79
   2   1   3 2452.15   70.19
  -2   1  -3 2374.16   70.19
   2   1   3 2408.06   66.59
  -2   1  -3 2365.56   65.99
  -2   1  -3 2444.46   69.09
  -2   1  -3 2370.76   60.19
   2   1   3 2438.46   60.39
  -2   1  -3 2383.16   69.09
   2   1   3 2301.77   68.29
  -2   1  -3 2361.86   68.39
  -3  -1  -3  231.38   11.50
   3  -1   3  275.57   11.30
  -3  -1  -3  270.17   10.90
   3  -1   3  267.67    9.00
  -3  -1  -3  259.07   10.20
   3  -1   3  253.77   12.00
  -3  -1  -3  264.07   11.60
  -3  -1  -3  252.27   11.90
   3  -1   3  263.07   12.70
   3   1   3  243.48   12.20
  -3   1  -3  255.37   11.90
   3   1   3  264.07    8.30
   3   1   3  253.67   11.20
  -3   1  -3  263.57   11.90
  -3   1  -3  264.27   12.20
   3   1   3  265.27    9.70
  -3   1  -3  254.97   10.80
  -3   1  -3  273.67   11.50
  -4  -1  -3  533.15   18.70
  -4  -1  -3  508.15   20.20
   4  -1   3  540.65   18.90
   4  -1   3  509.15   16.20
  -4  -1  -3  511.65   19.70
  -4  -1  -3  537.65   18.00
   4  -1   3  519.65   20.60
   4  -1   3  549.85   21.70
  -4  -1  -3  501.45   20.10
  -4   1  -3  478.65   20.10
   4   1   3  473.35   19.90
   4   1   3  545.15   19.30
   4   1   3  489.15   16.70
  -4   1  -3  531.55   18.70
   4   1   3  515.95   15.50
  -4   1  -3  497.35   19.90
  -4   1  -3  529.05   20.50
   4   1   3  526.15   21.10
  -4   1  -3  498.95   19.00
  -5  -1  -3  457.75   18.60
   5  -1   3  440.36   19.80
  -5  -1  -3  433.96   19.30
   5  -1   3  427.66   20.00
  -5  -1  -3  456.55   17.40
  -5  -1  -3  460.05   16.50
   5  -1   3  444.96   16.90
  -5  -1  -3  451.35   19.20
  -5   1  -3  422.86   17.70
   5   1   3  432.36   17.20
   5   1   3  436.86   19.80
  -5   1  -3  404.76   18.90
  -5   1  -3  443.06   18.90
  -5   1  -3  422.76   19.30
   5   1   3  423.96   19.30
   5   1   3  428.26   15.60
  -5   1  -3  470.45   17.40
  -6  -1  -3    4.60    3.00
   6  -1   3    4.70    2.20
   6  -1   3    6.00    3.40
  -6  -1  -3    7.80    3.10
  -6  -1  -3    4.80    3.00
  -6  -1  -3    4.00    2.30
   6  -1   3    6.70    3.30
  -6   1  -3    4.10    2.50
   6   1   3    1.10    2.00
  -6   1  -3   14.00    4.50
  -6   1  -3   10.50    3.20
  -6   1  -3    7.30    3.50
   6   1   3    9.20    2.80
  -6   1  -3    6.50    2.50
   6   1   3    6.90    3.50
   7  -1   3   59.99    9.40
  -7  -1  -3   76.69    9.80
  -7  -1  -3   53.89    8.40
  -7  -1  -3   49.10    7.40
   7  -1   3   56.99    9.20
  -7   1  -3   57.39    9.10
  -7   1  -3   63.59    7.80
   7   1   3   70.49    9.80
  -7   1  -3   81.29   10.20
   7   1   3   54.29    6.60
   7   1   3   70.99   10.10
  -7   1  -3   57.99    8.40
   7  -2  -3  141.69   10.30
  -7  -2   3  141.99   11.20
  -7  -2   3  140.99    9.70
   7  -2  -3  152.38   10.30
   7  -2  -3  121.29    9.80
  -7  -2   3  139.39   11.10
   7  -2  -3  138.89   10.00
   7   2  -3  145.99    9.70
   7   2  -3  150.98   11.50
   7   2  -3  126.99    9.70
  -7   2   3  132.39    9.80
  -7   2   3  154.98   10.80
   7   2  -3  149.79    9.60
  -7   2   3  152.18   10.90
  -6  -2   3   43.50    5.90
  -6  -2   3   29.60    5.50
   6  -2  -3   37.30    5.50
  -6  -2   3   36.70    6.30
   6  -2  -3   38.70    5.80
   6  -2  -3   48.30    6.60
   6  -2  -3   41.10    5.70
   6  -2  -3   36.30    5.30
   6   2  -3   39.30    6.30
  -6   2   3   38.80    6.00
  -6   2   3   43.30    6.50
   6   2  -3   36.60    5.20
   6   2  -3   38.10    5.30
   6   2  -3   43.40    6.00
   5  -2  -3   44.00    5.50
  -5  -2   3   32.30    5.50
   5  -2  -3   40.70    5.40
  -5  -2   3   33.20    5.40
   5  -2  -3   47.20    5.40
   5  -2  -3   35.90    5.10
   5  -2  -3   46.30    6.10
  -5  -2   3   41.30    3.20
  -5  -2   3   38.10    5.10
  -5   2   3   41.20    4.90
  -5   2   3   43.00    5.90
   5   2  -3   36.10    5.50
  -5   2   3   41.00    5.70
   5   2  -3   39.50    5.70
   5   2  -3   42.30    5.10
   5   2  -3   42.00    5.20
   5   2  -3   33.80    4.30
  -4  -2   3    6.90    2.10
   4  -2  -3    3.70    1.70
   4  -2  -3    4.90    1.90
  -4  -2   3    6.20    2.40
   4  -2  -3    7.10    2.00
  -4  -2   3    5.20    1.20
  -4  -2   3    2.80    1.60
   4  -2  -3    6.60    1.90
   4  -2  -3    7.50    2.30
  -4   2   3    4.80    1.80
  -4   2   3    8.40    2.80
   4   2  -3    4.90    2.10
  -4   2   3    2.10    1.60
   4   2  -3    7.00    2.10
   4   2  -3    3.70    1.90
   4   2  -3    4.60    2.30
   4   2  -3    6.60    1.90
   4   2  -3    7.10    1.70
   4   2  -3    6.80    1.70
  -3  -2   3   64.89    5.30
  -3  -2   3   62.99    3.20
   3  -2  -3   50.69    4.50
  -3  -2   3   57.69    4.50
   3  -2  -3   71.19    5.30
   3  -2  -3   68.29    4.00
   3  -2  -3   65.29    4.80
   3  -2  -3   60.69    4.10
  -3  -2   3   52.19    5.70
   3   2  -3   60.89    5.00
   3   2  -3   53.49    4.20
   3   2  -3   62.09    3.20
   3   2  -3   64.99    4.90
  -3   2   3   58.79    5.70
  -3   2   3   62.49    4.50
   3   2  -3   60.69    3.50
   3   2  -3   56.09    5.70
  -3   2   3   57.19    4.90
   2  -2  -3  427.06   16.40
  -2  -2   3  446.46   15.90
  -2  -2   3  465.25   16.80
   2  -2  -3  436.96   13.30
  -2  -2   3  478.15   16.50
   2  -2  -3  437.06   14.70
   2  -2  -3  400.66   15.70
   2  -2  -3  435.96   16.10
  -2  -2   3  471.45   13.70
   2   2  -3  434.46   16.10
   2   2  -3  458.55   15.90
   2   2  -3  449.56   15.90
  -2   2   3  458.15   15.80
   2   2  -3  461.45   17.00
  -2   2   3  431.26   15.80
   2   2  -3  470.15   13.80
  -2   2   3  435.36   16.50
   1  -2  -3  907.81   26.70
  -1  -2   3  895.61   26.00
   1  -2  -3  931.31   24.70
   1  -2  -3  902.21   28.20
   1  -2  -3  933.91   28.50
  -1  -2   3  881.41   28.60
   1  -2  -3  907.21   28.40
  -1  -2   3  903.61   28.20
  -1  -2   3  906.41   26.40
   1   2  -3  904.41   26.30
  -1   2   3  924.61   28.70
   1   2  -3  894.11   28.30
  -1   2   3  923.31   24.70
   1   2  -3  894.61   25.90
   1   2  -3  897.81   23.30
   1   2  -3  881.11   23.80
  -1   2   3  884.61   28.20
  -1   2   3  927.61   26.40
   1   2  -3  869.41   28.10
   0  -2  -3  360.76   12.90
   0  -2   3  348.67   13.40
   0  -2  -3  355.36   12.90
   0  -2   3  355.96   12.60
   0  -2   3  347.77   11.70
   0  -2  -3  372.06   12.80
   0  -2   3  355.06   12.90
   0  -2  -3  373.76   13.30
   0  -2  -3  366.66   11.60
   0   2  -3  352.76   11.70
   0   2  -3  376.56   13.50
   0   2  -3  371.76   11.40
   0   2   3  365.36   12.00
   0   2  -3  367.16   12.40
   0   2   3  360.46   13.70
   0   2  -3  362.16   13.50
   0   2   3  371.86   13.30
   0   2  -3  375.66   13.70
   0   2   3  356.26   12.00
   1  -2   3  496.65   14.10
  -1  -2  -3  516.85   17.50
  -1  -2  -3  472.85   16.90
   1  -2   3  528.65   17.80
   1  -2   3  499.85   16.00
  -1  -2  -3  502.25   16.40
   1  -2   3  507.65   16.50
   1  -2   3  506.85   17.60
  -1  -2  -3  513.45   16.80
  -1  -2  -3  501.05   16.30
  -1   2  -3  510.75   17.60
   1   2   3  490.95   17.80
  -1   2  -3  505.15   17.20
   1   2   3  511.15   17.10
   1   2   3  517.75   16.90
  -1   2  -3  501.75   16.50
   1   2   3  502.05   14.70
  -1   2  -3  516.85   17.70
  -1   2  -3  512.55   18.00
   2  -2   3  143.79    8.20
  -2  -2  -3  149.19    6.30
  -2  -2  -3  144.09    6.80
   2  -2   3  143.19    5.60
  -2  -2  -3  145.49    7.30
   2  -2   3  150.68    7.80
  -2  -2  -3  141.29    7.60
  -2  -2  -3  131.89    7.20
   2  -2   3  141.89    7.30
  -2   2  -3  144.79    7.30
  -2   2  -3  135.79    7.70
   2   2   3  142.19    5.30
   2   2   3  139.69    6.50
   2   2   3  146.69    7.60
  -2   2  -3  140.89    7.40
   2   2   3  138.49    7.70
  -2   2  -3  155.68    7.90
  -2   2  -3  148.69    7.80
  -3  -2  -3   35.80    4.80
   3  -2   3   38.20    5.20
  -3  -2  -3   34.90    2.80
  -3  -2  -3   35.80    4.90
   3  -2   3   31.70    2.10
   3  -2   3   28.10    4.70
  -3  -2  -3   33.90    4.40
   3  -2   3   36.90    4.10
  -3  -2  -3   37.40    3.90
  -3   2  -3   38.70    5.00
  -3   2  -3   29.40    4.40
  -3   2  -3   30.80    3.90
   3   2   3   33.90    2.90
   3   2   3   40.80    5.40
  -3   2  -3   34.20    4.80
   3   2   3   32.10    4.00
  -3   2  -3   29.40    4.10
   3   2   3   32.90    2.40
   4  -2   3  230.18   10.20
  -4  -2  -3  222.98   11.70
   4  -2   3  205.98   11.80
  -4  -2  -3  226.78   10.20
  -4  -2  -3  234.08    9.50
  -4  -2  -3  227.58   11.10
   4  -2   3  221.98    8.20
   4  -2   3  235.38   12.80
  -4  -2  -3  238.08   12.10
   4   2   3  229.78   10.80
  -4   2  -3  232.48   12.10
   4   2   3  252.77    8.90
  -4   2  -3  205.08   11.70
  -4   2  -3  224.88   10.60
   4   2   3  233.38    9.40
   4   2   3  234.88   12.40
  -4   2  -3  232.18   11.20
  -4   2  -3  235.88   11.90
   5  -2   3  217.88   10.10
  -5  -2  -3  203.88    9.40
   5  -2   3  203.98   13.00
  -5  -2  -3  210.18   12.10
  -5  -2  -3  211.98   12.30
   5  -2   3  206.48   12.70
  -5  -2  -3  221.38   11.40
  -5  -2  -3  214.78   10.40
  -5   2  -3  240.38   11.20
   5   2   3  223.18   12.80
  -5   2  -3  208.08   11.90
  -5   2  -3  214.48   11.30
   5   2   3  226.58    9.80
  -5   2  -3  208.18   12.40
  -5   2  -3  192.78   12.30
   5   2   3  225.88   10.90
  -6  -2  -3   81.59    9.40
   6  -2   3   70.59    9.40
   6  -2   3   65.09    7.10
  -6  -2  -3   80.29    6.30
   6  -2   3   73.99    9.70
  -6  -2  -3   70.79    8.90
  -6  -2  -3   79.89    7.10
  -6   2  -3   84.69    6.80
   6   2   3   73.99    6.30
  -6   2  -3   80.79    8.30
  -6   2  -3   85.29   10.20
  -6   2  -3   78.09    9.20
   6   2   3   93.99   10.50
  -6   2  -3   92.69    9.90
   7  -2   3   52.59    8.90
  -7  -2  -3   30.20    6.30
  -7  -2  -3   27.10    6.00
   7  -2   3   36.80    7.60
  -7  -2  -3   34.20    6.10
  -7   2  -3   38.00    6.40
  -7   2  -3   33.70    5.40
  -7   2  -3   40.70    7.90
   7   2   3   28.10    6.30
  -7   2  -3   37.90    7.00
   7   2   3   36.20    5.50
  -7   2  -3   32.20    6.90
   7  -3  -3    1.40    2.10
  -7  -3   3   -0.60    2.40
  -7  -3   3   -1.70    2.20
   7  -3  -3    0.30    2.10
  -7  -3   3   -0.60    1.60
   7  -3  -3    0.10    1.80
   7  -3  -3    0.30    1.90
  -7   3   3    0.10    2.30
   7   3  -3   -0.10    1.90
  -7   3   3    2.10    2.40
   7   3  -3    4.30    2.50
   7   3  -3    2.40    2.80
  -7   3   3    2.60    2.10
   6  -3  -3   59.09    7.00
   6  -3  -3   65.09    7.80
   6  -3  -3   65.89    7.60
  -6  -3   3   65.69    8.70
   6  -3  -3   64.69    7.40
  -6  -3   3   70.19    8.60
   6  -3  -3   58.59    7.20
  -6  -3   3   63.19    7.20
  -6   3   3   72.99    8.20
   6   3  -3   59.99    8.10
  -6   3   3   72.19    8.30
   6   3  -3   66.59    5.70
   6   3  -3   59.09    6.50
   6   3  -3   69.89    8.80
   6   3  -3   68.39    7.60
   5  -3  -3  122.69    8.20
   5  -3  -3  143.29    8.50
   5  -3  -3  129.59    8.00
   5  -3  -3  142.79    8.80
  -5  -3   3  139.89    8.60
  -5  -3   3  138.29    9.60
  -5  -3   3  134.89    6.30
  -5  -3   3  139.89    9.70
   5  -3  -3  131.09    8.80
   5   3  -3  145.29    9.30
   5   3  -3  126.69    8.00
  -5   3   3  123.89    8.70
   5   3  -3  147.39    9.80
   5   3  -3  142.09    9.70
  -5   3   3  123.89    8.60
  -5   3   3  134.49    7.60
   5   3  -3  134.29    7.70
  -4  -3   3   15.40    3.50
   4  -3  -3   13.40    2.90
  -4  -3   3   15.90    2.10
  -4  -3   3   15.40    3.40
  -4  -3   3   20.80    3.50
   4  -3  -3   15.00    3.00
   4  -3  -3   20.20    3.50
  -4  -3   3   16.50    2.40
   4  -3  -3   16.90    3.00
   4  -3  -3   13.80    2.60
  -4   3   3   15.50    2.70
   4   3  -3   21.00    3.50
  -4   3   3   13.20    3.20
   4   3  -3   17.00    2.90
   4   3  -3   14.50    3.50
   4   3  -3   17.10    3.60
   4   3  -3   13.60    3.20
   4   3  -3   14.90    2.30
  -4   3   3   16.30    3.40
   3  -3  -3   87.49    5.70
  -3  -3   3   83.49    5.60
   3  -3  -3   82.59    4.50
   3  -3  -3   70.89    4.70
  -3  -3   3   63.69    3.70
  -3  -3   3   94.79    6.50
  -3   3   3   89.69    5.30
   3   3  -3   69.69    3.70
   3   3  -3   96.39    6.40
   3   3  -3   74.79    4.90
   2  -3  -3   33.70    3.80
  -2  -3   3   40.60    2.60
   2  -3  -3   34.90    2.50
  -2  -3   3   28.70    3.60
   2  -3  -3   28.50    3.40
   2  -3  -3   31.30    3.30
   2  -3  -3   29.80    3.80
  -2  -3   3   36.50    4.40
  -2   3   3   37.30    4.20
   2   3  -3   35.50    4.40
   2   3  -3   39.30    4.00
   2   3  -3   36.30    2.20
  -2   3   3   36.50    4.40
   2   3  -3   43.50    3.80
  -2   3   3   30.40    3.50
   2   3  -3   36.10    4.40
   2   3  -3   44.90    4.80
  -1  -3   3  502.15   17.70
   1  -3  -3  517.35   13.90
  -1  -3   3  522.55   16.00
   1  -3  -3  502.15   17.40
   1  -3  -3  491.25   17.20
  -1  -3   3  490.45   17.40
   1  -3  -3  499.15   17.40
   1  -3  -3  493.65   14.80
   1   3  -3  518.85   15.30
   1   3  -3  482.75   17.10
  -1   3   3  492.65   17.50
  -1   3   3  504.55   16.40
  -1   3   3  503.45   17.70
   1   3  -3  518.65   18.10
   1   3  -3  512.15   16.50
   1   3  -3  492.85   17.50
   0  -3   3  974.30   31.10
   0  -3   3  999.50   29.70
   0  -3   3  977.10   27.50
   0  -3  -3  984.20   30.60
   0  -3   3 1041.80   30.00
   0  -3  -3  976.50   29.50
   0  -3  -3  975.90   30.00
   0  -3  -3  981.30   30.00
   0  -3   3  981.60   27.50
   0  -3  -3  949.80   27.70
   0   3  -3 1026.90   27.60
   0   3  -3  995.00   31.00
   0   3  -3 1050.49   27.70
   0   3  -3 1038.60   31.50
   0   3   3  984.50   28.30
   0   3   3  926.51   31.10
   0   3   3 1015.70   27.80
   0   3  -3  987.00   29.10
   0   3  -3 1015.30   31.00
  -1  -3  -3  547.55   19.20
  -1  -3  -3  549.25   18.20
   1  -3   3  590.84   20.00
   1  -3   3  606.84   18.80
   1  -3   3  623.04   18.30
  -1  -3  -3  588.64   18.90
   1  -3   3  608.54   16.40
  -1  -3  -3  598.84   19.60
  -1  -3  -3  568.34   18.30
   1  -3   3  612.94   20.10
   1   3   3  585.54   19.10
  -1   3  -3  575.24   20.40
  -1   3  -3  621.84   20.40
   1   3   3  584.94   17.10
   1   3   3  509.35   18.80
   1   3   3  583.64   20.30
  -1   3  -3  604.44   19.60
  -1   3  -3  589.54   16.30
  -1   3  -3  632.44   20.50
  -2  -3  -3  430.36   14.90
   2  -3   3  441.76   13.40
  -2  -3  -3  427.26   15.60
  -2  -3  -3  446.86   16.20
  -2  -3  -3  441.16   15.80
  -2  -3  -3  452.75   14.20
   2  -3   3  437.46   17.10
   2  -3   3  464.25   16.10
   2  -3   3  443.76   16.10
   2   3   3  433.46   16.20
  -2   3  -3  465.05   16.70
  -2   3  -3  427.36   16.20
  -2   3  -3  437.16   16.30
   2   3   3  417.16   16.30
   2   3   3  439.46   13.10
   2   3   3  418.86   14.90
  -2   3  -3  418.56   16.60
  -3  -3  -3   86.19    5.10
   3  -3   3   78.69    3.40
  -3  -3  -3   98.09    6.50
   3  -3   3   94.39    5.70
  -3  -3  -3   88.79    5.80
  -3  -3  -3   90.89    6.30
  -3  -3  -3   90.79    4.50
   3  -3   3   91.79    7.10
   3  -3   3   99.89    7.00
   3   3   3   99.19    4.50
  -3   3  -3   86.59    5.80
   3   3   3   91.29    5.10
  -3   3  -3   90.89    6.20
   3   3   3   90.89    6.00
  -3   3  -3   88.59    6.50
   4  -3   3   27.80    5.10
  -4  -3  -3   39.30    5.40
  -4  -3  -3   33.30    4.50
   4  -3   3   33.00    3.90
  -4  -3  -3   38.70    5.70
   4  -3   3   30.40    5.00
  -4  -3  -3   31.50    2.80
  -4  -3  -3   38.30    4.10
   4   3   3   30.40    4.90
  -4   3  -3   34.60    5.00
  -4   3  -3   29.10    4.50
   4   3   3   32.50    3.70
   4   3   3   42.70    5.10
   4   3   3   32.60    3.50
  -4   3  -3   35.40    5.10
  -4   3  -3   35.00    4.40
  -5  -3  -3   16.80    3.90
   5  -3   3   10.60    3.70
   5  -3   3   13.90    2.70
  -5  -3  -3    9.80    3.10
  -5  -3  -3   21.10    3.90
  -5  -3  -3   16.00    3.10
   5  -3   3   18.20    5.00
  -5   3  -3   10.10    3.40
   5   3   3   12.90    3.00
  -5   3  -3   15.30    4.10
   5   3   3   16.60    4.40
  -5   3  -3   13.60    3.70
  -5   3  -3   17.60    3.90
  -5   3  -3   11.90    2.80
   5   3   3   17.90    3.10
  -6  -3  -3   34.50    6.20
   6  -3   3   32.20    6.80
  -6  -3  -3   38.60    5.60
   6  -3   3   37.50    7.10
  -6  -3  -3   31.40    5.80
   6   3   3   28.30    5.80
  -6   3  -3   29.50    5.10
   6   3   3   30.20    4.50
   6   3   3   24.30    4.30
  -6   3  -3   34.00    6.30
  -6   3  -3   29.30    4.90
  -6   3  -3   21.70    5.40
  -6   3  -3   25.60    5.40
   7  -3   3   94.09   12.00
  -7  -3  -3  123.59   10.40
   7  -3   3  118.69   13.60
  -7  -3  -3   94.79   11.00
  -7  -3  -3  126.69   12.90
   7   3   3   97.19    8.00
  -7   3  -3  116.59   10.20
  -7   3  -3  146.19   14.30
   7   3   3  108.39   11.50
  -7   3  -3  103.49   12.10
  -7   3  -3  108.09    8.70
  -7   3  -3  107.39    9.10
   7  -4  -3   20.10    4.90
  -7  -4   3   23.70    4.90
  -7  -4   3   19.40    5.20
   7  -4  -3   26.30    5.60
  -7  -4   3   25.40    5.90
   7  -4  -3   28.00    5.70
   7  -4  -3   23.10    5.00
   7   4  -3   22.50    5.70
   7   4  -3   29.20    5.30
  -7   4   3   20.20    4.80
   7   4  -3   24.50    5.80
  -7   4   3   22.60    5.00
  -7   4   3   17.30    4.10
  -6  -4   3   42.40    5.00
   6  -4  -3   47.10    6.60
  -6  -4   3   32.30    6.00
  -6  -4   3   37.50    5.50
   6  -4  -3   45.50    6.60
   6  -4  -3   37.60    5.90
   6  -4  -3   29.80    5.20
  -6  -4   3   35.10    6.00
   6  -4  -3   41.90    6.30
   6   4  -3   37.50    6.60
   6   4  -3   39.10    6.50
  -6   4   3   48.50    6.80
  -6   4   3   46.10    6.30
  -6   4   3   33.80    5.10
   6   4  -3   39.70    5.40
   6   4  -3   40.90    5.80
   6   4  -3   31.10    4.70
   5  -4  -3    5.00    2.20
  -5  -4   3    5.10    1.50
  -5  -4   3    3.30    2.00
  -5  -4   3    4.90    2.50
   5  -4  -3    2.80    1.80
   5  -4  -3    5.00    2.20
  -5  -4   3    0.80    1.90
   5  -4  -3    2.60    1.90
   5  -4  -3    3.40    2.10
   5   4  -3    3.00    1.50
   5   4  -3    6.20    2.20
  -5   4   3    3.20    2.00
  -5   4   3    4.50    2.20
   5   4  -3    5.60    2.60
   5   4  -3    3.80    2.40
   5   4  -3    4.80    2.70
   4  -4  -3  220.08   10.20
  -4  -4   3  215.78   11.70
   4  -4  -3  207.08    9.70
   4  -4  -3  204.48   10.60
   4  -4  -3  205.98   10.50
   4  -4  -3  227.48   11.20
  -4  -4   3  212.28   10.70
  -4  -4   3  227.58    8.60
   4   4  -3  228.98   11.90
   4   4  -3  214.58    9.70
  -4   4   3  222.88   11.20
   4   4  -3  216.78   10.30
  -4   4   3  218.08    9.70
  -4   4   3  221.28   11.00
   4   4  -3  224.68    8.80
   4   4  -3  206.88   11.50
   4   4  -3  205.58   11.10
   3  -4  -3  142.89    7.80
   3  -4  -3  135.69    6.50
  -3  -4   3  117.99    7.90
  -3  -4   3  150.38    6.10
  -3  -4   3  138.09    7.70
   3  -4  -3  141.89    7.90
   3  -4  -3  132.19    6.90
   3  -4  -3  130.19    7.50
  -3   4   3  133.79    7.70
   3   4  -3  128.09    8.00
   3   4  -3  138.19    7.50
   3   4  -3  142.99    5.50
   3   4  -3  135.39    6.90
   3   4  -3  136.89    8.10
   3   4  -3  136.79    8.30
  -3   4   3  133.69    7.80
  -3   4   3  137.79    7.00
   2  -4  -3  570.64   19.20
   2  -4  -3  554.14   19.20
  -2  -4   3  531.25   19.60
   2  -4  -3  560.84   18.10
   2  -4  -3  562.04   19.40
  -2  -4   3  554.74   19.40
   2  -4  -3  532.25   16.50
  -2  -4   3  541.15   16.90
  -2   4   3  563.24   19.60
  -2   4   3  557.54   18.40
  -2   4   3  537.45   18.70
   2   4  -3  538.05   15.70
   2   4  -3  537.05   18.60
   2   4  -3  511.75   19.30
   2   4  -3  548.85   18.50
   2   4  -3  548.75   19.80
   2   4  -3  531.85   19.00
   1  -4  -3  402.06   14.00
   1  -4  -3  386.66   14.40
  -1  -4   3  423.96   13.70
   1  -4  -3  423.96   11.50
  -1  -4   3  389.66   15.10
   1  -4  -3  401.16   14.70
  -1  -4   3  435.46   15.20
   1  -4  -3  412.46   14.80
   1  -4  -3  414.26   12.80
  -1   4   3  413.96   15.00
   1   4  -3  406.06   12.50
  -1   4   3  408.46   14.00
   1   4  -3  391.46   14.00
   1   4  -3  385.36   15.40
   1   4  -3  397.86   14.80
  -1   4   3  412.66   15.20
   1   4  -3  422.16   15.10
   1   4  -3  400.06   14.60
   0  -4   3  676.93   19.90
   0  -4  -3  692.93   22.30
   0  -4  -3  703.53   20.40
   0  -4   3  690.03   21.90
   0  -4   3  692.03   22.90
   0  -4   3  716.53   21.90
   0  -4  -3  719.33   21.80
   0  -4  -3  693.53   21.80
   0  -4  -3  682.53   21.70
   0  -4  -3  699.13   20.30
   0   4   3  700.43   20.30
   0   4   3  687.83   20.50
   0   4  -3  669.73   22.70
   0   4   3  666.73   22.80
   0   4   3  644.34   22.30
   0   4  -3  711.93   21.20
   0   4  -3  669.83   23.20
   0   4  -3  701.43   23.00
   0   4  -3  677.43   20.10
   1  -4   3  480.65   15.40
   1  -4   3  496.85   17.40
  -1  -4  -3  487.15   16.50
  -1  -4  -3  466.95   15.80
  -1  -4  -3  486.25   16.70
  -1  -4  -3  479.25   15.20
   1  -4   3  512.25   17.20
  -1  -4  -3  462.75   15.70
   1  -4   3  490.75   16.20
  -1   4  -3  458.55   16.50
  -1   4  -3  489.95   17.60
   1   4   3  476.35   16.60
  -1   4  -3  498.55   17.70
   1   4   3  493.55   16.20
   1   4   3  483.85   17.50
  -1   4  -3  481.05   17.60
   1   4   3  461.65   14.70
  -1   4  -3  474.65   13.90
   2  -4   3  321.27   13.10
  -2  -4  -3  339.27   11.60
   2  -4   3  328.17   12.70
   2  -4   3  330.37   10.20
   2  -4   3  319.17   13.90
  -2  -4  -3  311.47   12.40
  -2  -4  -3  345.67   12.90
  -2  -4  -3  331.97   13.10
  -2  -4  -3  326.67   10.60
   2   4   3  325.87   12.30
   2   4   3  361.26   13.40
  -2   4  -3  322.07   13.80
  -2   4  -3  308.47   13.30
   2   4   3  328.67   13.30
  -2   4  -3  330.37   13.70
  -2   4  -3  320.67   13.40
   2   4   3  331.27   10.70
  -3  -4  -3   92.69    5.70
  -3  -4  -3   91.79    4.20
   3  -4   3   98.59    7.40
  -3  -4  -3   94.89    6.50
  -3  -4  -3   95.59    5.10
   3  -4   3  100.39    5.80
  -3  -4  -3   87.69    6.30
   3  -4   3   92.29    6.90
  -3   4  -3   94.19    6.30
  -3   4  -3   89.99    6.30
  -3   4  -3   93.29    6.70
   3   4   3   99.59    6.30
   3   4   3   85.69    4.50
   3   4   3   83.19    6.30
  -3   4  -3   95.19    6.80
   3   4   3   94.09    5.40
   4  -4   3   86.59    5.40
  -4  -4  -3   72.89    6.20
  -4  -4  -3   71.89    5.50
   4  -4   3   72.09    8.10
  -4  -4  -3   81.49    5.00
   4  -4   3   81.09    8.50
  -4  -4  -3   78.99    6.40
  -4   4  -3   71.39    5.80
  -4   4  -3   76.79    6.50
  -4   4  -3   71.69    7.70
   4   4   3   85.49    5.30
   4   4   3   85.79    6.90
   4   4   3   85.59    6.10
  -4   4  -3   74.19    6.30
   4   4   3   81.19    4.90
  -5  -4  -3   19.90    3.80
  -5  -4  -3   23.70    4.90
  -5  -4  -3   23.80    4.60
   5  -4   3   18.10    4.70
   5  -4   3   20.60    4.90
  -5   4  -3   21.10    4.00
   5   4   3   17.40    3.20
  -5   4  -3   20.20    4.40
   5   4   3   25.20    4.90
   5   4   3   25.90    4.30
   5   4   3   10.90    2.90
  -5   4  -3   25.90    4.50
  -5   4  -3   15.50    4.20
  -6  -4  -3   33.30    6.30
   6  -4   3   40.30    7.50
   6  -4   3   33.00    6.60
  -6  -4  -3   28.10    5.40
  -6  -4  -3   28.20    5.50
  -6   4  -3   38.70    5.90
  -6   4  -3   17.30    4.60
   6   4   3   35.50    5.10
   6   4   3   30.40    5.70
  -6   4  -3   28.80    6.10
  -6   4  -3   41.80    6.40
   6   4   3   41.00    5.80
  -6   4  -3   31.10    6.00
   7  -4   3   26.10    6.70
  -7  -4  -3   25.00    5.80
   7  -4   3   22.20    6.30
  -7  -4  -3   24.00    5.60
  -7  -4  -3   28.30    6.30
  -7   4  -3   31.60    5.90
  -7   4  -3   24.50    5.20
  -7   4  -3   19.80    5.70
   7   4   3   20.60    4.40
  -7   4  -3   24.20    5.80
   7   4   3   23.00    6.00
  -7   4  -3   33.10    7.30
   7  -5  -3    7.30    3.40
  -7  -5   3    3.10    2.60
   7  -5  -3   10.90    4.40
  -7  -5   3    5.50    3.60
   7  -5  -3    4.30    2.80
   7  -5  -3    7.80    3.30
  -7  -5   3    5.10    3.30
   7  -5  -3    4.80    2.90
  -7   5   3    6.20    3.00
   7   5  -3    2.10    3.10
   7   5  -3    3.20    3.00
  -7   5   3    6.10    3.00
   7   5  -3    8.10    3.40
  -7   5   3    4.10    2.60
   6  -5  -3   35.00    5.70
  -6  -5   3   26.80    5.60
   6  -5  -3   18.20    4.40
  -6  -5   3   15.60    4.50
   6  -5  -3   18.00    4.20
   6  -5  -3   24.10    4.90
  -6  -5   3   20.40    4.40
  -6  -5   3   22.20    3.30
   6  -5  -3   19.00    4.10
   6   5  -3   27.50    6.00
   6   5  -3   27.50    5.60
   6   5  -3   26.50    5.00
  -6   5   3   18.70    4.10
   6   5  -3   18.20    3.50
  -6   5   3   21.00    4.30
  -6   5   3   25.70    4.70
  -5  -5   3   27.80    5.20
   5  -5  -3   32.70    5.10
  -5  -5   3   30.60    3.70
   5  -5  -3   26.10    4.50
  -5  -5   3   23.50    4.30
   5  -5  -3   24.90    4.40
   5  -5  -3   29.20    4.80
   5  -5  -3   26.60    4.70
   5   5  -3   29.00    5.20
   5   5  -3   28.00    3.80
  -5   5   3   27.10    4.80
  -5   5   3   29.10    4.80
   5   5  -3   20.60    4.60
  -5   5   3   23.10    4.20
   5   5  -3   19.40    3.90
   5   5  -3   26.10    4.00
   4  -5  -3  271.27   12.30
  -4  -5   3  301.37   13.40
   4  -5  -3  266.17   12.70
   4  -5  -3  334.97   14.10
   4  -5  -3  301.27   12.30
  -4  -5   3  282.67   10.80
  -4  -5   3  290.77   14.30
   4  -5  -3  299.37   13.30
   4   5  -3  291.47   13.70
   4   5  -3  288.67   14.00
   4   5  -3  275.17   12.30
  -4   5   3  284.07   13.20
   4   5  -3  279.57   11.50
   4   5  -3  270.87   13.80
  -4   5   3  297.57   11.70
  -4   5   3  301.47   13.20
   3  -5  -3   65.49    5.00
   3  -5  -3   55.99    4.80
  -3  -5   3   60.79    5.00
   3  -5  -3   58.09    4.10
   3  -5  -3   52.69    4.20
   3  -5  -3   65.29    5.10
  -3  -5   3   63.09    3.90
  -3  -5   3   69.49    5.70
   3   5  -3   55.99    4.70
  -3   5   3   64.39    6.10
   3   5  -3   58.69    6.30
   3   5  -3   58.29    3.00
   3   5  -3   65.89    4.40
  -3   5   3   62.79    4.40
   3   5  -3   64.19    5.50
   3   5  -3   52.99    5.80
  -3   5   3   63.09    5.20
  -2  -5   3  116.19    6.80
   2  -5  -3  135.39    7.00
  -2  -5   3  121.99    7.30
   2  -5  -3   95.59    6.20
   2  -5  -3  122.89    5.70
   2  -5  -3  115.49    6.60
  -2  -5   3  127.39    5.80
   2  -5  -3  123.29    6.30
  -2   5   3  114.79    6.70
   2   5  -3  115.79    7.20
   2   5  -3  116.79    7.00
  -2   5   3  120.39    7.10
   2   5  -3  126.39    4.20
   2   5  -3  123.59    6.30
  -2   5   3  125.99    6.40
   2   5  -3  126.19    6.90
   2   5  -3  117.79    7.10
  -1  -5   3   25.50    1.60
   1  -5  -3   32.00    3.50
  -1  -5   3   27.50    3.90
   1  -5  -3   34.90    2.60
  -1  -5   3   21.40    3.20
   1  -5  -3   36.20    1.70
   1  -5  -3   26.50    3.20
  -1  -5   3   25.00    2.90
   1  -5  -3   27.00    3.30
   1   5  -3   32.50    4.10
   1   5  -3   29.00    3.70
   1   5  -3   29.90    3.60
  -1   5   3   33.60    4.20
   1   5  -3   30.50    3.50
  -1   5   3   38.90    3.40
   1   5  -3   24.30    3.50
   1   5  -3   23.90    1.90
  -1   5   3   31.70    3.60
   0  -5   3   31.70    2.60
   0  -5   3   33.60    3.60
   0  -5  -3   33.60    2.30
   0  -5   3   36.00    3.90
   0  -5  -3   28.10    3.20
   0  -5  -3   32.60    2.70
   0  -5  -3   38.50    3.90
   0  -5  -3   31.40    2.80
   0  -5   3   33.00    3.90
   0  -5  -3   27.80    3.00
   0   5  -3   33.10    3.30
   0   5   3   34.70    3.60
   0   5   3   30.00    3.70
   0   5  -3   37.60    4.30
   0   5  -3   34.10    2.80
   0   5   3   36.40    2.50
   0   5  -3   31.20    3.70
   0   5  -3   38.50    4.60
   0   5   3   27.40    3.50
  -1  -5  -3  352.16   12.30
   1  -5   3  382.66   13.90
   1  -5   3  371.56   14.40
   1  -5   3  357.16   13.00
  -1  -5  -3  368.86   12.80
  -1  -5  -3  362.96   12.80
  -1  -5  -3  346.27   13.30
   1  -5   3  374.76   12.30
  -1  -5  -3  346.57   13.00
  -1  -5  -3  361.86   11.70
  -1   5  -3  370.26   14.50
  -1   5  -3  362.06   14.30
   1   5   3  365.76   12.10
  -1   5  -3  377.16   14.70
   1   5   3  385.16   13.00
   1   5   3  319.67   13.70
  -1   5  -3  376.56   11.30
  -1   5  -3  360.56   13.40
   1   5   3  332.07   13.30
   2  -5   3  805.22   28.00
  -2  -5  -3  861.61   26.70
  -2  -5  -3  841.82   23.70
  -2  -5  -3  840.32   26.30
   2  -5   3  826.82   26.80
  -2  -5  -3  847.12   25.00
  -2  -5  -3  842.12   26.80
   2  -5   3  803.22   23.30
   2  -5   3  826.12   26.60
  -2  -5  -3  839.72   26.00
  -2   5  -3  802.52   27.20
  -2   5  -3  794.12   28.20
  -2   5  -3  849.22   28.20
   2   5   3  860.31   26.40
   2   5   3  864.91   27.80
  -2   5  -3  812.32   21.50
   2   5   3  820.62   23.70
  -2   5  -3  856.61   28.30
   2   5   3  835.22   26.60
   3  -5   3   39.80    3.50
   3  -5   3   29.50    4.80
   3  -5   3   39.30    5.20
  -3  -5  -3   24.50    3.90
  -3  -5  -3   35.80    4.70
  -3  -5  -3   30.00    4.20
  -3  -5  -3   39.00    2.90
  -3  -5  -3   37.30    4.10
   3  -5   3   44.10    5.80
  -3   5  -3   40.30    4.80
   3   5   3   28.70    4.10
   3   5   3   34.20    3.90
  -3   5  -3   31.80    4.70
   3   5   3   29.80    3.30
  -3   5  -3   24.20    3.80
   3   5   3   41.80    5.20
  -3   5  -3   35.30    5.10
   4  -5   3   68.29    7.70
   4  -5   3   76.69    5.00
   4  -5   3   73.29    8.40
  -4  -5  -3   63.09    6.90
  -4  -5  -3   70.79    7.30
   4  -5   3   80.89    8.80
  -4  -5  -3   75.59    5.40
  -4  -5  -3   81.59    6.40
  -4   5  -3   79.39    6.60
  -4   5  -3   77.39    8.20
   4   5   3   70.49    5.80
  -4   5  -3   73.39    6.10
   4   5   3   72.49    7.60
   4   5   3   68.39    5.00
   4   5   3   74.19    4.90
  -4   5  -3   71.29    7.50
   5  -5   3    3.80    2.90
  -5  -5  -3    1.50    2.10
   5  -5   3    1.70    2.30
  -5  -5  -3    1.20    2.00
  -5  -5  -3    1.40    1.70
  -5  -5  -3    2.00    2.00
   5  -5   3    0.70    2.00
   5   5   3   -0.20    1.50
   5   5   3    1.00    1.40
  -5   5  -3    1.30    1.90
   5   5   3   -0.50    1.20
  -5   5  -3    4.70    2.30
   5   5   3    3.30    1.80
  -5   5  -3   -1.00    1.60
  -5   5  -3    2.90    2.40
   6  -5   3   19.20    5.30
  -6  -5  -3   11.60    3.70
  -6  -5  -3   34.50    5.90
   6  -5   3   25.40    6.00
   6  -5   3   17.10    4.70
  -6  -5  -3   19.70    4.60
  -6   5  -3   23.40    5.30
  -6   5  -3   27.00    5.00
   6   5   3   18.20    4.50
   6   5   3   22.10    4.20
  -6   5  -3   37.70    6.20
  -6   5  -3   16.70    4.80
   6   5   3   31.60    5.20
   7  -5   3   56.49    9.40
   7  -5   3   94.69   12.30
  -7  -5  -3   72.19    9.00
  -7  -5  -3   58.29    8.40
  -7  -5  -3   73.19    9.60
   7   5   3   93.79   11.00
  -7   5  -3   57.39    9.20
  -7   5  -3   72.99    9.20
  -7   5  -3   72.79    9.90
  -7   5  -3   88.09   11.70
   7   5   3   72.49    8.00
  -7   5  -3   86.99    9.50
  -7  -6   3    1.70    2.20
   7  -6  -3   -0.60    2.70
   7  -6  -3    5.00    2.70
   7  -6  -3    0.30    2.30
   7  -6  -3    0.30    2.30
  -7  -6   3    2.00    2.70
  -7  -6   3   -1.10    2.00
   7  -6  -3    3.50    2.90
  -7   6   3    3.00    2.50
  -7   6   3    4.60    2.70
   7   6  -3   -0.60    2.70
  -7   6   3    0.10    2.20
   7   6  -3   -1.40    2.70
   6  -6  -3   54.19    6.90
  -6  -6   3   47.40    4.90
  -6  -6   3   57.69    7.50
   6  -6  -3   67.29    8.20
   6  -6  -3   60.39    7.40
  -6  -6   3   57.39    8.20
   6  -6  -3   63.89    8.00
   6  -6  -3   48.90    7.00
  -6  -6   3   41.60    7.00
   6   6  -3   56.19    7.10
   6   6  -3   67.09    9.00
  -6   6   3   46.40    6.60
   6   6  -3   61.69    8.70
  -6   6   3   60.69    7.30
  -6   6   3   59.39    7.50
  -5  -6   3   49.40    7.40
   5  -6  -3   43.50    6.00
  -5  -6   3   48.90    4.90
   5  -6  -3   47.90    6.10
   5  -6  -3   45.70    5.90
   5  -6  -3   44.80    6.20
  -5  -6   3   54.09    6.70
   5  -6  -3   47.30    6.10
   5   6  -3   37.50    6.00
  -5   6   3   49.60    6.50
   5   6  -3   46.90    6.10
  -5   6   3   47.80    6.10
   5   6  -3   46.40    5.30
  -5   6   3   51.19    6.40
   5   6  -3   45.30    6.70
   4  -6  -3   67.69    5.40
  -4  -6   3   62.99    4.30
   4  -6  -3   57.59    6.20
   4  -6  -3   65.69    5.70
  -4  -6   3   62.39    7.40
   4  -6  -3   65.09    5.40
  -4  -6   3   55.89    6.40
   4  -6  -3   71.59    5.90
  -4   6   3   61.49    5.50
   4   6  -3   58.69    6.40
   4   6  -3   66.99    7.80
   4   6  -3   66.59    5.30
  -4   6   3   60.19    6.50
   4   6  -3   66.09    7.30
  -4   6   3   75.29    6.00
   4   6  -3   60.99    4.40
   3  -6  -3   77.79    5.10
   3  -6  -3   87.99    5.60
  -3  -6   3   84.69    4.80
  -3  -6   3   90.09    6.70
   3  -6  -3   84.29    6.00
   3  -6  -3   81.79    5.80
  -3  -6   3   78.99    5.90
   3  -6  -3   82.99    5.90
  -3   6   3   79.69    5.90
   3   6  -3   77.99    4.80
   3   6  -3   70.19    5.90
   3   6  -3   90.39    6.70
   3   6  -3   71.59    5.40
  -3   6   3   70.19    5.70
   3   6  -3   68.39    5.90
  -3   6   3   76.59    4.80
   2  -6  -3  259.07   11.50
  -2  -6   3  275.37   12.00
  -2  -6   3  283.37   10.50
   2  -6  -3  273.87    8.50
   2  -6  -3  286.27   11.10
   2  -6  -3  280.27   10.30
   2  -6  -3  277.07   11.40
  -2  -6   3  268.27   12.20
   2  -6  -3  293.67   11.80
  -2   6   3  276.27   11.50
   2   6  -3  244.68   11.70
   2   6  -3  279.87   11.60
   2   6  -3  265.47   11.80
  -2   6   3  274.67   12.00
   2   6  -3  286.97   10.90
   2   6  -3  267.07   12.30
  -2   6   3  270.47   10.90
  -1  -6   3   94.69    6.00
  -1  -6   3   97.29    6.10
   1  -6  -3  100.29    5.00
  -1  -6   3  100.39    4.00
   1  -6  -3   93.69    5.40
  -1  -6   3   98.69    5.50
   1  -6  -3  100.89    5.50
   1  -6  -3   98.09    3.80
   1  -6  -3  100.99    5.80
   1  -6  -3   91.99    5.30
   1   6  -3   95.99    5.90
   1   6  -3  103.69    5.70
  -1   6   3   94.89    5.60
  -1   6   3   99.69    6.20
   1   6  -3  105.99    4.00
   1   6  -3   96.29    6.40
  -1   6   3   89.39    5.60
   1   6  -3   93.19    5.70
   1   6  -3  109.39    6.20
   0  -6   3   28.00    3.40
   0  -6   3   31.50    3.70
   0  -6  -3   33.90    2.80
   0  -6  -3   32.10    3.50
   0  -6  -3   29.30    3.10
   0  -6   3   33.40    3.60
   0  -6  -3   38.10    2.50
   0  -6  -3   37.80    2.70
   0  -6  -3   30.20    3.50
   0  -6   3   35.10    2.80
   0   6  -3   38.20    4.00
   0   6   3   40.10    4.00
   0   6  -3   34.70    4.30
   0   6  -3   36.20    2.90
   0   6   3   32.50    3.90
   0   6  -3   25.80    3.60
   0   6  -3   38.40    3.70
   0   6  -3   35.00    4.00
   0   6   3   34.10    3.90
   1  -6   3   42.00    4.40
   1  -6   3   35.00    2.80
  -1  -6  -3   39.00    4.20
  -1  -6  -3   40.30    3.30
  -1  -6  -3   40.60    2.80
  -1  -6  -3   40.30    2.30
   1  -6   3   33.10    4.50
   1  -6   3   40.20    3.60
  -1  -6  -3   37.10    3.10
  -1  -6  -3   45.80    4.40
   1   6   3   30.40    3.20
  -1   6  -3   41.30    4.90
  -1   6  -3   40.40    5.00
  -1   6  -3   39.40    2.80
   1   6   3   42.00    3.30
  -1   6  -3   34.20    4.30
   1   6   3   40.50    4.50
  -1   6  -3   34.00    4.00
   1   6   3   35.10    3.90
   2  -6   3  187.28    9.30
   2  -6   3  197.28   10.30
  -2  -6  -3  184.68    8.80
   2  -6   3  175.28    6.10
  -2  -6  -3  187.38    8.80
  -2  -6  -3  178.38    8.90
   2  -6   3  194.08    8.70
  -2  -6  -3  174.98    7.90
  -2  -6  -3  190.38    7.10
  -2   6  -3  190.18    9.90
   2   6   3  182.78    9.20
  -2   6  -3  185.78    9.80
  -2   6  -3  188.58    6.20
  -2   6  -3  217.68   10.50
   2   6   3  193.78    7.80
  -2   6  -3  182.48    9.40
   2   6   3  182.18    8.70
   2   6   3  185.58    8.70
   3  -6   3   93.19    7.10
  -3  -6  -3  109.79    6.90
  -3  -6  -3   98.49    6.60
   3  -6   3  102.69    5.80
  -3  -6  -3  101.49    4.70
   3  -6   3  109.09    8.10
  -3  -6  -3  100.29    6.70
   3  -6   3  104.59    7.50
  -3  -6  -3   95.19    5.70
   3   6   3   93.79    6.00
  -3   6  -3   99.79    7.00
  -3   6  -3  107.69    7.60
   3   6   3  108.99    6.90
  -3   6  -3   98.29    7.10
   3   6   3  108.69    6.90
   3   6   3   90.79    5.30
  -3   6  -3  102.79    7.20
  -4  -6  -3   37.20    5.10
   4  -6   3   55.79    7.10
   4  -6   3   41.30    6.20
  -4  -6  -3   51.59    6.10
   4  -6   3   56.49    7.20
  -4  -6  -3   44.80    5.50
  -4  -6  -3   48.40    4.30
  -4   6  -3   44.40    6.00
  -4   6  -3   53.99    6.30
   4   6   3   52.69    5.50
   4   6   3   54.19    5.20
   4   6   3   63.99    7.10
  -4   6  -3   52.79    6.60
  -4   6  -3   56.59    7.10
   4   6   3   55.39    6.20
  -5  -6  -3   19.30    4.20
  -5  -6  -3   20.10    4.10
   5  -6   3   28.60    6.00
   5  -6   3   26.50    5.60
  -5  -6  -3   21.20    4.40
   5  -6   3   19.30    4.50
  -5   6  -3   26.60    5.20
   5   6   3   17.20    3.60
  -5   6  -3   22.30    4.40
   5   6   3   35.40    5.90
  -5   6  -3   24.90    5.00
   5   6   3   26.70    4.20
  -5   6  -3   16.50    4.00
   5   6   3   25.50    4.10
  -6  -6  -3   41.70    6.60
   6  -6   3   48.40    8.40
  -6  -6  -3   45.70    6.80
  -6  -6  -3   49.90    7.10
   6  -6   3   51.49    8.40
   6  -6   3   40.30    7.80
   6   6   3   30.50    5.70
   6   6   3   47.70    6.30
  -6   6  -3   52.49    7.30
  -6   6  -3   45.90    6.80
  -6   6  -3   53.19    8.00
   6   6   3   39.50    5.80
  -6   6  -3   60.19    8.60
   7  -6   3   31.50    7.70
  -7  -6  -3   39.50    6.90
  -7  -6  -3   48.90    7.70
   7  -6   3   48.60    8.70
  -7  -6  -3   37.20    6.90
   7   6   3   37.90    6.10
  -7   6  -3   63.29    9.20
  -7   6  -3   50.19    7.70
  -7   6  -3   40.50    7.60
   7   6   3   39.90    7.10
  -7   6  -3   40.90    7.30
   7   6   3   55.69    7.70
   7  -7  -3   12.50    5.00
   7  -7  -3   12.70    4.10
  -7  -7   3   11.50    4.10
   7  -7  -3    8.40    3.40
  -7  -7   3    5.30    3.10
   7  -7  -3   12.00    4.10
  -7  -7   3   11.40    4.80
   7  -7  -3    6.60    3.80
  -7   7   3    8.50    3.30
  -7   7   3   13.80    4.00
   7   7  -3   17.80    5.30
   7   7  -3    7.20    3.90
  -7   7   3   14.60    4.20
   6  -7  -3   13.00    3.50
   6  -7  -3   16.70    4.50
   6  -7  -3    9.90    3.70
   6  -7  -3   19.30    4.80
   6  -7  -3    7.70    3.10
  -6  -7   3    7.10    3.00
  -6  -7   3   13.50    4.00
  -6  -7   3    9.50    2.50
   6   7  -3    6.10    3.50
  -6   7   3   11.00    3.30
  -6   7   3   11.60    3.40
   6   7  -3   16.60    4.90
  -6   7   3   12.00    3.50
   5  -7  -3   58.49    7.00
   5  -7  -3   76.29    8.10
  -5  -7   3   65.59    5.00
  -5  -7   3   77.09    8.30
   5  -7  -3   75.49    7.90
   5  -7  -3   82.39    6.90
   5  -7  -3   71.49    7.90
  -5  -7   3   71.59    8.50
   5   7  -3   79.79    9.10
   5   7  -3   79.69    8.30
  -5   7   3   70.09    7.50
   5   7  -3   73.39    8.60
  -5   7   3   70.59    7.40
  -5   7   3   56.79    6.70
   4  -7  -3   18.70    3.80
   4  -7  -3   13.60    3.10
   4  -7  -3   15.60    3.20
  -4  -7   3   18.60    2.90
   4  -7  -3   22.60    4.20
  -4  -7   3   20.40    3.80
  -4  -7   3   21.30    4.50
   4  -7  -3   23.30    3.90
   4   7  -3   23.50    4.70
  -4   7   3   20.40    3.60
  -4   7   3   22.60    4.10
   4   7  -3   25.60    3.90
   4   7  -3   18.00    4.20
   4   7  -3   22.20    4.10
  -4   7   3   24.50    4.30
  -3  -7   3   48.70    3.80
   3  -7  -3   59.59    6.20
   3  -7  -3   41.90    4.90
  -3  -7   3   36.90    5.30
   3  -7  -3   44.30    4.90
   3  -7  -3   47.90    5.40
   3  -7  -3   56.49    4.30
  -3  -7   3   47.60    5.60
  -3   7   3   52.59    3.80
   3   7  -3   43.30    3.60
  -3   7   3   43.80    5.00
  -3   7   3   45.00    5.00
   3   7  -3   48.70    5.20
   3   7  -3   42.80    5.80
  -3   7   3   51.79    5.70
   3   7  -3   44.60    5.60
   3   7  -3   27.80    4.40
   2  -7  -3  290.47   11.50
   2  -7  -3  270.77   11.30
   2  -7  -3  253.57   10.10
   2  -7  -3  248.08   10.70
   2  -7  -3  265.87    8.90
  -2  -7   3  239.48   11.70
  -2  -7   3  253.47   10.30
  -2  -7   3  265.27   11.90
   2  -7  -3  239.88   11.10
   2   7  -3  253.57   11.90
  -2   7   3  271.37   10.50
   2   7  -3  260.97   11.30
  -2   7   3  260.77   11.20
   2   7  -3  273.97   10.50
   2   7  -3  252.47   11.60
   2   7  -3  253.47   12.00
  -2   7   3  283.17   12.10
  -1  -7   3  747.23   23.30
  -1  -7   3  714.13   24.10
   1  -7  -3  718.63   23.10
  -1  -7   3  725.83   20.20
   1  -7  -3  726.43   21.80
   1  -7  -3  706.93   23.70
   1  -7  -3  725.43   20.60
  -1  -7   3  751.32   24.80
   1  -7  -3  673.33   23.00
   1   7  -3  708.33   23.90
  -1   7   3  730.53   24.40
  -1   7   3  724.53   23.60
  -1   7   3  719.63   22.70
   1   7  -3  733.63   20.30
   1   7  -3  716.93   22.80
   1   7  -3  715.73   24.10
   1   7  -3  744.13   23.60
   1   7  -3  680.93   24.80
   0  -7  -3   95.99    5.40
   0  -7  -3   95.09    4.50
   0  -7   3  107.59    6.20
   0  -7   3  105.29    5.80
   0  -7  -3   84.99    4.60
   0  -7   3   99.09    6.10
   0  -7  -3   99.29    5.00
   0  -7  -3   87.79    5.40
   0  -7  -3   90.99    5.10
   0  -7   3  102.19    5.10
   0   7  -3   94.19    5.50
   0   7  -3  102.09    5.20
   0   7  -3  101.49    6.70
   0   7   3   94.49    5.70
   0   7  -3  104.19    6.20
   0   7   3  103.69    5.70
   0   7   3   85.49    5.80
   0   7  -3   98.79    6.30
   0   7  -3   88.79    5.20
  -1  -7  -3  148.19    5.50
  -1  -7  -3  146.49    7.40
   1  -7   3  158.98    7.70
   1  -7   3  163.38    7.90
  -1  -7  -3  160.58    7.40
  -1  -7  -3  151.98    6.90
  -1  -7  -3  155.48    6.20
  -1  -7  -3  149.09    6.90
   1  -7   3  160.38    8.70
   1  -7   3  149.49    6.60
  -1   7  -3  131.69    8.10
   1   7   3  148.49    7.80
  -1   7  -3  145.49    6.30
   1   7   3  152.18    5.50
   1   7   3  155.78    7.20
  -1   7  -3  159.78    8.60
  -1   7  -3  155.68    7.80
   1   7   3  143.19    7.80
  -1   7  -3  157.58    8.90
  -2  -7  -3  125.69    7.10
   2  -7   3  134.99    7.80
  -2  -7  -3  125.59    6.90
  -2  -7  -3  129.29    6.30
   2  -7   3  140.79    8.10
   2  -7   3  141.39    7.10
   2  -7   3  121.09    8.20
  -2  -7  -3  133.49    7.30
  -2  -7  -3  127.39    5.10
  -2   7  -3  130.19    7.70
  -2   7  -3  141.99    8.50
  -2   7  -3  154.78    8.80
   2   7   3  126.19    6.30
  -2   7  -3  131.59    5.20
   2   7   3  139.19    7.40
   2   7   3  119.09    6.80
   2   7   3  133.09    7.60
  -3  -7  -3  107.79    7.10
   3  -7   3  129.99    8.40
   3  -7   3   99.19    8.10
  -3  -7  -3  126.49    6.20
  -3  -7  -3  122.49    7.40
  -3  -7  -3  114.09    7.20
   3  -7   3  120.09    8.20
   3  -7   3  124.09    6.40
   3   7   3  105.19    6.60
   3   7   3  112.89    6.20
  -3   7  -3  118.99    8.30
  -3   7  -3  117.29    7.90
   3   7   3  112.19    7.20
   3   7   3  104.19    7.10
  -3   7  -3  113.09    7.80
  -3   7  -3  112.79    7.90
   4  -7   3  129.79    9.20
  -4  -7  -3   97.59    7.10
  -4  -7  -3  104.79    7.40
  -4  -7  -3   91.19    7.00
   4  -7   3   91.39    9.50
   4  -7   3  102.49    8.70
  -4   7  -3  108.79    8.00
   4   7   3  103.69    6.50
   4   7   3   87.09    6.90
  -4   7  -3  105.09    8.10
  -4   7  -3  110.49    8.40
  -4   7  -3  110.59    8.50
   4   7   3  113.99    7.60
   4   7   3  100.79    6.70
   5  -7   3   47.10    7.70
  -5  -7  -3   45.70    6.30
  -5  -7  -3   37.70    5.50
  -5  -7  -3   41.80    6.00
   5  -7   3   49.20    7.70
   5  -7   3   37.40    6.70
  -5   7  -3   46.40    6.50
  -5   7  -3   43.10    6.70
  -5   7  -3   51.89    7.50
   5   7   3   58.49    6.60
   5   7   3   42.60    5.40
   5   7   3   37.30    5.70
  -5   7  -3   45.20    6.40
   5   7   3   40.30    5.60
   6  -7   3   25.10    5.80
  -6  -7  -3   26.80    5.60
  -6  -7  -3   27.40    5.40
  -6  -7  -3   24.20    4.90
   6  -7   3   31.40    6.90
   6  -7   3   27.30    6.40
   6   7   3   35.00    5.70
   6   7   3   44.50    6.30
  -6   7  -3   30.20    6.00
  -6   7  -3   23.20    5.30
  -6   7  -3   37.50    6.10
   6   7   3   36.80    6.20
  -6   7  -3   46.10    7.20
   7  -7   3   63.89   10.10
  -7  -7  -3   72.79    9.20
   7  -7   3   63.19   10.60
  -7  -7  -3   48.90    7.60
  -7   7  -3   62.29    8.40
   7   7   3   55.49    7.80
  -7   7  -3   49.90    7.90
   7   7   3   55.49    8.10
  -7   7  -3   44.30    8.30
   7   7   3   83.69    9.50
  -7   7  -3   53.09    8.70
   6  -8  -3   10.40    3.60
   6  -8  -3   10.50    4.00
   6  -8  -3   12.60    4.30
  -6  -8   3   10.30    3.50
  -6  -8   3    8.60    2.50
   6  -8  -3   12.80    4.10
  -6  -8   3    7.40    3.40
   6  -8  -3   11.70    3.70
  -6   8   3    3.90    2.40
   6   8  -3    7.80    3.80
  -6   8   3    9.30    3.30
  -6   8   3   12.90    3.60
   6   8  -3   10.30    4.20
  -5  -8   3   70.79    5.40
   5  -8  -3   70.29    8.20
   5  -8  -3   64.59    7.20
   5  -8  -3   66.39    7.80
  -5  -8   3   68.19    8.60
  -5  -8   3   81.69    7.20
   5  -8  -3   91.49    7.40
   5  -8  -3   68.59    7.70
   5   8  -3   71.59    9.10
  -5   8   3   73.89    7.50
  -5   8   3   80.59    6.60
   5   8  -3   78.09    9.10
   5   8  -3   71.19    7.90
  -5   8   3   66.59    7.30
   4  -8  -3  119.89    7.80
  -4  -8   3  129.69    8.60
  -4  -8   3  122.89    6.90
   4  -8  -3  144.79    8.70
   4  -8  -3  107.39    7.60
  -4  -8   3  123.09    9.10
   4  -8  -3  109.79    7.90
   4  -8  -3  121.59    8.20
  -4   8   3  120.29    8.00
   4   8  -3  114.39    8.80
  -4   8   3  128.29    8.10
   4   8  -3  138.89    8.80
   4   8  -3  133.49    9.50
   4   8  -3  135.89    7.70
  -4   8   3  113.59    7.80
  -3  -8   3   15.20    3.70
   3  -8  -3   16.30    2.90
  -3  -8   3   10.10    2.20
   3  -8  -3   16.10    3.30
  -3  -8   3   14.40    3.40
   3  -8  -3   14.60    3.20
   3  -8  -3   18.50    3.50
   3  -8  -3   21.00    3.60
  -3   8   3    8.90    2.50
   3   8  -3    9.50    2.40
  -3   8   3   12.60    2.90
   3   8  -3   15.90    3.50
   3   8  -3   15.60    3.40
   3   8  -3    8.00    2.80
  -3   8   3   15.60    3.10
   2  -8  -3   46.70    3.80
  -2  -8   3   34.50    3.90
   2  -8  -3   42.60    4.70
   2  -8  -3   53.89    4.40
  -2  -8   3   36.90    4.70
  -2  -8   3   38.10    5.00
   2  -8  -3   47.80    5.10
   2  -8  -3   60.49    4.60
  -2   8   3   46.60    3.60
   2   8  -3   49.99    5.80
   2   8  -3   34.30    4.90
   2   8  -3   41.70    3.50
  -2   8   3   44.50    4.70
  -2   8   3   57.39    5.70
  -2   8   3   45.70    5.20
   2   8  -3   51.49    5.80
   2   8  -3   42.00    4.70
   1  -8  -3  108.99    6.30
   1  -8  -3   96.89    5.70
  -1  -8   3  107.89    6.70
   1  -8  -3  107.89    5.80
   1  -8  -3  110.19    5.90
  -1  -8   3  106.89    6.30
  -1  -8   3  117.69    6.90
   1  -8  -3   99.89    6.00
  -1  -8   3  111.49    4.80
   1  -8  -3  111.09    4.70
   1   8  -3  108.19    7.20
  -1   8   3  100.39    5.80
  -1   8   3  114.99    6.00
  -1   8   3  102.79    6.30
  -1   8   3  107.79    6.70
   1   8  -3  111.89    6.60
   1   8  -3  100.99    6.50
   1   8  -3  105.09    6.50
   1   8  -3  108.19    6.00
   0  -8  -3  124.79    6.40
   0  -8  -3  115.49    6.50
   0  -8  -3  121.69    5.60
   0  -8   3  127.69    6.80
   0  -8  -3  123.29    5.50
   0  -8   3  121.99    6.00
   0  -8  -3  140.59    6.10
   0  -8   3  129.89    7.30
   0  -8   3  139.09    7.60
   0  -8  -3  122.79    6.30
   0   8  -3  130.29    6.60
   0   8  -3  130.09    7.20
   0   8   3  132.49    5.80
   0   8   3  115.19    7.00
   0   8  -3  121.69    7.40
   0   8   3  124.69    6.80
   0   8  -3  121.99    6.00
   0   8   3  132.19    6.80
   0   8  -3  117.29    6.50
   0   8  -3  109.89    7.40
   1  -8   3  784.12   26.80
  -1  -8  -3  769.72   24.50
   1  -8   3  813.12   24.20
  -1  -8  -3  756.32   25.00
   1  -8   3  808.32   26.00
  -1  -8  -3  894.21   23.40
   1  -8   3  786.52   24.70
  -1  -8  -3  759.72   24.10
  -1  -8  -3  727.73   23.80
  -1   8  -3  771.82   22.80
  -1   8  -3  809.42   27.30
  -1   8  -3  747.13   25.10
   1   8   3  745.23   26.00
  -1   8  -3  815.12   27.20
  -1   8  -3  753.52   27.50
   1   8   3  767.22   25.80
   1   8   3  769.72   23.70
   2  -8   3   41.70    5.40
   2  -8   3   34.70    5.10
   2  -8   3   52.79    4.20
  -2  -8  -3   51.49    4.40
   2  -8   3   45.40    5.60
  -2  -8  -3   42.90    4.40
  -2  -8  -3   49.70    3.50
  -2  -8  -3   52.89    5.20
  -2   8  -3   46.50    3.00
  -2   8  -3   40.10    5.50
  -2   8  -3   48.00    6.10
  -2   8  -3   37.20    5.20
   2   8   3   52.89    4.60
   2   8   3   45.90    5.00
  -2   8  -3   56.99    6.10
   2   8   3   52.99    5.00
   3  -8   3   96.19    7.50
   3  -8   3   95.89    7.80
  -3  -8  -3   85.19    6.10
  -3  -8  -3   74.99    5.80
   3  -8   3   88.29    7.10
  -3  -8  -3   89.49    6.40
  -3   8  -3   80.59    6.80
   3   8   3   87.49    6.20
   3   8   3   86.89    5.60
   3   8   3   87.89    6.40
  -3   8  -3   77.99    6.90
  -3   8  -3   80.89    6.90
   3   8   3   74.49    5.70
  -3   8  -3   80.19    6.70
   4  -8   3   22.00    4.90
  -4  -8  -3   33.10    4.90
  -4  -8  -3   28.70    4.60
  -4  -8  -3   29.60    4.50
   4  -8   3   24.20    5.10
   4  -8   3   26.30    5.40
  -4   8  -3   23.50    4.60
   4   8   3   27.60    4.40
   4   8   3   32.80    4.60
  -4   8  -3   33.00    5.50
  -4   8  -3   37.40    6.00
   4   8   3   32.00    4.40
  -4   8  -3   22.40    4.50
   4   8   3   21.70    4.00
   5  -8   3  128.09   10.70
  -5  -8  -3  139.19    9.10
  -5  -8  -3  137.39    9.30
   5  -8   3  145.59   10.90
   5  -8   3  162.68   12.00
  -5  -8  -3  132.39    9.20
  -5   8  -3  142.49   10.30
   5   8   3  143.69    9.60
   5   8   3  146.49    8.70
   5   8   3  133.09    8.80
  -5   8  -3  152.68   11.00
   5   8   3  125.69    9.00
  -5   8  -3  135.79   10.40
  -5   8  -3  129.79    9.70
  -6  -8  -3    1.50    2.20
   6  -8   3    8.00    4.20
  -6  -8  -3    7.10    3.10
   6  -8   3    2.00    3.00
   6  -8   3   12.60    5.00
  -6   8  -3    8.70    3.80
  -6   8  -3    5.30    3.10
   6   8   3    5.20    2.80
  -6   8  -3    2.10    2.70
   6   8   3    6.10    3.00
  -6   8  -3    4.80    3.30
   6   8   3    3.80    2.80
  -6  -9   3   29.60    6.70
   6  -9  -3   31.50    6.10
   6  -9  -3   31.30    5.70
  -6  -9   3   29.60    5.80
   6  -9  -3   24.20    5.20
  -6  -9   3   23.30    4.00
   6  -9  -3   23.30    5.00
   6  -9  -3   27.00    5.30
   6   9  -3   27.40    6.30
  -6   9   3   35.20    5.90
  -6   9   3   25.90    5.30
  -6   9   3   25.60    4.60
   6   9  -3   13.90    4.70
   5  -9  -3   15.40    3.80
   5  -9  -3   11.40    3.40
   5  -9  -3   10.00    3.20
  -5  -9   3    8.70    3.60
   5  -9  -3    9.20    3.40
  -5  -9   3   10.70    3.10
  -5  -9   3    9.60    2.60
   5  -9  -3   13.80    3.90
  -5   9   3   14.20    3.60
   5   9  -3    8.30    3.60
  -5   9   3    8.00    2.70
   5   9  -3   11.40    4.10
  -5   9   3    8.50    2.90
  -4  -9   3  319.67   15.50
   4  -9  -3  338.57   15.40
   4  -9  -3  383.76   15.70
  -4  -9   3  321.87   13.40
   4  -9  -3  320.77   14.50
   4  -9  -3  308.07   14.70
   4  -9  -3  310.37   14.90
  -4  -9   3  316.97   16.30
   4   9  -3  338.87   15.50
   4   9  -3  317.87   16.10
   4   9  -3  323.67   16.40
  -4   9   3  343.87   15.20
  -4   9   3  345.07   14.80
  -4   9   3  340.07   14.80
  -3  -9   3  264.47   13.30
  -3  -9   3  257.97   12.60
   3  -9  -3  230.18   10.90
   3  -9  -3  235.78   11.60
   3  -9  -3  243.58   11.90
   3  -9  -3  251.77   11.80
  -3  -9   3  248.68   10.90
   3  -9  -3  230.78   11.40
   3   9  -3  238.48   12.80
   3   9  -3  250.97   11.20
  -3   9   3  240.58   11.60
   3   9  -3  251.37   12.40
  -3   9   3  270.37   12.20
  -3   9   3  260.17   11.80
   3   9  -3  236.98   12.50
  -2  -9   3  868.61   27.70
  -2  -9   3  875.31   29.70
   2  -9  -3  817.82   28.50
   2  -9  -3  849.22   26.70
   2  -9  -3  854.71   28.20
   2  -9  -3  860.01   28.00
  -2  -9   3  900.01   29.90
   2  -9  -3  817.72   28.10
  -2   9   3  866.01   28.20
   2   9  -3  863.61   29.60
   2   9  -3  897.71   30.10
   2   9  -3  876.91   28.40
   2   9  -3  886.51   28.40
  -2   9   3  866.11   28.80
  -2   9   3  839.12   26.60
  -2   9   3  879.21   27.50
   1  -9  -3  356.56   11.90
   1  -9  -3  353.36   13.80
  -1  -9   3  362.06   14.90
   1  -9  -3  358.96   14.00
   1  -9  -3  384.76   13.60
   1  -9  -3  374.76   13.50
  -1  -9   3  361.06   14.30
   1  -9  -3  360.96   13.20
  -1  -9   3  340.57   14.50
  -1  -9   3  359.56   11.80
  -1   9   3  365.76   13.90
   1   9  -3  344.17   14.00
  -1   9   3  331.97   14.20
  -1   9   3  334.27   13.20
   1   9  -3  327.47   14.20
   1   9  -3  352.16   13.50
  -1   9   3  370.76   13.40
   1   9  -3  359.96   15.50
   1   9  -3  361.26   14.50
   0  -9   3  238.28    9.60
   0  -9   3  230.18   11.00
   0  -9   3  223.28   11.00
   0  -9   3  257.67   10.70
   0  -9  -3  248.58    9.10
   0  -9  -3  231.48    9.80
   0  -9  -3  224.78   10.10
   0  -9  -3  248.38    9.20
   0  -9  -3  261.97   10.20
   0  -9  -3  241.88    9.30
   0   9  -3  240.08   10.90
   0   9  -3  246.68   11.60
   0   9   3  255.67    9.30
   0   9   3  241.88   10.30
   0   9  -3  238.08   11.90
   0   9   3  227.58   10.20
   0   9  -3  257.27    9.60
   0   9   3  230.38   10.90
   0   9  -3  234.08   10.30
   0   9  -3  216.98    9.80
   1  -9   3  327.67   12.10
   1  -9   3  321.27   14.50
   1  -9   3  339.37   13.20
  -1  -9  -3  337.87   12.10
  -1  -9  -3  299.57   12.30
  -1  -9  -3  325.17   12.10
   1  -9   3  322.97   13.40
  -1  -9  -3  336.27   12.90
  -1   9  -3  288.97   11.40
  -1   9  -3  355.16   13.50
  -1   9  -3  349.17   12.20
  -1   9  -3  341.07   14.50
   1   9   3  347.17   13.60
   1   9   3  345.17   13.80
   1   9   3  329.67   12.50
  -1   9  -3  309.07   14.30
  -1   9  -3  302.87   14.70
  -2  -9  -3  537.15   18.20
  -2  -9  -3  477.75   17.90
  -2  -9  -3  518.95   18.40
   2  -9   3  487.05   19.40
   2  -9   3  524.45   19.50
   2  -9   3  515.65   18.30
   2  -9   3  514.35   20.90
  -2   9  -3  533.35   20.90
  -2   9  -3  523.15   15.90
   2   9   3  517.15   19.10
  -2   9  -3  523.75   21.20
   2   9   3  527.45   19.50
  -2   9  -3  514.25   20.80
   2   9   3  529.95   17.70
  -2   9  -3  495.25   19.30
   3  -9   3  152.48    9.60
  -3  -9  -3  127.19    7.80
  -3  -9  -3  139.09    7.90
  -3  -9  -3  134.59    7.90
   3  -9   3  125.59    9.50
   3  -9   3  147.39    9.50
  -3   9  -3  130.89    9.10
  -3   9  -3  139.79    9.10
  -3   9  -3  135.19    9.30
   3   9   3  123.79    7.30
   3   9   3  137.99    8.10
   3   9   3  134.79    8.30
  -3   9  -3  137.79    9.60
  -4  -9  -3  298.47   13.50
  -4  -9  -3  292.97   13.60
  -4  -9  -3  298.57   13.90
   4  -9   3  309.77   15.90
   4  -9   3  292.87   16.20
   4  -9   3  279.87   15.20
  -4   9  -3  286.07   15.10
   4   9   3  299.47   14.30
   4   9   3  305.27   14.20
  -4   9  -3  307.37   15.90
  -4   9  -3  262.77   14.70
   4   9   3  333.27   13.50
   4   9   3  301.77   13.60
  -4   9  -3  290.57   15.20
   5  -9   3   49.60    8.10
  -5  -9  -3   44.20    6.20
   5  -9   3   44.70    7.30
   5  -9   3   50.09    8.20
  -5  -9  -3   49.30    6.50
  -5  -9  -3   43.60    6.10
  -5   9  -3   49.80    7.20
   5   9   3   46.30    6.60
   5   9   3   40.40    5.80
  -5   9  -3   50.09    7.80
  -5   9  -3   43.20    6.80
   5   9   3   45.80    6.00
   5   9   3   61.39    7.30
  -5   9  -3   41.00    6.50
  -6  -9  -3   39.30    6.40
   6  -9   3   32.80    7.50
   6  -9   3   33.10    7.30
   6  -9   3   27.30    6.40
  -6  -9  -3   35.70    6.20
  -6   9  -3   35.50    6.70
  -6   9  -3   43.00    6.90
   6   9   3   35.70    5.90
  -6   9  -3   37.70    7.10
   6   9   3   31.20    5.50
  -6   9  -3   32.80    6.50
   6   9   3   39.20    6.20
   6 -10  -3   47.60    8.00
   6 -10  -3   58.79    8.50
  -6 -10   3   39.80    5.30
   6 -10  -3   58.79    8.50
   6 -10  -3   49.40    6.90
   6 -10  -3   52.59    7.60
  -6 -10   3   55.69    9.00
  -6 -10   3   42.30    6.80
   6  10  -3   41.30    7.70
  -6  10   3   42.30    6.50
  -6  10   3   52.59    7.10
   6  10  -3   49.10    8.40
  -6  10   3   48.30    6.60
   5 -10  -3   80.69    8.90
  -5 -10   3   84.29    6.40
  -5 -10   3   87.19   10.50
  -5 -10   3   92.79    8.10
   5 -10  -3   93.59    7.70
   5 -10  -3  102.19    8.40
   5 -10  -3   96.49    8.30
   5 -10  -3   85.29    8.90
   5  10  -3   93.99   10.40
  -5  10   3   89.19    8.50
  -5  10   3   90.09    7.50
  -5  10   3   68.39    7.70
   5  10  -3   79.99    9.50
  -4 -10   3   82.29    9.00
  -4 -10   3   53.49    7.60
   4 -10  -3   59.19    7.10
   4 -10  -3   51.49    6.90
  -4 -10   3   54.19    5.80
   4 -10  -3   49.30    6.10
   4 -10  -3   43.00    5.80
   4 -10  -3   56.89    6.90
   4  10  -3   47.60    6.90
  -4  10   3   51.79    6.20
  -4  10   3   66.69    6.90
  -4  10   3   62.19    6.80
   4  10  -3   53.59    7.00
   4  10  -3   67.59    7.60
  -4  10   3   58.99    6.80
   3 -10  -3   23.50    3.90
   3 -10  -3   36.40    4.90
   3 -10  -3   27.80    4.30
  -3 -10   3   29.30    5.40
   3 -10  -3   28.70    4.50
  -3 -10   3   25.50    4.50
   3 -10  -3   24.90    4.10
  -3 -10   3   27.00    4.00
   3  10  -3   24.90    4.70
  -3  10   3   34.50    5.10
   3  10  -3   33.80    5.10
  -3  10   3   25.60    4.10
  -3  10   3   24.70    4.00
   3  10  -3   21.50    4.50
   2 -10  -3  110.39    7.00
   2 -10  -3  111.19    6.80
   2 -10  -3  119.99    7.40
   2 -10  -3  112.59    6.80
   2 -10  -3  115.09    6.80
  -2 -10   3   99.19    6.70
  -2 -10   3  102.99    7.40
  -2  10   3  110.59    6.80
  -2  10   3  114.99    7.30
   2  10  -3  114.99    7.00
   2  10  -3   96.99    7.40
   2  10  -3  112.89    7.80
   2  10  -3  114.79    7.90
  -2  10   3  112.09    7.30
  -1 -10   3   21.60    3.00
   1 -10  -3   27.10    3.50
   1 -10  -3   24.20    2.80
  -1 -10   3   14.00    3.10
   1 -10  -3   23.70    3.40
   1 -10  -3   28.30    3.80
  -1 -10   3   19.50    3.70
   1 -10  -3   21.80    3.30
   1 -10  -3   21.50    3.10
  -1 -10   3   11.70    2.80
   1  10  -3   18.10    3.10
   1  10  -3   16.80    3.70
  -1  10   3   24.50    3.70
   1  10  -3   19.40    3.50
   1  10  -3   15.70    3.10
  -1  10   3   19.30    2.90
   1  10  -3   20.40    3.60
  -1  10   3   25.90    3.30
  -1  10   3   17.80    3.30
   0 -10   3   78.19    5.10
   0 -10  -3   80.99    5.40
   0 -10   3   85.49    5.70
   0 -10   3   78.19    5.90
   0 -10  -3   84.39    5.40
   0 -10  -3   81.69    5.10
   0 -10  -3   71.59    4.40
   0 -10   3   70.99    5.90
   0 -10  -3   84.99    4.70
   0  10   3   69.69    5.60
   0  10  -3   77.49    5.50
   0  10   3   85.99    5.50
   0  10   3   80.49    5.70
   0  10  -3   68.79    7.30
   0  10  -3   75.59    5.70
   0  10  -3   81.49    5.60
   0  10  -3   86.79    6.50
   1 -10   3  174.68    9.00
   1 -10   3  179.88    9.10
  -1 -10  -3  177.28    7.70
   1 -10   3  173.38   10.20
  -1 -10  -3  180.58    8.70
  -1 -10  -3  190.28    8.20
  -1 -10  -3  186.48    8.90
   1  10   3  180.08    9.10
  -1  10  -3  182.98   10.30
  -1  10  -3  167.68    9.70
  -1  10  -3  185.18    8.30
  -1  10  -3  180.78    9.00
  -1  10  -3  193.78   11.00
  -1  10  -3  181.28    8.20
   1  10   3  181.18    8.80
   1  10   3  170.08    9.20
   2 -10   3  161.88    9.40
   2 -10   3  182.78    9.90
   2 -10   3  169.68   10.60
  -2 -10  -3  156.28    8.30
  -2 -10  -3  155.48    8.40
  -2 -10  -3  138.89    7.80
  -2  10  -3  176.28    9.60
   2  10   3  148.79    8.10
  -2  10  -3  174.48   10.40
   2  10   3  167.08    9.10
  -2  10  -3  174.58   10.50
   2  10   3  169.88    9.20
  -2  10  -3  160.98   10.40
   3 -10   3   42.20    6.10
  -3 -10  -3   30.60    4.20
  -3 -10  -3   22.80    3.80
  -3 -10  -3   36.80    4.70
   3 -10   3   34.90    6.20
   3 -10   3   29.10    5.30
  -3  10  -3   36.40    5.90
   3  10   3   25.60    4.20
  -3  10  -3   46.80    6.50
  -3  10  -3   31.60    5.60
   3  10   3   31.20    4.10
  -3  10  -3   27.70    5.20
   3  10   3   37.20    5.20
  -4 -10  -3   65.09    6.90
   4 -10   3   48.90    7.70
   4 -10   3   72.69    9.00
   4 -10   3   60.99    8.10
  -4 -10  -3   63.09    6.60
  -4 -10  -3   52.59    6.10
   4  10   3   61.09    6.80
   4  10   3   61.59    7.10
  -4  10  -3   64.39    8.60
  -4  10  -3   59.89    7.90
  -4  10  -3   77.49    8.80
   4  10   3   63.19    6.70
  -4  10  -3   59.39    7.80
  -5 -10  -3   -0.10    1.80
   5 -10   3    3.00    3.00
   5 -10   3    0.50    2.70
  -5 -10  -3    0.70    2.30
   5 -10   3    1.80    3.00
  -5  10  -3    3.70    2.90
   5  10   3    0.60    1.90
  -5  10  -3    1.00    2.20
   5  10   3    1.80    2.00
   5  10   3    3.70    2.50
  -5  10  -3   -1.00    2.30
  -5  10  -3    0.60    2.30
  -6 -10  -3   11.60    3.70
   6 -10   3    7.50    4.20
  -6 -10  -3   10.10    3.60
   6 -10   3   11.30    4.90
   6 -10   3   11.30    4.80
   6  10   3    5.60    3.30
  -6  10  -3    7.50    3.60
   6  10   3    4.40    2.80
   6  10   3    6.70    3.70
  -6  10  -3    5.70    3.70
  -6  10  -3    7.40    3.90
  -6  10  -3   13.30    4.80
   5 -11  -3   17.30    4.30
  -5 -11   3   22.40    4.00
   5 -11  -3   10.70    3.50
  -5 -11   3   12.60    4.20
  -5 -11   3    8.80    3.10
   5 -11  -3   10.00    3.70
   5 -11  -3   19.00    4.70
   5  11  -3   23.40    5.60
   5  11  -3   19.60    5.50
  -5  11   3   13.00    3.70
  -5  11   3   16.70    4.00
  -5  11   3   19.80    4.60
   4 -11  -3  136.09    8.90
  -4 -11   3  105.49    8.60
  -4 -11   3  110.39    7.60
   4 -11  -3  123.29    8.70
   4 -11  -3  119.99    8.80
   4 -11  -3  121.59    8.70
  -4 -11   3  109.89    9.40
   4 -11  -3  122.19    8.70
  -4  11   3  123.19    8.40
  -4  11   3  121.89    8.30
   4  11  -3  124.19    9.90
  -4  11   3  132.89    8.70
   4  11  -3  124.59    9.90
  -3 -11   3    9.40    2.60
  -3 -11   3   13.40    3.30
   3 -11  -3    8.00    2.60
   3 -11  -3    4.00    2.20
   3 -11  -3    9.20    2.70
   3 -11  -3    6.30    2.30
   3 -11  -3    6.80    2.50
  -3  11   3    8.50    2.70
   3  11  -3   16.90    4.40
   3  11  -3    7.50    3.00
  -3  11   3    6.70    2.20
  -3  11   3    6.60    2.50
  -3  11   3   12.60    3.00
   3  11  -3    6.40    2.70
   2 -11  -3  327.77   14.00
   2 -11  -3  336.17   13.80
  -2 -11   3  312.97   13.90
  -2 -11   3  334.27   15.10
   2 -11  -3  366.06   14.60
   2 -11  -3  319.47   13.70
   2  11  -3  318.17   15.10
  -2  11   3  338.07   13.90
   2  11  -3  328.47   15.00
  -2  11   3  319.67   13.80
  -2  11   3  332.87   13.40
   2  11  -3  312.57   15.00
  -2  11   3  338.67   14.50
  -1 -11   3  471.75   18.70
   1 -11  -3  479.85   17.20
  -1 -11   3  489.65   19.10
   1 -11  -3  440.36   16.90
   1 -11  -3  460.45   17.50
   1 -11  -3  495.75   16.20
   1 -11  -3  511.05   18.00
  -1  11   3  500.05   16.90
   1  11  -3  478.05   18.20
  -1  11   3  491.95   17.30
   1  11  -3  472.75   18.70
  -1  11   3  482.45   16.80
   1  11  -3  473.65   18.40
  -1  11   3  463.65   17.50
  -1  11   3  471.35   18.40
   1  11  -3  506.05   20.10
   0 -11   3   84.09    5.90
   0 -11  -3   83.29    5.70
   0 -11   3   86.39    6.80
   0 -11  -3   85.89    5.30
   0 -11  -3   87.69    5.10
   0 -11   3   88.79    5.70
   0 -11   3   85.69    6.40
   0 -11  -3   76.49    5.50
   0  11  -3   85.09    6.60
   0  11  -3   93.69    6.40
   0  11  -3   79.89    5.80
   0  11  -3   96.29    6.30
   0  11   3   86.39    6.30
   0  11   3   86.29    6.10
   0  11   3   79.69    5.50
   0  11  -3   76.89    6.90
   1 -11   3  166.28    8.90
  -1 -11  -3  158.98    8.30
  -1 -11  -3  161.48    7.80
   1 -11   3  139.89    9.50
  -1 -11  -3  159.08    8.30
   1 -11   3  169.58    8.90
  -1  11  -3  158.58   10.30
  -1  11  -3  156.98    9.50
   1  11   3  162.68    8.70
   1  11   3  168.68    9.20
  -1  11  -3  153.38    9.70
   1  11   3  165.28    8.60
  -1  11  -3  166.18    8.00
   2 -11   3  168.28    9.90
  -2 -11  -3  167.98    8.60
  -2 -11  -3  159.38    8.40
   2 -11   3  171.28   11.00
   2 -11   3  186.28   10.30
  -2 -11  -3  157.78    8.60
  -2  11  -3  178.48   10.80
   2  11   3  171.18    9.50
   2  11   3  165.58    9.40
   2  11   3  165.08    8.90
  -2  11  -3  171.18   11.10
  -2  11  -3  180.88   11.00
  -2  11  -3  170.48    9.70
   3 -11   3   11.70    3.50
  -3 -11  -3   15.20    3.10
  -3 -11  -3    9.60    2.90
   3 -11   3   10.10    3.60
   3 -11   3   16.30    4.50
  -3  11  -3   14.40    4.10
   3  11   3   11.50    2.90
  -3  11  -3   13.70    3.80
   3  11   3   16.20    3.40
   3  11   3   15.00    3.60
  -3  11  -3   12.20    3.70
  -3  11  -3   13.70    3.80
   4 -11   3  123.49   10.00
   4 -11   3  136.19   11.10
  -4 -11  -3  113.39    8.10
  -4 -11  -3  122.59    8.20
   4 -11   3  129.79   10.40
   4  11   3  112.59    8.40
   4  11   3  121.19    8.40
  -4  11  -3  138.69   10.40
   4  11   3  113.99    8.60
  -4  11  -3  110.59    9.40
  -4  11  -3  134.49   10.40
  -4  11  -3  146.69   10.50
   5 -11   3  113.39   12.40
   5 -11   3  143.79   12.10
  -5 -11  -3  147.69    9.70
   5 -11   3  149.79   11.90
  -5 -11  -3  140.39    9.60
  -5  11  -3  152.68   11.70
   5  11   3  155.88   10.20
  -5  11  -3  146.79   11.40
  -5  11  -3  147.69   11.40
   5  11   3  148.29   10.30
   5  11   3  145.59   10.10
  -5  11  -3  129.29   11.10
  -5 -12   3    3.20    3.00
  -5 -12   3    3.10    2.10
   5 -12  -3    5.30    3.00
   5 -12  -3    5.10    3.00
   5 -12  -3    7.60    3.60
  -5 -12   3    7.20    3.10
   5 -12  -3    3.00    2.80
  -5  12   3    4.40    2.40
   5  12  -3    2.10    3.00
   5  12  -3    7.70    4.10
  -5  12   3    6.50    2.70
  -5  12   3    4.60    2.80
  -4 -12   3  127.99    8.50
   4 -12  -3  139.39    9.70
   4 -12  -3  148.09   10.00
   4 -12  -3  154.18   10.30
  -4 -12   3  123.69   10.30
   4 -12  -3  140.89    9.40
  -4 -12   3  143.79   10.20
  -4  12   3  127.79    8.80
  -4  12   3  133.39    9.20
   4  12  -3  142.29   10.90
   4  12  -3  122.49   11.90
  -4  12   3  141.69    9.30
  -3 -12   3   33.30    5.30
   3 -12  -3   37.20    5.30
   3 -12  -3   32.50    5.20
   3 -12  -3   32.00    5.20
   3 -12  -3   28.60    4.60
  -3 -12   3   47.80    5.70
   3  12  -3   30.20    5.60
  -3  12   3   43.30    5.30
  -3  12   3   43.50    5.70
   3  12  -3   41.70    6.60
  -3  12   3   47.20    5.90
  -3  12   3   44.40    5.80
   2 -12  -3  185.78    9.90
  -2 -12   3  169.18   10.30
   2 -12  -3  174.98    9.30
  -2 -12   3  163.48    9.70
   2 -12  -3  165.08    9.40
   2 -12  -3  185.68    9.80
  -2  12   3  181.58    9.60
   2  12  -3  186.38   10.90
  -2  12   3  180.28    9.80
   2  12  -3  192.98   11.10
  -2  12   3  183.08    9.90
  -2  12   3  183.98    9.30
   2  12  -3  182.88   10.80
   1 -12  -3   65.69    5.40
  -1 -12   3   68.69    7.20
  -1 -12   3   66.69    6.00
   1 -12  -3   69.49    5.50
   1 -12  -3   70.59    5.40
   1 -12  -3   71.69    5.50
   1  12  -3   55.49    6.30
   1  12  -3   61.39    7.30
   1  12  -3   63.79    6.90
  -1  12   3   64.19    5.60
  -1  12   3   77.79    6.10
   1  12  -3   62.49    5.50
   0 -12  -3   85.59    6.00
   0 -12   3   87.29    7.10
   0 -12  -3   89.89    6.10
   0 -12  -3   96.89    5.60
   0 -12   3   96.69    6.20
   0 -12   3   88.59    6.70
   0  12   3   83.69    5.70
   0  12  -3   90.19    6.40
   0  12  -3   88.39    7.60
   0  12   3   84.19    6.40
   0  12   3   85.19    6.20
   0  12  -3   92.19    6.40
   0  12  -3   76.49    6.60
  -1 -12  -3   18.70    3.00
  -1 -12  -3   15.60    3.10
   1 -12   3   11.70    3.30
  -1 -12  -3   16.40    3.00
   1 -12   3   17.30    3.50
  -1  12  -3   15.10    3.60
  -1  12  -3   17.70    4.00
  -1  12  -3   19.80    3.40
   1  12   3   14.90    3.40
   1  12   3   26.00    4.10
  -1  12  -3   17.10    3.90
   1  12   3   20.40    3.60
   2 -12   3  345.67   17.60
   2 -12   3  389.26   16.50
  -2 -12  -3  365.16   14.50
  -2 -12  -3  364.86   14.80
  -2 -12  -3  383.86   14.70
   2 -12   3  357.66   16.20
   2  12   3  356.86   15.60
   2  12   3  345.87   14.90
   2  12   3  360.66   15.90
  -2  12  -3  352.56   17.80
  -2  12  -3  346.27   16.90
  -2  12  -3  420.96   18.30
   3 -12   3   70.79    9.50
   3 -12   3   74.59    8.70
  -3 -12  -3   50.29    6.00
   3 -12   3   63.09    8.10
  -3 -12  -3   68.59    6.90
  -3 -12  -3   60.69    6.60
  -3  12  -3   53.19    7.50
   3  12   3   58.39    6.70
   3  12   3   82.19    6.70
   3  12   3   69.89    7.50
  -3  12  -3   72.59    8.10
  -3  12  -3   62.89    8.20
  -3  12  -3   53.79    7.20
  -4 -12  -3  107.39    8.00
  -4 -12  -3  112.99    8.00
   4 -12   3  106.79   11.10
   4 -12   3  127.19   13.20
   4 -12   3  105.39   11.40
  -4  12  -3  115.29    9.60
   4  12   3  107.69    8.50
  -4  12  -3  127.19   10.50
  -4  12  -3  103.29   10.80
   4  12   3  110.99    8.50
  -4  12  -3  112.99    9.70
   4  12   3  104.59    8.10
  -5 -12  -3   15.90    4.10
   5 -12   3   16.50    5.20
   5 -12   3   13.70    5.00
   5 -12   3   24.40    5.90
  -5 -12  -3   12.80    3.60
  -5  12  -3   15.20    5.10
  -5  12  -3   16.40    4.80
   5  12   3   23.10    5.20
  -5  12  -3   16.00    4.60
   5  12   3   17.30    4.50
  -5  12  -3   10.30    4.40
   5  12   3   11.20    3.90
   4 -13  -3    7.90    3.30
   4 -13  -3    2.50    2.20
   4 -13  -3    4.70    2.60
  -4 -13   3    1.50    2.40
  -4 -13   3    1.60    1.90
  -4 -13   3    6.20    3.40
   4 -13  -3    3.00    2.50
  -4  13   3    4.20    2.40
  -4  13   3    1.90    2.00
   4  13  -3    1.10    2.70
   4  13  -3    1.70    2.70
  -4  13   3    6.30    2.90
   3 -13  -3    1.10    1.80
   3 -13  -3    1.60    1.70
   3 -13  -3    6.60    2.60
  -3 -13   3    2.30    2.10
  -3 -13   3    1.70    1.90
   3 -13  -3    1.80    1.90
  -3  13   3    3.00    2.00
   3  13  -3    4.10    2.50
  -3  13   3    1.90    1.70
  -3  13   3    3.60    2.20
  -3  13   3   -1.80    1.20
   3  13  -3    3.20    2.20
   2 -13  -3   62.99    6.40
   2 -13  -3   54.09    6.50
   2 -13  -3   52.29    6.00
  -2 -13   3   55.39    6.90
   2 -13  -3   57.99    6.40
  -2 -13   3   53.19    6.70
  -2  13   3   58.29    6.60
  -2  13   3   51.89    5.90
  -2  13   3   64.39    6.80
   2  13  -3   52.39    6.70
   2  13  -3   46.30    6.50
   2  13  -3   51.49    6.90
   1 -13  -3  193.58   10.10
  -1 -13   3  192.28   11.00
  -1 -13   3  191.38   11.10
   1 -13  -3  209.48   10.40
   1  13  -3  202.58   11.20
   1  13  -3  189.48   11.60
   1  13  -3  186.08   10.80
  -1  13   3  208.28   10.80
  -1  13   3  202.38   10.70
   0 -13   3   11.60    3.40
   0 -13  -3   10.10    2.50
   0 -13  -3   14.60    3.00
   0 -13  -3   22.50    4.00
   0 -13   3   12.00    3.10
   0  13   3   11.50    3.20
   0  13   3   14.90    3.00
   0  13   3   20.00    3.60
   0  13  -3   15.30    4.00
   0  13  -3    9.40    3.00
   0  13  -3   15.00    3.40
  -1 -13  -3   11.70    2.60
   1 -13   3    8.40    3.20
   1 -13   3   13.80    3.30
  -1 -13  -3   10.00    2.60
  -1 -13  -3    8.40    2.50
  -1  13  -3   12.20    3.70
  -1  13  -3   13.70    3.00
   1  13   3   13.00    3.30
  -1  13  -3   10.60    3.20
   1  13   3   10.30    3.00
   1  13   3   15.70    3.40
  -2 -13  -3  105.69    6.80
   2 -13   3   94.09   10.10
  -2 -13  -3  118.59    7.50
   2 -13   3  118.19    8.70
  -2 -13  -3  104.09    6.90
  -2  13  -3  103.19    8.70
   2  13   3  123.99    8.10
  -2  13  -3  104.79    8.70
  -2  13  -3  100.99    9.00
   2  13   3  109.89    7.60
   2  13   3  121.49    8.20
   3 -13   3   54.49    8.30
  -3 -13  -3   58.99    6.30
  -3 -13  -3   54.29    6.30
   3 -13   3   51.39    7.40
   3 -13   3   53.29    7.60
   3  13   3   47.00    6.30
  -3  13  -3   48.20    7.60
  -3  13  -3   61.79    8.70
   3  13   3   59.59    7.00
   3  13   3   49.99    6.40
  -3  13  -3   42.70    6.80
  -3  13  -3   60.29    8.40
   4 -13   3    6.70    3.50
   4 -13   3    1.90    3.40
   4 -13   3   10.80    4.60
  -4 -13  -3    6.80    3.00
  -4 -13  -3    6.70    2.70
   4  13   3    9.10    3.50
  -4  13  -3    9.50    4.10
  -4  13  -3    3.70    3.00
   4  13   3    5.90    2.80
   4  13   3   12.60    4.00
  -4  13  -3    6.00    3.50
  -4  13  -3    6.90    3.70
   4 -14  -3    3.50    2.90
  -4 -14   3   10.00    3.90
   4 -14  -3    7.60    3.30
   4 -14  -3    6.80    3.20
   4 -14  -3    8.00    3.70
  -4 -14   3    5.80    3.70
  -4 -14   3    7.20    3.00
  -4  14   3    3.40    2.70
  -4  14   3    6.00    2.80
   4  14  -3    6.50    3.80
  -4  14   3    4.20    2.80
   4  14  -3   11.60    4.40
   3 -14  -3   17.90    4.40
   3 -14  -3   16.60    4.00
   3 -14  -3    8.30    3.10
  -3 -14   3   11.20    3.30
  -3 -14   3    7.60    3.10
   3 -14  -3   14.60    3.90
  -3  14   3   12.00    3.40
   3  14  -3   11.40    3.80
  -3  14   3   11.50    3.40
   3  14  -3    5.30    3.20
  -2 -14   3  107.79    8.50
   2 -14  -3  135.49    8.60
   2 -14  -3  106.19    8.00
  -2 -14   3  122.09    8.80
   2  14  -3  116.69    9.10
   2  14  -3  115.09    9.30
  -2  14   3  119.29    8.10
  -2  14   3  109.99    8.10
   1 -14  -3   13.20    3.10
  -1 -14   3    8.10    3.00
   1 -14  -3   20.50    3.90
  -1 -14   3    8.30    3.10
   1  14  -3   11.50    3.30
   1  14  -3   14.40    4.00
  -1  14   3   13.70    3.30
  -1  14   3   14.00    3.40
   1  14  -3   11.40    3.40
   0 -14  -3    1.50    1.60
   0 -14  -3    2.20    1.70
   0 -14   3   -1.50    1.70
   0 -14  -3    2.60    1.60
   0  14   3    2.50    1.80
   0  14  -3    1.80    2.20
   0  14  -3    2.40    1.90
   0  14   3    2.60    2.00
  -1 -14  -3   50.49    5.50
  -1 -14  -3   57.39    5.90
   1 -14   3   45.70    7.30
  -1 -14  -3   58.09    6.40
   1 -14   3   46.80    6.30
  -1  14  -3   47.40    7.40
   1  14   3   42.60    5.80
   1  14   3   55.49    6.10
  -1  14  -3   45.30    6.70
   1  14   3   40.20    5.60
   2 -14   3   24.00    5.00
   2 -14   3   17.90    5.10
  -2 -14  -3   24.50    4.10
  -2 -14  -3   16.70    3.70
  -2  14  -3   20.50    4.80
   2  14   3   15.50    3.60
   2  14   3   15.10    3.50
  -2  14  -3   10.30    3.60
   2  14   3   13.80    3.50
  -3 -14  -3   49.00    6.00
  -3 -14  -3   37.20    5.30
   3 -14   3   53.29    8.80
   3 -14   3   37.40    6.50
   3  14   3   37.40    5.80
   3  14   3   40.70    6.30
  -3  14  -3   39.40    7.00
   3  14   3   46.60    6.20
  -3  14  -3   35.30    6.80
  -3  14  -3   31.60    6.30
  -4 -14  -3  118.79    8.40
   4 -14   3  114.09   12.30
   4 -14   3  115.19   12.40
  -4 -14  -3   98.59    7.80
   4 -14   3  107.19   12.50
   4  14   3  110.79   10.50
  -4  14  -3  126.09   11.00
   4  14   3  105.89    9.00
  -4  14  -3   86.89   10.60
   4  14   3  103.49    8.70
  -4  14  -3  110.49   12.20
  -3 -15   3   43.40    6.30
   3 -15  -3   50.49    6.90
   3 -15  -3   54.09    7.20
  -3 -15   3   58.89    8.00
  -3  15   3   54.09    6.90
   3  15  -3   40.70    7.10
   3  15  -3   50.39    7.70
   2 -15  -3  138.69    9.40
   2 -15  -3  133.39    9.20
  -2 -15   3  117.19    9.30
  -2 -15   3  128.69    9.70
   2  15  -3  134.89   10.30
  -2  15   3  139.39    9.40
   2  15  -3  119.49    9.50
  -2  15   3  142.49    9.00
   1 -15  -3    2.90    2.00
  -1 -15   3    5.10    2.90
   1 -15  -3    5.20    2.50
   1  15  -3    3.90    2.90
   1  15  -3    3.70    2.70
  -1  15   3    4.60    2.40
  -1  15   3    1.30    2.20
   0 -15   3   19.00    4.70
   0 -15  -3   30.40    4.50
   0 -15  -3   24.40    4.30
   0  15   3   24.70    4.50
   0  15   3   23.40    4.30
   0  15  -3   40.40    5.80
   0  15  -3   33.00    6.00
  -1 -15  -3   26.80    4.40
   1 -15   3   26.80    5.70
  -1 -15  -3   18.60    3.50
  -1  15  -3   17.90    4.90
   1  15   3   22.70    4.40
   1  15   3   29.30    4.90
   2 -15   3   49.99    8.10
  -2 -15  -3   52.69    6.10
   2 -15   3   60.79    8.20
  -2 -15  -3   53.19    6.40
   2  15   3   55.89    6.80
   2  15   3   61.99    7.50
   2  15   3   47.40    6.30
  -2  15  -3   50.59    7.80
  -2  15  -3   35.90    6.30
   3 -15   3   76.59    9.70
  -3 -15  -3   63.69    7.10
  -3 -15  -3   66.09    7.20
   3 -15   3   57.79    8.80
   3  15   3   62.89    7.60
  -3  15  -3   73.59    9.90
   3  15   3   75.09    8.00
  -3  15  -3   55.59    8.30
   3  15   3   56.79    7.60
   2 -16  -3   64.39    7.70
  -2 -16   3   49.60    7.20
  -2 -16   3   43.90    6.80
   2 -16  -3   52.49    6.90
   2  16  -3   49.90    7.50
  -2  16   3   42.40    6.20
   2  16  -3   55.09    8.00
   1 -16  -3   65.79    7.30
   1 -16  -3   62.09    7.50
  -1 -16   3   58.59    7.90
  -1  16   3   54.79    6.80
   1  16  -3   68.39    8.40
  -1  16   3   64.39    7.40
   0 -16  -3  117.09    8.40
   0 -16   3  103.69   11.40
   0  16  -3  114.89    9.90
   0  16   3  104.79    8.30
   0  16  -3  116.79    8.90
   0  16   3  123.59    8.80
  -1 -16  -3   -0.10    1.80
  -1 -16  -3    2.80    2.20
   1 -16   3    0.10    2.60
  -1  16  -3    0.20    2.40
   1  16   3   -0.70    1.70
   1  16   3    2.00    2.30
  -2 -16  -3   86.89    7.10
  -2 -16  -3   70.59    7.30
   2 -16   3   67.69    9.90
   2  16   3   87.89    7.40
   2  16   3   75.59    8.40
  -2  16  -3   69.99    9.30
   2  16   3   83.09    8.70
   7   0  -4  199.68   12.40
   7   0  -4  206.48   12.30
  -7   0   4  184.58   13.30
  -7   0   4  195.98   13.60
   7   0  -4  207.08   13.20
  -6   0   4   51.29    6.70
   6   0  -4   57.29    6.80
   6   0  -4   42.10    5.90
  -6   0   4   59.69    8.20
   6   0  -4   41.70    5.60
   6   0  -4   49.99    7.20
  -6   0   4   59.19    8.30
  -5   0   4  982.20   34.00
   5   0  -4 1008.60   34.20
  -5   0   4  986.80   34.00
   5   0  -4  979.90   33.80
   5   0  -4  983.50   31.60
  -5   0   4  992.80   35.40
   5   0  -4  965.80   34.90
   4   0  -4 1734.33   53.19
  -4   0   4 1664.93   50.79
   4   0  -4 1677.13   52.59
  -4   0   4 1729.33   53.89
   4   0  -4 1752.12   54.49
   4   0  -4 1715.23   49.40
  -4   0   4 1711.63   53.09
  -3   0   4  135.89    8.00
   3   0  -4  123.09    7.80
  -3   0   4  127.99    4.90
   3   0  -4  129.99    5.60
   3   0  -4  139.59    6.50
   3   0  -4  132.09    7.70
   3   0  -4  134.09    8.40
  -3   0   4  147.59    8.70
  -3   0   4  150.78    8.90
  -2   0   4 2017.20   60.09
   2   0  -4 1964.60   60.19
   2   0  -4 1996.20   59.49
   2   0  -4 2019.10   51.89
  -2   0   4 1933.71   55.19
   2   0  -4 2014.00   59.59
   2   0  -4 1987.80   55.79
  -2   0   4 2027.60   59.49
  -2   0   4 2014.50   54.19
   1   0  -4 1891.81   53.49
  -1   0   4 1971.20   51.89
   1   0  -4 1900.81   49.60
  -1   0   4 1881.81   52.59
  -1   0   4 1814.22   56.99
   1   0  -4 1872.51   56.59
   1   0  -4 1895.21   56.39
  -1   0   4 1912.81   55.99
   1   0  -4 1981.30   57.19
   0   0  -4  790.12   26.30
   0   0  -4  794.22   26.20
   0   0   4  765.42   24.70
   0   0   4  782.22   26.90
   0   0  -4  807.82   25.10
   0   0  -4  827.02   23.00
   0   0   4  790.92   25.80
   0   0   4  793.62   23.40
   0   0  -4  800.82   26.60
   1   0   4 1305.97   39.70
  -1   0  -4 1218.98   38.30
  -1   0  -4 1228.48   37.70
   1   0   4 1218.48   37.10
  -1   0  -4 1315.47   36.00
   1   0   4 1243.38   33.20
   1   0   4 1238.38   37.90
  -1   0  -4 1238.98   38.40
  -1   0  -4 1193.18   39.00
   2   0   4 1879.61   56.39
  -2   0  -4 1947.41   54.09
   2   0   4 1910.71   57.59
   2   0   4 1958.70   53.99
  -2   0  -4 1919.31   56.19
  -2   0  -4 1783.72   55.69
  -2   0  -4 1859.61   56.29
   2   0   4 1925.01   48.10
  -2   0  -4 1884.91   57.39
  -3   0  -4  226.38   10.80
   3   0   4  240.88   11.30
  -3   0  -4  219.08   11.30
  -3   0  -4  233.38   11.60
  -3   0  -4  207.68   10.00
   3   0   4  231.88    9.00
   3   0   4  209.28   11.80
  -3   0  -4  217.28   11.40
   4   0   4  639.04   19.90
  -4   0  -4  612.24   22.70
  -4   0  -4  628.94   22.10
  -4   0  -4  634.04   24.10
   4   0   4  598.14   24.80
   4   0   4  619.64   22.80
  -4   0  -4  624.74   23.90
  -4   0  -4  605.04   24.00
   4   0   4  633.34   24.20
   5   0   4  351.26   18.20
  -5   0  -4  365.96   15.90
   5   0   4  341.97   17.40
  -5   0  -4  350.06   17.20
  -5   0  -4  331.37   17.10
   5   0   4  364.16   15.50
  -5   0  -4  342.97   16.60
  -5   0  -4  353.06   14.90
   6   0   4   17.30    5.20
  -6   0  -4   11.10    3.80
  -6   0  -4   13.00    4.50
   6   0   4   21.70    5.50
  -6   0  -4   17.80    4.70
   6   0   4   14.10    3.40
  -6   0  -4   18.60    4.20
  -7   0  -4  317.17   17.70
   7   0   4  336.17   19.60
  -7   0  -4  344.67   19.00
  -7   0  -4  334.87   19.30
  -7  -1   4    4.80    3.20
  -7  -1   4    3.20    2.70
   7  -1  -4    3.00    2.40
  -7  -1   4    6.80    3.60
   7  -1  -4    3.00    2.50
   7  -1  -4    2.80    2.60
   7   1  -4    3.90    2.60
  -7   1   4    4.60    3.40
  -7   1   4    7.90    3.60
   7   1  -4    5.30    2.50
   7   1  -4    2.20    2.50
   6  -1  -4   22.10    4.50
   6  -1  -4   25.20    4.90
  -6  -1   4   20.10    4.70
  -6  -1   4   25.30    4.80
   6  -1  -4   21.90    4.30
  -6  -1   4   26.30    5.40
   6  -1  -4   29.80    5.40
   6   1  -4   22.30    4.40
  -6   1   4   17.70    4.50
  -6   1   4   32.60    5.20
  -6   1   4   20.60    5.00
   6   1  -4   16.50    3.70
   6   1  -4   21.80    4.30
   5  -1  -4   46.40    5.90
   5  -1  -4   58.89    6.20
  -5  -1   4   50.49    6.90
  -5  -1   4   52.89    6.60
   5  -1  -4   54.49    6.40
  -5  -1   4   51.49    7.20
   5  -1  -4   57.99    7.20
   5   1  -4   77.39    5.40
   5   1  -4   57.99    7.40
   5   1  -4   53.79    6.30
  -5   1   4   53.69    7.30
   5   1  -4   70.29    7.30
  -5   1   4   51.19    6.10
   5   1  -4   66.09    7.80
  -5   1   4   54.19    6.90
   4  -1  -4   90.49    5.60
   4  -1  -4  101.79    5.70
  -4  -1   4   68.89    7.40
  -4  -1   4   71.49    6.10
   4  -1  -4   94.19    7.40
  -4  -1   4   80.09    8.50
   4  -1  -4   84.19    6.70
   4  -1  -4   89.49    6.50
   4   1  -4   62.79    5.60
   4   1  -4   70.69    7.50
  -4   1   4   76.79    6.10
  -4   1   4   87.79    8.50
   4   1  -4   74.09    6.20
  -4   1   4   79.99    6.90
   4   1  -4   82.59    5.10
   4   1  -4   78.09    8.20
   3  -1  -4    7.40    1.80
  -3  -1   4    7.20    1.30
  -3  -1   4    3.80    1.80
   3  -1  -4    9.10    1.70
   3  -1  -4    9.10    2.30
   3  -1  -4    8.20    2.50
  -3  -1   4    8.10    2.30
   3  -1  -4    3.80    1.90
  -3  -1   4    6.00    2.40
  -3   1   4    8.80    2.50
   3   1  -4    7.80    2.60
   3   1  -4    6.50    2.20
   3   1  -4    5.00    2.00
  -3   1   4    5.40    2.10
  -3   1   4    9.10    2.50
   3   1  -4    7.80    1.70
   3   1  -4    8.60    2.40
  -2  -1   4   92.29    6.40
   2  -1  -4  114.99    7.10
  -2  -1   4   86.59    6.20
   2  -1  -4  106.19    6.70
   2  -1  -4  113.09    4.40
   2  -1  -4  118.49    6.90
  -2  -1   4   92.79    4.60
  -2  -1   4   95.49    6.70
   2  -1  -4  117.09    5.70
  -2   1   4  108.59    6.70
   2   1  -4   94.39    5.00
   2   1  -4   98.59    6.50
   2   1  -4   97.29    6.50
   2   1  -4   86.69    6.50
   2   1  -4   91.09    6.20
  -2   1   4  100.89    6.90
  -2   1   4  114.79    6.80
   2   1  -4   99.79    3.70
  -2   1   4  109.49    4.00
   1  -1  -4  300.67   12.60
  -1  -1   4  312.87   13.00
  -1  -1   4  301.97   11.00
   1  -1  -4  302.97    9.60
   1  -1  -4  282.87   12.60
  -1  -1   4  298.97   11.90
  -1  -1   4  320.77   13.00
   1  -1  -4  287.37   12.50
   1  -1  -4  280.47   11.20
   1   1  -4  308.67   12.70
  -1   1   4  302.07   10.40
   1   1  -4  298.17   11.00
  -1   1   4  299.27   12.90
   1   1  -4  304.37   12.80
   1   1  -4  331.87   13.40
  -1   1   4  321.17   13.00
  -1   1   4  306.67   11.90
   1   1  -4  307.57    9.00
   0  -1  -4  343.27   13.70
   0  -1  -4  364.76   13.70
   0  -1   4  332.47   12.80
   0  -1   4  344.87   13.20
   0  -1  -4  346.87   11.50
   0  -1  -4  339.07   13.40
   0  -1  -4  340.07   12.80
   0  -1   4  332.27   13.90
   0  -1   4  321.97   11.70
   0   1  -4  328.67   13.60
   0   1  -4  330.37   13.60
   0   1   4  328.27   14.00
   0   1  -4  337.67   12.70
   0   1  -4  337.47   11.20
   0   1   4  354.86   12.10
   0   1   4  323.37   12.30
   0   1  -4  342.57   13.80
   0   1   4  363.26   13.60
  -1  -1  -4   57.19    4.30
  -1  -1  -4   59.59    4.70
   1  -1   4   65.39    5.20
   1  -1   4   61.49    3.40
  -1  -1  -4   55.89    4.50
   1  -1   4   65.99    4.40
   1  -1   4   72.99    5.40
  -1  -1  -4   68.49    4.70
  -1  -1  -4   61.29    4.90
  -1   1  -4   63.19    4.80
   1   1   4   62.29    4.90
  -1   1  -4   67.19    4.60
   1   1   4   62.09    3.60
  -1   1  -4   68.79    5.10
   1   1   4   67.19    5.30
   1   1   4   63.59    4.50
  -1   1  -4   77.29    5.50
  -1   1  -4   58.39    4.70
   2  -1   4  254.97    7.40
  -2  -1  -4  242.78   11.00
  -2  -1  -4  257.17   11.70
  -2  -1  -4  243.18   10.40
  -2  -1  -4  239.18   11.40
   2  -1   4  256.07    9.70
   2  -1   4  243.78   11.40
  -2  -1  -4  249.28   11.00
   2  -1   4  219.08   11.60
   2  -1   4  248.18   11.30
  -2   1  -4  242.08   11.20
  -2   1  -4  245.48   11.50
   2   1   4  249.97    8.00
  -2   1  -4  244.48   11.70
   2   1   4  248.98   11.70
  -2   1  -4  248.08   11.00
   2   1   4  257.27   10.10
   2   1   4  252.77   11.90
  -2   1  -4  262.87   11.50
  -3  -1  -4  158.18    9.40
  -3  -1  -4  168.78    8.70
  -3  -1  -4  152.18    9.00
   3  -1   4  174.08    9.20
  -3  -1  -4  158.48    9.30
   3  -1   4  172.68    9.80
  -3  -1  -4  163.78    8.10
   3  -1   4  171.88   10.40
   3  -1   4  180.28    7.10
   3   1   4  157.98    9.00
   3   1   4  156.58    7.30
   3   1   4  162.88    5.80
  -3   1  -4  169.78    8.80
  -3   1  -4  170.68    9.60
  -3   1  -4  166.78    9.10
   3   1   4  151.98    9.70
  -3   1  -4  158.68    9.40
  -3   1  -4  170.08    9.80
   4  -1   4   16.10    4.00
  -4  -1  -4   16.00    2.90
  -4  -1  -4   12.00    2.80
  -4  -1  -4   11.70    3.60
   4  -1   4   15.70    3.40
   4  -1   4   12.80    2.20
  -4  -1  -4   13.00    3.50
  -4  -1  -4   18.50    4.00
   4  -1   4   10.80    3.30
   4   1   4   14.70    2.50
  -4   1  -4   19.60    4.20
  -4   1  -4   17.20    4.00
   4   1   4   14.10    3.10
  -4   1  -4   14.80    3.30
   4   1   4   10.50    3.50
  -4   1  -4   17.40    4.30
  -4   1  -4   14.80    3.10
  -5  -1  -4   28.00    4.40
   5  -1   4   25.20    4.30
  -5  -1  -4   27.60    5.10
   5  -1   4   28.40    5.40
   5  -1   4   21.00    5.10
  -5  -1  -4   28.40    4.10
  -5  -1  -4   20.70    4.70
  -5  -1  -4   30.70    5.50
   5   1   4   23.60    4.20
  -5   1  -4   27.20    4.40
   5   1   4   26.20    5.70
  -5   1  -4   29.70    5.90
  -5   1  -4   20.30    4.70
  -5   1  -4   18.90    4.10
  -5   1  -4   28.90    5.40
  -6  -1  -4    5.30    2.50
  -6  -1  -4    3.40    2.90
  -6  -1  -4    6.10    3.00
   6  -1   4    8.40    3.80
   6  -1   4    7.80    2.60
   6  -1   4    8.50    3.80
  -6  -1  -4    2.70    2.50
  -6   1  -4    3.40    2.40
  -6   1  -4    3.20    2.80
   6   1   4    4.50    2.30
  -6   1  -4    5.50    2.40
  -6   1  -4    0.50    2.00
   6   1   4    3.00    2.70
  -6   1  -4    5.20    3.00
  -7  -1  -4   38.10    7.40
  -7  -1  -4   36.50    7.50
   7  -1   4   47.00    8.50
   7  -1   4   53.49    9.70
  -7  -1  -4   34.70    6.90
   7   1   4   53.19    9.20
  -7   1  -4   38.10    7.80
  -7   1  -4   31.90    7.20
  -7   1  -4   54.99    7.60
  -7   1  -4   34.00    6.90
   7   1   4   38.20    5.80
   7  -2  -4   33.70    6.10
   7  -2  -4   49.50    7.40
   7  -2  -4   46.10    7.20
  -7  -2   4   30.10    6.60
  -7  -2   4   42.00    6.70
   7  -2  -4   42.70    6.90
  -7  -2   4   32.70    6.60
   7   2  -4   37.30    7.40
   7   2  -4   37.70    6.00
  -7   2   4   52.79    7.90
  -7   2   4   29.00    6.50
   7   2  -4   36.40    5.80
   7   2  -4   30.50    5.80
  -6  -2   4    1.10    1.90
   6  -2  -4    3.70    2.30
   6  -2  -4   -0.40    1.80
  -6  -2   4    2.40    2.10
   6  -2  -4    0.40    1.60
   6  -2  -4    3.40    2.20
  -6  -2   4    1.40    2.20
   6   2  -4    2.70    2.00
   6   2  -4    1.20    1.70
  -6   2   4   -1.50    1.70
   6   2  -4    2.10    1.90
  -6   2   4    3.10    2.40
   6   2  -4    2.20    2.40
   5  -2  -4   72.79    6.40
  -5  -2   4   68.69    8.30
   5  -2  -4   68.99    7.50
  -5  -2   4   85.19    6.90
   5  -2  -4   67.59    5.70
   5  -2  -4   84.99    8.80
  -5  -2   4   78.39    9.00
  -5   2   4   68.29    8.00
   5   2  -4   65.09    7.90
  -5   2   4   76.89    6.30
  -5   2   4   67.29    8.00
   5   2  -4   78.89    9.00
   5   2  -4   72.89    6.40
   5   2  -4   80.79    6.40
  -4  -2   4   27.60    4.90
  -4  -2   4   24.00    4.60
   4  -2  -4   34.10    5.00
   4  -2  -4   28.10    4.70
  -4  -2   4   24.40    2.60
   4  -2  -4   25.90    3.50
   4  -2  -4   35.20    5.10
  -4  -2   4   30.40    4.70
   4  -2  -4   29.00    4.00
   4   2  -4   29.10    3.40
  -4   2   4   31.30    4.60
   4   2  -4   41.00    5.10
  -4   2   4   24.10    4.40
   4   2  -4   28.90    5.10
   4   2  -4   30.70    4.50
   4   2  -4   19.60    4.40
  -4   2   4   24.90    4.40
   3  -2  -4   10.60    2.50
  -3  -2   4   11.60    2.90
  -3  -2   4    3.00    1.80
   3  -2  -4    4.20    1.30
   3  -2  -4    5.70    1.60
   3  -2  -4    6.10    2.10
  -3  -2   4    3.40    2.00
  -3  -2   4    5.70    1.30
   3  -2  -4    4.40    2.00
   3   2  -4    6.20    2.10
   3   2  -4    3.90    2.00
   3   2  -4    4.90    1.30
   3   2  -4    6.60    2.40
  -3   2   4    5.70    2.30
  -3   2   4    6.00    2.00
  -3   2   4    6.40    2.20
   3   2  -4    6.60    2.30
  -2  -2   4  487.15   18.00
   2  -2  -4  454.15   13.90
   2  -2  -4  445.46   15.60
  -2  -2   4  459.35   17.90
  -2  -2   4  482.25   14.90
   2  -2  -4  443.86   17.70
  -2  -2   4  452.05   16.90
   2  -2  -4  421.06   17.10
   2  -2  -4  460.75   17.50
   2   2  -4  468.05   18.40
  -2   2   4  469.55   17.60
  -2   2   4  433.86   16.60
   2   2  -4  475.65   17.80
   2   2  -4  470.65   17.30
  -2   2   4  446.06   17.80
   2   2  -4  453.25   14.80
   2   2  -4  475.85   17.10
   1  -2  -4  316.27   13.00
   1  -2  -4  316.27   10.10
   1  -2  -4  294.07   12.70
   1  -2  -4  323.67   11.90
  -1  -2   4  304.67   13.20
  -1  -2   4  315.57   12.20
  -1  -2   4  311.67   13.10
  -1  -2   4  323.77   11.60
   1   2  -4  317.47   12.90
   1   2  -4  318.97    9.00
   1   2  -4  317.87   13.20
  -1   2   4  299.27   13.10
   1   2  -4  316.17   13.50
   1   2  -4  305.87   11.10
  -1   2   4  298.87   10.10
  -1   2   4  319.17   12.10
  -1   2   4  298.97   13.00
   1   2  -4  319.97   12.20
   0  -2  -4   11.20    2.30
   0  -2   4   10.80    2.30
   0  -2  -4   14.40    2.60
   0  -2   4   11.30    2.40
   0  -2   4   14.00    2.20
   0  -2   4   14.20    3.00
   0  -2  -4    8.80    1.70
   0  -2  -4   15.00    2.80
   0  -2  -4   16.60    2.80
   0   2   4   11.30    2.60
   0   2  -4   15.60    2.50
   0   2   4   14.20    2.40
   0   2  -4   11.80    2.40
   0   2  -4   15.80    2.80
   0   2   4    9.90    2.40
   0   2  -4   12.40    1.90
   0   2   4   11.20    2.10
   0   2  -4   12.40    2.60
   1  -2   4  295.27   11.50
   1  -2   4  304.57   13.20
  -1  -2  -4  305.67   12.80
   1  -2   4  297.37   10.00
  -1  -2  -4  320.57   12.10
  -1  -2  -4  314.87   12.40
   1  -2   4  291.17   12.90
  -1  -2  -4  303.67   11.60
  -1   2  -4  309.47   13.30
   1   2   4  305.27   13.30
   1   2   4  301.57   12.20
   1   2   4  309.37   10.50
  -1   2  -4  307.37   11.80
  -1   2  -4  330.97   13.30
  -1   2  -4  308.37   12.50
  -1   2  -4  317.57   13.20
   1   2   4  313.77   12.50
   2  -2   4    6.80    2.30
   2  -2   4    5.20    2.00
   2  -2   4    8.40    0.90
  -2  -2  -4    8.90    2.10
   2  -2   4    6.80    1.50
  -2  -2  -4    9.00    2.40
   2  -2   4    6.90    2.30
  -2  -2  -4    5.80    1.90
  -2  -2  -4    9.00    1.90
  -2  -2  -4    4.80    1.90
  -2   2  -4    7.50    2.20
   2   2   4    9.10    1.50
   2   2   4    9.20    2.60
  -2   2  -4    7.40    2.40
  -2   2  -4    8.30    2.30
  -2   2  -4    4.80    1.80
   2   2   4    9.90    2.10
   2   2   4    6.50    2.20
  -2   2  -4    6.40    2.00
   3  -2   4   40.70    5.60
   3  -2   4   39.60    5.90
  -3  -2  -4   33.20    4.30
  -3  -2  -4   37.00    5.10
  -3  -2  -4   28.00    4.20
  -3  -2  -4   29.80    3.50
   3  -2   4   36.10    4.70
   3  -2   4   36.30    2.60
  -3  -2  -4   36.00    5.00
  -3   2  -4   29.70    4.50
   3   2   4   32.20    2.30
   3   2   4   28.50    4.80
  -3   2  -4   35.60    4.60
  -3   2  -4   35.20    5.00
   3   2   4   27.40    4.20
  -3   2  -4   35.80    4.90
   3   2   4   32.20    3.60
  -3   2  -4   31.60    4.40
   4  -2   4  432.76   18.90
  -4  -2  -4  417.56   17.70
   4  -2   4  406.96   19.30
   4  -2   4  429.96   17.00
  -4  -2  -4  425.86   15.70
  -4  -2  -4  420.76   16.60
  -4  -2  -4  411.06   18.10
  -4   2  -4  418.76   18.50
  -4   2  -4  416.26   18.50
  -4   2  -4  431.36   17.80
  -4   2  -4  445.26   17.50
   4   2   4  402.16   18.60
   4   2   4  420.56   15.10
  -4   2  -4  443.06   18.80
   4   2   4  419.36   17.50
  -5  -2  -4   74.79    6.00
  -5  -2  -4   82.19    9.20
  -5  -2  -4   80.59    9.10
   5  -2   4   62.49    8.20
   5  -2   4   61.49    8.40
  -5  -2  -4   67.09    7.60
   5  -2   4   80.79    6.10
  -5   2  -4   67.19    8.10
  -5   2  -4   79.39    8.80
  -5   2  -4   69.89    8.80
   5   2   4   61.49    4.80
   5   2   4   56.79    7.60
  -5   2  -4   81.59    7.10
   5   2   4   67.49    6.00
  -5   2  -4   74.19    6.20
  -6  -2  -4    3.20    2.80
   6  -2   4    3.60    3.30
  -6  -2  -4    4.80    3.10
   6  -2   4    4.10    3.10
  -6  -2  -4    7.40    3.20
  -6   2  -4    8.90    2.90
  -6   2  -4    8.90    3.70
  -6   2  -4    6.40    3.20
  -6   2  -4    4.60    2.90
  -6   2  -4    6.30    3.70
   6   2   4    6.30    2.60
   6   2   4    8.10    3.80
   7  -2   4   43.10    8.30
  -7  -2  -4   45.90    7.30
  -7  -2  -4   39.50    7.40
   7  -2   4   42.40    8.10
  -7  -2  -4   35.90    7.00
   7   2   4   38.20    5.90
  -7   2  -4   45.10    8.30
  -7   2  -4   35.60    7.10
   7   2   4   41.80    8.10
  -7   2  -4   45.30    7.00
  -7   2  -4   49.00    8.60
   7  -3  -4   32.20    6.10
  -7  -3   4   20.10    5.70
   7  -3  -4   23.30    5.10
  -7  -3   4   16.50    5.20
   7  -3  -4   21.50    5.10
   7  -3  -4   34.50    6.30
  -7  -3   4   23.30    5.40
   7   3  -4   28.20    5.10
  -7   3   4   26.60    5.70
  -7   3   4   25.50    5.60
  -7   3   4   24.00    5.50
   7   3  -4   26.80    5.60
   7   3  -4   24.90    6.30
  -6  -3   4   33.80    6.40
  -6  -3   4   28.60    5.90
   6  -3  -4   23.20    4.90
   6  -3  -4   33.80    5.90
  -6  -3   4   26.80    5.10
   6  -3  -4   30.20    5.40
   6  -3  -4   20.00    4.40
   6   3  -4   32.50    5.20
   6   3  -4   28.70    4.70
   6   3  -4   39.00    7.10
  -6   3   4   29.50    5.90
  -6   3   4   36.90    6.20
   6   3  -4   28.90    5.70
   5  -3  -4   39.90    5.30
   5  -3  -4   47.40    6.10
  -5  -3   4   36.30    6.10
   5  -3  -4   37.80    5.20
   5  -3  -4   40.60    5.50
  -5  -3   4   42.50    6.60
   5  -3  -4   37.10    5.70
  -5  -3   4   41.50    5.90
   5   3  -4   35.70    6.00
  -5   3   4   33.50    5.60
  -5   3   4   35.10    5.00
  -5   3   4   48.70    6.80
   5   3  -4   40.20    5.60
   5   3  -4   43.70    6.60
   5   3  -4   42.50    5.30
   4  -3  -4   19.20    3.20
  -4  -3   4   15.30    3.40
  -4  -3   4   19.70    2.50
   4  -3  -4   24.50    4.20
   4  -3  -4   15.80    3.60
  -4  -3   4   17.20    4.00
  -4  -3   4   21.20    4.30
   4  -3  -4   14.00    2.80
   4  -3  -4   16.40    3.50
   4   3  -4   19.00    4.10
  -4   3   4   11.50    3.20
   4   3  -4   18.10    3.40
  -4   3   4   18.00    3.60
   4   3  -4   25.70    4.40
   4   3  -4   21.20    4.50
  -4   3   4   17.80    4.00
   4   3  -4   15.80    2.40
  -3  -3   4  176.88    9.50
   3  -3  -4  151.98    8.80
  -3  -3   4  166.78    6.80
  -3  -3   4  175.78    9.90
   3  -3  -4  148.09    9.10
   3  -3  -4  159.98    6.90
  -3  -3   4  148.79    9.20
   3  -3  -4  146.89    7.60
   3  -3  -4  149.69    8.70
   3   3  -4  156.18    8.90
   3   3  -4  152.18    9.40
  -3   3   4  174.08    8.90
   3   3  -4  173.48    8.70
   3   3  -4  165.38    9.50
   3   3  -4  159.68    6.60
  -3   3   4  162.18    9.50
  -3   3   4  154.78    9.00
   2  -3  -4  415.36   13.30
  -2  -3   4  429.66   16.90
   2  -3  -4  422.76   16.80
  -2  -3   4  427.76   14.20
  -2  -3   4  401.46   16.00
   2  -3  -4  428.16   15.10
  -2  -3   4  391.86   16.60
   2  -3  -4  412.26   16.40
   2  -3  -4  444.66   16.70
   2   3  -4  414.26   16.00
   2   3  -4  440.46   16.80
  -2   3   4  429.26   17.00
   2   3  -4  423.76   16.20
  -2   3   4  453.25   16.80
   2   3  -4  418.46   17.20
   2   3  -4  418.66   13.60
  -1  -3   4  262.57   12.10
  -1  -3   4  261.47   11.80
  -1  -3   4  271.97   10.60
   1  -3  -4  275.67   11.80
   1  -3  -4  291.77   11.90
   1  -3  -4  277.67   10.90
  -1  -3   4  258.27   11.00
   1  -3  -4  268.17    9.30
   1   3  -4  270.67    7.70
   1   3  -4  267.97    9.90
   1   3  -4  279.27   11.20
   1   3  -4  264.37   12.30
  -1   3   4  272.77   12.10
  -1   3   4  288.87   11.30
   1   3  -4  265.07   11.90
   1   3  -4  270.17   11.70
  -1   3   4  286.97    8.70
  -1   3   4  294.57   12.40
   0  -3  -4  169.88    8.10
   0  -3  -4  172.08    8.20
   0  -3   4  146.99    7.10
   0  -3   4  163.48    8.70
   0  -3  -4  189.58    8.80
   0  -3   4  169.58    8.20
   0  -3  -4  175.38    7.10
   0  -3   4  164.28    8.10
   0  -3  -4  164.98    7.90
   0   3   4  171.08    7.10
   0   3  -4  169.78    7.60
   0   3  -4  156.68    6.60
   0   3   4  167.18    8.60
   0   3  -4  144.69    8.20
   0   3   4  171.88    9.00
   0   3  -4  168.48    8.90
   0   3   4  159.18    7.30
   0   3  -4  158.28    8.50
   0   3  -4  157.18    7.20
   1  -3   4   71.09    5.40
  -1  -3  -4   61.19    4.30
   1  -3   4   75.29    4.60
   1  -3   4   74.39    4.90
  -1  -3  -4   66.19    5.00
  -1  -3  -4   73.79    5.30
  -1  -3  -4   60.19    4.40
  -1  -3  -4   65.09    4.70
   1  -3   4   71.09    5.60
   1  -3   4   70.59    3.70
  -1   3  -4   69.69    5.10
  -1   3  -4   86.89    5.30
   1   3   4   63.29    5.30
   1   3   4   70.69    4.90
  -1   3  -4   72.79    5.60
  -1   3  -4   65.49    5.30
  -1   3  -4   77.69    5.60
   1   3   4   66.89    4.90
   1   3   4   71.59    4.10
  -2  -3  -4   17.30    3.20
  -2  -3  -4   13.90    2.20
   2  -3   4   16.30    3.30
  -2  -3  -4    8.80    2.30
   2  -3   4   15.60    3.10
   2  -3   4   15.40    3.40
  -2  -3  -4   16.00    3.10
  -2  -3  -4   10.60    2.30
   2  -3   4   13.90    2.10
  -2   3  -4   13.20    2.90
  -2   3  -4   12.40    2.80
   2   3   4   13.60    2.90
   2   3   4   11.40    2.40
  -2   3  -4   14.10    2.90
  -2   3  -4    9.20    2.60
  -2   3  -4   19.00    3.50
   2   3   4   15.10    2.10
   2   3   4   23.00    3.90
   3  -3   4   42.50    5.20
  -3  -3  -4   27.30    4.20
   3  -3   4   23.80    2.00
  -3  -3  -4   23.90    4.10
   3  -3   4   32.60    5.20
  -3  -3  -4   25.70    3.10
  -3  -3  -4   25.60    4.40
  -3  -3  -4   33.10    4.00
   3  -3   4   24.40    4.60
  -3   3  -4   26.70    4.20
  -3   3  -4   22.80    4.20
  -3   3  -4   30.00    4.90
   3   3   4   23.70    3.90
  -3   3  -4   33.50    5.00
   3   3   4   23.80    3.30
   3   3   4   23.10    4.40
   3   3   4   24.70    2.60
  -3   3  -4   22.60    3.80
  -4  -3  -4   71.49    8.00
   4  -3   4   78.09    8.80
   4  -3   4   63.59    5.40
   4  -3   4   55.99    7.50
  -4  -3  -4   74.79    7.80
  -4  -3  -4   59.29    5.00
  -4  -3  -4   64.79    7.00
   4   3   4   52.89    6.70
  -4   3  -4   75.69    8.20
   4   3   4   63.69    4.70
  -4   3  -4   64.89    7.70
   4   3   4   63.69    6.70
  -4   3  -4   71.99    7.50
  -4   3  -4   73.59    6.00
  -4   3  -4   70.29    8.10
   5  -3   4   79.29    6.10
  -5  -3  -4   95.89    8.10
   5  -3   4   86.49   10.00
  -5  -3  -4   77.19    8.20
   5  -3   4   92.29   10.50
  -5  -3  -4   78.79    8.80
  -5  -3  -4   82.49    6.20
  -5   3  -4   81.09    6.80
  -5   3  -4   88.49    7.60
  -5   3  -4   76.29    9.30
   5   3   4   80.49    5.70
   5   3   4   91.29   10.30
  -5   3  -4   86.99    9.60
   5   3   4   79.39    6.70
  -5   3  -4   86.19    9.80
  -6  -3  -4   57.89    7.40
  -6  -3  -4   48.90    7.40
  -6  -3  -4   60.69    8.80
   6  -3   4   42.80    7.80
   6  -3   4   55.39    8.40
   6   3   4   72.09   10.00
   6   3   4   51.89    6.60
  -6   3  -4   56.99    8.30
  -6   3  -4   52.59    8.10
  -6   3  -4   49.10    8.20
  -6   3  -4   58.19    7.80
  -6   3  -4   47.50    6.50
   7  -3   4   -2.00    3.20
  -7  -3  -4    3.00    3.20
  -7  -3  -4   -1.40    2.30
   7  -3   4    0.10    3.30
  -7   3  -4    0.00    2.50
   7   3   4    1.10    3.00
  -7   3  -4    3.70    2.30
  -7   3  -4    1.50    3.20
   7   3   4    2.20    2.50
  -7   3  -4   -1.30    2.60
  -7   3  -4   -1.40    2.60
   7  -4  -4   39.70    6.80
   7  -4  -4   39.70    6.50
  -7  -4   4   57.29    9.00
   7  -4  -4   54.09    8.10
  -7  -4   4   54.79    7.80
  -7  -4   4   33.40    6.90
   7  -4  -4   43.10    6.90
  -7   4   4   37.00    6.80
   7   4  -4   52.79    8.80
  -7   4   4   66.39    8.50
   7   4  -4   58.39    8.10
  -7   4   4   55.39    7.60
   7   4  -4   59.59    7.30
   6  -4  -4    5.90    2.70
  -6  -4   4   11.10    4.00
   6  -4  -4   13.00    3.70
  -6  -4   4    7.00    3.40
   6  -4  -4   13.20    3.90
   6  -4  -4    7.70    3.10
  -6  -4   4   11.10    3.50
  -6   4   4    9.30    3.40
   6   4  -4    9.20    3.40
  -6   4   4    9.50    3.40
   6   4  -4   13.00    4.30
   6   4  -4    7.00    2.70
  -5  -4   4   98.89   10.30
   5  -4  -4   97.99    7.90
   5  -4  -4  104.29    7.40
  -5  -4   4   99.69    7.80
  -5  -4   4   97.89   10.40
   5  -4  -4   84.19    7.20
   5  -4  -4  100.99    7.20
   5  -4  -4   92.29    7.50
   5   4  -4  108.69   11.00
   5   4  -4   98.29    6.80
  -5   4   4  103.79    8.20
  -5   4   4   93.39    7.90
   5   4  -4   95.19    7.40
   5   4  -4   91.09    7.90
  -4  -4   4  427.86   19.00
   4  -4  -4  405.96   17.90
   4  -4  -4  442.96   17.90
   4  -4  -4  433.16   15.60
  -4  -4   4  408.36   17.90
   4  -4  -4  403.46   17.50
   4  -4  -4  435.66   16.50
  -4  -4   4  453.05   19.00
  -4  -4   4  418.66   14.40
  -4   4   4  421.66   16.80
   4   4  -4  439.36   17.70
   4   4  -4  443.86   18.70
  -4   4   4  418.76   18.20
   4   4  -4  458.65   17.00
  -4   4   4  407.76   17.40
   4   4  -4  408.86   18.40
   3  -4  -4   82.59    6.40
   3  -4  -4   76.39    5.30
   3  -4  -4   86.69    4.90
  -3  -4   4   80.09    6.30
   3  -4  -4   81.49    6.20
  -3  -4   4   80.69    4.60
   3  -4  -4   82.99    6.20
  -3  -4   4   82.09    6.70
  -3  -4   4   62.89    6.80
  -3   4   4   91.49    6.10
   3   4  -4   91.99    6.90
   3   4  -4   81.79    6.20
   3   4  -4   87.49    6.90
  -3   4   4   81.99    6.20
   3   4  -4   73.69    5.50
  -3   4   4   76.29    6.30
   3   4  -4   81.19    4.00
   2  -4  -4  111.99    6.90
   2  -4  -4  111.49    6.90
  -2  -4   4  106.59    7.10
   2  -4  -4  117.49    6.30
   2  -4  -4  110.59    5.20
  -2  -4   4  104.39    7.20
  -2  -4   4  105.49    7.00
   2  -4  -4  119.39    7.30
  -2  -4   4  118.79    5.80
   2   4  -4  111.89    4.80
  -2   4   4  114.29    7.00
   2   4  -4  109.09    6.70
  -2   4   4   96.29    6.50
  -2   4   4  110.79    7.40
   2   4  -4  108.59    7.40
   2   4  -4  107.99    7.00
   2   4  -4  102.89    6.80
   1  -4  -4  677.23   20.30
   1  -4  -4  673.13   23.30
   1  -4  -4  712.03   23.80
   1  -4  -4  700.53   22.50
  -1  -4   4  724.33   23.90
   1  -4  -4  708.03   19.20
  -1  -4   4  698.83   22.30
  -1  -4   4  692.43   24.40
   1  -4  -4  666.43   23.30
  -1  -4   4  696.83   22.20
  -1   4   4  671.83   23.80
  -1   4   4  672.63   24.00
   1   4  -4  693.13   20.90
   1   4  -4  706.23   22.20
   1   4  -4  721.63   23.80
   1   4  -4  649.93   24.30
  -1   4   4  631.74   21.70
   1   4  -4  700.83   24.00
   0  -4   4  186.78    8.00
   0  -4  -4  170.18    8.30
   0  -4   4  181.38    8.80
   0  -4   4  171.28    9.00
   0  -4  -4  166.78    7.10
   0  -4  -4  173.58    7.40
   0  -4   4  168.98    8.40
   0  -4  -4  168.98    8.60
   0  -4   4  183.08    7.20
   0  -4  -4  178.68    8.20
   0  -4  -4  193.58    8.70
   0   4   4  170.88    7.80
   0   4   4  162.98    8.70
   0   4  -4  175.88    9.00
   0   4   4  165.98    9.00
   0   4  -4  160.98    9.10
   0   4  -4  189.28    7.30
   0   4  -4  179.18    7.90
   0   4  -4  170.38    7.70
   0   4   4  162.98    7.00
   0   4  -4  186.98    9.30
   1  -4   4  407.86   13.00
  -1  -4  -4  433.76   14.90
  -1  -4  -4  425.66   15.90
  -1  -4  -4  412.26   14.60
   1  -4   4  394.66   16.10
   1  -4   4  402.96   14.80
  -1  -4  -4  418.56   15.70
   1  -4   4  405.96   14.40
  -1  -4  -4  420.86   15.10
   1  -4   4  397.06   16.20
   1   4   4  399.56   16.50
   1   4   4  428.96   15.10
  -1   4  -4  427.56   16.70
   1   4   4  417.56   13.70
  -1   4  -4  405.96   15.50
  -1   4  -4  404.86   16.50
  -1   4  -4  410.16   16.60
   1   4   4  424.86   15.70
  -1   4  -4  418.76   14.90
  -1   4  -4  423.76   13.00
   2  -4   4  144.99    8.10
   2  -4   4  140.79    6.10
   2  -4   4  139.09    9.00
  -2  -4  -4  133.49    8.00
   2  -4   4  145.49    8.30
  -2  -4  -4  138.79    7.70
  -2  -4  -4  139.09    7.70
  -2  -4  -4  139.89    6.40
  -2  -4  -4  137.39    7.10
  -2   4  -4  139.59    8.30
   2   4   4  156.48    6.40
  -2   4  -4  133.39    8.50
  -2   4  -4  140.69    8.50
  -2   4  -4  155.28    8.70
   2   4   4  137.99    8.00
   2   4   4  156.28    8.70
  -2   4  -4  141.09    8.20
   2   4   4  145.49    7.50
  -3  -4  -4   16.10    3.40
  -3  -4  -4   21.90    3.70
  -3  -4  -4   19.90    3.60
   3  -4   4   19.80    4.20
  -3  -4  -4   25.60    2.80
  -3  -4  -4   16.30    2.80
   3  -4   4   21.10    3.60
   3  -4   4   13.90    3.40
  -3   4  -4   25.20    4.30
   3   4   4   33.60    4.90
   3   4   4   21.80    3.30
  -3   4  -4   24.40    4.40
   3   4   4   23.10    2.80
  -3   4  -4   20.60    4.10
   3   4   4   17.40    3.50
  -3   4  -4   24.90    4.30
  -3   4  -4   20.50    4.00
  -4  -4  -4   23.40    4.30
  -4  -4  -4   33.70    5.40
   4  -4   4   24.60    3.90
   4  -4   4   38.10    6.50
  -4  -4  -4   34.00    4.10
   4  -4   4   27.90    5.30
  -4  -4  -4   28.80    4.50
   4   4   4   31.90    4.00
   4   4   4   32.20    5.10
  -4   4  -4   24.60    4.80
  -4   4  -4   34.70    5.80
   4   4   4   26.70    4.30
  -4   4  -4   32.90    5.10
   4   4   4   33.40    3.60
  -4   4  -4   22.70    4.00
  -4   4  -4   27.40    5.00
   5  -4   4   70.59    9.00
  -5  -4  -4   67.69    8.10
   5  -4   4   96.59   11.20
  -5  -4  -4   84.09    7.00
  -5  -4  -4   86.59    9.40
  -5   4  -4   97.59   10.30
  -5   4  -4   87.69    9.20
   5   4   4   83.19    6.90
   5   4   4   85.19    9.20
  -5   4  -4   89.09   10.30
  -5   4  -4   99.69   10.50
   5   4   4   77.69    5.70
  -5   4  -4   75.09    8.10
   6  -4   4   30.70    7.10
  -6  -4  -4   23.80    5.60
  -6  -4  -4   27.00    5.70
   6  -4   4   36.80    7.40
  -6   4  -4   18.30    5.20
  -6   4  -4   30.30    6.30
  -6   4  -4   37.20    7.10
  -6   4  -4   29.20    5.10
   6   4   4   20.60    4.90
   6   4   4   25.70    5.00
   6   4   4   19.60    4.10
  -6   4  -4   34.40    6.20
  -7  -4  -4   18.90    5.40
  -7  -4  -4   16.70    4.80
   7  -4   4    4.00    3.70
   7  -4   4   13.90    5.60
  -7  -4  -4   10.80    4.60
  -7   4  -4   15.80    4.30
   7   4   4    6.90    3.00
  -7   4  -4   16.10    5.30
  -7   4  -4   14.70    4.50
  -7   4  -4   13.20    4.30
   7   4   4    7.60    4.10
  -7   4  -4   14.00    5.40
   7  -5  -4   -0.30    2.20
  -7  -5   4    2.40    2.80
  -7  -5   4    5.20    3.10
   7  -5  -4    0.10    2.00
   7  -5  -4   -1.20    1.90
  -7  -5   4    3.20    3.50
   7  -5  -4    3.90    2.80
   7   5  -4    1.30    3.00
  -7   5   4    1.70    2.10
   7   5  -4    0.50    2.20
  -7   5   4   -0.90    2.00
  -6  -5   4   36.20    6.10
  -6  -5   4   40.60    7.40
   6  -5  -4   34.40    5.80
   6  -5  -4   31.80    5.70
   6  -5  -4   22.30    4.90
   6  -5  -4   31.40    5.60
  -6  -5   4   36.60    7.20
  -6   5   4   29.10    5.30
  -6   5   4   31.70    6.00
   6   5  -4   37.40    6.40
  -6   5   4   22.00    4.80
   6   5  -4   49.40    8.20
   6   5  -4   31.70    5.30
   5  -5  -4   96.79    8.20
   5  -5  -4  111.39    7.80
   5  -5  -4  111.79    8.00
  -5  -5   4  124.69    6.40
  -5  -5   4  123.39    8.90
   5  -5  -4  115.69    8.60
  -5  -5   4  111.29    9.30
   5  -5  -4  120.99    8.50
  -5  -5   4  102.39   10.60
  -5   5   4  108.39    8.40
   5   5  -4  120.99   11.40
   5   5  -4  119.49    9.10
   5   5  -4  130.59    9.90
   5   5  -4  107.69    7.90
  -5   5   4  113.69    8.60
   5   5  -4  125.89    7.70
   4  -5  -4  155.88    9.60
  -4  -5   4  164.78   10.70
  -4  -5   4  169.28    7.50
  -4  -5   4  138.29    9.30
   4  -5  -4  158.18    8.70
   4  -5  -4  149.09    9.50
   4  -5  -4  151.88    9.30
  -4  -5   4  146.49   10.10
   4  -5  -4  173.98    8.60
   4   5  -4  160.38    8.50
   4   5  -4  164.88   10.30
   4   5  -4  157.58    9.30
  -4   5   4  162.18    9.70
   4   5  -4  151.68   10.20
  -4   5   4  153.68    9.70
   4   5  -4  160.58   10.50
  -4   5   4  160.18    8.70
   3  -5  -4   98.69    5.60
   3  -5  -4   96.89    6.80
  -3  -5   4  108.29    7.80
  -3  -5   4  108.29    7.50
   3  -5  -4   96.79    6.90
   3  -5  -4   84.59    5.90
  -3  -5   4  102.29    5.60
   3  -5  -4  120.59    7.60
  -3   5   4  105.49    7.50
   3   5  -4  101.39    6.40
  -3   5   4  107.59    7.20
   3   5  -4   87.29    7.10
   3   5  -4  105.49    7.70
  -3   5   4   96.59    6.50
   3   5  -4  103.69    7.70
   3   5  -4   99.89    7.00
   2  -5  -4    3.30    1.60
  -2  -5   4    3.30    1.40
   2  -5  -4    3.00    1.50
   2  -5  -4    1.40    1.10
   2  -5  -4    3.70    1.70
  -2  -5   4    4.40    2.10
  -2  -5   4    5.10    2.00
   2  -5  -4    3.30    1.20
   2   5  -4    4.80    1.80
   2   5  -4    4.20    2.10
  -2   5   4    2.40    1.60
   2   5  -4    4.00    1.80
  -2   5   4    5.30    2.00
   2   5  -4    3.30    1.80
  -2   5   4    3.60    1.80
   2   5  -4    2.80    0.80
   1  -5  -4  193.38    9.00
   1  -5  -4  210.38    9.60
  -1  -5   4  203.98    9.00
   1  -5  -4  192.08    9.50
   1  -5  -4  204.68    6.40
  -1  -5   4  202.08   10.10
   1  -5  -4  205.38    8.00
   1  -5  -4  209.58    9.60
  -1  -5   4  193.68    9.70
   1   5  -4  195.78   10.40
   1   5  -4  193.88    9.50
   1   5  -4  204.58    7.70
   1   5  -4  189.28    9.80
  -1   5   4  184.68    9.00
  -1   5   4  191.18   10.00
  -1   5   4  186.08    9.70
   1   5  -4  202.48    9.40
   0  -5  -4  245.58   10.90
   0  -5  -4  248.68   10.50
   0  -5  -4  239.18   10.40
   0  -5   4  224.78   10.40
   0  -5   4  248.08   11.00
   0  -5  -4  244.38    9.50
   0  -5   4  222.98   11.10
   0  -5   4  239.98    9.10
   0  -5  -4  253.47   10.30
   0  -5  -4  259.07    9.00
   0   5   4  247.38    9.00
   0   5   4  237.88   11.30
   0   5  -4  248.78    9.90
   0   5   4  245.78   10.00
   0   5   4  256.37   11.40
   0   5  -4  255.77   11.70
   0   5  -4  243.28    9.80
   0   5  -4  229.48    9.00
   0   5  -4  250.67   11.90
   0   5  -4  252.17   11.50
   1  -5   4   70.89    5.50
  -1  -5  -4   65.09    5.10
  -1  -5  -4   78.59    4.50
  -1  -5  -4   76.59    5.00
   1  -5   4   88.49    4.50
  -1  -5  -4   75.79    4.90
   1  -5   4   78.29    6.10
   1  -5   4   75.29    4.70
  -1  -5  -4   73.99    5.30
  -1  -5  -4   73.29    4.90
   1  -5   4   73.59    5.10
  -1   5  -4   70.39    5.80
  -1   5  -4   83.09    5.60
   1   5   4   77.39    5.90
   1   5   4   77.29    5.50
  -1   5  -4   77.99    6.00
   1   5   4   74.09    4.90
  -1   5  -4   79.99    4.30
   1   5   4   85.49    4.80
  -1   5  -4   79.79    6.10
   2  -5   4   40.10    5.10
  -2  -5  -4   45.10    3.00
  -2  -5  -4   40.10    5.10
   2  -5   4   51.59    6.50
  -2  -5  -4   43.70    4.80
   2  -5   4   43.80    2.90
  -2  -5  -4   45.30    3.70
  -2  -5  -4   46.20    5.00
  -2   5  -4   42.80    5.50
   2   5   4   47.50    3.40
  -2   5  -4   36.50    5.00
   2   5   4   45.70    4.90
  -2   5  -4   52.89    6.00
  -2   5  -4   46.30    5.60
   2   5   4   41.90    5.20
   2   5   4   43.80    5.20
  -3  -5  -4   13.20    3.30
  -3  -5  -4   10.60    2.80
  -3  -5  -4   15.30    2.60
   3  -5   4   16.00    4.20
  -3  -5  -4   17.50    3.30
   3  -5   4   17.20    3.40
   3  -5   4    7.70    2.90
   3   5   4   15.00    3.50
   3   5   4   15.50    2.40
  -3   5  -4   14.90    3.80
  -3   5  -4   12.10    3.10
  -3   5  -4   11.50    3.00
  -3   5  -4    7.60    2.60
   3   5   4   10.10    2.30
   3   5   4   11.60    3.20
   4  -5   4  123.49    9.40
   4  -5   4  122.69    7.40
  -4  -5  -4  115.99    8.30
  -4  -5  -4  112.79    8.30
   4  -5   4  117.09    9.60
  -4  -5  -4  122.89    7.70
   4   5   4  120.79    8.20
  -4   5  -4  108.09    8.70
   4   5   4  134.69    9.10
  -4   5  -4  109.99    8.70
  -4   5  -4  118.79    8.50
   4   5   4  105.89    6.80
  -4   5  -4  129.39    9.10
   4   5   4  126.69    6.40
   5  -5   4    3.20    2.80
  -5  -5  -4    0.40    2.10
  -5  -5  -4    3.10    2.10
  -5  -5  -4    1.00    2.00
  -5  -5  -4    4.00    2.70
   5  -5   4    2.90    2.60
  -5   5  -4    2.50    2.00
   5   5   4    3.50    2.30
  -5   5  -4    1.10    2.20
   5   5   4    1.40    2.10
   5   5   4    2.90    1.90
  -5   5  -4    0.30    2.10
  -5   5  -4    3.60    2.60
  -5   5  -4    3.70    2.30
  -6  -5  -4   10.10    3.90
  -6  -5  -4    7.20    3.20
  -6  -5  -4    3.20    2.70
   6  -5   4   12.10    5.20
   6  -5   4   15.30    5.10
   6   5   4   10.00    3.80
  -6   5  -4    8.50    3.40
  -6   5  -4    4.50    3.00
  -6   5  -4   14.70    3.90
  -6   5  -4    6.20    3.40
  -6   5  -4    7.90    3.80
   6   5   4    5.20    2.90
   6   5   4    9.50    2.90
   7  -5   4  118.99   14.30
  -7  -5  -4  117.29   12.30
   7  -5   4   86.89   11.90
  -7  -5  -4   89.99   10.60
  -7  -5  -4  106.39   11.60
  -7   5  -4  109.89   12.90
  -7   5  -4  116.29   13.50
  -7   5  -4  128.99   10.20
   7   5   4  123.79   13.10
  -7   5  -4  105.39   12.50
  -7   5  -4  121.39   10.50
   7   5   4  106.69    9.10
   6  -6  -4    1.10    2.10
  -6  -6   4    2.70    2.90
  -6  -6   4    5.00    3.10
   6  -6  -4   11.10    3.80
   6  -6  -4    1.50    2.20
   6  -6  -4    6.10    3.10
   6  -6  -4    3.00    2.70
  -6  -6   4    1.20    2.00
   6   6  -4    0.50    2.40
  -6   6   4    5.50    2.60
   6   6  -4    6.50    3.50
  -6   6   4    2.00    2.50
   6   6  -4    3.00    2.70
  -6   6   4    1.10    2.40
   5  -6  -4   95.49    7.90
   5  -6  -4   88.09    7.20
   5  -6  -4   96.99    7.70
   5  -6  -4   75.89    8.40
   5  -6  -4   86.49    6.90
  -5  -6   4   89.29   10.30
  -5  -6   4   81.69    5.50
  -5  -6   4   82.09    8.80
  -5  -6   4   95.19   10.80
   5   6  -4   81.49    8.90
   5   6  -4   83.29    6.80
   5   6  -4   82.49    9.70
  -5   6   4   84.89    9.20
  -5   6   4   99.69    9.50
   5   6  -4   77.39    9.10
   4  -6  -4  152.58    9.10
   4  -6  -4  126.49    7.90
   4  -6  -4  126.29    8.70
   4  -6  -4  135.09    7.80
  -4  -6   4  131.89    6.80
   4  -6  -4  130.09    8.60
  -4  -6   4  128.79    8.80
  -4  -6   4  113.09    9.00
   4   6  -4  118.49    9.20
  -4   6   4  120.09    8.40
   4   6  -4  131.29    9.20
  -4   6   4  133.79    9.00
   4   6  -4  133.19    8.50
   4   6  -4  119.99    7.30
   4   6  -4  137.19    9.80
   3  -6  -4   59.59    6.10
  -3  -6   4   57.39    6.90
   3  -6  -4   52.39    4.10
  -3  -6   4   48.40    6.60
  -3  -6   4   49.20    4.00
   3  -6  -4   54.89    4.70
   3  -6  -4   49.40    5.60
   3  -6  -4   67.59    6.90
  -3   6   4   57.69    5.70
   3   6  -4   47.60    6.10
   3   6  -4   47.20    6.20
   3   6  -4   58.79    6.30
  -3   6   4   45.60    5.50
   3   6  -4   48.60    4.40
  -3   6   4   54.49    6.30
   3   6  -4   50.29    6.50
   2  -6  -4   97.99    6.50
  -2  -6   4   99.29    5.90
   2  -6  -4  106.59    6.70
   2  -6  -4   94.59    6.10
   2  -6  -4  106.29    5.60
  -2  -6   4   94.19    6.90
  -2  -6   4   87.39    6.80
   2  -6  -4  106.39    6.90
   2   6  -4  106.79    7.20
   2   6  -4  103.99    7.00
   2   6  -4  102.29    7.20
   2   6  -4  100.19    7.40
  -2   6   4  100.09    6.60
  -2   6   4  102.09    7.10
   2   6  -4  101.99    6.40
  -2   6   4  108.99    6.70
   1  -6  -4  159.88    8.60
   1  -6  -4  182.98    8.50
   1  -6  -4  176.28    5.80
  -1  -6   4  172.98    9.30
   1  -6  -4  176.18    8.60
  -1  -6   4  158.58    8.80
   1  -6  -4  154.58    7.20
   1  -6  -4  155.98    8.20
  -1  -6   4  184.08    8.60
   1   6  -4  174.48    9.80
   1   6  -4  176.28    8.70
   1   6  -4  175.68    8.80
  -1   6   4  160.18    9.10
   1   6  -4  163.08    9.10
   1   6  -4  175.18    6.70
  -1   6   4  167.38    8.90
  -1   6   4  164.18    8.40
   0  -6   4  100.69    5.20
   0  -6   4   82.69    6.10
   0  -6   4   89.29    6.40
   0  -6  -4   97.59    4.60
   0  -6  -4   83.59    5.70
   0  -6  -4   92.29    5.60
   0  -6  -4   88.79    5.20
   0  -6  -4   93.89    5.90
   0  -6  -4   87.39    5.20
   0  -6   4   85.99    5.70
   0   6   4   98.09    6.50
   0   6   4   94.99    6.40
   0   6  -4   88.79    6.70
   0   6  -4  102.19    5.50
   0   6  -4   93.79    6.60
   0   6  -4   94.19    6.50
   0   6   4   87.39    5.50
   0   6  -4   83.89    5.30
  -1  -6  -4  102.99    5.80
  -1  -6  -4   99.09    5.70
   1  -6   4  109.09    6.50
  -1  -6  -4   95.39    5.90
   1  -6   4  104.39    6.80
  -1  -6  -4  104.59    5.20
   1  -6   4  109.79    7.40
  -1  -6  -4  106.79    6.40
   1  -6   4  106.89    5.80
  -1  -6  -4  121.69    6.90
   1   6   4  115.49    6.90
  -1   6  -4   99.49    6.40
  -1   6  -4  116.19    7.60
   1   6   4  103.99    7.00
   1   6   4   99.59    5.60
  -1   6  -4  105.29    5.30
  -1   6  -4  111.99    7.50
   1   6   4  105.69    5.80
  -1   6  -4  109.29    7.40
  -2  -6  -4   71.89    5.40
   2  -6   4   73.19    7.80
   2  -6   4   69.99    5.50
   2  -6   4   63.09    6.60
  -2  -6  -4   75.99    5.30
  -2  -6  -4   74.79    4.60
  -2  -6  -4   78.39    5.60
  -2  -6  -4   59.79    6.20
  -2   6  -4   67.99    6.00
   2   6   4   68.19    4.40
   2   6   4   69.19    5.30
   2   6   4   78.09    6.00
   2   6   4   68.09    5.20
  -2   6  -4   70.29    6.10
  -2   6  -4   68.19    5.70
  -2   6  -4   56.39    6.40
  -3  -6  -4   15.00    3.40
  -3  -6  -4   16.40    3.40
   3  -6   4   17.40    4.00
   3  -6   4   10.80    3.30
  -3  -6  -4   14.60    3.10
  -3  -6  -4    9.70    2.80
   3  -6   4   16.00    3.10
  -3   6  -4   21.60    4.30
  -3   6  -4   19.70    3.90
  -3   6  -4    8.80    2.70
   3   6   4   17.10    3.60
   3   6   4   17.90    2.80
   3   6   4   18.60    3.90
  -3   6  -4   18.60    4.10
   3   6   4   15.40    2.90
  -4  -6  -4  208.08   11.80
  -4  -6  -4  202.38   11.60
  -4  -6  -4  231.08   11.10
   4  -6   4  222.08   13.10
   4  -6   4  208.28   13.40
  -4  -6  -4  219.58   12.10
   4   6   4  215.38   12.10
   4   6   4  244.18   12.20
  -4   6  -4  251.57   13.30
   4   6   4  230.68    9.80
  -4   6  -4  222.88   12.50
   4   6   4  248.18   11.10
  -4   6  -4  224.58   13.00
  -4   6  -4  208.28   12.80
   5  -6   4   22.00    5.70
  -5  -6  -4   22.40    4.90
  -5  -6  -4   26.80    5.20
  -5  -6  -4   25.40    4.80
   5  -6   4   27.40    6.00
  -5   6  -4   30.40    6.20
   5   6   4   27.30    5.40
  -5   6  -4   25.20    5.50
  -5   6  -4   34.10    6.10
   5   6   4   26.70    4.80
   5   6   4   23.60    4.20
  -5   6  -4   23.90    4.90
  -6  -6  -4   24.80    5.50
  -6  -6  -4   19.20    4.90
  -6  -6  -4   15.70    4.50
   6  -6   4   23.00    6.50
   6  -6   4   27.20    6.80
  -6   6  -4   25.40    5.70
  -6   6  -4   20.60    5.60
   6   6   4   16.90    4.10
   6   6   4   27.00    6.00
  -6   6  -4   25.00    5.20
  -6   6  -4   25.20    6.00
  -6   6  -4   16.30    4.90
   6  -7  -4    5.20    3.50
   6  -7  -4    8.10    3.50
  -6  -7   4    3.50    2.90
   6  -7  -4    9.60    3.40
  -6  -7   4    8.70    4.00
   6  -7  -4    3.60    2.70
   6  -7  -4   11.80    3.90
  -6  -7   4   10.80    3.70
   6   7  -4    4.40    3.30
   6   7  -4    8.80    4.30
  -6   7   4    5.80    2.70
   6   7  -4   10.10    3.80
  -6   7   4    4.70    2.80
  -6   7   4    6.00    3.10
  -5  -7   4   88.69    7.80
   5  -7  -4   83.79    8.80
   5  -7  -4   67.29    7.60
   5  -7  -4   80.99    8.10
  -5  -7   4   64.09    8.70
   5  -7  -4   60.49    7.40
  -5  -7   4   73.29    5.40
   5  -7  -4   81.19    8.50
  -5   7   4   82.59    7.20
   5   7  -4   66.19    8.00
   5   7  -4   89.59   10.50
  -5   7   4   83.69    8.90
  -5   7   4   64.99    7.50
   5   7  -4   74.19    9.30
   5   7  -4   79.59    6.60
  -4  -7   4   64.39    7.30
  -4  -7   4   81.29    5.40
   4  -7  -4   74.79    5.90
   4  -7  -4   63.59    7.20
  -4  -7   4   68.99    8.10
   4  -7  -4   82.49    6.70
   4  -7  -4   71.39    6.00
   4  -7  -4   62.89    7.00
   4   7  -4   81.29    6.50
   4   7  -4   89.79    9.70
   4   7  -4   78.69    8.50
  -4   7   4   81.99    6.90
   4   7  -4   71.29    8.30
  -4   7   4   71.09    7.40
  -3  -7   4  262.07   11.00
   3  -7  -4  257.17   12.20
  -3  -7   4  254.47   13.00
   3  -7  -4  244.08   12.30
  -3  -7   4  280.27   14.00
   3  -7  -4  276.17   12.80
   3  -7  -4  254.67   11.70
   3  -7  -4  242.78   10.70
  -3   7   4  269.07   12.50
   3   7  -4  266.97   13.30
   3   7  -4  243.08   11.10
   3   7  -4  257.17   13.40
  -3   7   4  256.67   12.80
   3   7  -4  269.37   13.60
   3   7  -4  263.47   12.40
  -3   7   4  269.17   11.70
  -2  -7   4   85.09    6.60
   2  -7  -4   96.19    6.30
   2  -7  -4   81.09    5.80
   2  -7  -4   88.99    5.30
  -2  -7   4   98.69    6.00
   2  -7  -4  100.69    6.40
   2  -7  -4   87.69    6.30
  -2  -7   4   97.99    7.20
  -2   7   4   80.69    6.50
   2   7  -4   81.49    6.60
   2   7  -4   81.29    6.80
  -2   7   4   79.79    6.00
   2   7  -4   92.59    6.80
  -2   7   4   72.09    5.60
   2   7  -4   87.89    6.50
   2   7  -4   89.09    5.90
  -1  -7   4    9.00    2.40
   1  -7  -4    3.80    1.70
   1  -7  -4    5.90    1.60
   1  -7  -4    9.60    2.20
  -1  -7   4    5.10    2.10
   1  -7  -4    8.10    2.00
  -1  -7   4    7.80    2.40
   1  -7  -4    6.60    1.80
   1   7  -4    7.10    2.10
   1   7  -4    7.70    2.50
   1   7  -4    6.80    2.40
  -1   7   4    3.00    1.80
   1   7  -4    8.20    2.50
  -1   7   4    7.10    2.30
   1   7  -4    9.10    2.50
  -1   7   4   10.70    2.50
   0  -7   4   25.30    4.10
   0  -7  -4   20.90    3.30
   0  -7  -4   24.20    3.00
   0  -7   4   25.60    3.80
   0  -7  -4   20.90    3.10
   0  -7  -4   22.50    3.20
   0  -7   4   21.20    3.00
   0  -7  -4   23.70    3.60
   0  -7  -4   26.10    2.70
   0  -7   4   27.00    4.30
   0   7  -4   24.10    4.10
   0   7  -4   23.40    3.10
   0   7  -4   19.10    3.00
   0   7  -4   25.30    4.40
   0   7  -4   20.30    3.60
   0   7   4   16.90    3.20
   0   7   4   28.10    4.20
   0   7   4   21.30    3.20
  -1  -7  -4   30.80    3.40
  -1  -7  -4   33.50    4.10
   1  -7   4   31.00    3.60
  -1  -7  -4   27.40    3.60
  -1  -7  -4   25.80    3.20
   1  -7   4   41.60    4.90
  -1  -7  -4   24.90    2.20
  -1  -7  -4   23.10    3.50
   1  -7   4   27.70    4.10
   1  -7   4   32.20    4.90
  -1   7  -4   29.30    4.50
   1   7   4   29.40    3.50
   1   7   4   29.30    4.50
  -1   7  -4   23.60    3.00
  -1   7  -4   24.40    4.10
   1   7   4   26.10    4.00
  -1   7  -4   23.30    4.20
  -1   7  -4   30.10    4.10
   1   7   4   27.20    3.50
   2  -7   4  179.68   10.80
  -2  -7  -4  173.08    7.50
  -2  -7  -4  185.38    9.00
   2  -7   4  197.78   10.20
   2  -7   4  184.78    9.40
  -2  -7  -4  174.88    8.60
  -2  -7  -4  165.18    9.20
  -2  -7  -4  169.98    8.90
  -2   7  -4  170.98    9.60
  -2   7  -4  175.78   10.30
  -2   7  -4  192.78   10.80
   2   7   4  178.58    9.20
   2   7   4  162.18    7.70
   2   7   4  168.48    8.70
  -2   7  -4  167.98   10.30
   2   7   4  160.08    9.50
   3  -7   4  440.46   16.80
  -3  -7  -4  436.26   17.60
  -3  -7  -4  426.76   16.20
  -3  -7  -4  408.56   16.90
   3  -7   4  446.56   18.70
   3  -7   4  408.66   19.40
  -3  -7  -4  427.46   17.10
  -3   7  -4  424.06   18.80
  -3   7  -4  416.96   18.70
   3   7   4  404.16   14.80
  -3   7  -4  436.96   18.50
  -3   7  -4  448.86   19.40
   3   7   4  406.66   16.50
   3   7   4  407.46   17.00
   3   7   4  456.75   18.20
  -4  -7  -4   73.69    8.10
   4  -7   4   51.09    7.90
  -4  -7  -4   71.89    7.70
   4  -7   4   82.59    9.20
  -4  -7  -4   77.39    7.90
  -4   7  -4   69.49    8.20
  -4   7  -4   57.69    7.70
   4   7   4   70.59    7.60
  -4   7  -4   61.69    7.70
  -4   7  -4   65.39    7.80
   4   7   4   83.19    6.10
   4   7   4   75.29    5.40
   4   7   4   78.69    8.20
   5  -7   4    5.50    3.40
  -5  -7  -4    5.10    2.60
  -5  -7  -4    2.10    2.20
   5  -7   4    0.40    2.70
  -5  -7  -4    0.80    1.90
   5   7   4    3.40    2.30
  -5   7  -4    2.10    2.70
  -5   7  -4    2.50    2.60
   5   7   4    3.90    2.20
  -5   7  -4    2.00    2.10
   5   7   4    1.60    2.00
  -5   7  -4    2.00    2.60
  -6  -7  -4   14.80    4.50
   6  -7   4   18.20    6.20
  -6  -7  -4   15.30    4.40
  -6  -7  -4   12.30    3.80
   6  -7   4   11.00    4.60
  -6   7  -4   13.50    3.80
  -6   7  -4   14.50    4.60
   6   7   4   14.50    3.80
   6   7   4   11.10    4.00
  -6   7  -4   10.50    4.20
   6   7   4   16.30    4.30
  -6   7  -4   11.90    4.60
  -6  -8   4   82.59   11.20
   6  -8  -4   61.79    8.30
   6  -8  -4   63.69    8.30
  -6  -8   4   61.79    8.40
   6  -8  -4   67.29    8.60
   6  -8  -4   65.19    8.00
  -6  -8   4   60.59    9.10
   6  -8  -4   66.29    8.40
  -6   8   4   79.39    9.40
   6   8  -4   92.19   11.50
   6   8  -4   74.79   10.20
  -6   8   4   70.39    8.10
  -5  -8   4   34.90    5.80
   5  -8  -4   53.39    7.10
   5  -8  -4   50.39    6.80
  -5  -8   4   47.80    7.80
   5  -8  -4   43.30    6.60
   5  -8  -4   45.20    6.60
  -5  -8   4   50.09    5.50
   5  -8  -4   40.50    6.00
   5   8  -4   39.80    7.00
  -5   8   4   33.70    5.70
  -5   8   4   47.00    6.50
   5   8  -4   44.70    7.30
  -5   8   4   37.30    5.60
   5   8  -4   44.70    6.80
  -4  -8   4   99.49    6.40
   4  -8  -4  102.09    7.80
   4  -8  -4  102.39    7.10
   4  -8  -4   88.59    7.00
   4  -8  -4   95.49    7.40
  -4  -8   4  103.39    8.80
   4  -8  -4   97.69    7.70
  -4  -8   4   97.89    8.00
   4   8  -4  101.09   10.30
   4   8  -4   95.49    9.80
  -4   8   4  105.99    7.70
   4   8  -4  102.69    8.80
  -4   8   4   92.39    8.80
  -4   8   4  106.99    8.00
   4   8  -4  103.69    7.50
   3  -8  -4  231.38   11.30
   3  -8  -4  187.48   10.40
  -3  -8   4  228.18   12.50
   3  -8  -4  201.68    9.60
   3  -8  -4  195.68   10.20
   3  -8  -4  193.68   10.80
  -3  -8   4  216.88    9.90
  -3  -8   4  191.28   11.30
   3   8  -4  209.88   11.90
  -3   8   4  208.98   11.50
   3   8  -4  216.08   12.00
   3   8  -4  207.18   11.90
   3   8  -4  198.68   10.60
  -3   8   4  211.18   11.00
   2  -8  -4   93.39    6.30
   2  -8  -4   85.09    5.90
   2  -8  -4   68.79    5.50
  -2  -8   4   80.19    5.70
  -2  -8   4   74.99    6.40
  -2  -8   4   86.29    6.90
   2  -8  -4   78.79    6.10
   2  -8  -4   73.59    5.10
   2   8  -4   86.09    7.10
   2   8  -4   83.39    5.70
  -2   8   4   89.49    5.90
  -2   8   4   93.09    6.60
   2   8  -4   83.59    7.80
   2   8  -4   80.59    6.70
  -2   8   4   81.19    6.60
   2   8  -4   74.89    6.10
  -1  -8   4   53.29    6.20
   1  -8  -4   57.79    4.50
   1  -8  -4   40.00    4.90
   1  -8  -4   40.20    4.20
  -1  -8   4   49.60    5.60
  -1  -8   4   54.49    6.30
   1  -8  -4   48.20    5.20
   1  -8  -4   43.10    4.50
   1   8  -4   37.90    5.00
   1   8  -4   51.29    6.40
  -1   8   4   39.90    4.80
   1   8  -4   45.70    5.40
  -1   8   4   42.90    5.10
   1   8  -4   44.80    5.10
  -1   8   4   47.40    5.90
   1   8  -4   38.90    5.20
   0  -8  -4  215.58   10.30
   0  -8   4  231.88   11.40
   0  -8  -4  232.58    9.20
   0  -8  -4  217.08    9.50
   0  -8  -4  229.18    8.50
   0  -8   4  224.98    9.30
   0  -8  -4  218.68   10.10
   0  -8   4  224.48   10.40
   0  -8   4  217.18   11.10
   0  -8  -4  212.88    9.40
   0   8  -4  231.08    9.40
   0   8   4  208.88    9.80
   0   8  -4  216.68   10.90
   0   8  -4  217.68   11.90
   0   8  -4  225.58   11.50
   0   8  -4  225.28    9.90
   0   8   4  217.98   10.70
   0   8   4  217.08   11.00
  -1  -8  -4  115.49    6.80
   1  -8   4  124.79    7.80
  -1  -8  -4  114.79    7.10
  -1  -8  -4  124.89    6.40
  -1  -8  -4  124.19    6.10
  -1  -8  -4  117.79    6.80
   1  -8   4  129.19    7.40
   1  -8   4  127.09    8.60
   1  -8   4  125.79    6.70
  -1   8  -4  126.79    8.40
   1   8   4  121.19    7.70
  -1   8  -4  137.19    9.00
  -1   8  -4  127.59    6.40
  -1   8  -4  136.39    7.60
   1   8   4  116.79    7.50
  -1   8  -4  127.89    8.50
   1   8   4  124.19    6.90
  -2  -8  -4   47.40    5.40
  -2  -8  -4   46.80    4.10
  -2  -8  -4   41.40    4.80
  -2  -8  -4   44.10    4.90
   2  -8   4   42.30    6.20
   2  -8   4   49.80    6.20
   2  -8   4   52.49    5.70
   2   8   4   41.30    4.70
  -2   8  -4   54.39    6.10
   2   8   4   37.00    4.80
   2   8   4   43.40    5.40
  -2   8  -4   47.00    6.20
  -2   8  -4   43.50    5.70
   2   8   4   45.80    4.60
  -2   8  -4   31.00    4.90
   3  -8   4  149.69    9.90
  -3  -8  -4  124.79    8.30
   3  -8   4  142.09   10.50
  -3  -8  -4  151.38    8.60
  -3  -8  -4  132.29    8.60
   3   8   4  155.18    8.70
   3   8   4  127.39    8.20
  -3   8  -4  131.29    9.60
  -3   8  -4  150.78   10.10
  -3   8  -4  146.69    9.70
   3   8   4  128.19    7.20
  -3   8  -4  135.59    9.90
   3   8   4  158.18    9.30
  -4  -8  -4   62.19    7.20
   4  -8   4   40.30    7.20
  -4  -8  -4   54.69    6.60
   4  -8   4   52.29    7.30
  -4  -8  -4   57.09    6.90
   4   8   4   64.79    6.20
  -4   8  -4   51.29    6.90
  -4   8  -4   51.69    7.20
  -4   8  -4   51.99    7.60
   4   8   4   60.49    7.10
   4   8   4   55.29    6.00
   4   8   4   60.79    7.10
  -4   8  -4   52.39    7.50
  -5  -8  -4   38.70    6.10
  -5  -8  -4   33.00    5.70
  -5  -8  -4   33.00    5.40
   5  -8   4   22.60    5.60
   5  -8   4   23.00    5.80
   5   8   4   29.30    5.40
  -5   8  -4   33.90    6.80
  -5   8  -4   31.90    6.10
  -5   8  -4   27.50    5.80
   5   8   4   40.50    5.70
  -5   8  -4   31.10    5.70
   5   8   4   30.20    5.20
  -6  -8  -4  122.99    9.90
  -6  -8  -4  118.29    9.50
  -6  -8  -4  117.29    9.60
   6  -8   4  110.89   13.70
   6  -8   4  115.79   13.50
  -6   8  -4  103.49   11.70
  -6   8  -4  133.69   10.60
   6   8   4  135.79   10.40
  -6   8  -4  120.89   10.70
   6   8   4  116.69    8.90
   6   8   4  121.59    9.70
  -6   8  -4  107.39   12.10
   6  -9  -4   27.40    5.70
  -6  -9   4   17.50    5.00
   6  -9  -4   15.10    4.30
  -6  -9   4   14.70    5.00
   6  -9  -4   30.40    6.30
   6  -9  -4   14.10    4.10
   6  -9  -4   23.80    5.50
  -6   9   4   20.80    4.70
  -6   9   4   24.10    4.90
  -6   9   4   28.00    5.50
   6   9  -4   19.20    5.70
   6   9  -4   31.60    7.00
  -5  -9   4   98.49    8.60
   5  -9  -4   96.39    8.20
  -5  -9   4   94.39   11.00
   5  -9  -4   91.59    9.50
   5  -9  -4  101.19    8.20
   5  -9  -4   90.49    9.50
  -5  -9   4  116.09    7.30
   5  -9  -4   92.19    8.30
   5   9  -4   95.49   10.60
  -5   9   4   86.29    9.10
   5   9  -4   95.29    8.50
  -5   9   4  103.99    8.30
   5   9  -4  102.09   11.50
  -5   9   4   83.59    8.90
  -4  -9   4   54.89    5.80
   4  -9  -4   63.69    7.00
  -4  -9   4   56.29    8.10
   4  -9  -4   64.19    7.40
   4  -9  -4   67.29    7.60
  -4  -9   4   48.60    6.70
   4  -9  -4   46.50    6.00
   4  -9  -4   62.39    7.30
   4   9  -4   59.49    8.00
  -4   9   4   56.39    6.70
  -4   9   4   57.09    6.60
   4   9  -4   56.19    7.60
   4   9  -4   62.89    7.70
  -4   9   4   56.99    7.00
   3  -9  -4   48.70    5.90
  -3  -9   4   35.20    5.30
   3  -9  -4   47.70    5.80
  -3  -9   4   42.80    6.40
  -3  -9   4   40.60    4.90
   3  -9  -4   46.80    5.20
   3  -9  -4   52.19    6.20
   3  -9  -4   49.70    6.00
   3   9  -4   50.79    7.00
   3   9  -4   34.60    5.70
  -3   9   4   42.10    5.30
  -3   9   4   43.10    5.80
   3   9  -4   33.80    5.50
   3   9  -4   35.00    4.90
  -3   9   4   43.20    5.70
   2  -9  -4  114.99    7.20
   2  -9  -4  115.49    7.20
   2  -9  -4  118.79    6.80
  -2  -9   4  101.09    7.00
  -2  -9   4  106.69    8.10
   2  -9  -4  109.39    7.40
   2  -9  -4  127.19    7.50
  -2  -9   4  118.39    8.30
   2   9  -4  102.19    7.40
   2   9  -4  134.89    8.90
   2   9  -4   96.29    7.60
   2   9  -4  115.39    6.90
  -2   9   4  127.19    7.40
  -2   9   4  115.59    6.80
  -2   9   4  115.99    8.10
   2   9  -4  102.29    7.70
  -2   9   4  112.29    7.50
   1  -9  -4   59.29    4.60
   1  -9  -4   50.29    5.10
   1  -9  -4   59.39    6.00
  -1  -9   4   55.39    6.30
  -1  -9   4   44.10    5.60
   1  -9  -4   54.59    4.50
   1  -9  -4   54.49    4.80
  -1  -9   4   55.49    6.30
   1   9  -4   50.09    6.50
  -1   9   4   56.99    4.50
  -1   9   4   44.60    5.20
   1   9  -4   55.69    6.00
   1   9  -4   59.59    5.00
   1   9  -4   54.49    6.30
   1   9  -4   52.39    6.20
  -1   9   4   50.39    5.30
  -1   9   4   44.70    5.60
   0  -9   4   25.80    3.60
   0  -9   4   32.60    4.90
   0  -9  -4   27.60    3.70
   0  -9   4   24.10    4.20
   0  -9  -4   25.40    3.80
   0  -9  -4   29.30    3.90
   0  -9   4   35.70    4.60
   0  -9  -4   28.00    3.30
   0  -9  -4   30.50    3.50
   0  -9  -4   31.40    3.20
   0   9   4   31.90    4.10
   0   9  -4   29.60    4.00
   0   9  -4   27.50    4.90
   0   9   4   37.90    4.80
   0   9  -4   29.60    4.70
   0   9   4   31.40    4.70
   0   9  -4   26.50    4.40
  -1  -9  -4  175.58    9.10
  -1  -9  -4  166.98    8.60
   1  -9   4  182.58    9.30
   1  -9   4  201.98   10.20
   1  -9   4  168.98   10.50
  -1  -9  -4  167.68    8.40
  -1  -9  -4  175.48    8.00
  -1   9  -4  175.38    8.00
   1   9   4  180.78    9.80
   1   9   4  155.18    9.20
  -1   9  -4  172.98   10.50
  -1   9  -4  185.28    9.30
  -1   9  -4  175.18   10.80
   1   9   4  173.88    8.70
  -1   9  -4  179.88   10.40
  -2  -9  -4  181.98    9.00
   2  -9   4  184.38    9.70
  -2  -9  -4  178.28    9.70
   2  -9   4  187.98   10.40
   2  -9   4  174.98   11.30
  -2  -9  -4  186.18    9.50
  -2   9  -4  178.38   11.00
  -2   9  -4  200.68   10.50
   2   9   4  173.18   10.00
  -2   9  -4  206.38   11.70
  -2   9  -4  163.68   10.90
   2   9   4  170.38    9.50
   2   9   4  169.38    8.60
  -3  -9  -4   24.10    4.20
  -3  -9  -4   19.20    3.90
   3  -9   4   21.60    4.40
   3  -9   4   20.50    5.10
  -3  -9  -4   21.20    3.90
  -3   9  -4   20.20    4.60
  -3   9  -4   12.50    3.80
  -3   9  -4   26.30    5.30
   3   9   4   25.60    3.90
   3   9   4   13.80    3.20
  -3   9  -4   21.40    4.60
   3   9   4   17.30    3.40
   3   9   4   22.40    4.10
  -4  -9  -4    2.40    2.00
  -4  -9  -4    1.40    2.00
   4  -9   4    3.90    3.00
  -4  -9  -4    4.50    2.50
   4  -9   4    3.90    2.80
  -4   9  -4    2.30    2.40
   4   9   4    3.70    2.30
   4   9   4    3.50    1.90
  -4   9  -4    4.50    2.40
   4   9   4    2.70    1.80
  -4   9  -4    0.50    2.50
   4   9   4    3.70    2.30
  -4   9  -4   -0.20    2.20
   5  -9   4   86.89   10.80
  -5  -9  -4  111.79    8.90
  -5  -9  -4  119.99    8.90
   5  -9   4   96.49   11.60
  -5  -9  -4  106.69    8.60
  -5   9  -4   97.19   11.00
  -5   9  -4   89.19   10.10
   5   9   4  109.09    8.70
  -5   9  -4  123.99   10.20
  -5   9  -4  111.29   11.90
   5   9   4  108.19    8.80
   5   9   4  117.59    8.50
   5   9   4  109.29    7.80
  -6  -9  -4   77.79    9.00
  -6  -9  -4   70.59    8.70
   6  -9   4   84.39   12.00
   6  -9   4   91.49   13.00
  -6   9  -4   94.19   11.00
   6   9   4   85.09   10.00
  -6   9  -4   74.99   10.10
   6   9   4   92.09   10.00
  -6   9  -4   84.49   11.60
   6   9   4   89.49    9.30
  -6   9  -4   80.49   10.80
   5 -10  -4  106.39   10.30
  -5 -10   4   80.19   10.20
   5 -10  -4  113.09    8.90
   5 -10  -4  111.49    9.10
  -5 -10   4  102.69    9.20
  -5 -10   4  110.49    7.70
   5 -10  -4  121.19    9.50
   5 -10  -4  109.29    8.80
  -5  10   4  108.49    8.70
  -5  10   4  125.39    9.30
   5  10  -4  124.49   10.70
   5  10  -4   91.89   10.70
   4 -10  -4    1.90    2.00
   4 -10  -4    2.60    2.10
   4 -10  -4   -0.20    1.60
  -4 -10   4    3.80    1.90
   4 -10  -4    1.40    1.70
  -4 -10   4    3.10    2.40
   4 -10  -4   -0.60    1.50
  -4 -10   4    2.40    2.10
  -4  10   4    2.20    2.00
  -4  10   4    0.20    1.70
   4  10  -4   -1.90    1.90
   4  10  -4    3.60    2.50
   4  10  -4    2.20    2.20
  -4  10   4    1.70    2.10
   3 -10  -4    4.70    2.30
   3 -10  -4    4.30    2.20
   3 -10  -4    3.40    2.20
  -3 -10   4    1.60    1.60
  -3 -10   4    2.40    2.00
   3 -10  -4    3.00    1.80
   3 -10  -4    4.90    2.20
  -3 -10   4    1.90    1.90
   3  10  -4    6.70    2.80
   3  10  -4    3.30    2.10
   3  10  -4    5.80    2.80
   3  10  -4    6.00    2.80
  -3  10   4    4.90    2.40
  -3  10   4    4.00    2.00
  -3  10   4    4.30    2.20
   2 -10  -4  226.68   10.60
   2 -10  -4  237.58   11.70
   2 -10  -4  251.37   11.50
  -2 -10   4  229.38   11.50
  -2 -10   4  214.78   12.30
  -2 -10   4  223.98   12.50
   2 -10  -4  220.38   11.10
   2 -10  -4  276.07   11.70
   2  10  -4  236.18   12.90
  -2  10   4  234.08   11.00
  -2  10   4  226.18   11.50
  -2  10   4  219.88   11.90
   2  10  -4  238.48   12.60
   2  10  -4  220.28   12.10
   2  10  -4  232.98   11.70
  -1 -10   4  714.13   26.10
   1 -10  -4  715.63   25.40
   1 -10  -4  745.63   26.00
  -1 -10   4  729.53   27.40
   1 -10  -4  722.63   24.10
   1 -10  -4  815.42   25.20
  -1 -10   4  725.43   26.60
   1 -10  -4  718.63   24.80
  -1  10   4  756.52   24.80
   1  10  -4  761.52   26.70
   1  10  -4  741.03   26.80
  -1  10   4  737.63   25.30
   1  10  -4  762.32   28.30
  -1  10   4  751.72   25.00
   1  10  -4  754.42   25.40
   1  10  -4  734.53   25.60
  -1  10   4  820.72   27.30
   0 -10  -4  510.85   18.40
   0 -10  -4  492.25   18.60
   0 -10   4  506.45   20.20
   0 -10   4  493.95   20.10
   0 -10  -4  501.95   17.80
   0 -10   4  486.15   18.80
   0 -10  -4  519.45   16.50
   0 -10  -4  465.55   17.70
   0  10  -4  549.45   20.20
   0  10  -4  507.65   21.50
   0  10  -4  519.65   18.20
   0  10  -4  497.35   18.70
   0  10   4  547.45   20.20
   0  10  -4  479.95   20.20
   0  10   4  484.05   18.00
   0  10   4  496.15   19.00
  -1 -10  -4  111.79    6.90
  -1 -10  -4  104.69    7.00
  -1 -10  -4  108.19    6.00
   1 -10   4  117.89    8.80
   1 -10   4  112.69    7.30
  -1 -10  -4  108.99    6.40
   1 -10   4  100.09    7.20
  -1  10  -4  126.49    8.60
   1  10   4  103.49    7.20
  -1  10  -4   97.29    6.10
  -1  10  -4  102.69    8.10
   1  10   4  102.49    6.60
  -1  10  -4  100.49    8.30
   1  10   4  107.79    7.40
  -2 -10  -4   50.89    5.80
  -2 -10  -4   47.10    5.50
  -2 -10  -4   59.39    4.70
   2 -10   4   50.79    7.40
   2 -10   4   57.59    6.90
  -2  10  -4   41.40    6.20
  -2  10  -4   52.39    6.80
   2  10   4   52.19    5.40
  -2  10  -4   52.69    6.40
  -2  10  -4   53.49    7.30
   2  10   4   42.10    5.50
   2  10   4   53.29    6.20
   3 -10   4   39.90    6.50
   3 -10   4   36.30    6.80
  -3 -10  -4   35.90    5.30
  -3 -10  -4   38.80    5.50
  -3 -10  -4   36.50    5.00
   3  10   4   36.50    5.40
  -3  10  -4   37.60    5.90
   3  10   4   35.00    4.70
  -3  10  -4   42.60    6.80
  -3  10  -4   44.60    6.90
  -3  10  -4   44.40    6.80
   3  10   4   43.10    5.80
   4 -10   4  141.39   11.90
  -4 -10  -4  150.18    9.50
  -4 -10  -4  156.68    9.90
  -4 -10  -4  136.89    9.40
   4 -10   4  160.38   11.80
  -4  10  -4  161.68   11.30
   4  10   4  173.48   10.10
   4  10   4  145.39    8.80
   4  10   4  156.68   10.30
  -4  10  -4  160.28   11.90
  -4  10  -4  164.68   11.90
  -4  10  -4  158.28   11.50
  -5 -10  -4  266.07   14.00
   5 -10   4  278.07   16.90
  -5 -10  -4  248.48   13.60
  -5 -10  -4  213.58   13.10
   5 -10   4  245.88   16.70
   5  10   4  268.67   14.00
  -5  10  -4  235.08   15.30
   5  10   4  282.67   14.80
  -5  10  -4  269.87   16.10
  -5  10  -4  254.17   15.70
  -5  10  -4  243.38   15.90
   5  10   4  272.57   13.20
  -5 -11   4   99.59   11.00
   5 -11  -4  104.49   10.60
   5 -11  -4  114.49    9.50
   5 -11  -4  120.19    9.30
   5 -11  -4  103.19    8.90
  -5 -11   4   94.69   11.90
   5 -11  -4  112.49    9.40
  -5 -11   4   98.19    7.50
  -5  11   4   97.89    9.50
   5  11  -4   96.39   11.10
  -5  11   4  102.39    8.30
   5  11  -4  102.39   11.50
  -5  11   4   89.39    9.40
   4 -11  -4   33.40    5.80
  -4 -11   4   31.40    6.20
   4 -11  -4   28.70    4.90
  -4 -11   4   21.20    4.70
   4 -11  -4   32.50    5.50
  -4 -11   4   17.60    3.60
   4 -11  -4   22.40    4.60
   4 -11  -4   29.60    5.10
   4  11  -4   32.60    6.40
  -4  11   4   21.20    4.40
  -4  11   4   22.70    4.40
   4  11  -4   28.90    5.70
  -4  11   4   23.40    4.70
   4  11  -4   20.50    5.40
  -3 -11   4    1.90    1.80
  -3 -11   4    4.80    2.80
   3 -11  -4   -0.40    1.30
   3 -11  -4    1.50    1.70
   3 -11  -4    0.60    1.60
  -3 -11   4    0.90    2.00
   3 -11  -4    0.40    1.30
   3 -11  -4    0.70    1.70
   3  11  -4   -1.90    1.90
  -3  11   4    2.30    1.90
  -3  11   4   -0.20    1.40
  -3  11   4    0.80    1.70
   3  11  -4    2.80    2.60
   3  11  -4    1.70    2.30
   2 -11  -4   29.20    4.60
   2 -11  -4   31.10    4.50
  -2 -11   4   31.10    5.40
   2 -11  -4   31.00    4.40
  -2 -11   4   19.90    4.00
  -2 -11   4   18.60    4.20
   2 -11  -4   31.50    4.80
   2 -11  -4   18.60    3.60
   2  11  -4   28.40    4.60
   2  11  -4   32.50    5.50
  -2  11   4   32.60    5.20
   2  11  -4   17.30    4.20
  -2  11   4   27.40    4.50
   2  11  -4   31.90    5.40
  -2  11   4   26.80    4.10
   1 -11  -4   15.30    2.80
  -1 -11   4   11.80    3.20
  -1 -11   4    8.90    3.00
   1 -11  -4    8.80    2.40
   1 -11  -4    9.60    2.60
   1 -11  -4   11.40    2.60
   1 -11  -4    5.10    1.90
  -1 -11   4   16.00    3.70
  -1  11   4    6.80    2.40
   1  11  -4   18.30    3.80
   1  11  -4   12.60    3.60
   1  11  -4    9.60    2.90
   1  11  -4    9.60    3.00
  -1  11   4   13.80    2.90
  -1  11   4   11.90    3.20
   0 -11  -4   69.69    5.70
   0 -11  -4   73.59    5.60
   0 -11   4   71.99    7.40
   0 -11  -4   86.09    5.90
   0 -11   4   73.59    8.00
   0  11  -4   80.79    7.10
   0  11  -4   86.39    6.60
   0  11  -4   74.39    6.00
   0  11   4   74.79    7.70
   0  11   4   74.19    5.80
   0  11  -4   59.59    7.40
   0  11   4   65.19    6.50
   0  11  -4   76.29    6.00
   1 -11   4  254.57   14.00
  -1 -11  -4  242.98   11.30
  -1 -11  -4  250.07   10.50
   1 -11   4  280.17   12.90
   1 -11   4  253.17   12.00
  -1 -11  -4  255.17   11.80
   1  11   4  244.18   11.40
  -1  11  -4  250.07   13.30
   1  11   4  248.68   12.10
  -1  11  -4  228.98   13.60
   1  11   4  214.28   11.90
  -1  11  -4  259.27   13.80
  -2 -11  -4    3.60    2.00
  -2 -11  -4    1.50    1.60
   2 -11   4    2.90    2.20
  -2 -11  -4    2.40    1.60
   2 -11   4    1.20    2.30
  -2  11  -4    4.40    2.40
   2  11   4    1.10    1.60
   2  11   4    0.90    1.40
   2  11   4    0.80    1.60
  -2  11  -4    1.50    2.00
  -2  11  -4    0.80    1.90
   3 -11   4   92.59   10.00
  -3 -11  -4   95.49    7.10
  -3 -11  -4   95.99    7.40
  -3 -11  -4   93.99    6.90
   3 -11   4   80.49    9.90
  -3  11  -4  108.39    9.10
   3  11   4   83.19    7.00
  -3  11  -4   75.19    8.60
   3  11   4   94.19    7.50
   3  11   4   97.99    6.80
  -3  11  -4   97.99   10.50
  -3  11  -4  101.99    9.00
   4 -11   4  161.68   12.90
  -4 -11  -4  139.89    9.30
   4 -11   4  145.79   11.60
  -4 -11  -4  145.29    9.40
  -4 -11  -4  158.68   10.00
   4  11   4  135.89    8.90
  -4  11  -4  147.79   11.10
  -4  11  -4  159.88   11.90
   4  11   4  158.88   10.00
   4  11   4  167.98   10.70
  -4  11  -4  155.18   12.00
  -4  11  -4  148.79   11.70
  -5 -11  -4   21.20    4.60
  -5 -11  -4   25.70    5.20
   5 -11   4   25.10    6.70
   5 -11   4   25.30    6.40
   5  11   4   30.30    5.30
   5  11   4   32.50    6.10
  -5  11  -4   15.50    5.20
  -5  11  -4   17.30    5.10
  -5  11  -4   20.40    5.60
   5  11   4   28.60    5.30
  -5  11  -4   20.90    5.90
   4 -12  -4    9.80    3.40
  -4 -12   4   16.10    3.90
  -4 -12   4   16.20    4.80
   4 -12  -4   14.20    4.10
   4 -12  -4   22.20    4.90
   4 -12  -4   13.40    3.90
  -4 -12   4   10.30    4.10
   4 -12  -4   12.30    3.50
   4  12  -4   21.00    5.10
  -4  12   4   15.70    3.80
  -4  12   4   13.60    3.60
  -4  12   4   12.80    3.30
   4  12  -4   11.50    4.20
  -3 -12   4    5.70    2.40
   3 -12  -4    7.60    2.80
  -3 -12   4    4.80    2.90
   3 -12  -4    3.90    2.40
   3 -12  -4    5.90    2.70
   3 -12  -4    5.90    2.40
  -3 -12   4    6.10    2.80
   3 -12  -4    6.70    2.70
  -3  12   4    4.80    2.40
   3  12  -4    5.50    2.80
  -3  12   4    5.20    2.50
   3  12  -4    6.00    3.30
   3  12  -4    6.20    3.00
  -3  12   4    5.30    2.60
  -3  12   4    5.60    2.30
   2 -12  -4   12.10    2.90
  -2 -12   4   12.60    3.60
   2 -12  -4   19.50    4.00
   2 -12  -4   10.80    2.90
  -2 -12   4   15.00    4.10
   2 -12  -4   10.70    3.10
   2 -12  -4   14.80    3.20
  -2 -12   4   14.40    3.70
   2  12  -4   15.80    4.20
   2  12  -4   13.90    3.90
  -2  12   4   13.80    3.60
   2  12  -4   11.70    3.50
  -2  12   4   15.30    3.80
  -1 -12   4   33.00    5.30
   1 -12  -4   30.70    4.60
   1 -12  -4   35.50    4.80
  -1 -12   4   26.30    4.80
  -1 -12   4   32.50    5.60
   1 -12  -4   35.20    5.00
  -1  12   4   35.20    5.50
   1  12  -4   37.10    5.60
   1  12  -4   31.10    4.90
  -1  12   4   24.70    4.40
   1  12  -4   33.10    5.20
   1  12  -4   27.60    5.20
   0 -12  -4  163.18    8.80
   0 -12   4  159.58   10.50
   0 -12   4  154.68    9.90
   0 -12  -4  153.78    8.90
   0  12   4  159.08    8.80
   0  12  -4  143.09    9.90
   0  12  -4  150.28    9.00
   0  12  -4  147.39   10.70
   0  12   4  170.38    9.90
   0  12   4  164.98    9.40
  -1 -12  -4   71.59    5.80
   1 -12   4   80.69    9.10
  -1 -12  -4   80.79    6.20
  -1 -12  -4   72.79    5.20
  -1  12  -4   75.29    8.40
   1  12   4   79.99    6.30
   1  12   4   76.69    6.60
  -1  12  -4   70.99    8.30
   1  12   4   76.79    6.30
  -1  12  -4   59.79    7.90
   2 -12   4   -0.50    2.10
  -2 -12  -4    1.90    1.40
   2 -12   4    0.90    1.90
  -2 -12  -4    2.20    2.00
  -2 -12  -4   -1.20    1.20
   2  12   4    0.60    1.80
  -2  12  -4   -1.50    1.60
  -2  12  -4    1.80    2.40
   2  12   4    2.30    2.10
  -2  12  -4    1.90    2.30
   2  12   4    0.20    1.50
  -3 -12  -4   40.50    5.60
   3 -12   4   38.40    6.80
   3 -12   4   30.90    6.40
  -3 -12  -4   41.30    5.70
  -3 -12  -4   30.80    4.60
  -3  12  -4   43.10    7.40
  -3  12  -4   46.30    7.50
   3  12   4   29.10    4.90
   3  12   4   47.90    6.40
  -3  12  -4   32.10    6.20
  -3  12  -4   37.00    6.60
   3  12   4   39.00    5.30
   4 -12   4   28.80    6.60
  -4 -12  -4   36.10    5.40
   4 -12   4   18.10    5.40
  -4 -12  -4   33.00    5.70
   4  12   4   27.80    5.10
  -4  12  -4   23.30    5.70
  -4  12  -4   19.10    5.10
   4  12   4   25.80    5.10
   4  12   4   30.00    5.50
  -4  12  -4   22.80    5.30
  -4  12  -4   35.80    6.80
   4 -13  -4   76.59    9.00
   4 -13  -4   79.99    9.00
  -4 -13   4   72.09    8.00
   4 -13  -4   63.19    7.80
  -4 -13   4   62.39    8.80
   4 -13  -4   77.29    8.90
  -4 -13   4   76.69   10.60
  -4  13   4   64.99    7.70
  -4  13   4   83.39    8.70
   4  13  -4   69.19    9.50
   4  13  -4   81.79   10.40
  -4  13   4   78.89    8.40
   3 -13  -4   18.80    4.10
  -3 -13   4   35.30    6.70
  -3 -13   4   23.30    4.60
   3 -13  -4   32.10    5.60
  -3 -13   4   20.80    4.80
   3 -13  -4   25.20    4.90
   3 -13  -4   17.40    4.00
  -3  13   4   23.00    4.40
  -3  13   4   24.40    4.90
   3  13  -4   24.20    5.50
  -3  13   4   16.50    3.70
   3  13  -4   22.70    5.20
  -3  13   4   21.80    4.30
  -2 -13   4   45.00    6.30
   2 -13  -4   59.19    6.70
  -2 -13   4   50.49    7.20
   2 -13  -4   46.10    6.00
  -2 -13   4   56.29    7.70
   2 -13  -4   58.09    6.70
   2  13  -4   50.39    6.90
  -2  13   4   52.19    6.30
   2  13  -4   47.50    7.00
   2  13  -4   62.19    7.70
  -2  13   4   55.69    6.70
  -1 -13   4   26.10    5.00
   1 -13  -4   30.20    4.80
  -1 -13   4   30.80    5.40
   1 -13  -4   30.80    4.80
   1  13  -4   30.50    5.60
  -1  13   4   26.40    4.80
  -1  13   4   40.00    5.70
   1  13  -4   34.10    5.30
   1  13  -4   20.10    4.30
   0 -13  -4   68.09    5.90
   0 -13   4   59.89    7.20
   0 -13   4   65.79    8.20
   0 -13  -4   75.19    7.40
   0  13  -4   72.19    9.10
   0  13   4   70.19    7.10
   0  13  -4   69.89    7.10
   0  13  -4   60.69    7.50
   0  13   4   75.79    7.90
  -1 -13  -4   64.49    6.60
  -1 -13  -4   74.39    5.40
   1 -13   4   95.49   10.60
  -1 -13  -4   71.09    6.00
   1  13   4   71.79    6.20
   1  13   4   62.69    6.50
  -1  13  -4   60.09    8.10
   1  13   4   66.99    7.40
  -1  13  -4   65.79    8.10
   2 -13   4   64.89    8.10
  -2 -13  -4   68.59    5.90
  -2 -13  -4   60.89    6.20
  -2 -13  -4   63.99    6.80
   2 -13   4   74.79   10.00
  -2  13  -4   69.09    8.80
   2  13   4   49.20    6.30
   2  13   4   62.39    6.70
   2  13   4   72.79    6.50
  -2  13  -4   62.89    8.70
  -2  13  -4   77.29    9.30
   3 -13   4   62.39    9.40
   3 -13   4   53.09    8.20
  -3 -13  -4   54.19    6.90
  -3 -13  -4   60.99    6.50
   3  13   4   61.39    7.50
  -3  13  -4   62.89    9.10
   3  13   4   46.90    6.10
   3  13   4   48.30    6.70
  -3  13  -4   63.79    8.90
  -3  13  -4   59.79    8.50
  -4 -13  -4  111.29    8.70
  -4 -13  -4  105.79    8.10
   4 -13   4   98.89   12.30
   4 -13   4  107.79   12.40
   4  13   4  108.09    8.80
   4  13   4  101.09    8.20
  -4  13  -4  101.29   11.90
   4  13   4  107.99    9.00
  -4  13  -4   95.39   11.40
  -4  13  -4  107.49   12.10
   3 -14  -4   50.19    6.80
  -3 -14   4   42.00    6.50
  -3 -14   4   47.40    7.60
  -3 -14   4   50.99    7.70
   3 -14  -4   42.60    6.50
   3 -14  -4   41.60    6.60
  -3  14   4   52.39    6.80
   3  14  -4   43.80    7.20
   3  14  -4   45.80    7.30
  -3  14   4   66.69    8.30
  -2 -14   4   22.30    4.90
  -2 -14   4   24.90    5.50
   2 -14  -4   33.80    5.30
  -2 -14   4   21.30    5.00
   2 -14  -4   34.30    5.70
  -2  14   4   33.70    5.60
  -2  14   4   25.60    4.70
   2  14  -4   20.90    5.10
   2  14  -4   27.20    5.70
   2  14  -4   27.10    5.60
   1 -14  -4    1.10    1.60
  -1 -14   4    3.60    2.70
   1 -14  -4    2.10    1.80
  -1 -14   4    3.10    2.30
  -1  14   4    3.80    2.50
   1  14  -4    2.70    2.40
  -1  14   4   -0.60    1.70
   1  14  -4    7.20    3.20
   0 -14  -4    2.40    1.80
   0 -14  -4    4.00    2.10
   0 -14   4    4.40    2.80
   0  14  -4    2.30    2.80
   0  14   4    3.00    2.10
   0  14   4    5.10    2.60
   1 -14   4   10.00    4.30
  -1 -14  -4    7.80    2.70
  -1 -14  -4    7.40    2.70
   1  14   4    8.20    2.60
   1  14   4    2.00    2.10
   1  14   4    6.10    2.80
  -1  14  -4    9.20    3.90
  -1  14  -4    2.90    3.00
  -2 -14  -4    3.60    2.00
   2 -14   4    4.70    3.30
  -2 -14  -4    0.60    1.80
  -2  14  -4    6.10    3.40
   2  14   4    5.60    3.10
   2  14   4   -0.30    1.90
  -2  14  -4    6.30    3.50
   2  14   4   -0.10    1.90
  -3 -14  -4   10.40    3.20
   3 -14   4   11.80    4.70
  -3 -14  -4   21.00    4.50
   3 -14   4   18.80    5.00
  -3  14  -4   11.20    4.50
   3  14   4    8.20    3.00
  -3  14  -4   11.00    4.70
  -3  14  -4    8.80    3.90
   3  14   4    7.00    3.00
   3  14   4   18.30    4.40
   2 -15  -4   19.40    4.20
   2 -15  -4   17.70    4.30
  -2 -15   4   17.80    4.90
  -2 -15   4   14.10    4.30
  -2  15   4   20.30    4.70
   2  15  -4   12.50    4.30
  -2  15   4   21.40    4.80
   2  15  -4   18.80    4.80
   1 -15  -4   61.49    7.20
  -1 -15   4   56.69    7.90
   1 -15  -4   59.59    6.90
  -1  15   4   53.59    7.00
   1  15  -4   51.09    7.60
  -1  15   4   53.29    6.80
   1  15  -4   55.39    7.50
   0 -15  -4    9.40    2.90
   0 -15   4    6.50    3.40
   0 -15  -4   13.50    3.70
   0  15   4    8.50    3.00
   0  15   4    7.10    3.20
   0  15  -4    9.10    4.10
  -1 -15  -4   75.29    6.50
  -1 -15  -4   86.79    7.00
   1 -15   4   70.59    9.70
   1  15   4   78.79    8.20
   1  15   4   98.09    9.70
  -1  15  -4   79.79   10.10
  -1  15  -4   80.69    9.70
   2 -15   4    2.70    3.10
  -2 -15  -4    2.20    2.30
  -2 -15  -4    5.20    2.50
  -2  15  -4    7.50    4.00
   2  15   4    6.80    2.80
  -2  15  -4    4.40    3.70
   2  15   4   11.40    3.50
   2  15   4    8.30    3.30
  -6   0   5    1.90    2.40
  -6   0   5   -0.60    2.10
  -6   0   5    0.00    2.00
   6   0  -5    0.00    1.80
   6   0  -5    1.90    2.20
   6   0  -5   -0.70    1.60
   5   0  -5    1.70    1.80
  -5   0   5    1.70    2.10
   5   0  -5    1.60    2.00
   5   0  -5    0.60    1.40
  -5   0   5    0.40    1.90
  -5   0   5    0.50    2.00
   5   0  -5   -0.90    1.50
   4   0  -5   -0.20    1.50
   4   0  -5    1.30    1.20
   4   0  -5    0.50    1.30
  -4   0   5    0.40    1.50
  -4   0   5    3.10    2.10
  -4   0   5    0.80    1.80
   4   0  -5    3.20    2.10
  -3   0   5    3.10    2.10
   3   0  -5    2.00    1.80
   3   0  -5   -0.70    1.10
  -3   0   5    3.00    1.90
   3   0  -5    1.30    1.00
   3   0  -5   -0.10    1.60
  -3   0   5   -0.30    1.40
  -2   0   5   -0.10    1.40
   2   0  -5   -0.80    0.90
  -2   0   5    1.30    1.10
   2   0  -5    1.40    1.00
  -2   0   5    0.70    1.30
   2   0  -5    0.20    0.60
   2   0  -5   -0.60    1.00
   2   0  -5    1.40    1.50
  -2   0   5    0.20    1.30
  -1   0   5    0.80    1.40
  -1   0   5    0.30    1.00
  -1   0   5   -0.60    1.20
   1   0  -5   -0.50    0.70
   1   0  -5    0.40    0.60
  -1   0   5   -0.80    0.80
   1   0  -5    0.70    1.30
   1   0  -5   -0.70    0.90
   1   0  -5    0.30    1.10
   0   0   5    7.40    2.00
   0   0   5    5.80    2.10
   0   0   5    5.40    1.80
   0   0  -5   11.00    2.70
   0   0  -5    8.80    2.50
   0   0  -5    5.50    1.80
   0   0  -5    8.10    2.40
   1   0   5   -0.50    1.10
  -1   0  -5    0.30    1.30
   1   0   5   -0.30    1.10
  -1   0  -5   -0.80    1.00
  -1   0  -5    0.10    1.00
   1   0   5    1.10    1.20
   1   0   5    0.00    0.70
  -1   0  -5    1.00    1.40
  -1   0  -5    1.50    1.30
  -2   0  -5    0.80    1.50
   2   0   5   -0.10    1.50
  -2   0  -5    1.20    1.40
  -2   0  -5   -0.70    0.90
  -2   0  -5   -0.30    1.00
   2   0   5    0.60    1.20
   2   0   5    0.50    0.70
   2   0   5    0.20    1.30
  -2   0  -5    1.00    1.30
  -3   0  -5    1.10    1.70
   3   0   5    1.20    1.60
  -3   0  -5    2.60    1.80
   3   0   5    1.00    1.10
  -3   0  -5    1.20    1.80
  -3   0  -5    0.40    1.40
  -3   0  -5    1.10    1.70
   3   0   5    1.10    2.30
  -4   0  -5    0.10    1.90
   4   0   5    0.30    1.90
  -4   0  -5    2.40    1.90
   4   0   5    0.50    1.80
  -4   0  -5   -1.50    1.10
  -4   0  -5    1.80    1.90
  -4   0  -5    1.20    1.80
   5   0   5    1.30    1.70
   5   0   5    2.70    2.70
  -5   0  -5    1.90    2.30
  -5   0  -5    2.10    2.00
  -5   0  -5    4.00    2.50
  -5   0  -5    2.70    1.80
  -5   0  -5    3.00    2.60
  -6   0  -5   -2.00    1.70
   6   0   5    1.00    2.50
  -6   0  -5   -0.80    1.70
  -6   0  -5    2.70    2.90
   6   0   5   -0.70    1.50
  -6   0  -5   -0.50    2.00
   6  -1  -5   14.20    3.50
  -6  -1   5   21.60    5.60
  -6  -1   5   18.00    4.90
   6  -1  -5   15.60    4.30
   6  -1  -5   19.60    4.60
   6  -1  -5   14.90    4.00
  -6  -1   5   17.10    4.50
   6   1  -5   10.90    3.40
  -6   1   5    8.90    3.80
   6   1  -5   18.20    4.40
  -6   1   5   15.20    4.10
   6   1  -5   14.20    4.20
  -6   1   5   15.60    4.30
  -5  -1   5   40.60    6.40
   5  -1  -5   50.89    6.60
  -5  -1   5   49.20    7.30
   5  -1  -5   50.19    5.80
   5  -1  -5   53.49    7.70
  -5  -1   5   52.49    7.00
   5  -1  -5   55.39    7.10
   5   1  -5   55.39    7.10
   5   1  -5   70.59    7.80
  -5   1   5   54.99    7.20
   5   1  -5   53.59    7.40
  -5   1   5   56.29    8.00
  -5   1   5   57.59    7.70
   4  -1  -5  339.17   16.20
   4  -1  -5  295.57   14.40
  -4  -1   5  297.87   14.80
  -4  -1   5  271.67   15.10
   4  -1  -5  293.17   14.60
  -4  -1   5  289.17   15.10
   4  -1  -5  303.67   12.50
   4   1  -5  291.87   14.10
  -4   1   5  292.17   14.70
   4   1  -5  298.77   11.90
   4   1  -5  320.17   15.90
   4   1  -5  311.77   14.90
  -4   1   5  326.67   15.00
  -4   1   5  303.77   15.60
   3  -1  -5 1051.69   35.60
  -3  -1   5 1076.89   36.60
   3  -1  -5 1057.69   32.60
  -3  -1   5 1040.70   34.50
   3  -1  -5 1035.40   36.70
  -3  -1   5  997.50   36.20
   3  -1  -5 1103.39   36.20
   3   1  -5 1046.00   36.80
  -3   1   5 1099.79   34.40
   3   1  -5 1032.40   35.90
  -3   1   5 1144.59   36.60
   3   1  -5 1042.90   31.90
   3   1  -5 1088.39   35.70
  -3   1   5 1086.89   36.70
  -2  -1   5  196.78    8.20
  -2  -1   5  193.38   10.70
   2  -1  -5  209.48   10.60
   2  -1  -5  188.58   10.40
  -2  -1   5  188.48   10.70
   2  -1  -5  185.88    8.70
   2  -1  -5  193.08    7.00
   2  -1  -5  198.48   10.90
  -2  -1   5  182.58   10.00
   2   1  -5  194.48    8.50
  -2   1   5  198.78   10.70
   2   1  -5  191.08   10.30
  -2   1   5  192.08   10.10
  -2   1   5  209.28   11.10
   2   1  -5  206.58   10.80
  -1  -1   5   40.80    4.70
  -1  -1   5   33.10    4.60
  -1  -1   5   46.00    4.60
   1  -1  -5   36.50    2.60
   1  -1  -5   37.10    4.10
   1  -1  -5   34.40    4.80
   1  -1  -5   35.80    4.90
   1  -1  -5   37.00    4.80
  -1  -1   5   35.50    4.90
   1   1  -5   50.89    5.70
  -1   1   5   34.70    5.00
   1   1  -5   44.90    4.50
  -1   1   5   38.60    5.20
  -1   1   5   37.10    3.20
   1   1  -5   41.40    2.40
   1   1  -5   38.40    4.90
  -1   1   5   32.00    4.30
   1   1  -5   30.30    4.50
   0  -1  -5   68.59    5.70
   0  -1   5   72.79    4.90
   0  -1   5   67.89    5.40
   0  -1  -5   73.99    5.70
   0  -1  -5   71.59    5.30
   0  -1  -5   56.19    6.00
   0  -1   5   68.19    5.20
   0  -1   5   79.79    6.30
   0  -1  -5   70.29    4.30
   0   1  -5   72.89    4.10
   0   1  -5   63.69    5.00
   0   1   5   54.69    4.30
   0   1  -5   61.79    5.50
   0   1  -5   69.69    5.80
   0   1   5   69.79    5.90
   0   1   5   67.29    5.50
   0   1  -5   69.29    5.80
   0   1   5   68.49    5.00
   1  -1   5   95.89    6.80
   1  -1   5   88.19    5.80
  -1  -1  -5   78.49    6.30
  -1  -1  -5   78.39    6.00
  -1  -1  -5   76.79    5.80
  -1  -1  -5   83.59    5.40
  -1  -1  -5   84.39    6.20
   1  -1   5   86.69    4.60
   1  -1   5   75.09    6.40
  -1   1  -5   68.69    5.90
  -1   1  -5   85.09    5.50
   1   1   5   71.89    6.20
   1   1   5   80.19    6.00
   1   1   5   79.09    4.60
  -1   1  -5   82.69    6.00
  -1   1  -5   86.29    6.40
   1   1   5   81.99    5.80
  -1   1  -5   91.59    6.80
  -2  -1  -5  309.57   13.20
  -2  -1  -5  289.57   13.80
  -2  -1  -5  307.87   13.70
   2  -1   5  313.27   14.80
   2  -1   5  309.47   12.20
  -2  -1  -5  335.17   13.70
  -2  -1  -5  308.87   14.40
   2  -1   5  308.97   14.40
   2   1   5  316.37   10.20
  -2   1  -5  293.97   13.90
  -2   1  -5  313.77   14.60
  -2   1  -5  306.67   13.50
  -2   1  -5  286.47   13.80
   2   1   5  327.77   14.80
   2   1   5  293.37   14.20
  -2   1  -5  297.27   13.60
   2   1   5  329.07   12.80
   3  -1   5  809.72   28.40
   3  -1   5  792.42   24.40
  -3  -1  -5  753.02   27.20
  -3  -1  -5  784.52   26.60
  -3  -1  -5  757.62   27.00
   3  -1   5  815.32   29.70
  -3  -1  -5  791.82   28.50
  -3  -1  -5  740.23   27.90
   3   1   5  794.42   28.50
  -3   1  -5  758.32   27.80
  -3   1  -5  762.82   28.50
   3   1   5  785.22   29.00
  -3   1  -5  778.32   27.40
   3   1   5  784.52   25.10
  -3   1  -5  791.62   27.40
  -3   1  -5  713.93   27.80
   4  -1   5  250.87   12.80
  -4  -1  -5  244.08   11.60
  -4  -1  -5  233.18   13.00
  -4  -1  -5  248.88   12.50
  -4  -1  -5  206.58   12.80
   4  -1   5  264.07   15.10
  -4  -1  -5  245.28   13.50
  -4   1  -5  254.77   12.50
   4   1   5  252.17   13.00
  -4   1  -5  237.48   13.50
  -4   1  -5  267.07   14.10
   4   1   5  260.47   10.60
  -4   1  -5  241.28   13.60
   4   1   5  252.47   14.50
  -4   1  -5  260.27   13.20
  -5  -1  -5    4.70    2.80
  -5  -1  -5   10.50    3.20
  -5  -1  -5    6.40    3.30
  -5  -1  -5    9.60    3.50
   5  -1   5    8.60    2.90
   5  -1   5    2.30    3.00
  -5   1  -5    9.90    3.00
  -5   1  -5   10.40    3.60
   5   1   5    8.30    3.60
  -5   1  -5   11.60    3.50
   5   1   5   11.90    3.50
  -5   1  -5    4.40    2.90
  -5   1  -5    8.80    3.70
  -6  -1  -5    5.90    3.60
   6  -1   5    8.70    3.00
  -6  -1  -5    9.50    3.80
   6  -1   5    9.80    4.70
  -6  -1  -5   21.60    5.30
  -6   1  -5   15.10    5.00
   6   1   5    6.80    3.80
  -6   1  -5    9.90    3.80
  -6   1  -5   11.50    3.90
   6   1   5    6.80    2.80
  -6   1  -5    4.50    3.60
   6  -2  -5   82.59    8.50
   6  -2  -5   89.49    9.90
  -6  -2   5   92.49   10.80
   6  -2  -5  104.19    8.80
   6  -2  -5   93.39    8.30
  -6  -2   5  115.29    9.40
  -6  -2   5  111.99   12.50
  -6   2   5   92.09   10.50
   6   2  -5  113.39    9.70
   6   2  -5  116.39    9.00
   6   2  -5  103.39    8.20
  -6   2   5   87.69   10.20
   5  -2  -5   82.39    8.90
   5  -2  -5   88.49    9.20
  -5  -2   5   68.39    8.70
  -5  -2   5   79.19    9.20
   5  -2  -5   78.29    6.30
   5  -2  -5   82.39    8.80
  -5  -2   5   87.09    7.80
   5   2  -5   73.49    8.30
   5   2  -5   75.09    8.70
   5   2  -5   91.29    7.30
  -5   2   5   80.59    9.20
  -5   2   5   83.29    9.30
  -5   2   5   82.19    7.20
   5   2  -5   80.49    9.00
   4  -2  -5   26.10    3.90
   4  -2  -5   31.00    5.70
  -4  -2   5   29.30    5.00
   4  -2  -5   27.60    4.70
  -4  -2   5   22.40    5.00
   4  -2  -5   19.80    4.00
  -4  -2   5   28.50    5.20
   4   2  -5   32.60    5.80
  -4   2   5   29.70    4.80
   4   2  -5   26.40    4.50
  -4   2   5   35.30    6.00
  -4   2   5   21.80    4.50
   4   2  -5   25.00    4.90
   4   2  -5   28.70    3.50
   4   2  -5   20.20    4.20
  -3  -2   5  136.39    9.20
  -3  -2   5  138.89    9.20
   3  -2  -5  146.99    9.30
   3  -2  -5  160.58    6.60
   3  -2  -5  153.48    7.80
   3  -2  -5  145.39    9.00
  -3  -2   5  131.79    9.40
   3  -2  -5  140.29    9.50
  -3   2   5  148.79    9.20
  -3   2   5  162.78    9.60
   3   2  -5  167.58    9.90
   3   2  -5  143.89    8.80
   3   2  -5  149.29    9.40
   3   2  -5  146.89    6.90
  -3   2   5  143.79    9.70
   3   2  -5  139.19    9.60
  -2  -2   5  141.79    6.90
  -2  -2   5  155.08    8.90
  -2  -2   5  146.69    9.10
   2  -2  -5  140.89    5.80
   2  -2  -5  154.38    7.60
   2  -2  -5  145.59    9.10
   2  -2  -5  141.69    8.80
  -2  -2   5  152.38    9.40
   2  -2  -5  130.69    8.30
   2   2  -5  138.49    8.50
  -2   2   5  146.59    9.20
  -2   2   5  140.09    8.80
  -2   2   5  141.39    8.50
   2   2  -5  135.59    8.70
   2   2  -5  150.78    9.50
   2   2  -5  146.59    6.80
   1  -2  -5  121.39    7.70
   1  -2  -5  129.09    7.00
  -1  -2   5  127.19    6.80
  -1  -2   5  124.49    7.40
  -1  -2   5  126.69    8.00
   1  -2  -5  127.29    7.90
   1  -2  -5  124.39    7.80
   1  -2  -5  115.69    5.30
  -1  -2   5  121.09    8.10
  -1   2   5  117.69    7.80
   1   2  -5  120.29    4.50
   1   2  -5  109.89    7.40
   1   2  -5  119.79    6.40
  -1   2   5  107.29    7.70
  -1   2   5  120.49    5.60
   1   2  -5  119.29    8.10
  -1   2   5  124.39    7.20
   1   2  -5  117.09    7.80
   0  -2   5  232.68   11.80
   0  -2   5  228.48   10.80
   0  -2  -5  229.78   11.10
   0  -2   5  211.78   10.50
   0  -2  -5  230.88   11.10
   0  -2  -5  225.28    9.00
   0  -2   5  226.68    9.60
   0  -2  -5  223.68   10.50
   0  -2  -5  229.58   11.30
   0   2  -5  223.58   10.20
   0   2  -5  228.08   11.40
   0   2   5  233.98    9.90
   0   2  -5  227.78    8.70
   0   2  -5  226.78   11.40
   0   2   5  220.08    9.60
   0   2   5  258.87   12.30
   0   2   5  234.18   11.20
   0   2  -5  229.58   11.60
   1  -2   5  578.54   19.80
  -1  -2  -5  532.15   20.40
   1  -2   5  571.34   21.90
  -1  -2  -5  580.54   19.10
  -1  -2  -5  555.74   21.30
  -1  -2  -5  544.35   20.60
   1  -2   5  561.64   21.20
   1  -2   5  562.44   17.10
  -1  -2  -5  546.05   20.30
  -1   2  -5  598.74   19.40
   1   2   5  568.34   17.70
  -1   2  -5  573.04   21.50
   1   2   5  580.04   20.50
  -1   2  -5  543.05   21.20
   1   2   5  550.64   20.30
  -1   2  -5  566.04   20.50
   1   2   5  572.84   22.00
  -2  -2  -5  330.37   15.20
  -2  -2  -5  356.26   14.60
   2  -2   5  350.96   13.20
   2  -2   5  355.56   15.70
  -2  -2  -5  352.36   14.70
  -2  -2  -5  357.16   14.30
   2  -2   5  355.66   16.20
  -2  -2  -5  326.57   14.90
   2   2   5  359.86   15.60
   2   2   5  359.86   11.40
  -2   2  -5  349.47   14.70
  -2   2  -5  364.46   15.50
   2   2   5  318.77   15.40
  -2   2  -5  333.67   15.30
  -2   2  -5  343.27   15.20
   2   2   5  354.26   14.00
  -3  -2  -5  645.74   24.90
   3  -2   5  673.03   26.50
  -3  -2  -5  624.14   23.80
  -3  -2  -5  676.43   24.10
   3  -2   5  702.53   21.40
   3  -2   5  695.83   25.00
   3  -2   5  676.43   25.00
  -3  -2  -5  651.13   24.90
  -3  -2  -5  679.43   23.10
  -3   2  -5  675.53   25.10
   3   2   5  659.03   25.10
  -3   2  -5  679.33   24.60
   3   2   5  687.43   22.40
   3   2   5  620.74   25.10
  -3   2  -5  604.34   24.60
  -3   2  -5  625.54   24.20
  -4  -2  -5   56.19    7.50
  -4  -2  -5   60.99    6.50
   4  -2   5   57.99    8.00
  -4  -2  -5   52.19    6.80
   4  -2   5   55.49    7.80
   4  -2   5   61.29    7.00
  -4  -2  -5   61.29    7.40
  -4   2  -5   72.59    8.30
   4   2   5   67.09    4.90
  -4   2  -5   60.09    6.90
  -4   2  -5   73.89    7.90
   4   2   5   66.99    7.30
  -4   2  -5   59.69    7.90
  -4   2  -5   60.29    7.50
   4   2   5   57.79    7.70
  -5  -2  -5   19.60    4.10
   5  -2   5   15.90    3.80
  -5  -2  -5   10.60    3.60
   5  -2   5   19.10    5.30
  -5  -2  -5   19.40    4.70
   5  -2   5   17.20    5.00
  -5  -2  -5   23.10    5.10
  -5   2  -5   18.80    4.40
   5   2   5   19.70    5.30
  -5   2  -5   21.40    5.30
   5   2   5   16.10    4.00
  -5   2  -5   15.90    3.70
  -5   2  -5   14.10    4.50
  -5   2  -5   16.50    4.50
   6  -2   5   72.19   10.10
  -6  -2  -5   72.29    9.80
   6  -2   5   55.59    9.50
  -6  -2  -5   68.69    9.30
  -6  -2  -5   76.29    9.40
  -6   2  -5   70.09    8.30
  -6   2  -5   86.59    9.60
  -6   2  -5   68.79    9.90
   6   2   5   71.69    8.20
   6   2   5   80.59   10.60
  -6   2  -5   83.59   10.90
  -6   2  -5   62.29    9.20
   6  -3  -5  154.68   11.20
  -6  -3   5  179.98   12.40
   6  -3  -5  192.78   11.40
   6  -3  -5  199.78   12.80
   6  -3  -5  176.88   11.80
  -6  -3   5  189.48   13.40
  -6  -3   5  191.28   13.60
   6   3  -5  177.38   11.00
   6   3  -5  211.88   13.50
  -6   3   5  202.98   13.30
   6   3  -5  182.88   13.20
  -6   3   5  153.08   11.60
   6   3  -5  177.28   11.60
   5  -3  -5  160.28    9.50
  -5  -3   5  172.58   11.20
   5  -3  -5  161.98   10.60
  -5  -3   5  149.88   11.30
   5  -3  -5  166.88   10.80
  -5  -3   5  171.38   12.00
   5  -3  -5  174.18   11.30
   5   3  -5  159.08   10.50
  -5   3   5  164.68   10.20
   5   3  -5  170.88   11.60
   5   3  -5  147.79    9.60
  -5   3   5  162.78   11.10
  -5   3   5  165.78   11.40
   5   3  -5  162.88   11.50
  -4  -3   5   53.79    7.70
   4  -3  -5   49.40    6.90
   4  -3  -5   59.99    5.10
  -4  -3   5   54.19    6.90
   4  -3  -5   56.69    7.00
  -4  -3   5   66.79    7.90
   4  -3  -5   49.40    6.30
  -4   3   5   49.50    7.10
  -4   3   5   68.09    7.40
   4   3  -5   56.29    7.40
   4   3  -5   61.69    6.70
   4   3  -5   61.39    7.60
   4   3  -5   53.99    6.70
  -4   3   5   64.19    7.60
  -3  -3   5   84.69    7.10
  -3  -3   5   89.59    7.30
  -3  -3   5   91.59    5.20
  -3  -3   5   91.69    7.70
   3  -3  -5   93.49    6.00
   3  -3  -5   96.89    5.10
   3  -3  -5   90.59    7.10
   3  -3  -5   80.99    6.70
   3  -3  -5   92.79    7.50
  -3   3   5   92.89    7.20
  -3   3   5   81.79    8.70
   3   3  -5   97.09    7.00
   3   3  -5   89.29    4.90
   3   3  -5   92.59    7.40
   3   3  -5   99.49    7.60
  -3   3   5   95.59    7.20
   3   3  -5   96.69    7.90
   2  -3  -5  125.49    8.30
  -2  -3   5  114.09    8.10
   2  -3  -5  130.69    7.10
  -2  -3   5  113.89    8.20
  -2  -3   5  149.99    7.10
   2  -3  -5  117.69    5.50
   2  -3  -5  106.39    7.60
   2  -3  -5  146.09    8.60
  -2  -3   5  124.39    8.10
   2   3  -5  121.79    6.00
  -2   3   5  135.29    8.50
   2   3  -5  131.19    8.20
   2   3  -5  140.09    8.30
  -2   3   5  124.19    8.50
   2   3  -5  124.89    8.30
  -2   3   5  121.89    7.80
   2   3  -5  126.79    8.80
  -1  -3   5   42.60    5.50
  -1  -3   5   45.60    5.60
   1  -3  -5   44.80    5.30
   1  -3  -5   55.79    4.50
   1  -3  -5   62.49    3.80
   1  -3  -5   67.69    5.50
  -1  -3   5   58.89    4.70
   1  -3  -5   56.69    6.10
  -1  -3   5   53.89    5.60
   1   3  -5   60.19    5.80
   1   3  -5   61.79    4.20
   1   3  -5   53.49    6.50
   1   3  -5   52.19    5.80
  -1   3   5   58.39    3.30
  -1   3   5   62.99    6.70
  -1   3   5   53.09    5.40
  -1   3   5   50.19    6.00
   1   3  -5   63.79    5.60
   0  -3  -5  200.08   10.60
   0  -3   5  206.68   10.30
   0  -3   5  208.68    9.30
   0  -3  -5  212.98   10.40
   0  -3  -5  209.18   10.10
   0  -3  -5  221.58   10.70
   0  -3   5  217.38   11.30
   0  -3  -5  209.98    8.80
   0  -3   5  211.68   10.40
   0   3  -5  215.48   11.10
   0   3   5  208.18   10.70
   0   3   5  200.78   11.10
   0   3   5  216.98    9.40
   0   3  -5  230.28   11.60
   0   3  -5  229.08   10.00
   0   3  -5  223.48    8.40
   0   3   5  206.38    9.00
   0   3  -5  208.58   10.90
   1  -3   5  586.74   22.60
  -1  -3  -5  603.84   22.20
   1  -3   5  588.04   18.00
   1  -3   5  586.74   20.40
  -1  -3  -5  606.24   20.00
   1  -3   5  611.04   22.50
  -1  -3  -5  597.24   21.00
  -1  -3  -5  570.04   21.30
  -1  -3  -5  568.24   21.40
  -1   3  -5  592.14   21.30
   1   3   5  592.34   21.40
  -1   3  -5  595.34   20.00
   1   3   5  626.94   23.20
  -1   3  -5  565.44   22.40
   1   3   5  592.14   20.90
   1   3   5  634.84   18.90
  -1   3  -5  576.54   22.40
  -1   3  -5  591.74   22.80
  -2  -3  -5  151.98    7.90
  -2  -3  -5  151.68    8.40
   2  -3   5  152.48    9.20
   2  -3   5  140.49    8.60
  -2  -3  -5  141.39    8.80
  -2  -3  -5  138.29    8.20
   2  -3   5  154.38    7.30
   2  -3   5  138.19    9.50
  -2  -3  -5  140.89    8.80
   2   3   5  133.79    9.00
   2   3   5  149.19    8.10
   2   3   5  138.09    8.80
  -2   3  -5  148.39    8.70
   2   3   5  155.28    6.50
  -2   3  -5  161.28    9.60
  -2   3  -5  158.98    9.40
  -2   3  -5  147.19    9.00
  -2   3  -5  148.29    9.40
  -3  -3  -5  277.17   13.90
   3  -3   5  292.17   14.20
  -3  -3  -5  282.57   13.70
   3  -3   5  287.67   13.60
  -3  -3  -5  280.07   11.80
  -3  -3  -5  273.37   13.40
   3  -3   5  263.97   14.90
  -3  -3  -5  287.57   12.80
  -3   3  -5  299.37   14.30
   3   3   5  277.27   11.90
  -3   3  -5  289.17   13.80
   3   3   5  289.37   14.20
  -3   3  -5  289.87   14.10
   3   3   5  266.37   14.00
  -3   3  -5  279.17   14.00
  -3   3  -5  265.87   14.30
   4  -3   5   15.80    3.70
  -4  -3  -5   13.90    3.60
  -4  -3  -5   14.90    3.10
  -4  -3  -5   20.50    4.60
  -4  -3  -5   12.90    3.80
   4  -3   5    8.20    3.60
   4  -3   5    9.50    3.60
   4   3   5   16.30    2.90
  -4   3  -5   14.80    4.00
  -4   3  -5    8.70    3.20
  -4   3  -5   18.00    4.10
   4   3   5   18.90    4.10
  -4   3  -5   10.20    3.70
   4   3   5   18.30    4.60
  -4   3  -5   12.30    3.30
  -5  -3  -5   48.30    7.30
  -5  -3  -5   40.20    6.50
  -5  -3  -5   51.29    7.10
   5  -3   5   30.90    6.50
   5  -3   5   49.50    6.20
   5  -3   5   56.29    8.60
  -5   3  -5   64.19    9.00
   5   3   5   53.59    8.20
  -5   3  -5   48.70    7.10
   5   3   5   42.40    4.90
   5   3   5   42.90    6.10
  -5   3  -5   46.40    7.30
  -5   3  -5   47.60    7.20
  -5   3  -5   51.09    6.80
  -6  -3  -5   90.39   10.10
  -6  -3  -5   75.59    9.70
  -6  -3  -5   77.69    9.70
   6  -3   5   95.09   12.60
   6  -3   5  105.19   12.90
  -6   3  -5   91.19    9.90
  -6   3  -5   87.39   10.70
  -6   3  -5  109.69   12.20
   6   3   5   94.39    8.20
  -6   3  -5   82.99   10.30
   6   3   5  101.69   12.00
  -6   3  -5  104.39   10.80
  -6  -4   5  105.49   12.60
   6  -4  -5   86.79    9.10
   6  -4  -5   91.89   10.20
  -6  -4   5   99.39   11.80
  -6  -4   5  104.99    9.20
   6  -4  -5   83.79    9.00
   6  -4  -5   72.19    8.90
  -6   4   5   92.59   10.40
   6   4  -5   97.59   11.20
   6   4  -5  134.19   13.50
  -6   4   5   85.39   10.10
   6   4  -5  101.29    8.60
  -5  -4   5   12.40    4.00
  -5  -4   5    8.80    3.30
   5  -4  -5    6.60    2.70
   5  -4  -5   10.70    3.50
   5  -4  -5    6.60    2.90
   5  -4  -5   10.30    3.10
  -5  -4   5    7.80    3.10
   5   4  -5    9.20    3.80
   5   4  -5    4.40    2.70
   5   4  -5    8.10    2.60
  -5   4   5    5.00    2.60
  -5   4   5    7.20    3.30
   5   4  -5    9.10    3.60
   4  -4  -5   26.60    4.60
  -4  -4   5   21.20    4.60
   4  -4  -5   24.40    3.70
  -4  -4   5   23.90    5.00
   4  -4  -5   26.80    4.70
   4  -4  -5   28.60    5.20
  -4  -4   5   41.80    6.30
   4  -4  -5   29.40    4.40
  -4   4   5   28.20    5.10
   4   4  -5   24.30    4.30
   4   4  -5   32.50    5.90
  -4   4   5   26.80    4.50
   4   4  -5   29.70    5.40
   4   4  -5   31.40    5.30
  -4   4   5   22.80    4.40
   3  -4  -5  152.98    7.00
   3  -4  -5  127.19    9.00
   3  -4  -5  140.19    9.00
  -3  -4   5  146.49    9.50
  -3  -4   5  143.69    9.80
   3  -4  -5  144.69    8.00
  -3  -4   5  154.48    7.40
  -3  -4   5  150.18    9.80
   3  -4  -5  145.69    9.20
   3   4  -5  156.88    8.90
   3   4  -5  149.88   10.10
  -3   4   5  147.69    9.80
  -3   4   5  138.99    9.00
   3   4  -5  143.19    9.30
   3   4  -5  133.19    9.20
  -3   4   5  153.18    9.30
   2  -4  -5   37.10    5.20
  -2  -4   5   37.20    5.40
   2  -4  -5   32.10    4.00
   2  -4  -5   43.20    5.60
  -2  -4   5   40.80    4.50
   2  -4  -5   35.30    4.90
  -2  -4   5   51.49    6.50
  -2  -4   5   36.70    5.20
   2  -4  -5   33.30    3.30
   2   4  -5   46.30    6.40
   2   4  -5   41.60    5.30
   2   4  -5   50.69    6.10
  -2   4   5   36.20    5.20
   2   4  -5   47.10    5.90
  -2   4   5   27.80    4.20
   2   4  -5   39.60    3.10
  -2   4   5   29.20    4.60
   1  -4  -5  195.68    8.20
  -1  -4   5  218.38   11.50
  -1  -4   5  222.48   10.20
  -1  -4   5  213.18   10.30
   1  -4  -5  208.88   10.60
   1  -4  -5  211.18   10.70
   1  -4  -5  210.18   10.80
   1  -4  -5  202.78    9.80
  -1  -4   5  205.08   10.90
   1   4  -5  216.28    8.90
  -1   4   5  196.98   10.90
  -1   4   5  209.98   11.20
  -1   4   5  216.78   10.10
   1   4  -5  214.28   11.70
   1   4  -5  212.98   10.80
   1   4  -5  217.98   10.30
   1   4  -5  213.78   11.30
   0  -4   5  137.89    8.60
   0  -4  -5  125.69    6.40
   0  -4   5  128.59    7.90
   0  -4   5  123.09    6.90
   0  -4  -5  128.69    7.50
   0  -4  -5  129.19    8.00
   0  -4   5  128.69    7.70
   0  -4  -5  127.09    7.70
   0  -4  -5  131.49    7.50
   0   4  -5  131.79    7.10
   0   4  -5  120.59    8.20
   0   4  -5  132.99    6.10
   0   4  -5  119.79    8.30
   0   4   5  121.19    8.20
   0   4  -5  127.19    8.20
   0   4   5  125.59    6.30
   0   4   5  135.69    8.30
   0   4   5  125.69    7.00
   0   4  -5  130.69    6.90
   1  -4   5   68.89    4.20
   1  -4   5   68.99    7.50
  -1  -4  -5   72.39    5.30
  -1  -4  -5   66.59    5.70
  -1  -4  -5   65.49    5.30
   1  -4   5   82.89    5.60
   1  -4   5   76.99    5.30
  -1  -4  -5   68.99    5.70
  -1  -4  -5   77.99    5.40
   1  -4   5   64.19    7.00
   1   4   5   78.09    4.90
   1   4   5   64.19    7.00
  -1   4  -5   72.39    5.70
  -1   4  -5   71.19    6.20
   1   4   5   62.39    5.40
  -1   4  -5   69.39    5.20
  -1   4  -5   72.39    6.30
   1   4   5   71.69    5.30
  -1   4  -5   64.89    7.10
  -2  -4  -5  148.39    8.20
  -2  -4  -5  143.99    8.90
  -2  -4  -5  150.38    8.90
  -2  -4  -5  139.59    7.30
  -2  -4  -5  123.69    7.80
   2  -4   5  140.59    8.60
   2  -4   5  138.79    8.90
   2  -4   5  148.19    7.00
   2  -4   5  144.59    9.80
  -2   4  -5  138.99    8.80
   2   4   5  145.99    8.70
   2   4   5  152.48    9.40
  -2   4  -5  137.29    9.10
   2   4   5  139.89    6.50
  -2   4  -5  132.19    9.10
  -2   4  -5  144.79    8.60
   2   4   5  124.89    7.70
  -2   4  -5  140.09    9.10
   3  -4   5  108.09    9.00
  -3  -4  -5  126.29    7.50
   3  -4   5  126.29    8.30
  -3  -4  -5  103.39    7.80
  -3  -4  -5  110.09    7.90
  -3  -4  -5  114.99    8.30
   3  -4   5  116.59    8.70
  -3   4  -5  124.29    8.80
   3   4   5  127.79    5.90
   3   4   5  110.69    7.00
   3   4   5  124.09    8.70
   3   4   5  138.39    9.00
  -3   4  -5  118.79    8.50
  -3   4  -5  136.29    9.20
  -3   4  -5  116.49    8.60
  -3   4  -5  119.89    9.10
  -4  -4  -5    2.10    2.20
   4  -4   5    7.20    3.20
   4  -4   5    0.30    1.80
  -4  -4  -5    1.70    2.20
   4  -4   5    2.30    2.40
  -4  -4  -5    2.40    2.00
  -4   4  -5    4.20    2.50
  -4   4  -5    0.60    2.10
   4   4   5    1.20    1.30
  -4   4  -5    6.10    2.80
  -4   4  -5    3.30    2.30
  -4   4  -5    8.60    3.40
   4   4   5    2.40    2.10
   4   4   5    6.10    2.90
   5  -4   5   60.29    9.10
  -5  -4  -5   75.89    8.50
   5  -4   5   71.39    9.70
  -5  -4  -5   67.09    8.50
  -5  -4  -5   77.79    9.10
  -5   4  -5   69.49    9.40
  -5   4  -5   57.09    8.20
  -5   4  -5   75.19    8.90
   5   4   5   74.29    5.70
  -5   4  -5   70.69    9.00
   5   4   5   94.29   10.70
  -5   4  -5   72.89    8.30
   5   4   5   67.59    7.90
   6  -4   5   11.50    4.90
  -6  -4  -5    8.00    3.90
  -6  -4  -5   18.50    5.10
   6  -4   5   14.10    5.50
   6   4   5   18.00    5.30
  -6   4  -5   12.10    5.00
  -6   4  -5   20.00    4.80
  -6   4  -5   12.70    4.50
  -6   4  -5   15.50    4.60
  -6   4  -5   13.70    4.50
   6   4   5   15.50    4.00
   6  -5  -5   11.50    4.00
  -6  -5   5   11.20    4.60
  -6  -5   5   12.10    4.30
   6  -5  -5    4.40    2.80
   6  -5  -5    6.00    3.00
  -6  -5   5   10.50    3.90
   6  -5  -5   12.40    4.10
   6   5  -5    7.40    4.00
  -6   5   5   12.70    4.10
   6   5  -5   11.10    4.20
   6   5  -5   15.10    4.10
  -6   5   5   15.50    4.40
  -5  -5   5   14.80    4.10
   5  -5  -5   12.80    3.40
   5  -5  -5   13.90    3.80
  -5  -5   5   14.30    4.40
  -5  -5   5   25.10    5.60
   5  -5  -5   13.30    3.70
   5  -5  -5   11.50    3.50
   5   5  -5   12.90    4.20
  -5   5   5   13.60    3.70
  -5   5   5    8.60    3.20
   5   5  -5   12.50    3.20
   5   5  -5   13.70    3.70
   4  -5  -5   36.10    5.80
  -4  -5   5   24.20    4.90
  -4  -5   5   18.80    4.30
   4  -5  -5   31.00    4.30
   4  -5  -5   27.50    4.80
   4  -5  -5   34.80    5.50
   4  -5  -5   33.30    4.90
  -4  -5   5   16.40    4.20
  -4   5   5   31.70    4.80
   4   5  -5   27.60    5.50
  -4   5   5   29.30    5.50
   4   5  -5   26.20    5.00
   4   5  -5   19.90    4.90
  -4   5   5   28.90    5.10
   4   5  -5   25.60    4.40
  -3  -5   5   91.49    9.40
   3  -5  -5   75.29    6.60
  -3  -5   5   79.49    5.30
  -3  -5   5   73.69    8.00
   3  -5  -5   62.79    6.80
   3  -5  -5   70.29    4.80
   3  -5  -5   79.49    6.70
  -3  -5   5   81.89    8.70
   3  -5  -5   74.79    5.70
  -3   5   5   75.49    6.40
  -3   5   5   79.29    7.90
   3   5  -5   79.69    6.80
   3   5  -5   76.59    6.10
  -3   5   5   78.49    8.30
   3   5  -5   84.99    8.70
   3   5  -5   77.99    8.40
   2  -5  -5  355.36   15.30
  -2  -5   5  344.67   13.60
   2  -5  -5  335.97   15.20
  -2  -5   5  354.16   15.30
  -2  -5   5  335.27   15.70
  -2  -5   5  318.57   15.60
   2  -5  -5  329.27   12.10
   2  -5  -5  369.16   15.40
   2   5  -5  363.16   16.60
   2   5  -5  334.77   15.40
   2   5  -5  350.86   15.20
   2   5  -5  345.77   14.90
  -2   5   5  343.67   15.80
  -2   5   5  351.26   15.50
  -2   5   5  321.97   14.40
  -1  -5   5   15.00    3.10
   1  -5  -5   13.00    2.90
   1  -5  -5   18.50    3.40
   1  -5  -5   18.10    2.60
  -1  -5   5   19.70    3.90
   1  -5  -5   21.10    3.70
   1  -5  -5   17.00    3.20
  -1  -5   5   21.50    4.00
  -1  -5   5   17.30    3.40
  -1   5   5   20.60    3.90
  -1   5   5   15.60    3.10
   1   5  -5   20.60    2.80
   1   5  -5   11.50    2.80
   1   5  -5   14.40    3.40
   1   5  -5   17.20    3.40
  -1   5   5   14.20    3.60
   1   5  -5   15.10    3.60
   0  -5  -5   11.50    2.70
   0  -5   5   17.60    3.60
   0  -5   5   19.10    3.10
   0  -5   5   20.40    3.50
   0  -5  -5   15.80    3.10
   0  -5  -5   16.90    3.20
   0  -5   5   18.00    3.60
   0  -5  -5   19.10    2.90
   0  -5  -5   19.80    3.50
   0  -5  -5   19.80    2.60
   0   5  -5   15.90    2.80
   0   5   5   11.80    3.10
   0   5  -5   17.90    3.00
   0   5   5   16.30    2.30
   0   5   5   19.70    3.30
   0   5  -5   18.10    3.70
   0   5  -5   24.10    4.40
   0   5   5   15.00    3.30
   1  -5   5   59.39    4.90
  -1  -5  -5   67.99    6.90
   1  -5   5   58.49    6.70
  -1  -5  -5   48.80    5.70
  -1  -5  -5   59.09    4.90
   1  -5   5   54.69    4.40
   1  -5   5   63.39    7.00
  -1  -5  -5   52.19    4.30
  -1  -5  -5   62.69    5.90
  -1   5  -5   59.99    6.20
  -1   5  -5   66.69    5.10
   1   5   5   56.79    4.60
   1   5   5   47.30    5.50
   1   5   5   59.49    4.50
   1   5   5   64.39    6.90
  -1   5  -5   61.39    6.80
  -1   5  -5   49.80    6.10
  -1   5  -5   62.99    7.30
  -2  -5  -5   43.80    5.00
  -2  -5  -5   30.00    4.40
   2  -5   5   57.99    7.60
   2  -5   5   42.30    5.70
   2  -5   5   49.00    6.10
  -2  -5  -5   46.10    5.60
  -2  -5  -5   37.60    5.50
  -2   5  -5   45.20    5.90
   2   5   5   42.90    5.30
   2   5   5   38.10    3.90
   2   5   5   36.60    5.30
   2   5   5   46.00    5.60
  -2   5  -5   33.50    5.20
  -2   5  -5   44.80    5.80
  -2   5  -5   38.30    6.10
  -2   5  -5   48.30    5.80
   3  -5   5  191.08   10.50
  -3  -5  -5  181.18    9.30
  -3  -5  -5  182.98   10.80
  -3  -5  -5  191.18   10.60
   3  -5   5  177.78   12.00
   3  -5   5  194.68   11.50
  -3  -5  -5  193.98   10.50
  -3   5  -5  180.08   11.20
  -3   5  -5  198.58   11.50
  -3   5  -5  184.38   11.60
  -3   5  -5  169.88   10.90
   3   5   5  176.08   10.50
   3   5   5  175.18    7.80
   3   5   5  178.68    9.40
  -3   5  -5  207.58   11.60
   3   5   5  194.08   11.10
  -4  -5  -5  249.58   12.60
   4  -5   5  232.28   13.80
  -4  -5  -5  243.68   13.30
   4  -5   5  229.88   14.70
   4  -5   5  232.08   12.00
  -4  -5  -5  240.18   13.00
  -4   5  -5  222.08   13.40
   4   5   5  242.38   11.30
  -4   5  -5  245.98   13.70
  -4   5  -5  251.37   13.40
   4   5   5  228.88   12.80
  -4   5  -5  213.88   13.20
   4   5   5  215.28   12.90
  -4   5  -5  217.58   13.50
  -5  -5  -5    1.80    2.40
   5  -5   5    3.90    3.50
   5  -5   5    3.90    3.00
  -5  -5  -5    2.60    2.30
  -5   5  -5    3.10    2.90
   5   5   5    4.90    2.70
  -5   5  -5    3.50    2.50
  -5   5  -5   -0.60    1.70
  -5   5  -5    2.80    2.50
   5   5   5    3.50    2.00
  -5   5  -5    0.50    2.00
   5   5   5    2.50    3.00
   6  -5   5   29.00    7.50
   6  -5   5   13.80    5.60
  -6  -5  -5   20.80    5.30
  -6  -5  -5    8.50    3.90
  -6  -5  -5   11.70    4.00
  -6   5  -5   14.50    4.60
   6   5   5   19.50    4.70
  -6   5  -5   10.90    4.30
   6   5   5   14.00    4.70
  -6   5  -5   16.40    5.30
  -6   5  -5   12.60    4.50
  -6   5  -5   15.40    4.60
   6  -6  -5   58.79    8.00
  -6  -6   5   74.19    9.80
  -6  -6   5   89.49   11.30
   6  -6  -5   80.79    9.70
  -6  -6   5   77.39   10.70
   6  -6  -5   74.09    9.20
   6  -6  -5   65.09    8.40
   6   6  -5   65.99    9.10
   6   6  -5   79.09   10.50
   6   6  -5   68.79    8.20
  -6   6   5   77.09    9.90
  -6   6   5   58.39    8.40
  -5  -6   5   36.70    6.30
   5  -6  -5   22.00    5.00
   5  -6  -5   28.70    5.20
   5  -6  -5   30.70    5.70
   5  -6  -5   26.20    5.00
  -5  -6   5   33.10    6.70
  -5  -6   5   31.60    6.20
   5   6  -5   33.90    6.40
   5   6  -5   34.30    5.60
  -5   6   5   34.60    5.90
   5   6  -5   26.60    5.70
  -5   6   5   30.60    5.80
  -4  -6   5  178.48   11.30
   4  -6  -5  148.19    8.40
  -4  -6   5  174.78    8.50
   4  -6  -5  166.78   10.40
  -4  -6   5  163.68   11.40
   4  -6  -5  159.68   10.00
  -4  -6   5  173.98   11.70
   4  -6  -5  147.59    9.10
   4  -6  -5  140.59    9.90
  -4   6   5  146.99    9.90
   4   6  -5  168.08   10.50
   4   6  -5  146.99   10.70
   4   6  -5  167.88    9.50
  -4   6   5  157.08   10.50
   4   6  -5  155.88   11.00
   3  -6  -5   42.00    5.90
   3  -6  -5   27.90    4.50
  -3  -6   5   43.20    6.40
   3  -6  -5   44.20    5.90
   3  -6  -5   37.50    4.80
   3  -6  -5   26.30    3.60
  -3  -6   5   39.70    6.30
  -3  -6   5   35.10    4.50
  -3  -6   5   36.70    6.20
   3   6  -5   38.20    6.10
   3   6  -5   32.50    5.10
  -3   6   5   42.60    5.60
  -3   6   5   35.00    5.30
   3   6  -5   37.30    5.80
  -3   6   5   45.30    6.50
   3   6  -5   36.10    4.90
   2  -6  -5   35.00    5.00
   2  -6  -5   34.10    4.70
  -2  -6   5   39.00    5.70
  -2  -6   5   30.60    5.10
   2  -6  -5   33.30    3.80
  -2  -6   5   40.30    4.70
  -2  -6   5   41.40    5.80
   2  -6  -5   21.40    3.90
   2  -6  -5   28.90    4.60
  -2   6   5   35.10    5.10
  -2   6   5   29.80    4.50
   2   6  -5   36.30    5.40
  -2   6   5   39.30    5.80
   2   6  -5   41.70    5.80
   2   6  -5   37.80    5.10
   2   6  -5   41.50    6.20
  -1  -6   5   35.00    4.80
   1  -6  -5   25.10    4.10
  -1  -6   5   23.70    4.30
  -1  -6   5   27.50    4.30
   1  -6  -5   25.60    3.80
   1  -6  -5   31.00    4.30
   1  -6  -5   34.50    3.80
   1  -6  -5   28.10    4.00
  -1  -6   5   20.20    4.30
   1   6  -5   26.30    4.10
  -1   6   5   26.00    4.50
   1   6  -5   30.60    5.20
  -1   6   5   27.20    4.20
   1   6  -5   25.70    4.40
   1   6  -5   32.90    4.90
  -1   6   5   27.50    4.50
   1   6  -5   32.90    3.70
   0  -6  -5  133.69    7.60
   0  -6   5  136.99    8.70
   0  -6   5  149.99    8.50
   0  -6  -5  149.49    6.50
   0  -6   5  139.59    9.00
   0  -6  -5  136.09    7.90
   0  -6  -5  132.79    7.10
   0  -6  -5  148.89    8.40
   0  -6   5  148.69    7.90
   0  -6  -5  148.99    8.60
   0   6   5  148.49    9.10
   0   6  -5  142.59    9.40
   0   6  -5  128.19    7.30
   0   6   5  133.39    8.70
   0   6  -5  154.68    9.30
   0   6   5  145.69    7.80
   0   6   5  144.29    6.50
   0   6  -5  153.58    7.60
   0   6  -5  141.09    9.10
  -1  -6  -5  101.39    6.20
   1  -6   5  110.09    8.20
  -1  -6  -5  114.19    7.50
  -1  -6  -5  116.99    6.30
  -1  -6  -5   99.19    6.40
  -1  -6  -5  111.59    7.30
   1  -6   5  119.69    7.10
  -1  -6  -5   99.69    6.50
   1  -6   5  103.19    7.70
   1  -6   5   99.99    6.20
  -1   6  -5  103.79    8.00
  -1   6  -5  100.19    6.90
   1   6   5  115.39    6.50
   1   6   5  103.29    6.10
  -1   6  -5  112.09    5.80
  -1   6  -5  104.59    7.90
  -1   6  -5  110.79    6.80
   1   6   5   91.39    7.30
  -1   6  -5  101.19    7.90
   1   6   5   98.49    7.10
   2  -6   5  115.49    8.00
  -2  -6  -5  116.89    7.70
  -2  -6  -5  118.09    8.00
  -2  -6  -5  119.99    7.50
   2  -6   5  107.29    8.80
  -2  -6  -5  115.99    7.50
  -2  -6  -5  100.19    6.50
   2  -6   5  113.39    8.00
  -2   6  -5  115.49    7.90
   2   6   5  114.69    7.40
  -2   6  -5   98.39    7.60
  -2   6  -5  107.39    8.40
   2   6   5  108.99    7.30
  -2   6  -5  120.89    8.60
   2   6   5  122.39    6.40
   2   6   5  133.89    8.80
  -2   6  -5  105.59    8.30
   3  -6   5   37.80    6.00
   3  -6   5   29.40    5.70
  -3  -6  -5   41.10    6.10
  -3  -6  -5   31.80    4.80
  -3  -6  -5   37.20    5.50
   3  -6   5   32.20    5.00
  -3  -6  -5   47.40    5.80
  -3   6  -5   32.50    5.70
   3   6   5   34.80    4.70
  -3   6  -5   40.30    6.20
   3   6   5   36.10    5.20
   3   6   5   34.50    5.30
  -3   6  -5   40.40    6.20
   3   6   5   32.70    3.70
  -3   6  -5   25.90    4.90
  -3   6  -5   31.00    5.20
   4  -6   5    7.00    3.20
  -4  -6  -5    5.90    2.80
  -4  -6  -5    4.20    2.30
  -4  -6  -5    6.70    2.90
   4  -6   5    5.90    3.40
  -4  -6  -5    3.40    2.60
  -4   6  -5    8.80    3.00
  -4   6  -5    5.80    3.00
  -4   6  -5    7.90    3.10
   4   6   5    3.60    2.00
   4   6   5    3.30    2.30
  -4   6  -5    8.80    3.30
  -4   6  -5    5.40    3.00
   4   6   5   10.90    3.30
   5  -6   5   56.09    9.00
  -5  -6  -5   51.89    7.50
   5  -6   5   37.70    7.70
  -5  -6  -5   39.20    6.30
  -5  -6  -5   48.40    7.40
  -5   6  -5   61.99    8.60
   5   6   5   35.80    5.90
   5   6   5   44.20    6.90
  -5   6  -5   54.99    8.50
  -5   6  -5   47.20    7.50
  -5   6  -5   55.99    7.90
   5   6   5   36.70    5.20
  -5   6  -5   37.60    6.50
  -6  -6  -5   16.50    4.60
   6  -6   5   26.00    7.00
   6  -6   5   25.20    6.70
  -6  -6  -5   16.00    4.70
  -6  -6  -5   17.50    5.10
  -6   6  -5    9.00    4.60
  -6   6  -5   20.20    5.60
   6   6   5   24.20    4.70
   6   6   5   26.70    6.00
  -6   6  -5   20.70    5.30
   6   6   5   17.60    4.70
  -6   6  -5   21.90    5.70
  -6   6  -5   19.90    5.80
   6  -7  -5   39.70    6.70
   6  -7  -5   39.30    7.10
  -6  -7   5   26.80    6.40
  -6  -7   5   34.90    7.20
   6  -7  -5   36.50    6.30
  -6  -7   5   28.10    6.10
   6  -7  -5   27.00    5.90
   6   7  -5   37.70    6.90
  -6   7   5   35.80    6.30
  -6   7   5   27.60    5.70
   6   7  -5   38.50    7.30
  -6   7   5   26.40    5.40
   5  -7  -5   52.99    7.30
  -5  -7   5   47.80    7.30
   5  -7  -5   76.79    8.00
  -5  -7   5   34.90    6.90
   5  -7  -5   69.89    8.80
  -5  -7   5   60.99    9.00
   5  -7  -5   49.80    6.90
   5  -7  -5   55.79    7.10
  -5   7   5   66.69    8.60
   5   7  -5   66.09    9.20
   5   7  -5   71.09    8.10
  -5   7   5   47.80    7.10
   5   7  -5   59.79    8.60
   4  -7  -5   92.19    7.50
   4  -7  -5   83.19    6.30
  -4  -7   5   79.19    9.60
   4  -7  -5  110.69    8.40
   4  -7  -5   75.99    6.50
   4  -7  -5   86.69    7.60
  -4  -7   5   79.29    9.60
  -4  -7   5   84.39    9.40
  -4  -7   5   83.29    6.00
  -4   7   5   87.49    9.40
   4   7  -5   81.89    8.40
  -4   7   5  102.29    8.00
   4   7  -5   79.69    9.30
   4   7  -5   91.59   10.10
   3  -7  -5   11.80    2.80
  -3  -7   5   18.30    4.20
   3  -7  -5   17.50    3.60
   3  -7  -5   14.40    3.40
  -3  -7   5   20.50    3.70
  -3  -7   5   16.00    4.30
   3  -7  -5   12.50    2.70
  -3  -7   5   15.50    4.00
   3  -7  -5   15.90    3.60
   3   7  -5   21.20    4.90
   3   7  -5   22.70    4.60
   3   7  -5   19.30    4.20
   3   7  -5   21.80    3.90
  -3   7   5   19.90    4.50
  -3   7   5   22.50    4.10
  -3   7   5   12.90    3.30
  -2  -7   5  124.19    7.60
   2  -7  -5  127.29    6.70
  -2  -7   5  119.49    8.70
   2  -7  -5  123.29    7.70
  -2  -7   5  119.79    8.70
   2  -7  -5   97.49    7.30
   2  -7  -5  126.89    8.30
   2  -7  -5  123.79    8.00
   2   7  -5  135.79    9.60
   2   7  -5  129.29    8.80
   2   7  -5  128.89    8.70
   2   7  -5  121.69    7.90
  -2   7   5  119.89    8.00
  -2   7   5  145.39    9.40
  -2   7   5  125.79    8.20
  -1  -7   5   17.00    4.00
   1  -7  -5    7.00    2.20
  -1  -7   5   22.10    4.10
  -1  -7   5   14.40    3.40
   1  -7  -5   14.10    2.90
   1  -7  -5   17.10    3.20
   1  -7  -5   16.20    2.80
   1  -7  -5   13.10    3.20
  -1   7   5   13.60    3.40
   1   7  -5   16.40    3.80
   1   7  -5   14.40    3.50
  -1   7   5   14.10    3.20
  -1   7   5   13.10    3.40
   1   7  -5   13.00    3.40
   1   7  -5   10.70    2.90
   0  -7   5  131.29    8.00
   0  -7  -5  148.09    7.60
   0  -7  -5  136.79    8.30
   0  -7  -5  128.79    7.10
   0  -7   5  151.68    9.30
   0  -7  -5  119.99    7.70
   0  -7   5  139.49    7.80
   0  -7  -5  136.69    7.80
   0  -7   5  147.29    9.30
   0   7   5  143.39    9.00
   0   7   5  136.39    7.80
   0   7  -5  134.19    8.80
   0   7   5  132.79    8.60
   0   7  -5  131.49    9.00
   0   7  -5  129.19    7.10
   0   7  -5  138.99    7.60
   0   7  -5  140.09    9.60
   1  -7   5   95.39    6.60
   1  -7   5  103.19    7.70
  -1  -7  -5   99.19    6.30
  -1  -7  -5   98.19    5.90
  -1  -7  -5  113.69    6.90
  -1  -7  -5  104.79    7.10
   1  -7   5  105.59    8.20
  -1  -7  -5   90.09    6.90
   1   7   5  110.99    7.60
  -1   7  -5  115.19    7.30
   1   7   5  104.29    7.70
  -1   7  -5  103.39    6.80
  -1   7  -5   98.99    7.90
  -1   7  -5   94.79    8.00
   1   7   5   97.59    6.10
  -1   7  -5  118.09    8.50
   1   7   5   98.79    6.00
  -2  -7  -5   75.69    6.00
   2  -7   5   72.29    7.60
  -2  -7  -5   75.79    6.00
   2  -7   5   73.59    7.60
  -2  -7  -5   64.59    5.40
   2  -7   5   76.09    8.50
  -2  -7  -5   73.19    7.60
   2   7   5   66.79    4.90
  -2   7  -5   67.09    7.80
  -2   7  -5   65.19    7.70
  -2   7  -5   67.79    7.40
   2   7   5   72.79    6.50
   2   7   5   70.49    5.90
   2   7   5   69.79    5.60
  -2   7  -5   51.89    6.80
  -2   7  -5   69.09    7.20
  -3  -7  -5   64.09    6.60
  -3  -7  -5   48.90    6.00
   3  -7   5   40.50    5.60
  -3  -7  -5   41.70    5.90
   3  -7   5   70.59    8.10
  -3  -7  -5   49.99    6.30
   3  -7   5   42.10    7.00
  -3   7  -5   56.69    7.60
   3   7   5   56.99    5.20
  -3   7  -5   50.39    6.60
   3   7   5   59.29    7.20
  -3   7  -5   51.29    6.80
   3   7   5   44.90    5.70
  -3   7  -5   61.79    7.60
  -3   7  -5   36.20    6.00
   3   7   5   54.59    6.40
  -4  -7  -5    0.60    2.10
  -4  -7  -5    4.10    2.40
   4  -7   5    1.40    2.60
   4  -7   5    0.80    2.30
  -4  -7  -5    4.10    2.30
  -4   7  -5    0.10    1.70
  -4   7  -5    1.90    2.40
   4   7   5   -0.10    1.50
  -4   7  -5   -0.50    2.00
  -4   7  -5    2.70    2.60
   4   7   5    0.20    1.60
   4   7   5    1.10    1.90
  -4   7  -5    1.90    1.90
   5  -7   5   17.70    5.70
   5  -7   5    1.80    2.90
  -5  -7  -5    8.50    3.60
  -5  -7  -5   16.10    4.40
  -5  -7  -5    9.80    3.50
   5   7   5    9.40    3.20
  -5   7  -5   16.40    5.00
   5   7   5    9.00    3.00
  -5   7  -5   12.40    4.50
  -5   7  -5   13.50    4.20
  -5   7  -5   10.50    3.90
  -5   7  -5   20.40    5.50
   5   7   5   11.80    4.00
  -6  -7  -5   10.20    4.00
   6  -7   5   12.80    5.40
  -6  -7  -5    7.60    3.40
  -6  -7  -5    8.70    3.60
   6  -7   5   14.80    5.80
  -6   7  -5   15.60    4.90
  -6   7  -5    8.90    4.20
  -6   7  -5    7.60    4.20
   6   7   5   10.70    4.10
   6   7   5    7.80    3.30
   6   7   5   11.10    4.10
  -6   7  -5   20.80    5.50
  -6   7  -5   16.50    5.60
   5  -8  -5  116.69    8.90
  -5  -8   5   99.59   11.10
   5  -8  -5   94.99    8.40
  -5  -8   5   76.69   10.10
   5  -8  -5   95.89   10.40
   5  -8  -5  102.79    9.80
   5  -8  -5  101.09    8.80
  -5  -8   5  113.29    9.80
   5   8  -5   98.99   10.90
  -5   8   5  100.89    8.60
  -5   8   5  108.19   10.40
  -5   8   5   97.39   10.40
   5   8  -5   88.49   10.10
   4  -8  -5    3.20    2.00
  -4  -8   5    0.90    2.30
  -4  -8   5    4.90    3.20
   4  -8  -5    6.20    2.70
   4  -8  -5    3.20    1.90
  -4  -8   5    5.50    3.00
  -4  -8   5    6.50    2.30
   4  -8  -5    3.40    2.10
   4  -8  -5    3.10    2.40
  -4   8   5    9.00    3.30
   4   8  -5    5.80    2.80
   4   8  -5    7.20    3.30
  -4   8   5    2.30    2.20
   4   8  -5    9.00    3.80
  -3  -8   5   28.30    4.40
  -3  -8   5   38.80    6.60
   3  -8  -5   26.10    4.60
   3  -8  -5   31.30    4.40
   3  -8  -5   23.50    4.50
  -3  -8   5   24.20    5.10
   3  -8  -5   23.30    4.40
   3  -8  -5   33.70    5.00
  -3   8   5   28.80    5.20
   3   8  -5   28.80    5.60
   3   8  -5   32.20    5.30
  -3   8   5   17.70    3.80
   3   8  -5   25.90    5.10
  -2  -8   5   15.20    3.90
   2  -8  -5   11.00    2.50
   2  -8  -5   18.40    3.60
   2  -8  -5   13.40    3.20
  -2  -8   5   23.20    4.00
  -2  -8   5   10.30    3.20
   2  -8  -5   13.20    3.30
   2  -8  -5   17.60    3.40
  -2   8   5   19.20    4.40
   2   8  -5   19.40    4.10
   2   8  -5   13.50    3.80
   2   8  -5   15.20    3.40
  -2   8   5   19.90    3.90
  -2   8   5   16.00    3.60
   2   8  -5   12.30    3.40
  -1  -8   5   97.19    7.20
   1  -8  -5  110.89    7.10
  -1  -8   5   82.79    6.90
   1  -8  -5   93.59    7.00
  -1  -8   5   87.19    7.40
   1  -8  -5   97.59    6.70
   1  -8  -5   85.59    5.70
   1  -8  -5   99.49    6.50
   1   8  -5   88.69    6.80
  -1   8   5   88.49    6.60
   1   8  -5   90.99    7.00
   1   8  -5   98.79    7.70
  -1   8   5   94.39    7.50
  -1   8   5  101.49    7.30
   1   8  -5   99.69    8.30
   0  -8  -5  206.38    9.80
   0  -8   5  219.88   11.10
   0  -8   5  216.48   12.00
   0  -8  -5  222.18   10.40
   0  -8  -5  248.28   10.20
   0  -8  -5  220.18   11.10
   0  -8  -5  231.08   11.20
   0  -8   5  208.38   11.90
   0   8  -5  227.78   12.40
   0   8   5  212.88   11.50
   0   8  -5  223.48   10.40
   0   8   5  243.58   12.20
   0   8   5  209.68   10.40
   0   8  -5  218.18   11.90
   0   8  -5  231.68   13.00
  -1  -8  -5   20.00    3.20
  -1  -8  -5   19.20    3.00
  -1  -8  -5   13.20    3.30
  -1  -8  -5   23.20    3.80
   1  -8   5   14.10    3.50
   1  -8   5   20.90    3.90
   1  -8   5   15.50    4.20
  -1  -8  -5   14.50    3.10
   1   8   5   19.20    3.90
  -1   8  -5   15.70    3.80
  -1   8  -5   14.30    3.70
  -1   8  -5   15.70    3.80
  -1   8  -5   18.40    3.50
   1   8   5   13.70    2.70
   1   8   5   13.50    3.40
  -2  -8  -5  121.29    8.30
   2  -8   5  127.19    8.70
   2  -8   5  121.09    9.60
  -2  -8  -5  122.09    7.40
   2  -8   5  116.79    8.40
  -2  -8  -5  110.39    7.60
  -2  -8  -5  119.99    7.60
  -2   8  -5  114.19    9.20
   2   8   5  132.49    8.40
  -2   8  -5  118.89    9.20
  -2   8  -5  125.69    8.70
   2   8   5  115.79    6.80
   2   8   5  135.49    9.10
   2   8   5  131.29    7.70
  -2   8  -5  132.99    9.70
   3  -8   5   87.89    9.80
  -3  -8  -5   86.09    7.20
   3  -8   5   97.99   11.10
  -3  -8  -5   95.69    7.20
  -3  -8  -5  102.59    8.00
  -3   8  -5   91.59    9.80
  -3   8  -5   83.19    9.20
  -3   8  -5  111.29    9.20
   3   8   5  100.09    7.40
   3   8   5  106.89    8.20
   3   8   5  102.49    6.30
   3   8   5   96.79    7.20
  -3   8  -5   93.19    8.00
   4  -8   5  130.29   13.70
  -4  -8  -5  105.69    8.50
  -4  -8  -5  108.99    8.90
  -4  -8  -5  124.19    8.90
   4  -8   5  131.49   10.60
  -4   8  -5  121.09    9.90
   4   8   5  112.99    8.00
   4   8   5  104.99    6.90
  -4   8  -5  114.79   11.40
   4   8   5  121.59    8.90
  -4   8  -5  123.79   10.00
   4   8   5  113.09    8.90
  -4   8  -5  127.19   10.50
  -5  -8  -5   14.80    4.40
  -5  -8  -5   24.90    5.30
   5  -8   5   29.00    7.00
   5  -8   5   30.10    7.00
  -5  -8  -5   20.00    5.00
  -5   8  -5   29.70    6.60
   5   8   5   26.80    5.40
   5   8   5   22.60    4.50
   5   8   5   21.20    5.10
  -5   8  -5   28.90    6.10
  -5   8  -5   34.50    6.90
  -5   8  -5   17.60    5.10
  -5   8  -5   24.50    5.70
   5  -9  -5  156.88   11.30
  -5  -9   5  127.09   11.00
   5  -9  -5  159.18   11.20
  -5  -9   5  119.79   12.80
  -5  -9   5  118.59   13.30
   5  -9  -5  142.69   10.00
   5  -9  -5  162.18   11.30
   5  -9  -5  158.58   10.90
  -5   9   5  162.68   10.90
   5   9  -5  142.59   13.80
   5   9  -5  137.69   11.80
  -5   9   5  161.38   11.40
  -5   9   5  158.48   10.90
   5   9  -5  135.29   11.00
  -4  -9   5   59.39    6.40
   4  -9  -5   61.79    7.50
  -4  -9   5   45.50    7.40
  -4  -9   5   44.50    7.20
   4  -9  -5   43.30    5.80
   4  -9  -5   44.20    6.40
   4  -9  -5   62.59    7.70
   4  -9  -5   50.39    6.50
   4   9  -5   46.90    7.30
  -4   9   5   36.70    6.00
  -4   9   5   45.00    6.70
  -4   9   5   56.09    6.80
   4   9  -5   50.69    7.80
   4   9  -5   54.19    7.80
   4   9  -5   52.19    6.90
  -3  -9   5   63.69    6.80
   3  -9  -5   73.19    6.30
   3  -9  -5   86.19    6.90
  -3  -9   5   66.29    8.70
   3  -9  -5   75.59    8.40
   3  -9  -5   64.19    6.40
  -3  -9   5   57.39    7.60
   3  -9  -5   63.59    7.20
   3   9  -5   68.19    8.40
   3   9  -5   69.69    7.70
  -3   9   5   77.79    8.70
   3   9  -5   72.29    8.40
   3   9  -5   72.79    8.60
  -3   9   5   65.69    7.40
   2  -9  -5   42.70    5.50
   2  -9  -5   43.10    5.40
  -2  -9   5   45.90    5.80
  -2  -9   5   38.50    6.20
   2  -9  -5   49.70    6.20
  -2  -9   5   33.40    5.70
   2  -9  -5   42.50    5.30
   2  -9  -5   32.70    4.30
  -2   9   5   37.40    6.10
  -2   9   5   45.10    5.60
  -2   9   5   39.30    5.50
   2   9  -5   35.30    5.00
   2   9  -5   38.40    5.80
   2   9  -5   35.60    5.60
   2   9  -5   36.40    6.10
   1  -9  -5  282.47   12.50
  -1  -9   5  301.67   14.30
  -1  -9   5  305.37   15.10
   1  -9  -5  269.57   13.30
   1  -9  -5  277.37   11.90
   1  -9  -5  297.57   13.00
  -1  -9   5  287.57   14.00
   1  -9  -5  283.67   13.20
   1   9  -5  287.07   14.50
   1   9  -5  296.17   13.90
  -1   9   5  284.47   13.20
   1   9  -5  315.47   13.80
   1   9  -5  309.67   15.80
  -1   9   5  313.27   14.00
  -1   9   5  281.17   14.20
   0  -9  -5  168.38    8.90
   0  -9  -5  181.38    9.10
   0  -9   5  198.28   11.50
   0  -9  -5  200.08   10.10
   0  -9  -5  189.88   10.10
   0  -9   5  198.18   11.40
   0  -9   5  193.48   10.20
   0   9   5  187.88    9.80
   0   9  -5  194.28    9.70
   0   9  -5  169.78   11.50
   0   9  -5  192.88   11.50
   0   9   5  170.08   10.40
   0   9   5  165.58   10.10
   0   9  -5  187.98   10.90
  -1  -9  -5  372.26   15.30
  -1  -9  -5  369.66   13.70
   1  -9   5  343.37   16.30
  -1  -9  -5  350.56   14.50
   1  -9   5  339.57   17.10
  -1  -9  -5  356.46   15.60
   1   9   5  373.46   16.50
  -1   9  -5  399.86   18.00
  -1   9  -5  348.27   17.60
   1   9   5  364.96   16.20
   1   9   5  363.06   14.50
  -1   9  -5  375.96   17.30
   2  -9   5   18.20    4.00
   2  -9   5   15.90    3.90
  -2  -9  -5   11.30    3.00
  -2  -9  -5   18.10    3.30
   2  -9   5    9.80    3.60
  -2  -9  -5   14.30    3.50
   2   9   5    9.90    2.60
  -2   9  -5   11.80    3.60
   2   9   5   17.00    4.00
  -2   9  -5   19.10    4.70
  -2   9  -5   14.90    3.60
   2   9   5    8.70    2.80
  -2   9  -5   12.00    3.80
  -3  -9  -5   53.19    6.80
   3  -9   5   67.69    8.60
   3  -9   5   66.79    9.60
  -3  -9  -5   72.29    6.20
  -3  -9  -5   68.29    7.50
   3   9   5   79.29    8.50
  -3   9  -5   63.59    8.40
   3   9   5   71.79    7.40
  -3   9  -5   68.59    8.80
   3   9   5   57.59    6.40
  -3   9  -5   64.19    7.80
   3   9   5   69.79    6.50
  -3   9  -5   62.19    8.40
  -4  -9  -5   71.59    8.10
  -4  -9  -5   83.39    9.20
  -4  -9  -5   95.59    7.80
   4  -9   5   78.09   10.90
   4  -9   5  101.79   11.70
  -4   9  -5   94.89   10.60
  -4   9  -5   99.59   11.40
   4   9   5   90.89    7.70
   4   9   5  101.19    8.40
  -4   9  -5  113.99   11.60
  -4   9  -5   87.09    9.90
   4   9   5   94.89    7.50
   4   9   5   88.39    6.50
   5  -9   5  116.69   13.20
  -5  -9  -5  124.89    9.70
   5  -9   5  138.19   15.30
  -5  -9  -5  128.39   10.10
  -5  -9  -5  118.49    9.80
  -5   9  -5  100.99   11.80
   5   9   5  131.09    9.20
  -5   9  -5  132.69   11.30
   5   9   5  119.89    9.60
   5   9   5  130.49   10.10
  -5   9  -5  125.19   12.90
  -5   9  -5  114.19   12.00
   5 -10  -5   53.59    7.80
   5 -10  -5   39.30    7.00
  -5 -10   5   35.90    6.90
   5 -10  -5   41.90    6.90
  -5 -10   5   40.60    7.90
   5 -10  -5   38.20    6.40
   5 -10  -5   53.49    7.50
  -5 -10   5   58.99    7.80
  -5  10   5   38.20    6.40
   5  10  -5   54.89    9.00
   5  10  -5   52.69    7.80
   5  10  -5   52.29    8.80
  -5  10   5   49.80    7.30
  -5  10   5   36.60    6.10
  -4 -10   5   30.90    5.90
   4 -10  -5   33.40    5.70
   4 -10  -5   21.90    4.40
   4 -10  -5   19.90    4.60
  -4 -10   5   20.50    5.40
   4 -10  -5   20.30    4.60
  -4 -10   5   20.30    4.10
   4 -10  -5   21.10    4.60
  -4  10   5   15.50    4.20
   4  10  -5   30.00    6.30
   4  10  -5   26.40    5.90
   4  10  -5   26.20    5.90
  -4  10   5   27.40    5.10
  -4  10   5   19.40    4.80
   3 -10  -5   58.49    7.00
   3 -10  -5   46.60    6.40
   3 -10  -5   39.80    5.30
   3 -10  -5   51.69    6.30
  -3 -10   5   56.69    6.70
  -3 -10   5   39.80    6.60
  -3 -10   5   54.19    7.70
   3 -10  -5   52.59    6.50
   3  10  -5   47.10    7.20
   3  10  -5   44.10    7.00
  -3  10   5   46.90    6.40
  -3  10   5   47.40    6.00
   3  10  -5   46.70    6.40
  -3  10   5   48.60    6.80
   3  10  -5   57.39    8.10
   2 -10  -5   50.69    6.00
  -2 -10   5   41.20    6.40
  -2 -10   5   36.20    5.90
   2 -10  -5   43.90    5.80
   2 -10  -5   38.60    5.30
   2 -10  -5   39.10    5.10
   2 -10  -5   36.90    5.10
  -2 -10   5   53.39    6.70
   2  10  -5   45.30    7.10
   2  10  -5   37.60    5.90
   2  10  -5   32.80    5.60
  -2  10   5   34.00    5.60
  -2  10   5   38.20    5.00
  -2  10   5   44.60    6.50
   1 -10  -5   23.50    4.10
  -1 -10   5   25.00    5.10
  -1 -10   5   28.40    5.20
   1 -10  -5   15.30    3.10
   1 -10  -5   23.60    4.40
   1 -10  -5   25.80    3.90
  -1 -10   5   28.40    4.90
  -1  10   5   32.40    5.40
  -1  10   5   21.40    4.10
  -1  10   5   18.50    3.70
   1  10  -5   30.30    5.30
   1  10  -5   22.40    4.20
   1  10  -5   24.50    5.20
   1  10  -5   22.00    4.40
   0 -10  -5  343.67   15.10
   0 -10  -5  340.37   14.00
   0 -10   5  329.37   16.50
   0 -10   5  329.37   16.30
   0 -10  -5  368.46   15.20
   0  10   5  351.26   15.50
   0  10  -5  342.67   16.10
   0  10  -5  352.06   17.70
   0  10   5  337.07   14.40
   0  10   5  356.76   16.30
   0  10  -5  345.97   14.50
   0  10  -5  346.67   16.80
  -1 -10  -5  119.39    8.00
  -1 -10  -5   98.39    7.00
   1 -10   5  102.59   10.80
   1 -10   5  119.69    8.60
  -1  10  -5  128.59    9.60
  -1  10  -5  110.89    8.80
   1  10   5   88.99    6.70
  -1  10  -5  110.99    9.20
   1  10   5  121.19    8.50
   1  10   5  104.19    7.90
   2 -10   5   21.70    5.20
  -2 -10  -5   36.40    5.20
  -2 -10  -5   31.90    4.40
  -2 -10  -5   24.20    4.40
   2 -10   5   40.80    6.40
   2  10   5   35.30    4.70
  -2  10  -5   32.70    6.00
   2  10   5   41.80    6.00
  -2  10  -5   32.70    5.70
  -2  10  -5   30.70    6.00
   2  10   5   28.50    4.90
   3 -10   5   71.99    9.00
  -3 -10  -5   62.69    6.80
  -3 -10  -5   81.19    8.20
  -3 -10  -5   70.79    8.00
   3 -10   5   58.79    9.20
  -3  10  -5   51.69    7.70
   3  10   5   75.09    8.40
   3  10   5   74.79    7.90
   3  10   5   65.69    6.50
  -3  10  -5   55.09    7.50
  -3  10  -5   63.99    8.40
  -3  10  -5   68.49    9.20
  -4 -10  -5   16.40    3.90
   4 -10   5   16.10    5.30
  -4 -10  -5   15.50    4.10
  -4 -10  -5   21.00    4.70
   4 -10   5    8.80    4.20
  -4  10  -5   13.30    4.70
   4  10   5   14.80    3.90
   4  10   5   12.80    3.20
  -4  10  -5   14.80    4.70
   4  10   5   19.10    4.20
  -4  10  -5   14.60    4.40
   4  10   5   21.20    5.00
  -4  10  -5   16.00    4.80
  -5 -10  -5   26.50    5.50
   5 -10   5   20.60    6.30
   5 -10   5   22.20    6.20
  -5 -10  -5   20.50    5.00
  -5 -10  -5   14.60    4.10
  -5  10  -5   27.80    6.80
  -5  10  -5   22.80    5.70
   5  10   5   20.40    4.70
   5  10   5   20.80    5.00
   5  10   5   27.70    5.20
  -5  10  -5   23.00    5.80
  -5  10  -5   31.30    6.70
  -4 -11   5   79.09   10.40
  -4 -11   5   75.89    9.60
  -4 -11   5   87.49    7.50
   4 -11  -5  107.39    8.60
   4 -11  -5   69.39    8.20
   4 -11  -5   85.69    9.10
   4 -11  -5   91.59    7.90
   4 -11  -5   98.39    8.60
  -4  11   5   88.79    7.70
  -4  11   5   90.79    9.40
   4  11  -5   77.59    9.90
   4  11  -5  103.39   11.10
   4  11  -5   82.49   10.20
  -4  11   5   84.89    9.40
  -3 -11   5  113.19   11.70
  -3 -11   5  110.79    8.30
  -3 -11   5   74.19    9.00
   3 -11  -5  117.09    8.30
   3 -11  -5   99.99    7.50
   3 -11  -5  115.89    8.40
   3 -11  -5  110.59    8.30
   3 -11  -5   97.99    8.20
   3  11  -5  109.29   11.60
   3  11  -5   93.99   10.30
   3  11  -5  111.09   10.90
  -3  11   5   97.49    7.60
  -3  11   5  106.59   10.00
  -3  11   5  104.59    8.60
   2 -11  -5   78.79    8.10
  -2 -11   5   72.09    8.70
   2 -11  -5   81.49    6.20
  -2 -11   5   72.49    8.80
   2 -11  -5   82.29    6.40
   2 -11  -5   68.89    7.10
  -2 -11   5   79.49    8.60
   2 -11  -5   55.19    6.50
   2  11  -5   62.09    7.80
   2  11  -5   73.89    8.20
  -2  11   5   87.19    8.60
   2  11  -5   72.49    8.20
  -2  11   5   74.19    8.50
   2  11  -5   64.29    8.50
  -1 -11   5   98.99    8.00
  -1 -11   5  108.09    8.80
   1 -11  -5  115.09    8.00
   1 -11  -5  113.39    7.90
  -1 -11   5  104.19    8.50
   1 -11  -5   97.69    7.00
   1  11  -5   97.99    9.30
   1  11  -5  115.49    8.80
  -1  11   5  122.19    8.30
  -1  11   5  108.09    8.50
   1  11  -5  101.89    9.10
   0 -11  -5  131.59    8.10
   0 -11   5  128.59    9.30
   0 -11  -5  127.29    8.30
   0 -11   5  135.79   10.10
   0 -11  -5  130.89    8.00
   0  11  -5  130.69   10.30
   0  11   5  121.49    8.50
   0  11   5  116.79    8.00
   0  11  -5  131.49    9.70
   0  11  -5  138.39    9.40
   0  11   5  124.49    8.90
   1 -11   5  214.38   13.90
  -1 -11  -5  219.58   11.10
  -1 -11  -5  242.38   12.20
   1 -11   5  237.68   12.90
  -1  11  -5  221.98   13.50
   1  11   5  221.18   11.20
  -1  11  -5  247.28   13.70
   1  11   5  233.68   12.60
   1  11   5  236.28   12.40
  -1  11  -5  212.68   13.80
  -2 -11  -5   11.90    2.90
  -2 -11  -5   11.10    3.30
   2 -11   5    7.50    3.80
  -2 -11  -5   13.20    3.40
   2  11   5   11.20    3.60
   2  11   5   10.70    3.30
  -2  11  -5    8.00    3.20
  -2  11  -5    9.40    3.70
  -2  11  -5   13.10    4.10
   2  11   5    6.70    2.50
   3 -11   5   27.30    5.80
   3 -11   5   13.50    4.90
  -3 -11  -5   17.80    4.00
  -3 -11  -5   17.70    3.80
  -3 -11  -5   17.80    4.20
   3  11   5   17.20    3.40
  -3  11  -5   20.90    5.40
  -3  11  -5   16.40    4.60
  -3  11  -5   24.30    5.70
   3  11   5   19.10    4.40
   3  11   5   29.90    5.50
   4 -11   5   65.99    9.60
  -4 -11  -5   73.19    8.40
  -4 -11  -5   64.39    7.90
   4 -11   5   64.89   10.70
  -4 -11  -5   72.89    8.20
  -4  11  -5   58.49    8.40
  -4  11  -5   66.89    9.80
  -4  11  -5   76.89   10.10
   4  11   5   70.49    8.10
   4  11   5   67.39    8.30
  -4  11  -5   82.59   10.60
   4  11   5   61.99    6.90
  -4 -12   5   18.90    5.00
   4 -12  -5   29.00    5.50
  -4 -12   5   30.50    7.00
   4 -12  -5   36.30    5.90
   4 -12  -5   34.00    6.10
  -4 -12   5   27.50    5.40
   4 -12  -5   35.50    6.00
   4 -12  -5   33.00    5.70
  -4  12   5   21.50    4.80
   4  12  -5   22.30    5.80
  -4  12   5   29.60    5.50
   4  12  -5   25.40    6.20
   4  12  -5   29.50    6.80
  -4  12   5   27.60    5.20
   3 -12  -5   32.20    5.80
   3 -12  -5   21.60    4.50
  -3 -12   5   19.80    5.20
  -3 -12   5   18.70    5.00
   3 -12  -5   32.00    5.70
   3 -12  -5   40.70    6.00
  -3 -12   5   31.20    5.50
   3 -12  -5   38.60    5.90
   3  12  -5   36.10    6.80
  -3  12   5   32.20    5.70
  -3  12   5   30.60    5.60
  -3  12   5   32.70    6.10
   3  12  -5   28.80    5.90
   3  12  -5   30.10    6.00
  -2 -12   5    6.70    3.20
  -2 -12   5   15.30    4.10
   2 -12  -5    5.80    2.70
   2 -12  -5    8.70    2.90
  -2 -12   5    7.80    3.20
   2 -12  -5    5.00    2.30
  -2  12   5    9.10    3.00
   2  12  -5    9.30    3.60
   2  12  -5   10.30    3.70
   2  12  -5   10.20    3.60
  -2  12   5   11.60    3.40
  -1 -12   5   91.69   10.10
   1 -12  -5  115.99    7.80
   1 -12  -5  126.39    8.40
   1 -12  -5  117.79    8.30
  -1 -12   5  102.59    8.80
  -1  12   5  110.99    8.70
   1  12  -5  109.09    8.50
   1  12  -5  125.99   10.30
  -1  12   5  114.49    8.20
   1  12  -5  118.89    9.20
   0 -12   5    1.70    2.20
   0 -12  -5    5.90    2.60
   0 -12  -5    4.20    2.00
   0 -12   5    3.40    2.80
   0  12   5    3.10    2.10
   0  12   5    2.60    2.30
   0  12  -5    3.00    2.80
   0  12  -5    3.80    2.40
   0  12   5    8.60    3.00
   1 -12   5   25.30    5.90
  -1 -12  -5   25.40    4.30
  -1 -12  -5   25.00    4.50
  -1  12  -5   25.10    5.30
  -1  12  -5   22.70    5.10
   1  12   5   14.40    3.50
  -1  12  -5   23.20    5.40
   1  12   5   20.80    4.40
   1  12   5   22.00    4.50
  -2 -12  -5   67.29    5.70
  -2 -12  -5   72.59    7.80
  -2 -12  -5   68.49    7.60
   2 -12   5   56.59    8.50
   2  12   5   78.39    8.30
  -2  12  -5   88.69   10.40
   2  12   5   68.29    7.00
   2  12   5   57.39    7.10
  -2  12  -5   79.39    9.80
  -2  12  -5   67.19    8.80
  -3 -12  -5  151.38    9.30
  -3 -12  -5  138.39    9.70
   3 -12   5  140.49   14.60
  -3 -12  -5  162.98   10.20
   3 -12   5  157.18   13.10
  -3  12  -5  160.58   12.60
  -3  12  -5  176.78   12.80
   3  12   5  146.49    9.20
   3  12   5  144.69   10.10
   3  12   5  175.28   11.20
  -3  12  -5  152.78   12.10
  -4 -12  -5   16.50    3.90
  -4 -12  -5   13.90    4.20
  -4 -12  -5   15.30    4.40
   4 -12   5   22.10    6.80
   4 -12   5   20.90    6.00
  -4  12  -5   23.00    6.00
   4  12   5   14.50    4.60
  -4  12  -5   17.50    5.30
   4  12   5   25.30    5.00
   4  12   5   14.90    3.80
  -4  12  -5   18.50    5.50
   3 -13  -5   11.00    3.90
   3 -13  -5    8.40    3.50
  -3 -13   5    7.60    3.70
   3 -13  -5    5.30    2.70
  -3 -13   5    6.50    4.00
  -3 -13   5    3.90    3.30
   3 -13  -5    7.80    3.00
   3  13  -5    5.20    3.40
   3  13  -5    5.60    3.60
  -3  13   5    5.00    3.00
  -3  13   5    5.60    3.00
   3  13  -5    6.20    3.80
   2 -13  -5    8.60    2.90
   2 -13  -5    9.30    3.30
  -2 -13   5    7.00    3.50
  -2 -13   5    5.40    3.00
   2 -13  -5    5.80    2.40
  -2 -13   5    8.50    3.60
   2  13  -5    5.30    3.00
  -2  13   5    4.30    2.60
  -2  13   5    5.20    3.00
   2  13  -5    8.40    3.90
   2  13  -5    8.30    3.60
  -1 -13   5   30.30    5.80
   1 -13  -5   25.20    4.40
   1 -13  -5   24.90    4.70
  -1 -13   5   21.10    5.00
   1  13  -5   26.40    5.80
  -1  13   5   24.50    4.50
   1  13  -5   28.80    5.40
  -1  13   5   29.90    5.20
   1  13  -5   23.10    5.10
   0 -13   5    9.60    4.20
   0 -13  -5    6.70    2.70
   0 -13  -5    4.90    2.20
   0  13  -5    3.40    2.70
   0  13   5    4.30    2.50
   0  13  -5    2.30    3.10
   0  13   5    2.50    2.40
  -1 -13  -5   70.59    7.50
  -1 -13  -5  102.19    7.40
   1 -13   5  101.29   11.60
  -1  13  -5   97.69   10.70
  -1  13  -5   92.89   10.80
   1  13   5   93.99    9.60
   1  13   5   84.49    8.30
   1  13   5   82.99    7.10
  -2 -13  -5    2.50    2.30
  -2 -13  -5    3.90    2.30
   2 -13   5    7.10    3.90
   2  13   5    3.70    2.70
  -2  13  -5    5.30    3.60
  -2  13  -5    3.40    3.20
   2  13   5    4.20    2.70
   2  13   5    4.40    2.40
  -2  13  -5    6.00    3.30
   3 -13   5   14.00    5.00
  -3 -13  -5   22.50    4.60
  -3 -13  -5   14.70    4.10
  -3 -13  -5   21.60    4.30
  -3  13  -5   18.40    5.50
   3  13   5   27.90    5.40
  -3  13  -5   23.10    6.20
   3  13   5   29.40    5.20
  -3  13  -5   19.20    5.70
   3  13   5   17.30    4.10
  -2 -14   5   21.60    5.40
   2 -14  -5   21.80    4.40
   2 -14  -5   23.70    4.90
  -2 -14   5   25.50    5.50
   2  14  -5   16.40    4.70
   2  14  -5   24.10    5.80
  -2  14   5   24.40    4.80
  -2  14   5   18.70    4.60
   1 -14  -5    4.50    2.70
  -1 -14   5    2.60    2.70
   1 -14  -5    3.60    2.20
  -1 -14   5    1.90    2.70
  -1  14   5    3.00    2.40
   1  14  -5   -0.10    2.70
  -1  14   5    1.00    2.20
   0 -14  -5    2.80    2.20
   0 -14  -5   -0.10    1.90
   0 -14   5    4.30    3.30
   0  14  -5    3.30    2.80
   0  14   5    1.20    1.80
   0  14   5    2.20    2.50
   0  14  -5    0.10    2.70
   1 -14   5   14.20    4.90
  -1 -14  -5    9.10    3.20
  -1 -14  -5   10.30    3.10
   1  14   5    8.90    2.90
   1  14   5   12.80    3.70
   1  14   5    5.60    2.70
  -1  14  -5    9.20    4.10
  -1  14  -5   11.40    4.20
   2 -14   5   10.40    4.60
  -2 -14  -5   13.70    3.60
  -2 -14  -5    7.70    3.00
  -2  14  -5    8.10    4.30
   2  14   5    7.70    3.30
  -2  14  -5    6.10    3.40
   2  14   5    4.10    2.40
   2  14   5   10.10    3.60
   6   0  -6  130.49   10.50
  -6   0   6  111.49   12.90
   6   0  -6  118.49   10.60
  -6   0   6  122.89   12.90
  -6   0   6  123.99   10.40
   6   0  -6  127.59   10.00
   5   0  -6   25.60    5.10
  -5   0   6   18.30    5.00
  -5   0   6   33.40    6.40
   5   0  -6   23.30    5.30
   5   0  -6   46.20    7.80
  -5   0   6   25.60    5.60
   4   0  -6  329.17   16.00
  -4   0   6  305.67   16.80
   4   0  -6  326.87   16.40
  -4   0   6  301.97   16.00
  -4   0   6  324.77   16.30
   4   0  -6  314.37   13.20
   4   0  -6  316.57   17.00
  -3   0   6  505.15   20.70
  -3   0   6  521.25   22.40
   3   0  -6  494.35   18.30
  -3   0   6  512.25   22.00
   3   0  -6  530.65   22.00
   3   0  -6  522.75   22.60
   3   0  -6  525.15   21.40
   2   0  -6 1364.86   45.20
  -2   0   6 1391.16   45.10
   2   0  -6 1336.37   40.90
   2   0  -6 1369.26   45.00
  -2   0   6 1350.26   41.60
   2   0  -6 1355.76   45.80
  -2   0   6 1366.96   45.70
  -1   0   6   99.59    7.50
  -1   0   6   82.59    7.40
  -1   0   6   95.59    6.70
   1   0  -6   85.79    7.20
  -1   0   6   94.59    6.00
   1   0  -6   89.49    7.20
   1   0  -6   81.39    7.20
   1   0  -6   79.59    5.80
   0   0   6   76.09    6.30
   0   0  -6   57.79    6.80
   0   0  -6   49.00    6.20
   0   0  -6   65.19    4.30
   0   0   6   64.09    5.50
   0   0  -6   77.69    6.60
  -1   0  -6  561.44   21.90
   1   0   6  543.75   17.60
  -1   0  -6  571.04   19.30
   1   0   6  550.04   21.40
   1   0   6  563.24   20.80
  -1   0  -6  534.65   21.80
  -1   0  -6  535.95   22.20
   1   0   6  567.54   23.00
  -1   0  -6  526.55   20.90
   2   0   6  555.74   22.10
  -2   0  -6  510.55   21.10
  -2   0  -6  508.05   20.90
  -2   0  -6  539.45   21.00
  -2   0  -6  476.45   21.40
   2   0   6  510.45   21.70
   2   0   6  516.35   19.20
  -2   0  -6  528.45   19.80
  -3   0  -6  334.87   15.90
   3   0   6  305.27   16.60
   3   0   6  332.57   16.20
  -3   0  -6  332.17   16.20
  -3   0  -6  345.57   15.60
  -3   0  -6  320.77   16.30
   3   0   6  307.67   13.10
  -3   0  -6  333.17   15.20
   4   0   6  656.33   25.70
  -4   0  -6  583.54   25.60
  -4   0  -6  658.33   24.50
  -4   0  -6  633.44   25.10
  -4   0  -6  606.54   25.70
   4   0   6  646.84   27.40
  -4   0  -6  593.54   24.80
  -5   0  -6    1.80    2.40
  -5   0  -6    4.80    3.30
  -5   0  -6    3.50    2.80
  -5   0  -6    5.80    3.20
   5   0   6    3.50    3.80
   5   0   6   -0.50    1.90
  -6   0  -6   58.19    8.90
   6   0   6   73.79   11.00
  -6   0  -6   50.69    8.40
  -6   0  -6   67.39    9.00
  -6   0  -6   78.29   10.30
   6   0   6   79.79    9.10
  -6  -1   6    9.90    4.40
   6  -1  -6    5.00    3.10
   6  -1  -6    2.20    2.40
  -6  -1   6    4.10    3.50
  -6  -1   6   12.70    4.40
   6  -1  -6    9.60    3.60
   6   1  -6    8.30    3.60
  -6   1   6    6.40    3.80
   6   1  -6    6.50    4.00
  -6   1   6   11.50    4.00
   6   1  -6   14.70    4.20
  -6   1   6    9.50    3.90
  -5  -1   6   12.10    4.00
   5  -1  -6    7.70    3.30
   5  -1  -6   12.80    4.20
   5  -1  -6    9.00    2.80
   5  -1  -6    8.20    3.20
  -5  -1   6    6.40    3.40
  -5  -1   6   13.60    4.50
   5   1  -6    5.10    2.70
   5   1  -6    8.70    3.60
  -5   1   6    8.60    3.30
  -5   1   6    2.80    2.70
   5   1  -6    8.10    3.30
  -5   1   6    8.90    3.30
   4  -1  -6  146.19    9.90
  -4  -1   6  129.79    9.80
   4  -1  -6  128.79    9.80
   4  -1  -6  126.59   10.10
  -4  -1   6  129.39   10.00
   4  -1  -6  131.79    7.80
  -4  -1   6  135.19   10.60
  -4   1   6  123.79    9.60
   4   1  -6  129.59   10.40
  -4   1   6  143.59   10.10
  -4   1   6  143.79   10.70
   4   1  -6  135.09    9.50
   4   1  -6  137.89    7.60
   4   1  -6  143.59   10.30
   3  -1  -6  102.39    8.20
  -3  -1   6   92.49    9.40
  -3  -1   6   85.29    9.30
   3  -1  -6   84.79    7.40
   3  -1  -6   93.59    6.30
   3  -1  -6  101.09   10.40
  -3  -1   6   76.79    8.80
  -3   1   6   95.89    8.10
  -3   1   6  101.79    9.70
  -3   1   6   97.09   10.10
   3   1  -6   85.99    5.70
   3   1  -6   96.39    9.70
   3   1  -6   89.69    7.50
   3   1  -6   99.79    8.50
   2  -1  -6    1.30    1.90
   2  -1  -6    1.90    1.70
   2  -1  -6    1.20    1.40
  -2  -1   6    0.20    1.50
   2  -1  -6    1.90    1.90
  -2  -1   6   -0.20    1.40
  -2  -1   6    0.70    1.80
   2   1  -6    1.70    1.30
   2   1  -6    1.50    1.70
  -2   1   6    0.60    1.70
  -2   1   6    2.30    2.30
   2   1  -6    3.50    2.00
  -2   1   6    2.60    2.00
   2   1  -6    2.70    1.90
   1  -1  -6   19.90    4.20
   1  -1  -6   14.60    3.50
  -1  -1   6   13.80    3.50
   1  -1  -6   19.70    3.60
  -1  -1   6   16.60    3.30
  -1  -1   6   16.70    3.80
  -1  -1   6   16.60    3.30
   1  -1  -6   26.90    4.90
   1  -1  -6   20.90    2.50
  -1   1   6   18.40    4.20
   1   1  -6   24.40    4.50
   1   1  -6   24.40    4.80
  -1   1   6   20.60    3.70
   1   1  -6   20.20    3.50
   1   1  -6   22.30    4.50
  -1   1   6   19.10    4.00
   0  -1   6  152.18    7.90
   0  -1   6  149.69    9.10
   0  -1  -6  150.78    9.60
   0  -1  -6  143.69    8.60
   0  -1   6  146.79    8.80
   0  -1   6  154.38   10.10
   0  -1  -6  140.69    9.30
   0  -1  -6  143.09    9.30
   0  -1  -6  151.68    7.10
   0   1   6  152.08    9.30
   0   1  -6  155.78    9.80
   0   1  -6  170.88   10.30
   0   1  -6  167.58    8.90
   0   1   6  154.18   10.10
   0   1   6  168.68    8.80
   0   1   6  133.79    7.70
   0   1  -6  155.08    7.00
   0   1  -6  136.59    9.30
   1  -1   6  307.67   14.40
   1  -1   6  281.07   10.80
   1  -1   6  264.37   14.40
  -1  -1  -6  289.77   13.80
  -1  -1  -6  284.17   14.10
  -1  -1  -6  303.77   12.30
  -1  -1  -6  296.37   14.00
  -1  -1  -6  286.67   14.50
   1  -1   6  268.67   12.80
   1   1   6  289.47   14.90
   1   1   6  323.27   13.90
   1   1   6  299.57   11.20
  -1   1  -6  295.07   12.20
   1   1   6  313.37   14.10
  -1   1  -6  288.47   14.50
  -1   1  -6  287.37   14.40
  -1   1  -6  278.97   14.10
  -1   1  -6  294.17   13.70
  -2  -1  -6  359.56   15.80
  -2  -1  -6  352.46   16.20
  -2  -1  -6  363.16   17.00
   2  -1   6  363.76   17.20
   2  -1   6  339.07   16.70
   2  -1   6  355.46   14.50
  -2  -1  -6  372.06   15.40
  -2  -1  -6  357.26   16.30
   2   1   6  347.27   16.50
  -2   1  -6  330.57   15.90
  -2   1  -6  335.17   15.90
  -2   1  -6  387.06   17.60
  -2   1  -6  352.06   16.50
   2   1   6  384.66   15.10
   2   1   6  367.86   17.20
  -2   1  -6  360.36   15.20
  -3  -1  -6   34.30    5.50
  -3  -1  -6   39.10    5.20
   3  -1   6   42.00    6.20
  -3  -1  -6   41.90    5.90
  -3  -1  -6   25.80    4.90
   3  -1   6   28.90    6.00
  -3  -1  -6   31.30    5.10
   3   1   6   43.00    4.90
  -3   1  -6   36.80    6.40
   3   1   6   47.10    7.20
  -3   1  -6   39.40    5.90
  -3   1  -6   34.60    5.70
  -3   1  -6   37.80    5.60
   3   1   6   34.70    5.80
  -3   1  -6   26.80    5.20
   4  -1   6   46.20    6.60
   4  -1   6   56.79    8.90
  -4  -1  -6   51.39    6.80
  -4  -1  -6   55.49    7.90
  -4  -1  -6   64.09    8.10
  -4  -1  -6   54.99    7.90
   4   1   6   64.49    8.10
  -4   1  -6   55.39    7.50
  -4   1  -6   49.90    6.70
  -4   1  -6   55.19    7.60
  -4   1  -6   49.80    7.50
   4   1   6   62.29    8.80
  -4   1  -6   55.99    7.00
   5  -1   6   12.60    3.90
  -5  -1  -6   12.80    4.30
  -5  -1  -6   22.60    5.40
  -5  -1  -6   19.30    5.00
  -5  -1  -6   15.10    4.00
   5  -1   6   20.00    5.70
  -5   1  -6   16.50    4.50
  -5   1  -6   16.70    4.30
  -5   1  -6   23.80    5.70
   5   1   6   14.30    5.10
  -5   1  -6   22.80    5.10
   5   1   6   15.00    4.10
  -6  -1  -6   13.60    4.70
   6  -1   6   19.60    4.80
  -6  -1  -6    7.40    3.90
   6  -1   6   16.90    6.10
  -6  -1  -6   17.60    5.10
  -6   1  -6   14.10    4.50
  -6   1  -6   12.60    4.30
   6   1   6    8.90    4.40
  -6   1  -6   14.70    5.00
  -6   1  -6   13.90    4.90
   6   1   6   10.30    3.60
  -6  -2   6   20.00    5.80
   6  -2  -6   19.60    5.10
   6  -2  -6   32.10    6.10
  -6  -2   6   29.40    7.00
   6  -2  -6   23.80    5.30
  -6  -2   6   14.90    4.60
   6  -2  -6   27.60    5.40
   6   2  -6   20.50    5.20
  -6   2   6   22.30    6.10
  -6   2   6   26.10    6.10
   6   2  -6   20.30    4.80
   6   2  -6   25.60    6.30
  -5  -2   6    2.20    2.50
   5  -2  -6    5.50    3.00
  -5  -2   6    0.60    2.00
  -5  -2   6    2.80    2.90
   5  -2  -6    1.90    2.20
   5  -2  -6    2.50    2.10
   5  -2  -6    5.00    2.20
  -5   2   6    5.20    2.90
   5   2  -6    5.60    2.80
   5   2  -6    8.60    3.10
  -5   2   6    3.60    2.60
   5   2  -6    6.90    3.50
  -5   2   6    3.20    2.60
   4  -2  -6   77.09    8.60
   4  -2  -6   91.59    6.40
   4  -2  -6   79.69    8.90
  -4  -2   6   78.79    9.30
  -4  -2   6   58.79    8.10
   4  -2  -6   76.69    8.90
  -4  -2   6   64.59    8.60
  -4   2   6   80.99    9.70
   4   2  -6   72.19    8.40
  -4   2   6   76.09    8.90
  -4   2   6   93.29    9.90
   4   2  -6   58.99    8.20
   4   2  -6   74.39    8.80
   3  -2  -6   33.90    5.90
   3  -2  -6   38.80    5.80
   3  -2  -6   38.50    6.10
  -3  -2   6   32.80    5.70
  -3  -2   6   26.10    5.30
  -3  -2   6   19.20    4.40
   3  -2  -6   25.70    3.90
  -3   2   6   32.90    5.70
  -3   2   6   42.50    6.20
   3   2  -6   23.00    4.50
   3   2  -6   36.30    5.70
  -3   2   6   34.60    6.00
   3   2  -6   41.00    4.40
   3   2  -6   34.60    6.30
   2  -2  -6  119.29    8.40
  -2  -2   6  111.49    8.10
   2  -2  -6  119.69    8.80
  -2  -2   6  103.99    8.30
  -2  -2   6  103.39    8.40
   2  -2  -6  117.49    7.10
   2  -2  -6  100.69    8.10
   2   2  -6  100.49    6.10
  -2   2   6  106.39    8.40
   2   2  -6  117.09    8.60
   2   2  -6  118.09    9.10
  -2   2   6   94.39    8.10
   2   2  -6  118.09    8.40
  -2   2   6  121.39    8.10
  -1  -2   6   79.09    5.90
  -1  -2   6   78.69    7.00
   1  -2  -6   67.79    5.50
   1  -2  -6   66.09    7.20
   1  -2  -6   82.19    6.80
  -1  -2   6   77.49    6.00
   1  -2  -6   74.09    4.30
   1  -2  -6   54.59    6.50
  -1  -2   6   66.39    7.20
   1   2  -6   81.29    5.60
  -1   2   6   63.39    7.20
  -1   2   6   86.39    7.40
   1   2  -6   80.89    7.00
  -1   2   6   68.09    6.80
   1   2  -6   72.19    7.80
   1   2  -6   68.19    7.60
   0  -2  -6  156.78    9.70
   0  -2  -6  137.09    9.00
   0  -2  -6  146.59    7.00
   0  -2  -6  115.19    7.80
   0  -2   6  138.99    8.60
   0  -2   6  134.39    8.60
   0  -2   6  128.89    7.40
   0  -2  -6  130.29    8.80
   0  -2   6  129.49    9.30
   0   2  -6  129.89    9.20
   0   2   6  138.19    7.70
   0   2  -6  132.99    9.20
   0   2   6  142.19    9.60
   0   2  -6  131.29    9.10
   0   2   6  144.39    9.00
   0   2   6  132.59    7.50
   0   2  -6  144.19    8.20
   1  -2   6    0.90    1.70
  -1  -2  -6    2.30    1.80
  -1  -2  -6    1.50    1.80
   1  -2   6    0.10    1.30
  -1  -2  -6    0.00    1.20
  -1  -2  -6    0.70    1.60
  -1  -2  -6    0.50    1.50
   1  -2   6    1.20    1.80
  -1   2  -6    0.20    1.40
  -1   2  -6    1.40    1.70
  -1   2  -6    0.70    1.60
  -1   2  -6    0.40    1.60
   1   2   6    3.80    2.10
  -1   2  -6    0.50    1.40
   1   2   6    0.10    1.60
   1   2   6    0.10    1.10
   1   2   6   -0.10    1.70
  -2  -2  -6   86.09    6.60
  -2  -2  -6   85.79    7.30
   2  -2   6   73.19    5.50
  -2  -2  -6   75.29    8.10
  -2  -2  -6   82.49    6.50
   2  -2   6   85.29    9.00
   2  -2   6   74.49    8.70
  -2  -2  -6   82.49    6.80
  -2   2  -6   68.89    7.70
  -2   2  -6   89.99    9.20
   2   2   6   85.29    7.50
  -2   2  -6   70.99    8.50
  -2   2  -6   82.79    6.60
   2   2   6   89.39    7.40
  -2   2  -6   78.89    8.20
   2   2   6   76.79    6.00
  -3  -2  -6   43.50    5.50
  -3  -2  -6   30.30    5.40
  -3  -2  -6   30.40    5.20
   3  -2   6   46.80    7.70
  -3  -2  -6   38.40    6.20
  -3  -2  -6   29.90    4.90
   3  -2   6   35.80    5.90
  -3   2  -6   31.10    5.80
   3   2   6   33.10    5.50
  -3   2  -6   28.70    5.20
   3   2   6   26.40    4.10
  -3   2  -6   32.30    5.30
   3   2   6   45.40    7.00
  -3   2  -6   29.90    5.30
  -3   2  -6   31.50    5.30
  -4  -2  -6  138.39    9.30
  -4  -2  -6  123.49    9.70
   4  -2   6  128.59    9.40
  -4  -2  -6  125.59    9.60
   4  -2   6  135.29   13.80
  -4  -2  -6  131.09   10.00
   4   2   6  120.99    7.40
  -4   2  -6  125.19    9.80
  -4   2  -6  125.79   10.10
  -4   2  -6  136.79    9.50
   4   2   6  138.49    9.90
  -4   2  -6  102.89    9.00
   4   2   6  151.08   11.30
  -4   2  -6  135.89   10.40
   5  -2   6   85.19    9.20
  -5  -2  -6   73.99    9.20
   5  -2   6   77.59   10.50
  -5  -2  -6   77.29    9.60
  -5  -2  -6   60.59    8.70
  -5   2  -6   74.49    9.90
  -5   2  -6   85.99   10.20
   5   2   6   74.19    9.00
  -5   2  -6   94.69   10.10
  -5   2  -6   63.79    9.00
   5   2   6   73.79    9.70
  -5   2  -6   81.39    8.80
   6  -2   6   20.30    6.30
  -6  -2  -6   19.20    5.30
  -6  -2  -6   20.90    5.60
  -6  -2  -6   26.20    6.30
  -6   2  -6   25.40    6.40
  -6   2  -6   16.20    5.40
   6   2   6   21.30    5.10
  -6   2  -6   15.30    5.10
   6   2   6   29.30    7.10
  -6   2  -6   14.60    4.70
  -6  -3   6   69.59    9.90
   6  -3  -6   65.79    8.80
  -6  -3   6   70.79    9.60
   6  -3  -6   86.19   10.50
  -6  -3   6   89.79   11.50
   6  -3  -6   83.19    9.00
   6  -3  -6   81.19   10.00
  -6   3   6   72.29    9.20
   6   3  -6   74.59    9.00
   6   3  -6   67.89    9.90
   6   3  -6   73.19    8.80
  -6   3   6   74.89    9.90
  -5  -3   6   17.10    4.90
   5  -3  -6   15.60    3.70
   5  -3  -6   15.80    4.30
  -5  -3   6   19.00    5.40
   5  -3  -6   17.80    4.70
  -5  -3   6   18.60    5.10
   5  -3  -6   22.30    5.20
  -5   3   6   11.70    3.90
  -5   3   6   18.90    4.50
   5   3  -6   14.20    4.10
   5   3  -6   24.10    5.70
   5   3  -6   16.90    4.20
  -5   3   6   16.70    4.70
   4  -3  -6   34.30    6.10
  -4  -3   6   25.90    5.50
   4  -3  -6   29.60    5.30
   4  -3  -6   26.20    4.30
  -4  -3   6   21.20    4.80
  -4  -3   6   24.10    5.60
   4  -3  -6   30.60    6.00
  -4   3   6   30.20    5.50
   4   3  -6   20.90    4.60
   4   3  -6   29.10    5.40
   4   3  -6   31.80    6.20
  -4   3   6   23.10    5.00
  -4   3   6   36.80    6.60
   3  -3  -6   91.49    9.60
   3  -3  -6   76.19    5.90
   3  -3  -6   90.99    9.40
   3  -3  -6   77.19    8.50
  -3  -3   6   66.39    8.20
  -3  -3   6   73.79    8.50
  -3  -3   6   85.59    9.40
  -3   3   6   69.09    8.10
   3   3  -6   81.99    8.60
   3   3  -6   77.59    8.60
   3   3  -6  103.79   10.80
  -3   3   6   82.99    8.60
  -3   3   6   94.89   10.00
  -2  -3   6    3.10    1.80
   2  -3  -6    4.30    1.90
  -2  -3   6    2.80    2.20
   2  -3  -6    5.40    2.50
   2  -3  -6   -1.20    1.30
  -2  -3   6    3.20    2.20
   2  -3  -6    6.50    1.60
  -2  -3   6    5.40    2.50
   2  -3  -6    3.20    2.30
   2   3  -6    1.30    1.20
   2   3  -6    3.70    2.30
   2   3  -6    1.20    1.90
  -2   3   6    2.80    2.20
   2   3  -6    2.10    2.00
  -2   3   6    3.30    2.00
  -2   3   6    5.50    2.90
  -1  -3   6  169.78   11.00
   1  -3  -6  182.38   10.90
   1  -3  -6  186.88   10.80
  -1  -3   6  183.38   10.00
  -1  -3   6  180.68    9.70
   1  -3  -6  194.88    8.00
   1  -3  -6  195.88   11.10
   1  -3  -6  197.18    9.90
  -1  -3   6  186.28   10.90
  -1   3   6  205.98   11.90
   1   3  -6  188.08   11.30
   1   3  -6  197.88   11.20
  -1   3   6  178.28   10.90
   1   3  -6  199.08   11.90
  -1   3   6  200.68   10.20
   1   3  -6  200.08    9.30
   0  -3   6  415.96   17.30
   0  -3   6  394.56   15.00
   0  -3  -6  395.46   16.60
   0  -3  -6  383.36   17.40
   0  -3  -6  413.96   17.40
   0  -3   6  405.96   18.50
   0  -3  -6  400.36   14.40
   0  -3   6  405.86   16.90
   0  -3  -6  382.86   17.10
   0   3   6  415.46   15.20
   0   3  -6  426.06   16.20
   0   3   6  391.16   15.10
   0   3   6  387.06   18.20
   0   3  -6  399.86   18.00
   0   3  -6  416.46   18.50
   0   3   6  378.86   17.10
   0   3  -6  435.46   18.50
   1  -3   6   68.09    5.60
  -1  -3  -6   71.69    7.30
  -1  -3  -6   68.49    5.50
   1  -3   6   57.99    7.10
  -1  -3  -6   67.79    5.80
  -1  -3  -6   65.49    7.10
   1  -3   6   65.49    7.70
  -1  -3  -6   56.19    6.70
  -1   3  -6   75.49    7.90
  -1   3  -6   73.99    5.40
  -1   3  -6   83.59    6.40
  -1   3  -6   77.99    8.40
   1   3   6   71.29    6.10
   1   3   6   74.19    6.00
   1   3   6   69.99    7.70
  -1   3  -6   57.19    6.80
   1   3   6   58.79    4.60
  -2  -3  -6  105.39    7.30
  -2  -3  -6  100.29    7.50
   2  -3   6   93.19    9.80
  -2  -3  -6   93.59    6.60
  -2  -3  -6  100.89    7.90
   2  -3   6  101.29    6.40
  -2  -3  -6   89.79    7.70
   2  -3   6  101.39    8.10
  -2   3  -6   93.89    8.10
  -2   3  -6   90.29    7.50
   2   3   6   92.79    5.20
  -2   3  -6  110.99    7.60
   2   3   6   94.69    7.60
  -2   3  -6   88.39    9.30
   2   3   6   92.19    6.70
  -2   3  -6   95.79    7.90
   2   3   6   92.39    7.90
   3  -3   6   32.10    5.40
   3  -3   6   32.50    6.20
  -3  -3  -6   25.10    4.60
  -3  -3  -6   33.10    4.90
  -3  -3  -6   30.60    5.20
  -3  -3  -6   27.50    5.00
  -3   3  -6   31.20    5.40
  -3   3  -6   32.70    5.40
   3   3   6   29.50    5.30
   3   3   6   50.49    7.10
  -3   3  -6   29.50    5.30
  -3   3  -6   33.20    6.10
  -3   3  -6   30.40    5.20
   3   3   6   27.20    4.20
  -4  -3  -6   31.00    5.80
  -4  -3  -6   22.20    4.80
   4  -3   6   22.90    4.70
  -4  -3  -6   23.90    4.40
   4  -3   6   21.40    5.80
  -4  -3  -6   24.60    5.00
  -4   3  -6   25.30    4.80
  -4   3  -6   21.30    5.10
   4   3   6   27.90    5.80
  -4   3  -6   18.00    4.50
   4   3   6   28.90    4.30
  -4   3  -6   32.80    6.00
   4   3   6   26.70    5.40
  -4   3  -6   21.90    5.00
   5  -3   6   48.20    6.60
  -5  -3  -6   35.20    6.40
  -5  -3  -6   38.60    6.90
   5  -3   6   38.40    7.50
   5  -3   6   35.50    7.40
  -5  -3  -6   44.90    7.20
  -5   3  -6   29.80    6.50
   5   3   6   47.30    8.30
  -5   3  -6   42.80    7.50
  -5   3  -6   34.50    6.30
  -5   3  -6   42.50    6.70
  -5   3  -6   40.90    7.30
   5   3   6   42.40    6.60
  -6  -3  -6   90.19   10.60
   6  -3   6   93.49   12.40
  -6  -3  -6   81.09   10.10
  -6  -3  -6   84.49   10.90
  -6   3  -6   91.99   10.80
   6   3   6   98.59    8.70
   6   3   6  116.49   13.40
  -6   3  -6   91.19   11.50
  -6   3  -6   88.39   11.20
  -6   3  -6   97.49   12.20
  -5  -4   6   52.99    8.30
   5  -4  -6   46.90    7.10
   5  -4  -6   50.89    6.40
  -5  -4   6   43.00    7.10
  -5  -4   6   72.09    9.80
   5  -4  -6   56.49    8.20
   5  -4  -6   62.79    8.40
   5   4  -6   48.70    7.90
  -5   4   6   46.20    7.30
  -5   4   6   47.60    7.20
   5   4  -6   51.19    7.50
   5   4  -6   56.49    8.50
   5   4  -6   45.80    6.60
   4  -4  -6    2.20    2.10
   4  -4  -6   -0.80    1.60
   4  -4  -6   -0.60    1.40
  -4  -4   6    2.40    2.70
   4  -4  -6    0.60    1.50
  -4  -4   6    1.10    2.30
  -4  -4   6   -0.60    1.70
   4   4  -6    0.10    1.50
  -4   4   6    2.60    2.20
   4   4  -6    4.70    2.80
  -4   4   6    0.80    2.10
   4   4  -6    0.90    1.90
  -4   4   6    0.10    2.20
   4   4  -6    2.50    2.40
  -3  -4   6   10.30    3.50
   3  -4  -6   11.60    3.30
   3  -4  -6   12.20    3.70
   3  -4  -6   23.70    4.80
   3  -4  -6   11.00    2.80
  -3  -4   6   13.30    4.10
  -3  -4   6   18.40    4.50
   3   4  -6   13.60    3.50
   3   4  -6   18.30    4.60
  -3   4   6   18.40    4.50
   3   4  -6   20.00    4.50
   3   4  -6   21.00    4.50
  -3   4   6   12.30    3.60
  -3   4   6   12.50    3.70
   2  -4  -6   92.49    5.20
  -2  -4   6   95.49    7.60
  -2  -4   6  108.99    8.50
  -2  -4   6   93.89    6.60
   2  -4  -6  105.79    8.10
  -2  -4   6   96.49    8.20
   2  -4  -6   94.39    7.60
   2  -4  -6   88.79    6.40
   2  -4  -6   82.39    7.20
  -2   4   6   97.09    8.00
  -2   4   6   94.69    7.90
   2   4  -6   89.29    7.40
   2   4  -6   85.29    8.30
   2   4  -6  100.19    8.50
  -2   4   6   93.99    7.20
   2   4  -6   96.69    8.00
   1  -4  -6   18.10    3.60
  -1  -4   6   21.50    4.00
   1  -4  -6   14.80    3.60
  -1  -4   6   20.50    4.20
  -1  -4   6   19.60    4.50
   1  -4  -6   17.80    4.10
  -1  -4   6   12.90    3.20
   1  -4  -6   12.10    3.30
   1  -4  -6   16.80    2.70
   1   4  -6   10.80    3.30
   1   4  -6   13.60    3.60
  -1   4   6   12.20    3.50
   1   4  -6   19.60    3.30
  -1   4   6   18.50    4.30
  -1   4   6   16.80    3.30
   1   4  -6   15.10    3.90
   0  -4  -6  225.08   10.00
   0  -4   6  241.58   10.80
   0  -4  -6  246.88   12.10
   0  -4   6  228.08   13.00
   0  -4   6  234.58   12.00
   0  -4  -6  231.58   11.70
   0  -4  -6  253.97   12.90
   0  -4   6  248.78   12.60
   0   4   6  243.58   11.00
   0   4  -6  213.38   12.60
   0   4   6  250.87   12.90
   0   4   6  267.17   13.80
   0   4  -6  238.18   11.20
   0   4  -6  239.18   13.00
   0   4  -6  249.28   13.60
  -1  -4  -6  165.08    9.30
   1  -4   6  154.08   10.40
   1  -4   6  179.18    9.30
  -1  -4  -6  165.28    8.70
  -1  -4  -6  153.38    9.60
  -1  -4  -6  183.78   10.10
   1  -4   6  154.98   10.40
  -1  -4  -6  157.48   10.00
   1   4   6  151.88   10.40
   1   4   6  161.28    8.90
  -1   4  -6  163.38   10.60
  -1   4  -6  172.28    9.70
  -1   4  -6  169.48   10.70
   1   4   6  172.18    9.90
   1   4   6  160.28    8.00
  -1   4  -6  168.68   10.80
  -1   4  -6  153.58    8.70
  -2  -4  -6   78.49    7.00
  -2  -4  -6   82.99    6.70
  -2  -4  -6   77.09    8.30
   2  -4   6   77.09    8.80
  -2  -4  -6   78.69    6.40
   2  -4   6   82.09    7.40
  -2   4  -6   87.79    9.30
   2   4   6   85.29    9.20
  -2   4  -6   68.39    8.10
   2   4   6   74.89    4.80
   2   4   6   85.09    6.90
  -2   4  -6   87.19    6.90
  -2   4  -6   85.89    7.50
  -2   4  -6   76.99    8.20
   2   4   6   88.89    6.70
   3  -4   6   25.80    5.70
  -3  -4  -6   34.50    5.60
   3  -4   6   31.80    5.60
  -3  -4  -6   26.40    4.80
  -3  -4  -6   32.60    4.90
   3  -4   6   33.80    5.60
  -3  -4  -6   26.40    4.80
   3   4   6   35.90    6.10
   3   4   6   25.70    4.20
  -3   4  -6   31.60    5.50
  -3   4  -6   18.50    4.30
   3   4   6   33.20    5.70
  -3   4  -6   24.10    4.90
  -3   4  -6   26.60    5.70
  -3   4  -6   26.40    5.10
   4  -4   6   11.10    4.30
  -4  -4  -6    9.60    3.30
  -4  -4  -6   12.70    3.90
   4  -4   6   12.90    4.10
   4  -4   6    8.30    3.20
  -4  -4  -6   11.90    3.50
  -4   4  -6   13.70    3.70
   4   4   6   12.10    3.80
  -4   4  -6   11.60    3.90
   4   4   6   11.50    3.80
   4   4   6    7.00    2.50
  -4   4  -6    8.00    3.20
  -4   4  -6    9.90    3.70
  -4   4  -6   11.30    4.00
  -5  -4  -6   38.40    6.50
   5  -4   6   36.70    7.60
  -5  -4  -6   32.00    5.90
   5  -4   6   46.90    8.10
  -5  -4  -6   36.40    6.70
  -5   4  -6   37.20    7.50
  -5   4  -6   29.30    6.00
  -5   4  -6   47.40    7.40
   5   4   6   36.90    6.90
   5   4   6   37.60    6.40
  -5   4  -6   45.30    7.70
  -5   4  -6   28.60    5.90
   5  -5  -6   -2.10    1.80
   5  -5  -6    2.50    1.90
  -5  -5   6    4.40    3.10
  -5  -5   6    0.50    2.60
   5  -5  -6    4.50    2.80
  -5  -5   6    5.90    3.10
   5  -5  -6    2.90    2.40
   5   5  -6    3.10    3.20
   5   5  -6    1.20    2.60
   5   5  -6    1.90    2.30
   5   5  -6    3.90    2.50
  -5   5   6    1.50    2.50
  -5   5   6    0.40    2.20
   4  -5  -6    2.50    2.10
  -4  -5   6    2.10    2.60
   4  -5  -6    3.30    2.40
   4  -5  -6    2.10    2.30
  -4  -5   6    1.00    2.20
  -4  -5   6    0.80    1.90
   4  -5  -6    2.80    1.90
   4   5  -6    2.00    2.70
  -4   5   6    0.20    2.20
   4   5  -6   -0.20    2.10
  -4   5   6   -1.30    1.70
  -4   5   6    0.30    1.80
   4   5  -6    2.20    2.10
   4   5  -6    4.00    2.60
   3  -5  -6    3.20    2.40
   3  -5  -6    2.00    1.40
   3  -5  -6    1.90    1.70
  -3  -5   6    3.80    2.40
   3  -5  -6    2.80    2.10
  -3  -5   6    6.40    3.00
   3  -5  -6    5.00    2.50
  -3  -5   6    4.90    3.00
  -3   5   6    1.90    2.20
  -3   5   6    2.90    2.30
  -3   5   6    6.80    3.00
   3   5  -6    5.40    2.60
   3   5  -6    7.00    3.00
   3   5  -6    9.80    3.70
   3   5  -6    2.80    2.70
  -2  -5   6   98.09   10.20
   2  -5  -6   84.39    7.20
   2  -5  -6   97.29    7.90
  -2  -5   6   89.19    7.80
  -2  -5   6   88.49    6.60
   2  -5  -6   98.09    7.70
  -2  -5   6   94.79    7.60
   2  -5  -6   93.49    5.40
   2  -5  -6   91.59    6.60
   2   5  -6   91.19    8.60
  -2   5   6   79.09    8.50
   2   5  -6   96.69    8.10
   2   5  -6   86.99    7.20
   2   5  -6   81.09    9.10
  -2   5   6   99.89    7.50
  -2   5   6   92.29    7.90
   1  -5  -6   73.89    7.60
  -1  -5   6   75.49    8.70
  -1  -5   6   68.99    7.20
  -1  -5   6   59.49    6.70
   1  -5  -6   53.39    6.40
   1  -5  -6   62.59    6.70
   1  -5  -6   66.09    4.60
   1  -5  -6   62.19    6.50
  -1  -5   6   48.80    6.70
   1   5  -6   71.29    8.20
  -1   5   6   49.99    6.60
   1   5  -6   62.29    4.70
   1   5  -6   60.09    7.90
   1   5  -6   57.69    6.30
  -1   5   6   53.29    5.90
   1   5  -6   53.19    6.50
  -1   5   6   62.19    7.80
   0  -5  -6    4.80    2.20
   0  -5   6    4.30    2.20
   0  -5  -6   10.20    2.30
   0  -5  -6    3.40    2.00
   0  -5  -6    4.50    2.00
   0  -5   6    3.10    2.00
   0  -5  -6    4.60    2.20
   0  -5   6    1.70    1.70
   0  -5   6    6.50    2.90
   0   5  -6    3.80    2.30
   0   5   6    8.50    3.00
   0   5  -6    2.60    2.20
   0   5  -6    2.50    1.60
   0   5   6    5.70    2.70
   0   5  -6    0.90    1.90
   0   5   6    4.20    1.90
  -1  -5  -6  146.49    9.10
  -1  -5  -6  129.29    7.90
   1  -5   6  129.69    8.00
   1  -5   6  157.38   10.20
  -1  -5  -6  134.39    8.60
  -1  -5  -6  148.89    8.20
   1  -5   6  139.59    9.90
  -1  -5  -6  146.19    9.40
  -1   5  -6  154.48    9.00
   1   5   6  144.99    9.90
   1   5   6  129.99    8.80
  -1   5  -6  143.99   10.00
   1   5   6  134.69    7.90
   1   5   6  141.79    7.60
  -1   5  -6  141.79    9.80
  -1   5  -6  126.29    9.50
  -2  -5  -6   70.89    6.00
  -2  -5  -6   59.69    7.20
  -2  -5  -6   65.99    7.30
   2  -5   6   61.69    7.80
   2  -5   6   68.09    7.30
   2  -5   6   57.79    7.90
  -2  -5  -6   65.79    6.70
   2   5   6   63.89    4.60
  -2   5  -6   69.59    8.10
  -2   5  -6   55.79    7.30
  -2   5  -6   59.09    6.90
  -2   5  -6   66.09    7.10
  -2   5  -6   74.99    9.20
   2   5   6   55.49    7.30
   2   5   6   67.99    7.30
   2   5   6   71.29    7.40
  -3  -5  -6   26.30    4.80
  -3  -5  -6   35.00    5.70
   3  -5   6   29.80    5.20
   3  -5   6   34.60    5.90
   3  -5   6   37.40    7.20
  -3  -5  -6   30.40    5.20
  -3   5  -6   36.30    6.50
   3   5   6   20.80    4.70
  -3   5  -6   27.90    5.10
  -3   5  -6   28.00    5.50
  -3   5  -6   27.00    5.40
   3   5   6   29.90    5.30
  -3   5  -6   32.70    6.00
   3   5   6   25.10    4.20
   4  -5   6    2.10    3.10
   4  -5   6    2.40    2.50
  -4  -5  -6    3.20    2.60
   4  -5   6   10.10    4.00
  -4  -5  -6    4.80    2.90
  -4  -5  -6    3.50    2.60
  -4   5  -6    5.10    3.10
  -4   5  -6    6.10    3.30
   4   5   6    2.90    2.60
  -4   5  -6    8.10    3.20
  -4   5  -6    8.50    3.50
   4   5   6    6.90    3.10
   4   5   6    5.90    2.40
  -4   5  -6    4.30    2.80
  -5  -5  -6    9.40    4.20
   5  -5   6   10.50    5.00
  -5  -5  -6    9.80    3.80
   5  -5   6   12.80    5.10
   5   5   6   12.50    3.10
  -5   5  -6   11.10    4.00
  -5   5  -6    7.20    3.70
   5   5   6    9.10    3.50
  -5   5  -6   13.70    4.40
  -5   5  -6    7.80    4.20
  -5   5  -6   10.40    4.10
   5   5   6    9.50    3.90
   5  -6  -6   22.00    5.00
  -5  -6   6   16.30    5.00
   5  -6  -6   15.70    4.20
   5  -6  -6   20.70    5.10
  -5  -6   6   11.40    4.50
   5  -6  -6   23.10    4.60
  -5  -6   6   19.50    5.30
  -5   6   6   12.80    4.00
   5   6  -6   14.90    4.70
  -5   6   6   22.00    5.60
   5   6  -6   13.00    4.80
   5   6  -6   25.40    5.50
  -4  -6   6    1.00    2.40
   4  -6  -6    1.50    1.90
  -4  -6   6    1.50    2.20
  -4  -6   6    0.80    2.10
   4  -6  -6   -0.40    1.70
   4  -6  -6   -1.00    1.50
   4  -6  -6    3.00    1.80
   4   6  -6    4.10    3.30
  -4   6   6   -1.10    1.60
  -4   6   6    0.70    2.10
   4   6  -6    3.00    2.20
   4   6  -6   -0.50    2.10
   4   6  -6    2.00    2.60
   3  -6  -6  171.48   10.80
   3  -6  -6  162.68   10.50
  -3  -6   6  145.69   10.90
  -3  -6   6  150.38   10.80
   3  -6  -6  162.68    9.50
  -3  -6   6  161.78   11.40
   3  -6  -6  160.48    8.20
   3  -6  -6  164.98   10.70
  -3   6   6  159.58   10.40
   3   6  -6  143.39    9.50
   3   6  -6  167.38   11.10
  -3   6   6  160.78   11.10
   3   6  -6  169.28   11.10
  -3   6   6  171.28   10.50
   3   6  -6  142.39   11.20
  -2  -6   6   48.90    7.00
   2  -6  -6   56.49    6.90
   2  -6  -6   52.99    4.20
   2  -6  -6   58.99    6.80
   2  -6  -6   53.99    6.90
   2  -6  -6   51.39    6.40
  -2  -6   6   40.20    6.00
  -2  -6   6   45.40    6.60
   2   6  -6   50.29    6.50
   2   6  -6   41.50    5.80
  -2   6   6   38.60    6.00
   2   6  -6   49.10    6.80
   2   6  -6   43.60    7.10
  -2   6   6   51.59    6.40
  -2   6   6   57.59    7.40
   1  -6  -6    0.70    1.40
   1  -6  -6    5.00    2.30
   1  -6  -6    0.20    1.50
   1  -6  -6    1.30    1.30
   1  -6  -6    0.80    1.70
  -1  -6   6    4.00    2.20
  -1  -6   6    2.10    1.90
  -1  -6   6    2.60    2.00
  -1  -6   6    1.80    1.80
   1   6  -6    2.20    2.10
  -1   6   6    2.10    2.00
   1   6  -6    2.70    2.00
  -1   6   6    3.40    2.10
   1   6  -6    5.60    2.50
  -1   6   6   -0.70    1.60
   1   6  -6   -0.10    1.90
   0  -6   6   52.29    7.10
   0  -6  -6   56.19    6.30
   0  -6  -6   72.69    7.40
   0  -6   6   60.29    6.70
   0  -6  -6   64.79    4.90
   0  -6   6   62.09    7.60
   0  -6  -6   55.89    6.80
   0  -6  -6   59.59    6.30
   0   6  -6   63.39    7.90
   0   6  -6   55.19    5.70
   0   6   6   56.59    7.30
   0   6  -6   57.29    7.40
   0   6   6   46.50    6.20
   0   6  -6   55.29    7.30
   0   6   6   60.59    6.20
   0   6  -6   65.39    5.30
   1  -6   6  200.18   11.90
   1  -6   6  187.48   11.90
  -1  -6  -6  191.78    9.70
  -1  -6  -6  182.48   10.20
  -1  -6  -6  172.48   10.50
  -1  -6  -6  177.38   10.70
  -1   6  -6  179.78   11.60
  -1   6  -6  183.78   11.80
  -1   6  -6  189.98   11.90
   1   6   6  199.98    9.50
   1   6   6  177.08   10.60
   1   6   6  181.38    9.00
   1   6   6  189.38   11.70
  -1   6  -6  197.58   10.40
  -2  -6  -6   18.10    4.00
   2  -6   6   16.20    4.00
  -2  -6  -6   15.20    3.90
  -2  -6  -6   13.60    3.30
  -2  -6  -6   14.00    3.30
   2  -6   6    8.10    3.30
   2  -6   6   14.10    3.60
  -2  -6  -6   16.80    3.70
   2   6   6   14.40    2.70
   2   6   6   15.00    3.50
   2   6   6   12.20    3.60
  -2   6  -6   18.10    4.00
  -2   6  -6   21.20    4.70
   2   6   6   13.60    3.50
  -2   6  -6   12.20    3.40
  -2   6  -6   22.80    4.90
  -2   6  -6   13.50    4.10
   3  -6   6  146.99   10.30
   3  -6   6  142.69    9.80
  -3  -6  -6  138.59    9.60
  -3  -6  -6  155.08   10.50
   3  -6   6  131.99   11.20
  -3  -6  -6  132.09    9.30
  -3  -6  -6  132.49    9.30
   3   6   6  139.69   10.10
   3   6   6  131.49    9.30
  -3   6  -6  150.18   10.50
  -3   6  -6  154.18   10.40
  -3   6  -6  153.58   11.20
  -3   6  -6  152.28   11.10
   3   6   6  141.99    8.90
  -3   6  -6  152.28   10.80
  -4  -6  -6    8.80    3.40
   4  -6   6   13.60    4.50
  -4  -6  -6   10.20    3.50
  -4  -6  -6   12.00    3.90
  -4  -6  -6   14.50    4.40
   4  -6   6    7.20    4.00
  -4   6  -6    9.60    3.50
   4   6   6    8.60    3.40
   4   6   6    9.10    3.00
  -4   6  -6   12.70    4.10
   4   6   6   10.50    3.80
  -4   6  -6    9.30    3.80
  -4   6  -6    7.50    3.40
  -4   6  -6    9.00    3.60
  -5  -6  -6   26.00    5.80
  -5  -6  -6   28.90    6.00
  -5  -6  -6   30.80    6.40
   5  -6   6   26.80    7.10
   5  -6   6   42.90    8.20
  -5   6  -6   35.90    7.20
   5   6   6   28.10    4.70
  -5   6  -6   33.20    7.40
   5   6   6   27.30    5.50
   5   6   6   35.80    6.60
  -5   6  -6   28.60    5.80
  -5   6  -6   33.20    6.60
  -5   6  -6   41.50    7.60
   5  -7  -6   22.10    5.20
   5  -7  -6   21.60    4.70
   5  -7  -6   36.30    6.70
  -5  -7   6   31.30    6.60
  -5  -7   6   37.60    7.50
  -5  -7   6   28.00    6.80
   5  -7  -6   29.20    5.70
   5   7  -6   19.40    5.30
  -5   7   6   33.30    6.90
   5   7  -6   32.20    6.00
  -5   7   6   27.20    5.50
   5   7  -6   25.30    6.00
  -4  -7   6   15.90    4.70
   4  -7  -6   18.10    4.40
   4  -7  -6   23.00    5.00
  -4  -7   6    8.30    3.30
   4  -7  -6   19.40    4.10
  -4  -7   6   17.50    4.90
   4  -7  -6   17.40    4.20
   4   7  -6   12.70    4.40
   4   7  -6   18.00    4.80
   4   7  -6   14.30    4.30
  -4   7   6   10.20    3.60
  -4   7   6   26.90    5.70
   3  -7  -6  111.79    8.70
  -3  -7   6  114.69    7.80
  -3  -7   6  111.29    9.60
  -3  -7   6  121.49    9.60
   3  -7  -6  100.69    7.50
   3  -7  -6  113.39    8.70
  -3  -7   6  105.39    9.20
   3  -7  -6  107.39    6.80
   3  -7  -6  113.79    8.70
  -3   7   6  100.99    8.80
   3   7  -6  114.69   10.00
   3   7  -6  111.49   10.70
   3   7  -6  107.59    8.90
  -3   7   6  113.59    8.70
  -3   7   6   83.59    8.60
   3   7  -6  112.09    8.20
  -2  -7   6    4.70    2.60
   2  -7  -6    3.10    2.30
   2  -7  -6    3.10    1.50
  -2  -7   6    1.80    2.20
   2  -7  -6   -0.70    1.50
  -2  -7   6    2.80    2.00
  -2  -7   6    1.10    1.90
   2  -7  -6    2.40    1.80
   2  -7  -6    0.20    1.40
   2   7  -6    4.30    2.50
   2   7  -6    1.20    1.80
   2   7  -6    2.10    2.10
  -2   7   6    2.40    2.30
  -2   7   6    3.40    2.10
   2   7  -6    4.00    2.90
  -2   7   6    2.70    2.20
  -1  -7   6   67.89    7.80
   1  -7  -6   77.49    6.80
   1  -7  -6   93.59    7.10
  -1  -7   6   78.49    8.00
  -1  -7   6   59.49    7.70
   1  -7  -6   87.89    6.70
  -1  -7   6   76.19    8.20
   1  -7  -6   74.89    6.30
   1  -7  -6   67.49    5.10
  -1   7   6   70.99    7.00
   1   7  -6   87.89    7.30
   1   7  -6   77.59    8.80
  -1   7   6   86.89    7.40
   1   7  -6   70.49    7.40
   1   7  -6   68.39    8.40
  -1   7   6   60.39    7.40
   0  -7   6  186.78   10.50
   0  -7  -6  187.68    9.20
   0  -7  -6  169.98   10.00
   0  -7   6  182.38   11.60
   0  -7   6  174.98   11.20
   0  -7  -6  172.58    9.60
   0   7   6  177.78   11.20
   0   7   6  168.48   10.80
   0   7  -6  206.28   11.90
   0   7  -6  198.68   12.50
   0   7   6  192.68   10.00
   0   7  -6  187.68   11.70
   0   7  -6  181.58   10.50
  -1  -7  -6   78.99    6.80
   1  -7   6   71.29    8.60
   1  -7   6   63.99    8.00
  -1  -7  -6   77.29    7.80
  -1  -7  -6   68.89    6.90
  -1  -7  -6   90.69    6.60
   1   7   6   68.19    7.90
  -1   7  -6   61.89    7.80
   1   7   6   81.19    6.90
  -1   7  -6   66.79    8.10
   1   7   6   81.69    6.20
  -1   7  -6   68.79    7.10
   1   7   6   73.89    5.70
  -1   7  -6   62.99    7.90
  -2  -7  -6   -1.30    1.60
  -2  -7  -6    0.80    1.70
  -2  -7  -6    0.90    1.70
   2  -7   6    1.40    2.10
  -2  -7  -6    0.50    1.80
   2  -7   6    2.70    2.50
   2  -7   6    0.60    1.80
  -2   7  -6   -0.50    1.70
  -2   7  -6    4.40    2.50
  -2   7  -6    0.30    1.70
  -2   7  -6    2.00    2.30
   2   7   6   -1.10    1.20
   2   7   6    2.80    1.70
   2   7   6   -0.10    1.20
   2   7   6    4.00    2.40
   3  -7   6   79.49    9.20
  -3  -7  -6   56.39    6.90
  -3  -7  -6   64.99    7.50
   3  -7   6   79.59    8.70
  -3  -7  -6   64.79    7.50
   3  -7   6   51.79    8.20
  -3  -7  -6   71.79    8.50
   3   7   6   83.39    8.40
  -3   7  -6   76.19    9.00
   3   7   6   76.39    8.90
  -3   7  -6   75.49    8.60
  -3   7  -6   68.29    8.60
  -3   7  -6   65.19    8.30
  -3   7  -6   68.59    9.50
   3   7   6   68.19    7.50
  -4  -7  -6   20.10    4.90
  -4  -7  -6   11.00    3.60
   4  -7   6   18.40    5.00
  -4  -7  -6   17.90    4.30
   4  -7   6   26.70    6.90
  -4   7  -6   20.50    5.20
   4   7   6   24.80    5.20
   4   7   6   19.40    4.70
   4   7   6   23.40    4.50
  -4   7  -6   21.20    5.20
  -4   7  -6   27.80    5.90
  -4   7  -6   25.80    6.00
  -4   7  -6   21.10    5.40
  -5  -7  -6   84.39    9.90
  -5  -7  -6   80.79   10.00
   5  -7   6  107.19   13.70
   5  -7   6  114.69   13.10
  -5  -7  -6   90.19   10.20
  -5   7  -6  103.49   11.90
   5   7   6   94.09    7.60
  -5   7  -6  106.49   11.70
   5   7   6   97.39   10.90
  -5   7  -6  117.79   13.60
   5   7   6   87.39    9.80
  -5   7  -6  101.69   11.90
  -5   7  -6   92.59   11.80
   4  -8  -6    5.70    2.60
   4  -8  -6    8.70    3.80
   4  -8  -6    4.80    2.40
   4  -8  -6    5.50    2.50
  -4  -8   6    2.30    2.80
   4  -8  -6    9.50    3.60
  -4  -8   6    4.00    3.10
  -4  -8   6    5.10    3.40
   4   8  -6    1.30    2.50
  -4   8   6    7.00    2.90
   4   8  -6    4.60    2.90
  -4   8   6    5.50    2.90
   4   8  -6    9.30    4.10
  -3  -8   6   33.80    6.50
  -3  -8   6   44.10    7.30
  -3  -8   6   58.99    6.90
   3  -8  -6   46.60    6.80
   3  -8  -6   62.69    7.40
   3  -8  -6   62.89    7.50
  -3  -8   6   56.19    8.30
   3  -8  -6   54.39    6.70
   3  -8  -6   56.09    6.10
  -3   8   6   47.90    6.70
  -3   8   6   48.70    7.50
   3   8  -6   49.50    7.40
   3   8  -6   49.00    8.00
   3   8  -6   57.19    7.80
   2  -8  -6   26.20    4.80
  -2  -8   6   26.20    5.20
  -2  -8   6   25.20    5.00
   2  -8  -6   35.40    4.60
   2  -8  -6   33.80    5.40
  -2  -8   6   32.40    6.40
  -2  -8   6   17.10    4.00
   2  -8  -6   32.80    5.00
   2  -8  -6   31.40    5.20
  -2   8   6   26.90    5.00
  -2   8   6   27.60    5.40
  -2   8   6   30.20    5.10
   2   8  -6   38.10    6.10
   2   8  -6   24.90    4.90
   2   8  -6   33.30    6.50
   2   8  -6   33.80    5.70
  -1  -8   6   43.50    6.30
   1  -8  -6   44.60    6.00
  -1  -8   6   53.39    7.70
   1  -8  -6   43.10    5.10
  -1  -8   6   37.60    5.80
   1  -8  -6   30.30    4.60
   1  -8  -6   40.70    5.90
   1  -8  -6   41.10    5.50
  -1  -8   6   42.30    5.90
   1   8  -6   37.80    6.70
  -1   8   6   40.60    6.00
  -1   8   6   40.20    6.10
   1   8  -6   36.40    5.50
   1   8  -6   49.99    6.50
   1   8  -6   41.40    6.40
  -1   8   6   37.90    5.30
   0  -8   6  408.66   19.10
   0  -8  -6  383.76   15.30
   0  -8  -6  360.36   16.70
   0  -8  -6  381.96   17.30
   0  -8  -6  409.66   16.70
   0  -8   6  416.86   18.80
   0   8  -6  418.26   19.20
   0   8   6  395.26   18.30
   0   8   6  399.96   16.20
   0   8   6  390.06   17.90
   0   8  -6  399.96   18.40
   0   8  -6  392.16   19.50
   1  -8   6   28.90    5.80
  -1  -8  -6   40.20    5.70
  -1  -8  -6   29.20    4.30
   1  -8   6   24.90    5.50
  -1  -8  -6   28.40    4.80
  -1   8  -6   29.40    5.60
   1   8   6   31.50    4.60
  -1   8  -6   30.40    5.90
  -1   8  -6   32.30    6.30
   1   8   6   32.60    6.00
   1   8   6   28.70    5.20
  -2  -8  -6    5.70    2.20
  -2  -8  -6    7.90    2.70
   2  -8   6   12.40    4.60
  -2  -8  -6   15.20    3.60
  -2  -8  -6   10.80    3.40
   2  -8   6    7.40    3.00
   2   8   6    6.70    2.40
  -2   8  -6    6.80    2.80
   2   8   6    8.50    3.30
   2   8   6    3.90    1.70
  -2   8  -6    7.90    3.60
  -2   8  -6    6.10    3.10
  -2   8  -6    9.20    3.80
   2   8   6   11.90    3.30
   3  -8   6   91.69   10.20
  -3  -8  -6   80.59    8.80
  -3  -8  -6   87.29    8.80
   3  -8   6   74.49   10.60
  -3  -8  -6   74.09    7.70
   3   8   6   79.19    5.80
  -3   8  -6   92.49   10.30
   3   8   6   87.39    9.60
  -3   8  -6   92.99    9.70
   3   8   6   85.39    7.10
  -3   8  -6   64.19    8.90
  -3   8  -6   84.09   10.00
  -3   8  -6   77.39    9.20
   3   8   6   87.79    7.20
  -4  -8  -6    9.20    3.70
  -4  -8  -6   16.30    4.20
  -4  -8  -6   13.90    4.20
   4  -8   6   20.60    5.90
   4  -8   6   17.40    5.10
  -4   8  -6   15.90    4.90
   4   8   6   14.60    4.00
  -4   8  -6   14.30    4.80
  -4   8  -6   16.50    4.60
  -4   8  -6   11.50    4.40
   4   8   6   12.50    3.40
   4   8   6   22.00    4.90
  -4   8  -6   20.00    5.30
  -4  -9   6   14.30    4.70
   4  -9  -6    6.20    2.80
  -4  -9   6    5.90    3.40
   4  -9  -6   10.40    3.30
   4  -9  -6   18.40    4.80
  -4  -9   6    9.60    4.20
   4  -9  -6   13.20    3.90
   4  -9  -6   10.70    3.80
   4   9  -6    8.80    4.10
   4   9  -6    6.40    3.50
   4   9  -6   10.40    3.80
  -4   9   6    7.50    3.00
  -4   9   6    9.20    3.70
  -3  -9   6   97.39   10.90
   3  -9  -6  103.79    8.70
  -3  -9   6   96.89    7.70
   3  -9  -6   84.59    7.60
  -3  -9   6   93.09   10.70
   3  -9  -6   85.59    8.90
  -3  -9   6   84.99    9.70
   3  -9  -6   89.19    7.50
   3  -9  -6   89.19    6.80
   3   9  -6   73.09    8.80
   3   9  -6  106.69   11.50
  -3   9   6   75.79    9.60
   3   9  -6  105.39   10.70
  -3   9   6   86.69    9.20
  -2  -9   6   35.70    6.30
   2  -9  -6   29.10    4.40
   2  -9  -6   31.60    5.20
  -2  -9   6   32.10    5.30
  -2  -9   6   34.00    5.70
   2  -9  -6   32.80    5.10
  -2  -9   6   32.10    6.10
   2  -9  -6   36.70    5.80
   2  -9  -6   31.90    5.20
  -2   9   6   33.80    5.40
   2   9  -6   31.20    5.70
  -2   9   6   33.70    6.10
   2   9  -6   34.60    5.60
   2   9  -6   26.10    6.00
   2   9  -6   37.20    6.00
  -1  -9   6  185.58   12.30
   1  -9  -6  200.68    9.80
   1  -9  -6  192.28   10.80
  -1  -9   6  188.18   11.80
   1  -9  -6  192.28   10.70
   1  -9  -6  181.38   11.10
  -1  -9   6  190.58   11.20
  -1  -9   6  181.28   11.40
  -1   9   6  222.08   12.70
   1   9  -6  199.78   11.60
   1   9  -6  195.38   12.30
  -1   9   6  203.38   11.10
   1   9  -6  195.28   11.10
   1   9  -6  182.78   12.70
  -1   9   6  180.18   11.30
   0  -9  -6  100.29    7.70
   0  -9  -6   93.69    7.50
   0  -9   6  109.09    9.10
   0  -9  -6   96.19    6.80
   0  -9   6  105.59   10.90
   0   9   6   97.39    7.20
   0   9  -6   97.59    8.60
   0   9   6  100.19    8.30
   0   9  -6  112.69    9.70
   0   9  -6  111.49    9.20
   0   9   6  111.29    8.70
   1  -9   6  230.78   13.40
   1  -9   6  217.18   13.80
  -1  -9  -6  212.68   11.70
  -1  -9  -6  204.08   11.80
  -1  -9  -6  213.98   11.00
  -1   9  -6  221.38   13.80
   1   9   6  230.78   12.70
   1   9   6  235.18   13.10
  -1   9  -6  209.48   13.30
   1   9   6  225.88   11.00
  -1   9  -6  197.88   13.40
  -2  -9  -6   30.50    5.00
   2  -9   6   25.70    5.90
  -2  -9  -6   26.80    5.20
   2  -9   6   21.90    5.00
   2   9   6   26.70    5.30
  -2   9  -6   25.90    5.70
   2   9   6   21.60    4.70
   2   9   6   23.00    3.80
  -2   9  -6   29.50    6.00
  -2   9  -6   24.30    5.40
   2   9   6   21.90    3.90
  -3  -9  -6  107.69    8.80
  -3  -9  -6   88.49    8.70
  -3  -9  -6   90.69    7.40
   3  -9   6   92.89   11.50
   3  -9   6   92.59   11.80
   3   9   6  106.99    8.20
   3   9   6  107.29    8.90
  -3   9  -6   66.09    9.60
  -3   9  -6   84.89   10.00
  -3   9  -6   75.99    9.60
  -3   9  -6   77.49    9.00
   3   9   6  105.19    7.90
   3   9   6  100.19    6.70
  -4  -9  -6   10.20    3.50
  -4  -9  -6    9.20    3.40
   4  -9   6   12.70    4.80
  -4  -9  -6   11.60    3.90
   4  -9   6   15.50    5.90
  -4   9  -6   13.80    4.70
  -4   9  -6    6.30    3.50
   4   9   6   18.10    4.80
  -4   9  -6    6.10    3.90
   4   9   6    8.20    3.20
   4   9   6   11.70    3.70
  -4   9  -6   11.60    4.70
  -4   9  -6   12.10    4.60
   4 -10  -6    4.50    2.60
   4 -10  -6    5.10    3.20
  -4 -10   6    5.40    3.60
  -4 -10   6    4.30    3.20
  -4 -10   6    7.10    3.60
   4 -10  -6    7.60    3.10
   4 -10  -6    5.50    2.70
   4 -10  -6    7.10    3.60
  -4  10   6    4.50    2.90
   4  10  -6    6.40    4.00
  -4  10   6    4.60    2.80
   4  10  -6    6.50    4.10
  -4  10   6    5.50    2.90
   3 -10  -6    5.30    2.50
  -3 -10   6    9.70    4.10
   3 -10  -6    9.40    3.40
  -3 -10   6    2.50    2.70
   3 -10  -6    9.50    3.30
  -3 -10   6    4.20    3.20
   3 -10  -6   10.90    3.40
   3 -10  -6    9.50    3.20
  -3 -10   6   10.00    3.30
   3  10  -6    8.00    3.90
  -3  10   6   11.50    3.80
   3  10  -6   10.20    3.90
   3  10  -6    5.00    3.40
  -3  10   6    4.50    2.70
  -3  10   6    4.90    3.00
  -2 -10   6   40.70    6.90
   2 -10  -6   37.00    5.70
  -2 -10   6   42.10    6.50
  -2 -10   6   56.09    7.90
   2 -10  -6   48.10    6.20
   2 -10  -6   39.50    5.80
   2 -10  -6   30.30    5.00
   2 -10  -6   39.10    5.30
  -2 -10   6   38.10    6.60
   2  10  -6   39.60    6.50
   2  10  -6   51.59    7.20
  -2  10   6   47.70    7.40
  -2  10   6   41.50    6.00
   2  10  -6   37.70    6.90
  -1 -10   6   39.10    6.60
  -1 -10   6   31.50    5.70
   1 -10  -6   34.10    5.10
   1 -10  -6   28.00    4.40
  -1 -10   6   30.50    5.90
   1 -10  -6   31.80    5.30
   1 -10  -6   26.60    4.70
  -1  10   6   31.80    5.90
   1  10  -6   34.20    6.10
   1  10  -6   26.90    5.00
  -1  10   6   28.70    5.30
   1  10  -6   34.10    5.50
  -1  10   6   29.20    4.90
   1  10  -6   35.50    6.90
   0 -10   6  495.05   22.80
   0 -10  -6  531.45   21.20
   0 -10  -6  524.95   19.40
   0 -10  -6  562.54   21.50
   0 -10   6  487.25   22.60
   0  10   6  490.55   21.90
   0  10   6  484.35   21.40
   0  10  -6  569.54   23.80
   0  10  -6  518.35   24.00
   0  10  -6  527.95   22.50
   0  10   6  488.95   19.60
  -1 -10  -6   36.00    5.40
  -1 -10  -6   33.60    5.50
   1 -10   6   39.60    6.60
   1 -10   6   49.00    7.90
  -1  10  -6   37.00    6.50
  -1  10  -6   34.90    6.50
   1  10   6   49.70    6.80
   1  10   6   47.00    5.70
  -1  10  -6   51.29    8.20
   1  10   6   44.50    6.60
  -2 -10  -6   28.30    4.90
  -2 -10  -6   39.90    5.80
   2 -10   6   28.70    6.40
  -2  10  -6   27.80    6.00
  -2  10  -6   48.00    8.00
   2  10   6   29.30    5.40
  -2  10  -6   31.40    6.60
   2  10   6   29.70    4.50
   2  10   6   25.90    4.70
   3 -10   6    4.60    4.20
  -3 -10  -6    0.70    2.30
  -3 -10  -6    0.40    2.10
  -3 -10  -6   -0.40    1.60
  -3  10  -6    1.30    2.90
   3  10   6    0.80    1.80
  -3  10  -6    0.80    2.60
   3  10   6    0.60    1.90
   3  10   6    2.10    2.20
  -3  10  -6   -2.10    2.60
  -4 -10  -6   13.60    4.10
  -4 -10  -6    5.90    2.90
  -4 -10  -6   17.80    4.50
   4 -10   6   16.70    6.10
   4 -10   6    8.90    4.50
   4  10   6   11.40    3.60
   4  10   6   12.10    3.60
  -4  10  -6   10.00    4.60
  -4  10  -6   15.00    5.10
   4  10   6   19.20    5.20
  -4  10  -6   10.60    4.90
  -4  10  -6   14.20    5.10
  -3 -11   6    0.30    2.50
   3 -11  -6   -0.70    1.60
  -3 -11   6    0.80    2.10
   3 -11  -6   -1.00    1.90
   3 -11  -6    0.90    2.30
  -3 -11   6   -0.70    2.10
   3 -11  -6    0.60    1.70
   3 -11  -6    2.60    2.60
  -3  11   6   -0.40    2.10
  -3  11   6   -0.10    2.10
   3  11  -6   -3.80    2.30
   3  11  -6    3.50    2.70
   2 -11  -6   38.00    5.60
   2 -11  -6   39.20    5.70
  -2 -11   6   31.60    5.80
   2 -11  -6   36.30    5.70
  -2 -11   6   35.50    6.50
  -2 -11   6   29.20    6.20
   2 -11  -6   50.99    6.30
   2  11  -6   34.00    6.00
  -2  11   6   49.50    7.40
   2  11  -6   37.60    7.10
  -2  11   6   42.90    6.30
   2  11  -6   40.80    6.80
   1 -11  -6   55.69    7.30
   1 -11  -6   50.09    6.50
  -1 -11   6   33.50    6.30
   1 -11  -6   47.90    6.00
  -1 -11   6   39.00    6.60
   1  11  -6   51.59    7.60
  -1  11   6   50.89    6.80
  -1  11   6   46.00    7.20
   1  11  -6   48.80    8.20
   0 -11   6  161.38   11.60
   0 -11   6  154.38   11.70
   0 -11  -6  155.78    9.30
   0 -11  -6  144.79    9.80
   0  11   6  164.58   10.60
   0  11   6  165.68   11.00
   0  11  -6  168.48   12.60
   0  11  -6  150.28   10.90
   0  11   6  171.38   10.20
   0  11  -6  181.38   12.30
  -1 -11  -6   14.00    3.70
   1 -11   6   17.00    4.90
  -1 -11  -6   14.90    3.50
   1 -11   6   13.60    4.00
  -1  11  -6   14.90    4.60
   1  11   6   11.80    4.00
   1  11   6   11.20    3.80
  -1  11  -6    9.90    4.10
   1  11   6    7.60    2.90
  -1  11  -6   10.90    4.00
   2 -11   6    1.50    3.10
  -2 -11  -6    1.40    2.20
  -2 -11  -6    4.40    2.60
   2  11   6    7.10    3.20
   2  11   6    1.90    1.90
  -2  11  -6   -0.10    2.60
  -2  11  -6   -1.00    2.60
   2  11   6    5.80    3.10
  -2  11  -6    1.40    2.80
  -3 -11  -6    4.00    2.60
  -3 -11  -6    4.40    2.70
  -3 -11  -6    3.90    2.50
   3 -11   6    9.00    4.40
  -3  11  -6    0.10    2.80
   3  11   6    3.70    2.70
   3  11   6    3.90    3.10
  -3  11  -6    8.00    4.10
   3  11   6    3.90    2.40
  -3  11  -6    4.70    3.40
   2 -12  -6    1.20    2.10
  -2 -12   6    0.40    2.30
  -2 -12   6    0.40    2.20
   2 -12  -6   -0.10    1.70
   2 -12  -6    0.30    1.80
  -2 -12   6   -0.50    2.20
   2  12  -6   -0.90    2.70
  -2  12   6    1.00    2.00
  -2  12   6    0.20    2.20
   2  12  -6   -1.10    2.30
   2  12  -6   -0.60    2.50
  -1 -12   6    9.70    4.30
   1 -12  -6   10.60    3.20
   1 -12  -6   15.30    3.90
  -1 -12   6    8.80    3.70
  -1  12   6   10.80    3.50
  -1  12   6   12.10    4.10
   1  12  -6   11.70    4.60
   1  12  -6   12.90    4.20
   0 -12   6   56.49    8.40
   0 -12  -6   62.79    7.40
   0 -12  -6   68.89    7.30
   0 -12   6   57.79    8.30
   0  12   6   81.99    8.70
   0  12   6   82.89    9.40
   0  12  -6   80.19    9.70
   0  12   6   76.89    8.30
   0  12  -6   55.79    8.50
  -1 -12  -6   -1.30    1.50
  -1 -12  -6    1.50    2.00
   1 -12   6    1.30    2.90
  -1  12  -6   -0.20    2.70
   1  12   6   -1.90    1.80
   1  12   6   -0.70    1.70
  -1  12  -6    0.30    2.70
   1  12   6   -0.80    1.80
  -1  12  -6    1.60    2.90
  -2 -12  -6    7.20    3.00
   2 -12   6    9.80    4.60
  -2 -12  -6    3.30    2.40
  -2  12  -6   -0.60    2.90
  -2  12  -6    7.00    3.60
   2  12   6    8.80    3.20
   2  12   6    3.40    2.50
  -2  12  -6    8.10    3.60
   2  12   6    4.20    2.60
  -1 -13   6    7.20    3.90
   1 -13  -6    4.80    2.50
  -1 -13   6    5.40    3.60
   1 -13  -6    3.40    2.60
  -1  13   6    6.00    3.30
   1  13  -6    7.20    3.60
   1  13  -6    5.50    3.70
  -1  13   6    8.60    3.40
   0 -13   6  126.49   13.50
   0 -13  -6  111.99    8.40
   0 -13  -6  117.69    9.10
   0  13   6  118.69    9.00
   0  13  -6  144.39   12.10
   0  13  -6  124.29   10.80
   0  13   6  139.19   10.30
   1 -13   6    7.50    3.90
  -1 -13  -6    4.40    2.80
  -1 -13  -6    0.40    1.70
   1  13   6    1.10    2.30
  -1  13  -6    0.10    3.00
   1  13   6   -0.10    2.60
  -1  13  -6    4.30    3.60
   1  13   6    1.40    2.10
  -5   0   7    1.50    2.60
   5   0  -7   -0.10    1.90
  -5   0   7   -1.70    2.20
   5   0  -7    0.00    2.40
  -5   0   7    0.20    2.60
   5   0  -7    0.70    2.20
   4   0  -7    1.50    2.10
   4   0  -7    0.50    2.50
  -4   0   7    0.90    2.40
   4   0  -7    1.90    2.70
  -4   0   7    0.90    2.40
  -4   0   7    2.00    2.60
  -3   0   7    0.80    2.30
  -3   0   7    8.20    3.30
   3   0  -7    1.40    2.10
  -3   0   7    0.80    2.30
   3   0  -7    0.10    2.00
   3   0  -7    1.40    1.60
   3   0  -7    2.10    2.00
  -2   0   7    0.70    2.00
  -2   0   7    2.30    2.40
   2   0  -7    0.60    2.00
  -2   0   7   -0.20    1.60
   2   0  -7    2.60    2.40
   2   0  -7    0.50    1.30
   2   0  -7    1.30    2.20
  -1   0   7    0.40    1.80
   1   0  -7    0.50    1.30
   1   0  -7    0.70    2.00
  -1   0   7    1.50    1.70
   1   0  -7   -0.10    1.50
   1   0  -7    0.90    2.00
  -1   0   7    0.00    1.70
   0   0   7   26.50    5.20
   0   0  -7   28.40    5.10
   1   0   7    0.90    2.30
  -1   0  -7    0.30    1.90
  -1   0  -7    2.80    2.10
  -1   0  -7   -1.30    1.40
  -1   0  -7   -0.80    1.50
   1   0   7    0.10    1.60
  -1   0  -7    0.40    2.00
   1   0   7    0.00    1.70
   2   0   7   -0.60    1.60
  -2   0  -7   -0.10    1.90
  -2   0  -7    0.80    1.80
  -2   0  -7    2.80    2.20
   2   0   7    0.20    1.90
  -2   0  -7    0.70    1.90
   2   0   7    0.10    2.10
  -2   0  -7    0.80    1.70
  -3   0  -7    1.50    2.10
  -3   0  -7    2.20    2.60
  -3   0  -7    1.80    2.60
  -3   0  -7    0.30    2.20
  -3   0  -7    0.20    1.80
   3   0   7   -1.70    2.40
   3   0   7    4.60    2.80
  -4   0  -7   -0.50    2.30
  -4   0  -7   -1.10    1.80
  -4   0  -7    6.80    3.20
   4   0   7   -0.30    2.70
  -4   0  -7    2.40    2.10
   4   0   7   -1.50    1.90
  -5   0  -7    1.10    2.40
   5   0   7    0.80    2.90
   5   0   7   -0.70    2.10
  -5   0  -7    0.70    2.50
  -5   0  -7    0.60    2.40
  -5   0  -7    0.60    2.90
   5  -1  -7   22.70    5.60
  -5  -1   7   19.50    5.40
  -5  -1   7   18.80    5.00
   5  -1  -7   18.50    5.10
   5  -1  -7   14.10    4.30
  -5  -1   7   30.40    6.50
  -5   1   7   15.60    5.40
   5   1  -7   21.70    5.50
   5   1  -7   17.70    4.60
  -5   1   7   22.50    6.00
   5   1  -7   30.20    6.80
  -5   1   7   14.70    4.40
  -4  -1   7   41.60    6.70
   4  -1  -7   42.00    5.40
   4  -1  -7   36.30    6.70
  -4  -1   7   29.50    6.40
   4  -1  -7   43.70    7.10
  -4  -1   7   36.60    7.10
   4  -1  -7   50.99    7.70
  -4   1   7   36.20    6.80
   4   1  -7   53.49    8.40
   4   1  -7   36.70    6.50
  -4   1   7   45.50    7.60
   4   1  -7   49.00    7.40
  -4   1   7   34.90    6.20
  -3  -1   7  535.15   24.40
   3  -1  -7  553.44   24.10
  -3  -1   7  590.34   23.40
   3  -1  -7  559.44   20.70
   3  -1  -7  592.04   25.40
  -3  -1   7  548.95   24.70
   3  -1  -7  546.75   23.70
  -3   1   7  537.95   24.30
   3   1  -7  574.14   24.60
   3   1  -7  539.05   24.80
   3   1  -7  560.04   23.70
  -3   1   7  527.75   22.40
   3   1  -7  553.64   20.00
  -3   1   7  552.74   24.60
  -2  -1   7  112.69    9.80
   2  -1  -7  136.89   10.30
  -2  -1   7  139.59    9.50
   2  -1  -7  151.08   10.90
   2  -1  -7  149.29   10.40
   2  -1  -7  143.99    8.50
  -2  -1   7  132.19   10.10
  -2   1   7  169.88   10.10
   2   1  -7  147.49   11.00
   2   1  -7  141.29   10.50
   2   1  -7  145.89   10.40
  -2   1   7  132.59   10.20
   2   1  -7  148.39    8.30
  -2   1   7  161.88   11.30
   1  -1  -7   28.50    5.50
   1  -1  -7   28.00    5.40
   1  -1  -7   22.90    4.70
  -1  -1   7   17.80    4.40
   1  -1  -7   20.80    3.90
  -1  -1   7   24.60    4.90
  -1  -1   7   17.90    3.70
  -1   1   7   30.40    5.60
   1   1  -7   32.20    5.50
   1   1  -7   30.50    6.00
  -1   1   7   27.40    5.70
  -1   1   7   30.10    4.80
   1   1  -7   30.90    5.60
   1   1  -7   23.10    3.90
   0  -1   7   51.09    5.70
   0  -1   7   47.60    6.70
   0  -1  -7   60.59    7.70
   0  -1  -7   46.50    6.80
   0  -1  -7   42.40    5.70
   0  -1   7   44.50    6.70
   0  -1  -7   28.30    5.20
   0  -1   7   51.39    6.40
   0   1   7   34.30    6.00
   0   1  -7   59.89    7.60
   0   1  -7   67.89    8.30
   0   1  -7   48.40    7.00
   0   1   7   38.90    4.80
   0   1  -7   34.50    5.20
   0   1   7   38.10    5.70
   1  -1   7   52.19    7.10
  -1  -1  -7   42.40    6.50
   1  -1   7   49.00    7.20
  -1  -1  -7   51.89    7.40
   1  -1   7   64.09    7.20
  -1  -1  -7   56.19    7.30
  -1  -1  -7   49.80    7.00
  -1  -1  -7   55.49    5.80
  -1   1  -7   42.10    6.20
   1   1   7   46.40    7.30
   1   1   7   47.40    6.30
   1   1   7   56.29    7.20
  -1   1  -7   58.89    7.70
  -1   1  -7   59.79    8.20
  -1   1  -7   40.90    6.30
  -2  -1  -7   52.69    7.10
   2  -1   7   57.99    6.30
  -2  -1  -7   59.19    7.60
   2  -1   7   47.10    7.20
   2  -1   7   54.79    7.90
  -2  -1  -7   47.50    6.50
  -2  -1  -7   56.19    7.80
  -2  -1  -7   59.19    6.70
   2   1   7   65.69    6.80
  -2   1  -7   56.69    7.80
  -2   1  -7   52.09    6.20
  -2   1  -7   45.70    6.80
   2   1   7   68.69    8.60
   2   1   7   51.99    7.40
  -2   1  -7   72.79    8.50
  -2   1  -7   47.10    6.90
  -3  -1  -7  689.93   28.50
  -3  -1  -7  743.73   27.60
   3  -1   7  741.33   30.70
  -3  -1  -7  755.92   30.20
  -3  -1  -7  692.13   28.70
   3  -1   7  774.82   30.30
   3   1   7  775.82   30.30
  -3   1  -7  761.52   29.00
   3   1   7  754.72   30.20
   3   1   7  760.72   26.20
  -3   1  -7  740.73   27.60
  -3   1  -7  742.43   29.50
  -3   1  -7  754.02   29.40
  -3   1  -7  753.32   30.50
  -4  -1  -7  117.19    9.40
   4  -1   7  109.49   12.90
   4  -1   7  109.49    9.40
  -4  -1  -7   85.89    9.50
  -4  -1  -7  100.39   11.00
  -4  -1  -7  120.19   10.10
   4   1   7  110.89   12.60
  -4   1  -7  103.59    8.90
  -4   1  -7  107.59   12.10
  -4   1  -7   97.49   10.40
  -4   1  -7  120.09    9.70
   4   1   7  109.99    9.60
  -4   1  -7  115.99   12.00
  -5  -1  -7    6.00    3.10
   5  -1   7    8.80    3.60
  -5  -1  -7    4.10    3.10
   5  -1   7    9.00    5.10
  -5  -1  -7   -0.10    2.60
  -5   1  -7   13.30    4.40
   5   1   7    8.50    4.80
  -5   1  -7    9.30    4.30
  -5   1  -7    3.40    3.20
  -5   1  -7    5.60    3.30
   5   1   7    4.20    3.00
  -5  -2   7   43.20    7.90
   5  -2  -7   53.39    6.60
   5  -2  -7   51.99    8.10
  -5  -2   7   47.60    8.00
  -5  -2   7   52.09    8.40
   5  -2  -7   45.40    7.60
   5  -2  -7   53.39    8.30
  -5   2   7   50.49    7.80
   5   2  -7   46.80    8.10
   5   2  -7   50.79    8.20
  -5   2   7   40.90    7.80
   5   2  -7   53.49    7.80
  -5   2   7   45.10    7.60
   4  -2  -7   -1.50    1.80
  -4  -2   7    4.90    3.20
   4  -2  -7    4.70    3.50
   4  -2  -7    6.40    3.10
  -4  -2   7    2.60    2.70
   4  -2  -7    4.60    2.50
  -4  -2   7    5.60    3.10
  -4   2   7    4.30    3.10
  -4   2   7    7.10    3.30
  -4   2   7    2.60    2.60
   4   2  -7   -0.20    2.20
   4   2  -7    3.80    2.50
   4   2  -7    2.30    2.90
  -3  -2   7   84.49   10.10
   3  -2  -7   94.99   10.30
  -3  -2   7   93.39    9.50
   3  -2  -7   99.69   10.70
   3  -2  -7  105.89    7.30
   3  -2  -7  111.19    9.00
  -3  -2   7   99.39   11.00
  -3   2   7   86.49   10.10
   3   2  -7   81.19    9.30
   3   2  -7   85.99   10.60
  -3   2   7   96.79   11.00
  -3   2   7   93.99    9.40
   3   2  -7   81.79    9.40
  -2  -2   7   13.40    3.70
  -2  -2   7   13.80    4.00
   2  -2  -7   17.30    4.50
   2  -2  -7    7.80    2.60
   2  -2  -7    9.60    3.50
   2  -2  -7    8.10    3.20
  -2  -2   7   14.20    4.10
   2   2  -7   12.60    2.80
  -2   2   7   16.20    4.50
   2   2  -7   14.10    3.90
  -2   2   7    9.30    3.60
   2   2  -7   11.90    3.60
  -2   2   7    8.30    3.10
   2   2  -7    8.50    3.70
   1  -2  -7    4.40    2.40
   1  -2  -7    4.60    2.70
   1  -2  -7    2.40    2.10
  -1  -2   7    4.70    2.30
  -1  -2   7    2.00    2.40
   1  -2  -7    4.20    2.20
  -1  -2   7    1.50    2.10
  -1   2   7    1.90    2.50
   1   2  -7    2.60    2.50
   1   2  -7    3.70    1.80
  -1   2   7    4.10    2.60
  -1   2   7    2.20    1.90
   1   2  -7    1.60    2.00
   1   2  -7   -0.10    1.70
   0  -2   7  119.29    8.60
   0  -2  -7  109.19    8.70
   0  -2   7  111.39    8.30
   0  -2   7   79.59    9.20
   0  -2  -7  103.79    8.50
   0  -2  -7  112.09    8.10
   0  -2  -7  119.99    6.60
   0  -2  -7  118.09    9.10
   0   2  -7  115.09    9.20
   0   2   7  110.79    8.60
   0   2   7  115.09    7.30
   0   2  -7   96.89   10.30
   0   2   7   99.59    8.80
   0   2  -7  102.69    7.50
   0   2  -7  110.29    9.20
   1  -2   7  134.39   10.30
   1  -2   7  132.69    9.70
   1  -2   7  131.19    8.60
  -1  -2  -7  108.39    8.60
  -1  -2  -7  110.49    9.10
  -1  -2  -7  124.99    9.40
  -1  -2  -7  129.89    7.80
  -1  -2  -7  131.39    9.20
  -1   2  -7  139.19    9.20
  -1   2  -7  113.29    9.40
   1   2   7  116.29    9.60
   1   2   7  130.69    9.00
  -1   2  -7  112.09    9.40
   1   2   7  131.49    8.80
  -1   2  -7  120.29    9.40
  -2  -2  -7   82.89    9.20
  -2  -2  -7   80.49    8.30
  -2  -2  -7   85.19    8.80
  -2  -2  -7   71.79    8.80
   2  -2   7   73.99    9.00
  -2  -2  -7   91.29    7.10
   2  -2   7  105.19   11.10
  -2   2  -7   78.89    8.70
  -2   2  -7   80.79    8.00
  -2   2  -7   76.79    9.20
  -2   2  -7   69.39    8.50
   2   2   7  104.59    9.10
   2   2   7   80.29    6.70
  -2   2  -7   87.29    9.00
   2   2   7   83.09    8.90
   3  -2   7   70.19    9.50
  -3  -2  -7  103.19   10.60
  -3  -2  -7   63.99    8.50
   3  -2   7   57.99    7.90
  -3  -2  -7   61.19    7.50
  -3  -2  -7   64.09    7.80
  -3   2  -7   53.39    7.10
  -3   2  -7   46.90    7.00
   3   2   7   73.69    9.40
   3   2   7   67.19    6.80
  -3   2  -7   68.69    9.30
  -3   2  -7   59.89    7.70
   3   2   7   71.99    9.10
  -3   2  -7   66.99    8.00
  -4  -2  -7   53.49    7.20
   4  -2   7   55.99    7.80
  -4  -2  -7   43.70    6.70
  -4  -2  -7   49.20    7.70
   4  -2   7   46.20    8.70
  -4  -2  -7   57.59    8.10
   4   2   7   58.09    8.90
  -4   2  -7   50.49    7.90
   4   2   7   67.39    8.80
  -4   2  -7   52.49    8.10
  -4   2  -7   40.60    6.90
  -4   2  -7   49.10    7.70
  -4   2  -7   52.29    7.40
  -5  -2  -7  118.59   10.60
   5  -2   7  151.28   16.20
  -5  -2  -7  130.09   10.80
   5  -2   7  137.09   10.50
  -5  -2  -7  128.99   13.50
  -5   2  -7  115.59   12.80
   5   2   7  145.29   14.60
  -5   2  -7  133.09   10.90
  -5   2  -7  131.69   13.30
   5   2   7  146.59   11.20
  -5   2  -7  118.19   13.00
  -5  -3   7   38.30    7.90
   5  -3  -7   32.70    5.40
   5  -3  -7   39.20    7.00
   5  -3  -7   40.90    7.30
  -5  -3   7   39.90    7.30
  -5  -3   7   49.30    8.60
   5  -3  -7   35.50    6.70
  -5   3   7   46.70    8.20
   5   3  -7   46.90    8.30
  -5   3   7   32.70    6.30
   5   3  -7   39.90    7.00
   5   3  -7   29.30    5.70
   4  -3  -7   31.30    6.20
   4  -3  -7   33.30    6.00
   4  -3  -7   33.20    5.00
  -4  -3   7   34.70    7.10
  -4  -3   7   32.10    6.40
  -4  -3   7   39.10    7.30
   4  -3  -7   41.80    7.60
   4   3  -7   38.70    7.10
  -4   3   7   36.70    6.50
   4   3  -7   48.70    7.50
  -4   3   7   41.40    7.20
   4   3  -7   38.90    6.40
  -4   3   7   31.30    6.70
  -3  -3   7   95.69   10.60
   3  -3  -7  113.79    9.60
   3  -3  -7  117.39    9.50
   3  -3  -7  100.49    7.50
  -3  -3   7  138.69   10.10
  -3  -3   7  116.39   10.00
   3  -3  -7  101.69    8.80
  -3   3   7  113.79    9.60
   3   3  -7  119.79    9.30
   3   3  -7  119.09   10.20
  -3   3   7   85.99    9.70
   3   3  -7  115.79    9.90
  -3   3   7   84.89    9.10
   2  -3  -7   64.39    7.90
   2  -3  -7   45.10    6.80
  -2  -3   7   44.50    6.30
   2  -3  -7   46.40    7.00
  -2  -3   7   52.09    7.80
  -2  -3   7   43.10    7.10
   2  -3  -7   53.59    6.30
  -2   3   7   40.20    6.60
   2   3  -7   47.30    7.20
   2   3  -7   46.70    7.70
  -2   3   7   51.29    6.60
   2   3  -7   43.40    6.90
  -2   3   7   45.20    6.90
  -1  -3   7   37.20    5.30
   1  -3  -7   51.69    6.10
  -1  -3   7   50.29    7.60
   1  -3  -7   57.29    7.60
  -1  -3   7   58.99    7.40
   1  -3  -7   63.69    8.00
   1  -3  -7   40.30    6.20
   1   3  -7   40.80    6.50
   1   3  -7   51.79    5.70
  -1   3   7   42.60    5.50
  -1   3   7   51.09    7.40
   1   3  -7   43.20    6.50
   1   3  -7   55.99    7.80
  -1   3   7   43.00    6.90
   0  -3  -7   53.19    7.00
   0  -3   7   50.49    6.70
   0  -3   7   42.80    7.00
   0  -3  -7   44.40    4.80
   0  -3   7   42.60    6.30
   0  -3  -7   47.70    6.70
   0  -3  -7   47.40    6.40
   0  -3  -7   45.40    6.50
   0   3   7   46.00    6.60
   0   3  -7   55.29    7.70
   0   3  -7   47.80    7.10
   0   3  -7   56.79    6.50
   0   3   7   51.09    7.80
   0   3   7   51.19    5.80
   0   3  -7   51.29    7.30
  -1  -3  -7   67.59    8.10
   1  -3   7   71.19    8.70
  -1  -3  -7   78.49    8.30
  -1  -3  -7   71.69    7.70
  -1  -3  -7   73.89    5.80
  -1  -3  -7   70.89    7.90
   1  -3   7   79.19    8.80
   1  -3   7   71.19    7.70
  -1   3  -7   66.09    7.30
  -1   3  -7   89.59    9.70
  -1   3  -7   79.69    9.00
  -1   3  -7   75.29    9.10
   1   3   7   79.19    9.20
   1   3   7   72.79    7.90
   1   3   7   74.29    5.50
  -2  -3  -7   37.40    6.10
   2  -3   7   36.20    6.90
   2  -3   7   33.10    6.20
  -2  -3  -7   39.10    6.30
  -2  -3  -7   35.70    5.40
  -2  -3  -7   32.10    5.60
   2   3   7   40.50    6.80
  -2   3  -7   31.30    5.60
  -2   3  -7   28.50    5.80
   2   3   7   27.60    5.20
   2   3   7   37.00    5.40
  -2   3  -7   30.10    5.60
  -2   3  -7   25.10    5.10
   3  -3   7   83.89    9.70
  -3  -3  -7   73.99    8.30
  -3  -3  -7   71.39    9.00
  -3  -3  -7   68.79    7.80
  -3  -3  -7   65.19    8.60
   3  -3   7   72.89    9.70
  -3   3  -7   77.19    8.50
  -3   3  -7   61.89    8.50
  -3   3  -7   57.59    8.40
  -3   3  -7   60.29    8.10
   3   3   7   80.09    9.30
   3   3   7   72.39    9.30
  -3   3  -7   74.79    8.90
   3   3   7   70.69    7.20
  -4  -3  -7    6.20    3.20
   4  -3   7    5.50    3.30
   4  -3   7    6.20    4.00
  -4  -3  -7    2.90    2.80
  -4  -3  -7   10.20    3.70
  -4   3  -7    1.60    2.70
   4   3   7   10.00    3.90
  -4   3  -7    4.20    3.20
  -4   3  -7    3.10    2.70
   4   3   7    8.30    4.10
  -4   3  -7    6.50    3.80
  -4   3  -7    4.50    3.30
   5  -3   7   24.70    5.40
  -5  -3  -7   19.80    5.60
   5  -3   7   20.30    6.60
  -5  -3  -7   17.10    5.20
  -5  -3  -7   23.90    5.90
   5   3   7   25.10    5.60
  -5   3  -7   23.10    5.80
  -5   3  -7   28.90    6.50
  -5   3  -7   18.80    5.40
  -5   3  -7   26.70    6.30
   5   3   7   14.10    4.90
  -5   3  -7   20.40    5.90
   4  -4  -7  202.78   12.90
  -4  -4   7  199.88   13.50
  -4  -4   7  183.38   13.20
   4  -4  -7  174.88   12.30
   4  -4  -7  176.68   10.60
  -4  -4   7  167.08   13.00
   4  -4  -7  182.88   12.80
  -4   4   7  163.98   11.70
   4   4  -7  162.08   12.70
   4   4  -7  197.88   13.00
  -4   4   7  196.58   12.90
   4   4  -7  163.48   11.30
  -4   4   7  178.98   13.00
  -3  -4   7   86.69   10.30
   3  -4  -7   86.89    7.10
  -3  -4   7   97.69   11.20
   3  -4  -7   91.59    9.70
  -3  -4   7   88.29   10.00
   3  -4  -7   90.09   10.30
   3  -4  -7  107.89   11.00
  -3   4   7   98.99   11.10
  -3   4   7   97.89   10.50
   3   4  -7  112.09   11.30
   3   4  -7  102.19    8.60
  -3   4   7   85.69    9.10
   3   4  -7   88.39   11.10
  -2  -4   7    1.10    2.30
  -2  -4   7    4.80    2.80
   2  -4  -7    6.90    2.40
   2  -4  -7    6.60    2.80
   2  -4  -7    6.80    3.10
   2  -4  -7    2.30    2.30
  -2  -4   7    8.60    3.40
  -2   4   7    5.20    2.70
   2   4  -7    4.60    2.80
  -2   4   7    3.40    2.70
   2   4  -7    4.90    3.10
  -2   4   7    5.20    2.80
   2   4  -7    5.60    2.80
  -1  -4   7   55.59    7.00
   1  -4  -7   58.59    4.50
   1  -4  -7   71.59    8.30
  -1  -4   7   61.69    7.00
   1  -4  -7   59.89    7.00
  -1  -4   7   66.69    8.80
  -1  -4   7   62.89    7.90
   1  -4  -7   61.49    7.80
   1  -4  -7   67.39    8.00
  -1   4   7   54.29    7.60
  -1   4   7   60.89    7.80
   1   4  -7   64.89    8.20
   1   4  -7   77.29    9.50
   1   4  -7   49.60    7.10
  -1   4   7   61.29    6.90
   1   4  -7   60.59    6.50
   0  -4   7    8.30    3.40
   0  -4   7    8.30    3.20
   0  -4   7    3.70    2.30
   0  -4  -7    9.50    2.50
   0  -4  -7    6.70    2.90
   0  -4  -7    5.60    2.30
   0  -4  -7    8.60    3.10
   0  -4  -7    5.80    2.60
   0   4   7   10.60    3.80
   0   4  -7    8.90    2.90
   0   4   7    4.40    2.60
   0   4  -7    8.20    3.30
   0   4  -7    5.50    3.00
   0   4  -7    7.20    3.30
   0   4   7    8.10    2.50
   1  -4   7   41.90    5.80
  -1  -4  -7   45.80    5.60
  -1  -4  -7   51.69    6.70
  -1  -4  -7   43.10    6.40
  -1  -4  -7   48.90    6.50
  -1  -4  -7   53.59    6.70
   1  -4   7   45.60    6.80
   1  -4   7   33.60    6.10
  -1   4  -7   49.10    6.40
   1   4   7   46.10    7.40
  -1   4  -7   44.10    6.90
   1   4   7   42.70    6.40
  -1   4  -7   45.40    7.20
  -1   4  -7   42.30    6.80
   1   4   7   52.79    5.60
  -2  -4  -7  107.09    9.00
  -2  -4  -7  119.39    8.40
   2  -4   7  126.39   10.00
  -2  -4  -7  125.39    9.60
   2  -4   7  123.49   10.30
  -2  -4  -7  108.99    8.50
   2   4   7  105.59    9.40
   2   4   7  105.49    8.40
  -2   4  -7  127.59   10.00
  -2   4  -7  117.79    9.20
   2   4   7  131.79    8.80
  -2   4  -7  122.89    9.70
  -2   4  -7   99.99   10.70
  -3  -4  -7   71.19    9.10
   3  -4   7   56.39    7.70
  -3  -4  -7   43.70    6.30
  -3  -4  -7   54.29    7.70
   3  -4   7   63.59    9.60
   3   4   7   51.99    7.50
   3   4   7   68.49    9.00
  -3   4  -7   68.49    9.10
  -3   4  -7   62.39    8.90
   3   4   7   62.99    7.00
  -3   4  -7   44.50    6.80
  -3   4  -7   54.19    7.50
  -3   4  -7   59.49    7.70
  -4  -4  -7   20.00    4.70
   4  -4   7   25.00    5.60
   4  -4   7   24.10    6.80
  -4  -4  -7   16.80    4.70
  -4  -4  -7   23.60    5.50
  -4   4  -7   17.50    4.80
  -4   4  -7   14.00    4.60
  -4   4  -7   22.20    5.50
  -4   4  -7   26.40    5.70
  -4   4  -7   23.90    5.50
   4   4   7   29.50    6.20
   4   4   7   28.10    4.70
   4   4   7   19.10    5.00
  -4  -5   7    2.90    3.20
   4  -5  -7    3.90    2.60
   4  -5  -7    4.20    2.90
   4  -5  -7    8.20    3.80
  -4  -5   7    3.10    3.00
  -4  -5   7    0.70    2.60
   4  -5  -7    3.20    2.10
   4   5  -7    5.80    3.70
   4   5  -7    4.80    3.30
   4   5  -7    2.30    2.40
  -4   5   7    1.40    2.60
  -4   5   7    1.00    2.70
   3  -5  -7   20.80    4.70
   3  -5  -7   32.10    6.30
   3  -5  -7   21.50    4.20
  -3  -5   7   23.00    5.40
  -3  -5   7   29.40    6.20
   3  -5  -7   29.70    5.60
  -3  -5   7   36.30    6.60
  -3   5   7   22.70    5.20
  -3   5   7   22.60    5.10
   3   5  -7   39.40    7.00
  -3   5   7   26.60    5.40
   3   5  -7   22.80    4.90
   3   5  -7   22.50    5.50
   2  -5  -7   38.20    6.10
   2  -5  -7   49.90    6.30
  -2  -5   7   33.70    5.90
   2  -5  -7   32.20    5.50
  -2  -5   7   39.40    6.40
  -2  -5   7   40.10    6.70
   2  -5  -7   51.19    7.40
   2   5  -7   45.10    6.80
  -2   5   7   26.30    5.40
  -2   5   7   37.00    5.70
   2   5  -7   49.80    7.90
  -2   5   7   56.29    7.90
   2   5  -7   36.30    6.30
   1  -5  -7  101.39    8.40
   1  -5  -7   94.29    8.10
  -1  -5   7   83.79    9.70
   1  -5  -7   93.99    5.90
   1  -5  -7   80.59    7.10
  -1  -5   7  100.89    8.10
  -1  -5   7   94.49    9.70
   1  -5  -7   89.19    9.40
  -1  -5   7   94.39    7.60
  -1   5   7   93.59    7.30
  -1   5   7  102.39    8.80
   1   5  -7   81.19    9.20
  -1   5   7   90.19    9.70
   1   5  -7   98.09    8.50
   1   5  -7  109.69   11.60
   0  -5  -7   88.39    7.40
   0  -5   7   88.39    7.30
   0  -5   7   89.79   10.40
   0  -5  -7   97.19    8.00
   0  -5   7  101.89    8.60
   0  -5  -7   74.39    8.40
   0  -5  -7   83.69    8.40
   0  -5  -7   95.19    6.30
   0   5  -7   84.39    9.30
   0   5   7   89.29    6.70
   0   5   7   90.89    9.90
   0   5   7   77.79    9.30
   0   5  -7   89.19    6.80
   0   5  -7   87.69   10.20
   0   5  -7   84.19    9.70
  -1  -5  -7    6.20    2.70
  -1  -5  -7    1.50    2.10
   1  -5   7    6.40    3.50
  -1  -5  -7    6.40    3.00
   1  -5   7    1.10    2.50
  -1  -5  -7    3.10    2.10
  -1   5  -7    2.30    2.40
   1   5   7    3.60    1.80
  -1   5  -7    4.20    3.10
   1   5   7    3.40    2.60
  -1   5  -7    4.50    2.80
   1   5   7    3.90    2.50
  -1   5  -7    6.00    2.70
   2  -5   7    2.30    3.10
  -2  -5  -7   14.50    3.70
  -2  -5  -7    6.40    3.10
  -2  -5  -7   11.70    3.70
  -2  -5  -7   12.20    3.40
   2  -5   7   12.10    4.00
   2   5   7    6.60    3.10
  -2   5  -7   13.10    3.80
   2   5   7    5.00    2.70
  -2   5  -7    9.00    3.60
  -2   5  -7   12.10    4.00
  -2   5  -7    8.60    3.60
   2   5   7   14.00    3.70
  -3  -5  -7   21.90    5.10
   3  -5   7   16.70    4.60
  -3  -5  -7   20.90    4.90
   3  -5   7   23.80    6.40
  -3  -5  -7   23.30    4.70
  -3   5  -7   25.00    5.90
  -3   5  -7   24.70    5.20
   3   5   7   21.40    4.30
  -3   5  -7   15.50    4.60
   3   5   7   25.00    5.70
  -3   5  -7   20.60    5.10
   3   5   7   17.30    4.40
  -4  -5  -7   13.40    4.30
   4  -5   7   24.80    5.60
  -4  -5  -7   16.20    5.10
   4  -5   7   18.80    5.80
  -4  -5  -7   13.20    4.30
  -4   5  -7   24.70    6.00
   4   5   7   26.40    5.60
   4   5   7   22.50    5.10
  -4   5  -7   16.40    4.50
  -4   5  -7   24.60    5.80
  -4   5  -7   20.30    5.40
  -4   5  -7   16.80    5.10
   4   5   7   28.80    5.00
  -4  -6   7   22.50    5.70
   4  -6  -7   19.90    4.90
   4  -6  -7   15.10    4.40
   4  -6  -7   21.10    4.50
  -4  -6   7   19.20    5.40
  -4  -6   7   15.50    4.70
   4  -6  -7   22.60    5.30
   4   6  -7   16.90    4.20
  -4   6   7   17.30    4.50
   4   6  -7   23.10    6.20
   4   6  -7   26.70    5.90
  -4   6   7   22.90    5.60
   4   6  -7   26.80    6.20
   3  -6  -7   13.90    3.40
  -3  -6   7    8.90    3.70
   3  -6  -7   13.30    4.00
   3  -6  -7   10.10    3.60
  -3  -6   7   11.10    4.20
   3  -6  -7   14.90    4.30
  -3  -6   7   16.30    4.80
  -3   6   7    8.20    3.60
   3   6  -7    8.30    3.50
  -3   6   7   11.10    3.80
   3   6  -7   10.30    4.20
   3   6  -7    8.20    3.40
  -3   6   7    5.90    2.80
   3   6  -7   24.10    6.00
  -2  -6   7   87.79   10.20
  -2  -6   7  103.49   10.20
  -2  -6   7   80.89    9.80
   2  -6  -7   86.49    9.30
   2  -6  -7  101.29    8.50
   2  -6  -7   75.39    8.70
   2  -6  -7   82.29    7.00
   2   6  -7   81.99    9.00
  -2   6   7   77.99    8.10
   2   6  -7   93.09    9.90
  -2   6   7   89.29   10.70
  -2   6   7   82.59    9.40
   2   6  -7   95.69   10.50
   2   6  -7   81.49   10.10
   1  -6  -7   39.10    6.10
  -1  -6   7   34.50    6.70
   1  -6  -7   32.30    5.60
   1  -6  -7   35.20    5.70
  -1  -6   7   36.40    6.00
  -1  -6   7   31.70    5.60
   1  -6  -7   38.80    4.70
   1  -6  -7   33.60    5.60
   1   6  -7   31.40    5.70
  -1   6   7   32.00    5.90
   1   6  -7   30.40    6.30
  -1   6   7   36.90    5.60
  -1   6   7   40.20    6.90
   1   6  -7   38.80    7.00
   0  -6  -7   34.30    5.70
   0  -6   7   40.30    5.70
   0  -6  -7   39.40    5.10
   0  -6   7   46.70    7.60
   0  -6   7   40.00    6.50
   0  -6  -7   42.30    6.40
   0  -6  -7   44.70    6.30
   0   6   7   34.70    6.00
   0   6   7   33.30    4.90
   0   6  -7   34.50    6.60
   0   6  -7   41.00    6.70
   0   6   7   32.60    6.30
   0   6  -7   38.80    6.80
  -1  -6  -7    2.30    2.20
   1  -6   7    0.40    2.40
  -1  -6  -7   -0.10    1.60
   1  -6   7   -0.80    2.20
  -1  -6  -7    2.30    1.70
  -1  -6  -7    0.30    1.70
  -1   6  -7   -0.60    2.00
   1   6   7    2.90    2.00
  -1   6  -7    0.30    2.40
   1   6   7    1.60    1.50
  -1   6  -7    0.60    1.90
   1   6   7    1.30    2.20
  -1   6  -7   -0.20    2.00
  -2  -6  -7   32.10    5.20
   2  -6   7   41.40    6.90
   2  -6   7   38.20    7.40
  -2  -6  -7   30.80    5.90
  -2  -6  -7   40.00    6.50
   2   6   7   29.10    5.10
  -2   6  -7   43.80    6.60
  -2   6  -7   46.80    7.50
  -2   6  -7   35.00    6.40
   2   6   7   28.60    5.70
  -2   6  -7   26.30    6.00
  -3  -6  -7    9.20    3.70
  -3  -6  -7    9.10    3.80
   3  -6   7   11.60    4.90
  -3  -6  -7    6.40    3.30
   3  -6   7   10.10    4.00
  -3  -6  -7    9.40    3.50
   3   6   7   20.10    5.10
   3   6   7   11.90    3.40
  -3   6  -7    8.80    3.90
  -3   6  -7   14.00    4.50
   3   6   7   11.60    4.00
  -3   6  -7   14.30    4.80
  -3   6  -7   11.10    4.00
   4  -6   7   91.89   10.90
   4  -6   7   84.99   11.60
  -4  -6  -7   73.09    9.40
  -4  -6  -7   69.09    8.50
  -4  -6  -7   83.89    9.60
  -4   6  -7   79.39   10.20
   4   6   7   84.89    7.30
   4   6   7  103.49   11.40
  -4   6  -7   86.79   10.30
  -4   6  -7   67.89    9.60
   4   6   7  101.49   10.80
  -4   6  -7   87.19   10.30
  -4   6  -7  114.69   13.20
   4  -7  -7   34.00    5.70
   4  -7  -7   31.40    6.10
   4  -7  -7   44.80    7.50
  -4  -7   7   26.60    6.20
  -4  -7   7   24.50    6.30
  -4  -7   7   28.20    6.30
   4  -7  -7   35.60    6.20
  -4   7   7   29.60    6.30
  -4   7   7   32.10    5.90
   4   7  -7   31.50    6.60
   4   7  -7   21.20    5.40
   4   7  -7   29.10    6.60
   3  -7  -7   61.59    8.50
   3  -7  -7   73.69    8.50
  -3  -7   7   85.49   10.60
   3  -7  -7   62.69    7.50
  -3  -7   7   88.39   11.10
  -3  -7   7   46.20    7.60
   3  -7  -7   85.59    9.80
   3   7  -7   63.99    8.50
  -3   7   7   69.99    8.20
   3   7  -7   66.59    8.30
  -3   7   7   73.09    9.70
   3   7  -7   80.19    9.70
   3   7  -7   71.39    9.90
  -2  -7   7   67.19    8.50
   2  -7  -7   63.99    5.20
   2  -7  -7   59.39    7.20
   2  -7  -7   64.39    8.00
  -2  -7   7   52.19    8.10
   2  -7  -7   60.09    7.40
  -2  -7   7   60.39    8.20
   2  -7  -7   63.89    7.70
  -2   7   7   65.39    8.60
   2   7  -7   49.50    7.90
   2   7  -7   54.59    7.90
   2   7  -7   75.79    9.30
  -2   7   7   48.60    7.50
  -2   7   7   62.59    7.50
   2   7  -7   63.09    7.90
   1  -7  -7  129.89    9.30
  -1  -7   7  115.39    9.30
  -1  -7   7  146.59   10.30
   1  -7  -7  131.29    9.90
   1  -7  -7  125.49    9.00
   1  -7  -7  125.19    7.50
   1  -7  -7  106.49    8.30
  -1  -7   7  129.59   10.70
   1   7  -7  149.69   11.00
  -1   7   7  136.29    9.20
   1   7  -7  133.49    9.70
  -1   7   7  130.39   10.20
  -1   7   7  113.09    9.50
   1   7  -7  128.69   13.20
   1   7  -7  134.39   10.10
   0  -7  -7   46.70    5.50
   0  -7  -7   51.19    6.90
   0  -7  -7   40.10    5.80
   0  -7   7   45.60    7.40
   0  -7   7   50.29    7.40
   0  -7  -7   39.10    5.90
   0   7   7   36.50    6.00
   0   7  -7   28.40    5.90
   0   7   7   43.40    5.60
   0   7  -7   37.80    6.50
   0   7   7   34.50    5.90
   0   7  -7   45.30    7.40
   1  -7   7   47.80    7.60
  -1  -7  -7   34.20    5.80
  -1  -7  -7   35.40    5.20
   1  -7   7   39.80    7.00
  -1  -7  -7   28.60    5.40
  -1   7  -7   49.60    7.40
  -1   7  -7   44.50    7.30
   1   7   7   33.60    6.30
  -1   7  -7   36.00    6.70
   1   7   7   31.30    5.40
   1   7   7   36.40    4.70
   2  -7   7   92.29   11.70
  -2  -7  -7  107.69    8.10
  -2  -7  -7   93.19    9.80
  -2  -7  -7   99.79    8.50
   2  -7   7  126.19   10.00
  -2   7  -7   94.39   11.00
   2   7   7   98.29    8.10
  -2   7  -7   96.59   11.20
  -2   7  -7  102.29    8.50
  -2   7  -7  112.99   12.30
   2   7   7  123.39   10.10
   3  -7   7    9.10    3.90
  -3  -7  -7   10.10    4.00
  -3  -7  -7    4.30    2.80
   3  -7   7    7.40    4.70
  -3  -7  -7    4.70    3.50
  -3  -7  -7    2.60    2.20
  -3   7  -7    9.70    4.00
   3   7   7    4.30    3.10
   3   7   7   10.20    3.40
  -3   7  -7    7.90    3.90
  -3   7  -7    3.80    3.20
   3   7   7    5.30    2.60
  -3   7  -7    9.90    4.00
  -4  -7  -7   35.20    6.30
  -4  -7  -7   31.20    6.40
  -4  -7  -7   25.50    5.50
   4  -7   7   29.60    6.40
   4  -7   7   30.50    7.40
   4   7   7   26.00    5.50
  -4   7  -7   36.50    7.30
  -4   7  -7   28.90    6.50
  -4   7  -7   29.70    6.50
   4   7   7   24.30    5.70
   4   7   7   20.90    4.60
  -4   7  -7   26.90    6.10
   3  -8  -7   42.40    6.60
  -3  -8   7   37.20    6.80
   3  -8  -7   40.60    6.40
  -3  -8   7   46.70    7.90
  -3  -8   7   27.40    6.40
   3  -8  -7   34.90    5.40
   3  -8  -7   45.50    7.10
  -3   8   7   27.50    5.30
   3   8  -7   49.30    7.80
  -3   8   7   33.00    6.30
   3   8  -7   26.60    6.50
   3   8  -7   36.60    6.60
  -2  -8   7   64.99    8.30
   2  -8  -7   53.39    7.40
   2  -8  -7   59.29    6.30
   2  -8  -7   52.09    6.90
  -2  -8   7   62.39    9.00
   2  -8  -7   50.59    6.80
   2  -8  -7   58.69    7.80
  -2  -8   7   60.29    8.70
  -2  -8   7   61.59    8.00
  -2   8   7   59.89    7.90
   2   8  -7   61.19    9.20
   2   8  -7   62.79    8.20
   2   8  -7   56.69    7.90
  -2   8   7   69.19    8.10
   2   8  -7   59.29    8.10
  -2   8   7   57.89    8.20
  -1  -8   7  195.98   12.30
   1  -8  -7  170.48    9.20
   1  -8  -7  175.38   11.00
  -1  -8   7  163.08   12.40
  -1  -8   7  170.38   11.50
   1  -8  -7  177.78   11.50
   1  -8  -7  168.78   10.70
  -1   8   7  167.78   11.80
  -1   8   7  167.38   10.50
   1   8  -7  178.08   13.20
   1   8  -7  196.28   12.40
  -1   8   7  163.18   11.50
   1   8  -7  203.58   13.20
   0  -8   7  149.49   11.50
   0  -8  -7  155.78    8.90
   0  -8  -7  148.89   10.20
   0  -8  -7  152.78   10.10
   0  -8  -7  170.18   11.00
   0  -8   7  168.68   11.80
   0   8  -7  148.39   11.70
   0   8   7  168.88   11.30
   0   8   7  156.88    9.70
   0   8   7  159.28   11.40
   0   8  -7  154.48   11.40
   0   8  -7  137.09   11.70
   1  -8   7   93.29   10.80
  -1  -8  -7   84.89    9.00
  -1  -8  -7   92.79    7.10
  -1  -8  -7   95.29    9.60
   1  -8   7   86.49   10.90
  -1   8  -7  113.29    9.90
   1   8   7   94.29    7.00
  -1   8  -7   86.89   10.20
  -1   8  -7  105.49   11.70
   1   8   7   85.39    9.40
   1   8   7   98.59   10.60
  -2  -8  -7   -0.90    2.00
   2  -8   7    2.90    3.00
   2  -8   7    5.50    3.80
  -2  -8  -7    2.10    2.20
  -2  -8  -7    5.40    2.90
  -2   8  -7    0.50    2.40
  -2   8  -7    4.00    3.40
   2   8   7    3.90    2.10
  -2   8  -7    2.90    3.00
   2   8   7    4.10    2.60
   2   8   7    5.20    3.30
   3  -8   7    3.90    3.50
  -3  -8  -7    0.70    2.20
  -3  -8  -7    1.40    2.30
   3   8   7    2.50    3.00
   3   8   7   -0.60    1.80
  -3   8  -7    1.60    2.50
  -3   8  -7    2.20    3.10
   3   8   7    2.20    2.70
  -3   8  -7    6.20    3.50
  -3   8  -7    2.70    2.90
   3  -9  -7   21.70    4.90
   3  -9  -7   19.30    4.20
  -3  -9   7   26.90    6.00
   3  -9  -7   26.80    5.30
  -3  -9   7   33.50    7.00
   3  -9  -7   19.00    4.80
  -3  -9   7   19.80    5.70
  -3   9   7   23.60    5.60
   3   9  -7   22.60    5.60
  -3   9   7   20.30    4.90
   3   9  -7   24.10    5.60
   3   9  -7   24.80    6.50
  -2  -9   7   51.49    7.70
   2  -9  -7   31.60    4.70
   2  -9  -7   40.80    6.50
  -2  -9   7   35.40    6.40
   2  -9  -7   51.09    7.20
   2  -9  -7   38.10    6.20
  -2  -9   7   51.39    7.80
  -2  -9   7   35.30    7.00
   2   9  -7   46.40    7.30
   2   9  -7   36.40    6.40
   2   9  -7   45.00    8.00
  -2   9   7   33.20    6.70
  -2   9   7   36.30    5.80
   1  -9  -7  199.58   12.90
   1  -9  -7  234.78   11.30
  -1  -9   7  251.07   14.60
   1  -9  -7  244.08   13.10
   1  -9  -7  228.38   12.70
  -1  -9   7  212.78   14.50
  -1   9   7  255.27   14.40
  -1   9   7  236.68   12.90
   1   9  -7  205.38   14.70
   1   9  -7  231.48   13.80
   1   9  -7  222.68   14.40
  -1   9   7  212.68   13.70
   0  -9   7    6.70    3.60
   0  -9  -7    4.80    2.80
   0  -9  -7   -1.60    1.60
   0  -9   7    4.90    3.40
   0  -9  -7    1.10    1.60
   0   9   7    3.40    2.20
   0   9   7    5.00    2.90
   0   9  -7    0.80    2.80
   0   9   7    1.20    2.60
   0   9  -7    4.40    3.20
   0   9  -7    2.00    2.80
  -1  -9  -7  185.78   11.80
   1  -9   7  202.88   13.40
   1  -9   7  191.78   13.70
  -1  -9  -7  200.88   12.10
  -1  -9  -7  180.78   10.50
   1   9   7  193.68   10.70
  -1   9  -7  196.58   13.80
  -1   9  -7  200.88   14.10
   1   9   7  166.68   12.10
   1   9   7  185.28   12.10
  -1   9  -7  197.88   13.40
   2  -9   7   70.09   10.70
  -2  -9  -7   40.30    6.40
   2  -9   7   61.69    8.70
  -2  -9  -7   58.89    7.20
  -2   9  -7   56.49    9.10
  -2   9  -7   49.40    8.10
   2   9   7   63.29    8.60
   2   9   7   52.69    5.90
   2   9   7   47.40    6.80
  -2   9  -7   42.70    7.40
  -3  -9  -7   23.30    5.10
   3  -9   7   36.80    8.20
  -3  -9  -7   18.90    4.90
   3   9   7   23.90    5.00
  -3   9  -7   31.10    6.90
   3   9   7   33.70    6.60
  -3   9  -7   35.20    7.80
  -3   9  -7   30.00    6.70
   2 -10  -7    4.70    2.70
  -2 -10   7    6.70    3.90
   2 -10  -7    5.10    2.50
  -2 -10   7    8.40    3.90
   2 -10  -7    8.40    3.20
  -2 -10   7    7.10    3.50
   2 -10  -7    5.80    2.80
  -2  10   7    4.90    3.10
   2  10  -7    7.40    3.70
   2  10  -7   16.00    4.90
  -2  10   7    5.00    2.80
   2  10  -7    3.80    3.70
   1 -10  -7   -0.10    2.00
   1 -10  -7   -0.30    2.00
   1 -10  -7    0.00    1.60
  -1 -10   7    2.50    2.90
  -1 -10   7    1.50    2.50
  -1  10   7    2.00    2.10
  -1  10   7    1.50    2.50
   1  10  -7    0.30    2.40
  -1  10   7    0.80    2.50
   1  10  -7   -0.50    2.80
   1  10  -7    0.40    2.90
   0 -10  -7  188.48   11.80
   0 -10  -7  179.58   10.40
   0 -10   7  182.98   13.20
   0 -10  -7  174.38   11.40
   0 -10   7  197.98   13.70
   0  10   7  217.38   13.20
   0  10  -7  208.98   13.50
   0  10  -7  180.28   13.30
   0  10  -7  184.28   14.10
   0  10   7  185.98   10.90
   0  10   7  183.18   12.60
   1 -10   7    5.70    3.70
  -1 -10  -7    8.40    3.10
   1 -10   7   12.90    4.40
  -1 -10  -7    3.70    2.70
   1  10   7    5.50    3.20
  -1  10  -7   14.50    4.90
  -1  10  -7    9.50    4.40
   1  10   7   10.00    3.20
  -1  10  -7    9.10    4.30
   1  10   7   10.30    3.80
   2 -10   7    9.70    4.80
  -2 -10  -7    2.40    2.80
  -2 -10  -7    6.20    2.80
  -2  10  -7    6.30    3.70
   2  10   7    3.80    2.80
   2  10   7    2.70    2.50
  -2  10  -7    5.40    3.90
  -2  10  -7    4.00    3.30
   2  10   7    5.60    2.60
   1 -11  -7   51.69    7.30
   1 -11  -7   44.50    6.10
  -1 -11   7   38.50    7.70
  -1 -11   7   48.10    8.20
   1 -11  -7   41.60    6.70
  -1  11   7   58.59    8.50
   1  11  -7   36.70    7.20
   1  11  -7   49.40    8.70
  -1  11   7   59.99    7.60
   0 -11   7   81.49   10.50
   0 -11  -7  107.19    7.90
   0 -11  -7   92.99    9.70
   0 -11   7   85.19   11.10
   0  11  -7   80.19   10.10
   0  11   7  113.39    9.30
   0  11   7   96.39   10.30
   0  11   7  100.69    8.10
   0  11  -7  113.89   13.10
   0  11  -7   94.79   11.30
  -1 -11  -7  123.69    8.80
  -1 -11  -7  116.79    9.70
   1 -11   7  126.29   14.00
  -1  11  -7  116.19   12.90
  -1  11  -7  117.29   12.80
  -1  11  -7  148.69   11.90
   1  11   7  116.59    8.60
   1  11   7  129.09   10.20
   1  11   7  134.79   10.50
   3   0  -8   64.39    9.70
   3   0  -8   44.30    7.00
  -3   0   8   36.10    6.80
  -3   0   8   36.10    6.30
   3   0  -8   47.70    7.70
   3   0  -8   40.40    5.90
  -3   0   8   39.90    7.20
  -2   0   8  218.28   12.60
   2   0  -8  230.48   14.90
  -2   0   8  218.18   14.60
   2   0  -8  218.68   14.30
  -2   0   8  191.58   13.40
   2   0  -8  202.78   13.60
   2   0  -8  209.78   11.30
  -1   0   8  327.17   17.10
  -1   0   8  313.27   14.80
   1   0  -8  291.37   16.80
   1   0  -8  312.27   14.70
  -1   0   8  324.57   18.20
   0   0  -8   23.90    5.50
   0   0   8   21.10    4.70
   0   0   8   22.60    5.60
   0   0  -8   31.40    5.90
   0   0  -8   24.30    4.90
   0   0  -8   24.30    5.40
   1   0   8   94.89   11.20
  -1   0  -8  113.39    9.90
  -1   0  -8  100.49   10.80
  -1   0  -8  113.59    9.70
   1   0   8  104.99    8.50
  -1   0  -8  119.29    9.30
  -2   0  -8  200.78   14.10
  -2   0  -8  212.08   14.00
  -2   0  -8  204.88   13.30
   2   0   8  217.88   14.00
   2   0   8  241.48   15.10
  -2   0  -8  226.98   13.90
   2   0   8  229.18   12.40
  -3   0  -8   68.89    9.40
  -3   0  -8   75.89    9.70
  -3   0  -8   63.79    8.00
   3   0   8   72.69    9.40
   3   0   8   81.39   10.90
  -3   0  -8   77.69    9.60
  -3  -1   8    2.40    2.90
  -3  -1   8    0.70    2.50
   3  -1  -8   -1.40    1.90
  -3  -1   8    1.00    3.00
   3  -1  -8    1.00    2.70
   3  -1  -8    1.40    2.00
   3  -1  -8    0.10    2.70
  -3   1   8    2.00    2.60
   3   1  -8    2.40    2.60
  -3   1   8    1.10    2.30
   3   1  -8    3.90    3.30
   3   1  -8   -0.90    2.50
  -3   1   8    1.60    2.90
   2  -1  -8   75.99   10.00
   2  -1  -8   67.49    8.90
  -2  -1   8   63.89    7.80
  -2  -1   8   58.19    8.80
  -2  -1   8   65.99    9.30
   2  -1  -8   75.69    9.90
   2  -1  -8   72.69    7.70
  -2   1   8   58.49    9.10
   2   1  -8   86.99   10.80
  -2   1   8   65.99    7.80
   2   1  -8   74.89    6.30
   2   1  -8   87.39   10.60
  -2   1   8   72.09    9.40
   1  -1  -8   35.70    6.30
   1  -1  -8   25.10    5.60
  -1  -1   8   46.60    8.20
   1  -1  -8   30.40    5.00
  -1  -1   8   36.30    5.60
  -1  -1   8   33.20    6.40
   1  -1  -8   26.70    5.50
   1   1  -8   37.60    6.80
  -1   1   8   29.20    6.40
  -1   1   8   29.30    5.10
   1   1  -8   40.40    7.20
   1   1  -8   40.00    5.70
   1   1  -8   26.70    5.70
  -1   1   8   47.00    7.60
   0  -1   8    0.60    2.50
   0  -1  -8    4.30    3.00
   0  -1  -8    0.90    2.50
   0  -1  -8    2.40    2.20
   0  -1   8    3.20    2.50
   0  -1  -8    6.40    3.10
   0   1  -8    3.10    2.80
   0   1   8    1.40    2.30
   0   1  -8    3.60    2.80
   0   1  -8    0.00    2.20
   0   1   8    4.20    3.20
   0   1  -8    5.70    2.60
   1  -1   8   12.40    3.80
  -1  -1  -8   10.50    4.20
  -1  -1  -8   12.20    4.10
  -1  -1  -8   11.00    3.60
   1  -1   8   18.30    5.20
  -1  -1  -8   11.70    4.10
   1   1   8    7.20    3.10
  -1   1  -8   12.70    4.00
  -1   1  -8    5.30    3.10
  -1   1  -8    9.60    3.60
   1   1   8   14.40    4.80
  -1   1  -8   10.50    4.00
  -2  -1  -8    5.80    3.10
  -2  -1  -8    6.10    3.20
   2  -1   8   10.00    4.20
  -2  -1  -8   15.80    4.60
  -2  -1  -8    6.50    3.10
   2  -1   8    5.20    3.20
  -2  -1  -8    8.60    3.20
   2   1   8    3.70    3.00
   2   1   8    8.10    3.70
  -2   1  -8    4.90    3.20
  -2   1  -8    5.10    3.10
   2   1   8    8.40    2.90
  -2   1  -8    8.70    3.60
  -2   1  -8    7.80    3.20
  -3  -1  -8   68.79    8.90
  -3  -1  -8   61.69    7.60
  -3  -1  -8   63.99    9.10
   3  -1   8   78.49   10.80
  -3  -1  -8   59.19    8.30
   3  -1   8   64.99    9.50
  -3   1  -8   64.29    8.40
   3   1   8   71.99    9.70
  -3   1  -8   74.29    8.50
  -3   1  -8   78.29    9.50
  -3   1  -8   73.49    9.30
   3   1   8   63.89    9.20
  -3   1  -8   59.99    9.00
   3  -2  -8    8.60    4.10
   3  -2  -8   14.70    3.80
  -3  -2   8   16.40    4.80
   3  -2  -8   14.60    4.50
  -3  -2   8    9.00    4.00
   3  -2  -8   15.30    4.80
  -3  -2   8    8.00    4.10
  -3   2   8   10.50    4.50
  -3   2   8   15.80    4.60
  -3   2   8   14.80    5.10
   3   2  -8   17.00    5.30
   3   2  -8   13.50    4.30
   3   2  -8   24.40    6.00
  -2  -2   8    6.40    3.10
  -2  -2   8    9.00    3.90
  -2  -2   8    7.80    3.90
   2  -2  -8    5.80    2.60
   2  -2  -8    5.00    3.20
   2  -2  -8    7.80    3.60
   2  -2  -8    3.00    3.30
  -2   2   8   15.10    4.50
   2   2  -8    3.20    3.00
  -2   2   8   14.40    4.30
   2   2  -8   11.90    4.70
  -2   2   8    4.70    3.30
   2   2  -8   11.40    4.30
   1  -2  -8  174.48   12.50
   1  -2  -8  183.58   10.90
  -1  -2   8  165.08   12.70
  -1  -2   8  199.68   12.80
   1  -2  -8  180.08   12.70
  -1   2   8  166.18   11.90
   1   2  -8  196.58   13.30
  -1   2   8  198.38   13.50
   1   2  -8  192.28   13.00
   1   2  -8  165.38   10.10
  -1   2   8  187.58   10.80
   0  -2  -8    5.50    2.90
   0  -2  -8    6.50    3.10
   0  -2  -8    2.70    2.90
   0  -2   8    5.60    3.30
   0  -2   8   13.20    4.00
   0  -2  -8    9.30    3.60
   0   2   8    7.60    3.30
   0   2   8    3.60    2.90
   0   2  -8    3.00    2.70
   0   2  -8   12.80    3.80
   0   2  -8    5.40    3.40
   0   2  -8    6.30    3.50
  -1  -2  -8    8.60    3.70
  -1  -2  -8    6.40    3.00
   1  -2   8    5.10    3.40
  -1  -2  -8    4.10    2.80
   1  -2   8   -0.20    1.90
  -1  -2  -8    5.70    2.80
   1  -2   8    3.20    2.90
   1   2   8    6.70    3.00
  -1   2  -8    1.50    2.30
  -1   2  -8    5.40    3.40
  -1   2  -8    0.00    2.30
   1   2   8   10.80    4.30
  -1   2  -8    2.10    2.70
   2  -2   8  128.39   11.00
  -2  -2  -8  147.39   11.10
  -2  -2  -8  138.79    9.30
  -2  -2  -8  147.99   11.20
  -2  -2  -8  118.99   10.60
   2  -2   8  143.59   11.60
  -2   2  -8  140.49   10.80
  -2   2  -8  162.48   11.70
  -2   2  -8  139.19   11.30
   2   2   8  143.09    9.80
   2   2   8  131.79   11.30
  -2   2  -8  149.49   11.90
   3  -2   8   46.40    8.60
  -3  -2  -8   35.20    5.90
   3  -2   8   28.40    6.40
  -3  -2  -8   30.90    6.30
  -3  -2  -8   42.20    7.80
  -3  -2  -8   46.20    7.40
  -3   2  -8   39.70    6.70
  -3   2  -8   29.20    5.90
  -3   2  -8   34.40    6.50
   3   2   8   39.70    7.30
   3   2   8   45.50    7.60
  -3   2  -8   29.20    6.30
  -3  -3   8   19.10    5.00
   3  -3  -8   17.70    5.10
   3  -3  -8   22.90    4.60
  -3  -3   8   23.90    5.90
  -3  -3   8   25.90    6.60
   3  -3  -8   28.60    6.50
   3  -3  -8   16.40    4.70
  -3   3   8   19.20    5.20
  -3   3   8   27.60    6.40
  -3   3   8   23.60    5.20
   3   3  -8   24.70    5.40
   3   3  -8   25.10    6.10
   3   3  -8   29.80    6.70
   2  -3  -8    2.80    2.10
  -2  -3   8    5.30    2.70
  -2  -3   8    1.80    2.80
  -2  -3   8    4.30    2.80
   2  -3  -8    7.70    3.70
   2  -3  -8    9.10    3.70
   2  -3  -8    5.50    3.30
  -2   3   8    5.20    3.30
   2   3  -8    6.50    3.40
  -2   3   8    2.30    2.90
   2   3  -8    8.20    3.40
  -2   3   8    4.70    2.80
   2   3  -8    9.70    4.30
   1  -3  -8    4.70    2.60
   1  -3  -8    1.00    2.30
  -1  -3   8   -0.90    2.30
  -1  -3   8    5.20    3.10
   1  -3  -8    4.60    3.00
   1  -3  -8    4.40    2.90
  -1   3   8    1.00    2.30
   1   3  -8    5.20    3.20
  -1   3   8    1.20    2.00
   1   3  -8   -1.00    2.10
   1   3  -8    1.00    2.60
  -1   3   8   -0.90    2.00
   0  -3   8   16.40    5.40
   0  -3  -8   25.20    5.40
   0  -3   8   17.60    4.40
   0  -3  -8   24.40    5.60
   0  -3  -8   24.50    4.80
   0  -3  -8   21.20    5.00
   0   3   8   13.70    4.20
   0   3  -8   27.80    6.20
   0   3  -8   20.30    4.40
   0   3   8   20.20    5.60
   0   3  -8   26.80    5.70
   0   3  -8   25.60    5.90
   0   3   8   24.30    4.30
   1  -3   8  185.08   13.20
  -1  -3  -8  194.88   10.80
   1  -3   8  179.38   12.60
  -1  -3  -8  186.38   12.40
  -1  -3  -8  184.88   12.00
  -1   3  -8  170.28   11.30
  -1   3  -8  173.28   12.70
  -1   3  -8  184.78   13.20
   1   3   8  177.38   13.00
  -1   3  -8  185.88   13.10
   1   3   8  188.38   12.00
  -2  -3  -8   49.10    7.40
  -2  -3  -8   54.49    8.10
   2  -3   8   54.69    8.50
  -2  -3  -8   53.79    7.60
   2  -3   8   68.59    9.50
  -2  -3  -8   42.90    6.00
  -2   3  -8   46.60    7.60
  -2   3  -8   52.29    7.80
   2   3   8   52.59    8.20
  -2   3  -8   48.70    8.10
   2   3   8   48.10    6.70
  -2   3  -8   48.70    7.30
  -3  -3  -8   11.80    4.30
  -3  -3  -8   16.20    4.70
   3  -3   8   14.20    4.70
   3  -3   8   14.20    5.10
  -3  -3  -8   17.40    4.70
  -3  -3  -8   13.80    4.00
   3   3   8   18.80    4.20
   3   3   8   22.70    5.90
  -3   3  -8   11.10    4.20
   3   3   8   25.50    5.90
  -3   3  -8    9.20    4.00
  -3   3  -8   15.10    4.60
  -3   3  -8   13.90    4.30
   3  -4  -8   15.90    4.00
  -3  -4   8   13.60    4.50
  -3  -4   8   15.70    5.40
   3  -4  -8   11.80    4.10
   3  -4  -8   16.60    4.90
  -3  -4   8   18.40    5.10
   3  -4  -8   22.40    5.80
  -3   4   8   16.80    4.70
   3   4  -8   17.20    5.30
  -3   4   8   17.10    5.20
   3   4  -8   13.40    4.50
   3   4  -8   21.40    5.70
  -3   4   8   12.30    4.10
   2  -4  -8    1.50    2.60
   2  -4  -8    5.80    3.60
   2  -4  -8    8.90    3.20
  -2  -4   8    8.60    3.80
  -2  -4   8    2.70    2.80
   2  -4  -8    9.90    3.70
  -2  -4   8    7.60    3.60
   2   4  -8    4.20    3.10
  -2   4   8    7.60    3.20
   2   4  -8    4.10    3.70
  -2   4   8   11.70    4.40
   2   4  -8    2.20    3.00
  -2   4   8    5.30    3.30
   1  -4  -8   63.09    8.30
   1  -4  -8   64.59    8.90
  -1  -4   8   49.40    8.40
   1  -4  -8   55.69    7.40
   1  -4  -8   61.09    8.30
  -1  -4   8   66.69    8.80
  -1   4   8   50.59    6.60
   1   4  -8   52.59    7.90
   1   4  -8   49.00    7.70
   1   4  -8   58.89    9.00
  -1   4   8   67.49    9.50
  -1   4   8   45.80    7.30
   0  -4   8    4.10    3.10
   0  -4  -8   11.80    3.80
   0  -4  -8   12.60    4.00
   0  -4  -8    6.90    3.40
   0  -4  -8   16.90    4.20
   0  -4   8   13.00    3.80
   0   4   8    8.80    2.90
   0   4  -8    2.20    3.20
   0   4  -8    7.60    3.00
   0   4   8   11.50    4.10
   0   4  -8    6.30    3.50
   0   4   8   10.50    4.20
   0   4  -8   14.10    4.70
  -1  -4  -8   46.00    7.10
  -1  -4  -8   48.80    7.70
   1  -4   8   51.99    8.00
  -1  -4  -8   45.60    5.80
  -1  -4  -8   34.60    6.10
   1  -4   8   55.59    8.30
  -1   4  -8   62.69    9.10
  -1   4  -8   57.59    8.30
   1   4   8   51.79    8.40
  -1   4  -8   58.69    7.80
   1   4   8   42.20    6.50
  -1   4  -8   53.49    8.20
  -2  -4  -8    3.90    2.60
  -2  -4  -8    2.10    2.80
  -2  -4  -8    1.60    2.30
   2  -4   8    2.80    3.20
  -2  -4  -8    1.20    2.20
   2  -4   8   -0.30    2.60
   2   4   8    1.30    2.70
  -2   4  -8   -0.10    2.50
  -2   4  -8    0.00    2.20
  -2   4  -8    2.00    2.70
  -2   4  -8    0.40    2.70
   2   4   8    1.70    2.20
  -3  -4  -8    4.00    2.80
   3  -4   8    6.60    4.20
   3  -4   8    9.60    3.90
  -3  -4  -8    8.90    4.00
  -3  -4  -8    7.00    3.20
  -3   4  -8    7.90    3.30
  -3   4  -8   11.80    4.60
   3   4   8    4.50    3.40
   3   4   8    8.40    3.10
  -3   4  -8    7.60    4.10
   3   4   8    6.10    3.10
  -3   4  -8    1.30    3.00
   3  -5  -8   12.00    4.20
  -3  -5   8   18.30    5.40
   3  -5  -8   13.10    4.40
  -3  -5   8   20.90    5.50
  -3  -5   8   23.10    5.60
   3  -5  -8   19.60    5.10
   3  -5  -8   20.70    4.60
   3   5  -8   19.00    4.90
  -3   5   8   16.30    4.80
   3   5  -8   18.40    5.50
   3   5  -8   12.00    4.70
  -3   5   8   22.00    5.90
  -3   5   8   15.80    4.60
  -2  -5   8    8.30    3.60
   2  -5  -8    4.10    3.20
  -2  -5   8    8.30    4.00
   2  -5  -8    5.30    3.10
   2  -5  -8    5.80    2.80
  -2  -5   8    9.40    4.00
   2  -5  -8    8.10    4.00
   2   5  -8    2.40    3.00
   2   5  -8    9.40    4.40
   2   5  -8   10.00    4.40
  -2   5   8    8.10    3.20
  -2   5   8   12.70    4.50
  -2   5   8   11.50    4.50
  -1  -5   8   28.30    6.50
   1  -5  -8   33.00    6.10
  -1  -5   8   29.40    6.10
   1  -5  -8   26.70    5.30
   1  -5  -8   26.00    5.50
   1  -5  -8   21.30    5.20
   1   5  -8   34.30    6.90
  -1   5   8   26.50    5.90
   1   5  -8   27.70    6.30
   1   5  -8   25.40    5.90
  -1   5   8   31.70    5.30
  -1   5   8   23.50    5.90
   0  -5  -8   18.80    4.90
   0  -5  -8   14.00    4.00
   0  -5   8   10.20    4.10
   0  -5  -8   15.70    4.40
   0   5  -8   14.70    4.90
   0   5   8   18.30    5.00
   0   5   8   18.10    4.90
   0   5  -8   19.10    5.20
   0   5  -8   17.80    4.90
   0   5   8   13.20    3.50
   1  -5   8   33.40    6.70
  -1  -5  -8   28.20    5.50
  -1  -5  -8   25.50    4.40
  -1  -5  -8   25.20    5.60
   1  -5   8   23.20    5.90
  -1  -5  -8   22.50    5.00
   1   5   8   24.30    5.40
   1   5   8   22.40    5.60
  -1   5  -8   29.90    6.30
  -1   5  -8   22.20    5.10
  -1   5  -8   29.20    6.20
  -1   5  -8   19.60    5.40
  -2  -5  -8   73.29    8.00
  -2  -5  -8   71.29    9.20
   2  -5   8   76.39   10.10
  -2  -5  -8   62.99    8.50
   2  -5   8   66.19    9.70
   2   5   8   67.39    9.40
  -2   5  -8   67.39    9.30
   2   5   8   63.49    7.90
  -2   5  -8   82.19    9.60
  -2   5  -8   83.29   10.60
  -2   5  -8   53.29    8.70
   3  -5   8   88.39   11.90
   3  -5   8   67.49    9.40
  -3  -5  -8   73.19    9.70
  -3  -5  -8   88.89    9.60
  -3  -5  -8   74.09    9.50
  -3   5  -8   98.99   11.60
  -3   5  -8   91.59   11.60
   3   5   8   89.99   11.10
  -3   5  -8   86.49   10.30
   3   5   8   85.99    8.90
  -3   5  -8   86.59   10.60
   2  -6  -8   32.00    6.10
   2  -6  -8   27.50    5.80
  -2  -6   8   21.90    5.30
   2  -6  -8   31.70    5.60
  -2  -6   8   11.80    4.70
   2  -6  -8   31.30    6.20
   2   6  -8   24.00    6.70
  -2   6   8   33.00    6.60
  -2   6   8   25.50    5.40
   2   6  -8   25.60    5.70
   2   6  -8   26.10    6.40
  -2   6   8   20.10    5.30
  -1  -6   8    9.60    3.70
   1  -6  -8    7.30    3.60
   1  -6  -8    7.60    3.70
   1  -6  -8    8.70    3.10
  -1  -6   8    9.40    3.80
   1   6  -8   12.70    4.80
   1   6  -8    8.90    4.00
  -1   6   8    6.70    3.50
   1   6  -8   11.60    4.20
  -1   6   8    4.30    3.40
  -1   6   8    9.00    3.10
   0  -6  -8   33.50    4.90
   0  -6  -8   29.70    5.30
   0  -6  -8   38.40    6.40
   0  -6  -8   25.80    5.50
   0  -6   8   33.00    6.60
   0  -6   8   25.30    5.90
   0   6  -8   29.30    6.60
   0   6   8   31.00    5.00
   0   6   8   26.80    5.90
   0   6  -8   27.50    6.30
   0   6  -8   28.60    6.70
   0   6   8   26.70    5.70
  -1  -6  -8    4.90    3.20
   1  -6   8    6.00    3.90
   1  -6   8    5.40    3.30
  -1  -6  -8    3.80    2.40
  -1  -6  -8    8.50    3.40
   1   6   8    9.40    3.60
  -1   6  -8    6.50    3.70
  -1   6  -8    8.30    3.70
   1   6   8    6.50    3.80
  -1   6  -8    2.30    3.00
   2  -6   8   41.90    8.10
  -2  -6  -8   26.10    5.60
  -2  -6  -8   36.00    6.40
   2  -6   8   30.30    6.50
  -2  -6  -8   42.10    6.20
  -2   6  -8   35.40    7.00
   2   6   8   40.40    7.50
   2   6   8   24.90    5.10
  -2   6  -8   38.60    6.60
  -2   6  -8   43.20    7.80
  -2   6  -8   35.20    7.60
   2  -7  -8   34.80    6.00
   2  -7  -8   29.80    6.00
   2  -7  -8   35.10    6.20
   2  -7  -8   43.60    7.10
  -2  -7   8   32.50    6.80
  -2  -7   8   35.40    7.20
  -2   7   8   31.70    5.80
   2   7  -8   29.00    5.90
  -2   7   8   35.90    6.90
  -2   7   8   25.10    5.90
   2   7  -8   31.20    6.80
   2   7  -8   40.60    7.60
  -1  -7   8   68.49    9.50
   1  -7  -8   98.29   10.00
  -1  -7   8   84.19   10.60
   1  -7  -8  105.49    9.00
   1  -7  -8   91.39   10.70
   1   7  -8   82.79   11.20
   1   7  -8   81.69   10.70
  -1   7   8   84.69    9.10
  -1   7   8  101.09   11.40
  -1   7   8   97.19   11.20
   1   7  -8   97.19   11.40
   0  -7   8   58.49    9.30
   0  -7  -8   64.89    8.20
   0  -7   8   68.89    9.60
   0  -7  -8   76.19    8.90
   0  -7  -8   69.79    7.00
   0  -7  -8   77.99    9.20
   0   7   8   71.69    7.70
   0   7  -8   71.69    9.80
   0   7  -8   70.19   10.20
   0   7   8   55.49    8.50
   0   7  -8   66.29    9.50
   0   7   8   58.29    7.80
   1  -7   8    6.00    4.00
   1  -7   8    3.60    3.50
  -1  -7  -8    4.80    3.00
  -1  -7  -8    5.80    2.70
  -1  -7  -8    1.40    2.60
  -1   7  -8    5.80    3.50
  -1   7  -8    5.50    3.80
   1   7   8    4.60    2.80
  -1   7  -8    9.30    4.40
   1   7   8    4.20    3.10
   2  -7   8   31.00    7.20
  -2  -7  -8   34.70    6.40
  -2  -7  -8   30.10    6.00
   2  -7   8   27.70    6.60
  -2  -7  -8   26.60    5.10
   2   7   8   26.50    5.50
   2   7   8   29.80    6.30
  -2   7  -8   32.60    6.80
  -2   7  -8   26.10    6.50
  -2   7  -8   30.10    6.70
   1  -8  -8   63.29    7.50
   1  -8  -8   75.79    9.10
   1  -8  -8   46.70    7.00
  -1  -8   8   56.79    9.00
   1  -8  -8   54.29    8.00
  -1   8   8   61.29    8.80
   1   8  -8   65.99    9.30
  -1   8   8   50.19    8.10
  -1   8   8   38.90    6.10
   1   8  -8   57.89    9.20
   0  -8  -8   42.20    6.80
   0  -8  -8   32.30    6.20
   0  -8   8   47.50    8.30
   0  -8  -8   43.60    5.70
   0  -8   8   46.80    8.50
   0   8   8   40.00    7.30
   0   8   8   40.10    7.10
   0   8  -8   47.90    8.10
   0   8  -8   40.60    7.30
   0   8   8   40.50    5.80
   0   8  -8   49.90    8.40
  -1  -8  -8   32.10    5.90
   1  -8   8   15.20    5.50
  -1  -8  -8   19.10    4.40
  -1  -8  -8   28.50    5.70
   1  -8   8   27.20    6.60
   1   8   8   37.90    7.30
   1   8   8   29.90    5.00
   1   8   8   31.40    6.30
  -1   8  -8   37.10    7.70
   0   0  -9    1.30    2.70
   0   0  -9   -0.80    2.60
   0   0   9    4.40    3.30
   0   0   9    0.60    2.60
   0   0  -9    1.20    2.80
   0   0  -9   -0.40    2.10
   0  -1   9    3.60    3.40
   0  -1  -9    2.10    3.00
   0  -1  -9    3.00    2.50
   0  -1  -9    8.20    4.20
   0  -1  -9    2.60    3.40
   0  -1   9    1.30    2.80
   0   1  -9   -1.10    2.20
   0   1  -9    3.60    3.20
   0   1  -9    1.60    2.80
   0   1   9    0.10    3.00
   0   1   9   -0.80    2.20
   0   1  -9    0.20    2.50
;
_shelx_hkl_checksum              25907
#END Tags that were not found in dictionaries
loop_
_space_group_symop_operation_xyz
'x, y, z'
'x, -y, z+1/2'
loop_
_atom_site_label
_atom_site_type_symbol
_atom_site_fract_x
_atom_site_fract_y
_atom_site_fract_z
_atom_site_U_iso_or_equiv
_atom_site_adp_type
_atom_site_occupancy
_atom_site_site_symmetry_order
_atom_site_calc_flag
_atom_site_refinement_flags_posn
_atom_site_refinement_flags_adp
O1 O 0.7913(2) 0.56932(11) 0.9656(2) 0.0223(3) Uani 1 1 d . .
O2 O 0.5416(2) 0.59901(10) 0.6800(2) 0.0185(3) Uani 1 1 d D .
H1 H 0.657(4) 0.5761(19) 0.696(4) 0.028 Uiso 1 1 d D U
C1 C 0.7888(3) 0.71050(14) 1.2806(3) 0.0155(4) Uani 1 1 d . .
C2 C 0.7935(3) 0.81015(15) 1.2601(3) 0.0190(4) Uani 1 1 d . .
H2 H 0.6832 0.8423 1.1965 0.023 Uiso 1 1 calc R U
C3 C 0.9598(4) 0.86328(15) 1.3325(3) 0.0232(4) Uani 1 1 d . .
H3 H 0.9618 0.9316 1.3190 0.028 Uiso 1 1 calc R U
C4 C 1.1220(3) 0.81669(17) 1.4241(3) 0.0231(4) Uani 1 1 d . .
H4 H 1.2341 0.8530 1.4753 0.028 Uiso 1 1 calc R U
C5 C 1.1198(3) 0.71673(16) 1.4408(3) 0.0210(4) Uani 1 1 d . .
H5 H 1.2323 0.6845 1.5008 0.025 Uiso 1 1 calc R U
C6 C 0.9541(3) 0.66372(14) 1.3702(3) 0.0178(4) Uani 1 1 d . .
H6 H 0.9530 0.5954 1.3829 0.021 Uiso 1 1 calc R U
C7 C 0.6049(3) 0.65320(14) 1.2080(3) 0.0167(4) Uani 1 1 d . .
H7A H 0.4800 0.6948 1.2094 0.020 Uiso 1 1 calc R U
H7B H 0.5797 0.5979 1.2940 0.020 Uiso 1 1 calc R U
C8 C 0.6388(3) 0.61579(13) 1.0085(3) 0.0156(4) Uani 1 1 d . .
C9 C 0.4731(3) 0.63770(13) 0.8565(3) 0.0155(4) Uani 1 1 d . .
C10 C 0.2720(3) 0.58650(14) 0.9115(3) 0.0187(4) Uani 1 1 d . .
H10A H 0.1648 0.6002 0.8162 0.028 Uiso 1 1 calc R U
H10B H 0.2261 0.6098 1.0357 0.028 Uiso 1 1 calc R U
H10C H 0.2961 0.5166 0.9176 0.028 Uiso 1 1 calc R U
C11 C 0.4563(3) 0.74759(12) 0.8419(3) 0.0162(4) Uani 1 1 d . .
C12 C 0.2944(3) 0.79927(15) 0.9238(3) 0.0197(4) Uani 1 1 d . .
H12 H 0.1855 0.7658 0.9859 0.024 Uiso 1 1 calc R U
C13 C 0.2914(4) 0.89975(16) 0.9152(3) 0.0257(5) Uani 1 1 d . .
H13 H 0.1810 0.9345 0.9724 0.031 Uiso 1 1 calc R U
C14 C 0.4478(4) 0.94916(15) 0.8240(3) 0.0281(5) Uani 1 1 d . .
H14 H 0.4452 1.0178 0.8181 0.034 Uiso 1 1 calc R U
C15 C 0.6089(4) 0.89818(16) 0.7411(3) 0.0261(5) Uani 1 1 d . .
H15 H 0.7166 0.9320 0.6778 0.031 Uiso 1 1 calc R U
C16 C 0.6133(3) 0.79826(15) 0.7503(3) 0.0201(4) Uani 1 1 d . .
H16 H 0.7245 0.7639 0.6935 0.024 Uiso 1 1 calc R U
loop_
_atom_site_aniso_label
_atom_site_aniso_U_11
_atom_site_aniso_U_22
_atom_site_aniso_U_33
_atom_site_aniso_U_23
_atom_site_aniso_U_13
_atom_site_aniso_U_12
O1 0.0159(6) 0.0268(8) 0.0243(7) -0.0058(6) -0.0024(5) 0.0033(6)
O2 0.0190(7) 0.0205(7) 0.0161(7) -0.0040(5) -0.0012(5) 0.0009(5)
C1 0.0155(8) 0.0201(9) 0.0109(8) -0.0014(7) 0.0001(7) 0.0000(8)
C2 0.0199(9) 0.0217(10) 0.0154(10) -0.0007(7) -0.0011(7) 0.0015(8)
C3 0.0296(10) 0.0196(9) 0.0204(10) -0.0017(8) 0.0022(8) -0.0049(9)
C4 0.0212(10) 0.0318(12) 0.0163(10) -0.0035(8) -0.0007(8) -0.0090(9)
C5 0.0182(9) 0.0307(11) 0.0143(9) -0.0002(8) -0.0017(7) 0.0010(8)
C6 0.0194(9) 0.0201(9) 0.0140(9) 0.0006(8) 0.0011(7) 0.0006(8)
C7 0.0154(9) 0.0194(9) 0.0153(10) 0.0007(7) -0.0017(7) 0.0001(7)
C8 0.0141(8) 0.0136(8) 0.0190(9) 0.0005(7) -0.0003(7) -0.0028(7)
C9 0.0150(8) 0.0171(8) 0.0144(9) -0.0012(7) 0.0004(7) -0.0004(7)
C10 0.0147(9) 0.0203(9) 0.0212(10) -0.0009(8) -0.0024(7) -0.0036(7)
C11 0.0189(8) 0.0172(9) 0.0123(8) -0.0004(8) -0.0045(6) 0.0000(8)
C12 0.0225(9) 0.0209(10) 0.0156(9) 0.0017(8) -0.0004(8) 0.0026(8)
C13 0.0357(11) 0.0230(11) 0.0183(10) -0.0009(8) 0.0003(9) 0.0098(9)
C14 0.0479(14) 0.0164(9) 0.0198(11) 0.0000(8) -0.0009(9) 0.0019(10)
C15 0.0370(13) 0.0225(11) 0.0190(10) -0.0005(8) 0.0031(9) -0.0081(9)
C16 0.0225(10) 0.0217(10) 0.0160(9) -0.0027(8) -0.0004(8) -0.0005(8)
loop_
_atom_type_symbol
_atom_type_description
_atom_type_scat_dispersion_real
_atom_type_scat_dispersion_imag
_atom_type_scat_source
C C 0.0033 0.0016 'International Tables Vol C Tables 4.2.6.8 and 6.1.1.4'
H H 0.0000 0.0000 'International Tables Vol C Tables 4.2.6.8 and 6.1.1.4'
O O 0.0106 0.0060 'International Tables Vol C Tables 4.2.6.8 and 6.1.1.4'
loop_
_geom_angle_atom_site_label_1
_geom_angle_atom_site_label_2
_geom_angle_atom_site_label_3
_geom_angle
C9 O2 H1 108(2)
C2 C1 C6 119.41(18)
C2 C1 C7 120.19(17)
C6 C1 C7 120.39(17)
C1 C2 C3 120.19(19)
C1 C2 H2 119.9
C3 C2 H2 119.9
C4 C3 C2 120.20(18)
C4 C3 H3 119.9
C2 C3 H3 119.9
C3 C4 C5 119.65(19)
C3 C4 H4 120.2
C5 C4 H4 120.2
C6 C5 C4 120.32(19)
C6 C5 H5 119.8
C4 C5 H5 119.8
C5 C6 C1 120.20(17)
C5 C6 H6 119.9
C1 C6 H6 119.9
C1 C7 C8 112.11(15)
C1 C7 H7A 109.2
C8 C7 H7A 109.2
C1 C7 H7B 109.2
C8 C7 H7B 109.2
H7A C7 H7B 107.9
O1 C8 C7 122.17(17)
O1 C8 C9 119.41(18)
C7 C8 C9 118.42(15)
O2 C9 C11 109.70(15)
O2 C9 C10 108.27(15)
C11 C9 C10 114.72(16)
O2 C9 C8 108.41(15)
C11 C9 C8 106.94(15)
C10 C9 C8 108.63(16)
C9 C10 H10A 109.5
C9 C10 H10B 109.5
H10A C10 H10B 109.5
C9 C10 H10C 109.5
H10A C10 H10C 109.5
H10B C10 H10C 109.5
C16 C11 C12 118.79(16)
C16 C11 C9 118.74(18)
C12 C11 C9 122.41(18)
C13 C12 C11 120.3(2)
C13 C12 H12 119.8
C11 C12 H12 119.8
C14 C13 C12 120.3(2)
C14 C13 H13 119.8
C12 C13 H13 119.8
C13 C14 C15 119.65(19)
C13 C14 H14 120.2
C15 C14 H14 120.2
C16 C15 C14 120.2(2)
C16 C15 H15 119.9
C14 C15 H15 119.9
C15 C16 C11 120.63(19)
C15 C16 H16 119.7
C11 C16 H16 119.7
loop_
_geom_bond_atom_site_label_1
_geom_bond_atom_site_label_2
_geom_bond_distance
O1 C8 1.215(2)
O2 C9 1.426(2)
O2 H1 0.81(2)
C1 C2 1.387(3)
C1 C6 1.396(3)
C1 C7 1.514(3)
C2 C3 1.395(3)
C2 H2 0.9500
C3 C4 1.386(3)
C3 H3 0.9500
C4 C5 1.388(3)
C4 H4 0.9500
C5 C6 1.386(3)
C5 H5 0.9500
C6 H6 0.9500
C7 C8 1.515(3)
C7 H7A 0.9900
C7 H7B 0.9900
C8 C9 1.540(3)
C9 C11 1.527(2)
C9 C10 1.529(3)
C10 H10A 0.9800
C10 H10B 0.9800
C10 H10C 0.9800
C11 C16 1.392(3)
C11 C12 1.393(3)
C12 C13 1.391(3)
C12 H12 0.9500
C13 C14 1.380(3)
C13 H13 0.9500
C14 C15 1.387(3)
C14 H14 0.9500
C15 C16 1.384(3)
C15 H15 0.9500
C16 H16 0.9500
loop_
_geom_torsion_atom_site_label_1
_geom_torsion_atom_site_label_2
_geom_torsion_atom_site_label_3
_geom_torsion_atom_site_label_4
_geom_torsion
C6 C1 C2 C3 -1.5(3)
C7 C1 C2 C3 177.86(19)
C1 C2 C3 C4 0.5(3)
C2 C3 C4 C5 1.0(3)
C3 C4 C5 C6 -1.5(3)
C4 C5 C6 C1 0.5(3)
C2 C1 C6 C5 1.0(3)
C7 C1 C6 C5 -178.34(17)
C2 C1 C7 C8 93.6(2)
C6 C1 C7 C8 -87.0(2)
C1 C7 C8 O1 52.9(2)
C1 C7 C8 C9 -127.25(18)
O1 C8 C9 O2 -2.4(2)
C7 C8 C9 O2 177.74(15)
O1 C8 C9 C11 -120.58(19)
C7 C8 C9 C11 59.5(2)
O1 C8 C9 C10 115.08(19)
C7 C8 C9 C10 -64.8(2)
O2 C9 C11 C16 -42.8(2)
C10 C9 C11 C16 -164.86(18)
C8 C9 C11 C16 74.6(2)
O2 C9 C11 C12 140.05(19)
C10 C9 C11 C12 17.9(3)
C8 C9 C11 C12 -102.6(2)
C16 C11 C12 C13 -0.5(3)
C9 C11 C12 C13 176.66(18)
C11 C12 C13 C14 0.6(3)
C12 C13 C14 C15 -0.2(3)
C13 C14 C15 C16 -0.2(3)
C14 C15 C16 C11 0.2(3)
C12 C11 C16 C15 0.1(3)
C9 C11 C16 C15 -177.16(19)
