#------------------------------------------------------------------------------
#$Date: 2018-09-09 20:15:51 +0300 (Sun, 09 Sep 2018) $
#$Revision: 210658 $
#$URL: file:///home/coder/svn-repositories/cod/cif/7/11/35/7113572.cif $
#------------------------------------------------------------------------------
#
# This file is available in the Crystallography Open Database (COD),
# http://www.crystallography.net/
#
# All data on this site have been placed in the public domain by the
# contributors.
#
data_7113572
loop_
_publ_author_name
'Ouyang, Xiang'
'Tsai, Tsung-Yen'
'Chen, Dong-Hwang'
'Huang, Qi-Jie'
'Cheng, Wu-Hsun'
'Clearfield, Abraham'
_publ_section_title
;
 Ab initio structure study from in-house powder diffraction of a novel
 ZnS(EN)0.5 structure with layered wurtzite ZnS fragment
;
_journal_coden_ASTM              CHCOFS
_journal_issue                   7
_journal_name_full
;
 Chemical Communications (Cambridge, United Kingdom)
;
_journal_page_first              886
_journal_page_last               887
_journal_paper_doi               10.1039/b212335p
_journal_year                    2003
_chemical_formula_moiety         'C H4 N S Zn'
_chemical_formula_structural     'C H4 N S Zn'
_chemical_formula_sum            'C H4 N S Zn'
_chemical_formula_weight         127.48
_chemical_name_common            'Ethylenediaminozinc(II) Sulfide'
_space_group_IT_number           61
_symmetry_cell_setting           orthorhombic
_symmetry_space_group_name_Hall  '-P 2ac 2ab'
_symmetry_space_group_name_H-M   'P b c a'
_audit_creation_date             2002-10-10T11:14
_audit_creation_method           'from EXP file using GSAS2CIF'
_audit_update_record
' 2002-10-10T11:14  Initial CIF as created by GSAS2CIF'
_cell_angle_alpha                90.0
_cell_angle_beta                 90.0
_cell_angle_gamma                90.0
_cell_formula_units_Z            8
_cell_length_a                   17.26305(32)
_cell_length_b                   6.39336(11)
_cell_length_c                   6.20451(10)
_cell_measurement_temperature    295
_cell_volume                     684.78(2)
_computing_data_collection       diffracplus(Bruker)
_computing_data_reduction        diffracplus
_computing_structure_refinement  GSAS
_computing_structure_solution    EXPO
_diffrn_ambient_temperature      295
_diffrn_measurement_device_type  'Bruker D8'
_diffrn_radiation_monochromator  graphite
_diffrn_radiation_polarisn_ratio 0.9
_diffrn_radiation_probe          x-ray
_diffrn_source                   'Sealed X-ray tube'
_diffrn_source_target            Cu
_exptl_absorpt_process_details
;   GSAS Absorption/surface roughness correction: function number 0
No correction is applied.
;
_pd_block_id
2002-10-10T11:14|ZNSXB1SN|Xiang_Ouyang|Bruker_D8_Dis
_pd_calc_method                  'Rietveld Refinement'
_pd_char_colour                  white
_pd_char_particle_morphology     platelet
_pd_meas_2theta_range_inc        0.02
_pd_meas_2theta_range_max        99.98
_pd_meas_2theta_range_min        7.02
_pd_meas_number_of_points        4649
_pd_meas_scan_method             step
_pd_phase_name                   'Ethylenediaminozinc(II) Sulfide'
_pd_prep_pressure                autoclave
_pd_prep_temperature             453
_pd_proc_2theta_range_inc        0.02
_pd_proc_2theta_range_max        99.93014
_pd_proc_2theta_range_min        6.97014
_pd_proc_info_datetime           2002-10-10T11:14:54
_pd_proc_ls_background_function
;   GSAS Background function number 2 with  8 terms.
Cosine Fourier series
1:    50.2643     2:    37.3987     3:   -12.2601     4:    44.3798    
5:   -44.0430     6:    56.9079     7:   -38.5007     8:    31.2249    
;
_pd_proc_ls_peak_cutoff          0.00900
_pd_proc_ls_pref_orient_corr
;   
March-Dollase
AXIS  1 Ratio=     3.970 Frac     0.018  h= 1.000  k= 1.000  l= 0.000
AXIS  2 Ratio=     1.000 Frac     0.982  h= 1.000  k= 0.000  l= 0.000
;
_pd_proc_ls_profile_function
;
CW Profile function number 4 with  18 terms
Pseudovoigt profile coefficients as parameterized in
P. Thompson, D.E. Cox & J.B. Hastings (1987). J. Appl. Cryst.,20,79-83.
Asymmetry correction of L.W. Finger, D.E. Cox & A. P. Jephcoat (1994).
J. Appl. Cryst.,27,892-900.
Microstrain broadening by P.W. Stephens,  (1999). J. Appl. Cryst.,32,281-289.
Peak tails are ignored  where the intensity is below 0.0090 times the 
peak Aniso. broadening axis   0.0   0.0   1.0
;
_pd_proc_ls_prof_R_factor        0.0824
_pd_proc_ls_prof_wR_expected     0.0633
_pd_proc_ls_prof_wR_factor       0.1097
_pd_proc_number_of_points        4649
_pd_spec_mounting                ' side-loading packed powder'
_pd_spec_mount_mode              reflection
_refine_ls_goodness_of_fit_all   1.74
_refine_ls_hydrogen_treatment    calculated
_refine_ls_matrix_type           full
_refine_ls_number_parameters     42
_refine_ls_number_restraints     0
_refine_ls_R_Fsqd_factor         0.04720
_refine_ls_shift/su_max          0.46
_refine_ls_shift/su_mean         0.03
_reflns_d_resolution_high        1.006
_reflns_d_resolution_low         8.632
_reflns_limit_h_max              16
_reflns_limit_h_min              0
_reflns_limit_k_max              6
_reflns_limit_k_min              0
_reflns_limit_l_max              6
_reflns_limit_l_min              0
_reflns_number_observed          699
_cod_duplicate_entry             7104034
_cod_data_source_file            200433.txt
_cod_data_source_block           ZNSEN_publ
_cod_depositor_comments
;
The following automatic conversions were performed:

'_geom_bond_publ_flag' value 'N' changed to 'n' according to
/usr/data/users/saulius/automatic-downloads/retrospective/RSC/lib/dictionaries/cif_core.dic
dictionary named 'cif_core.dic' version 2.4.2 from 2011-04-26 (33
times).

'_geom_angle_publ_flag' value 'N' changed to 'n' according
to
/usr/data/users/saulius/automatic-downloads/retrospective/RSC/lib/dictionaries/cif_core.dic
dictionary named 'cif_core.dic' version 2.4.2 from 2011-04-26 (23
times).

Automatic conversion script
Id: cif_fix_values 2281 2013-09-26 08:29:07Z andrius 
;
_cod_original_cell_volume        684.78467
_cod_original_sg_symbol_Hall     'P b c a'
_cod_database_code               7113572
loop_
_symmetry_equiv_pos_site_id
_symmetry_equiv_pos_as_xyz
1 +x,+y,+z
2 -x+1/2,+y+1/2,+z
3 +x,-y+1/2,+z+1/2
4 -x+1/2,-y,+z+1/2
-1 -x,-y,-z
-2 +x+1/2,-y+1/2,-z
-3 -x,+y+1/2,-z+1/2
-4 +x+1/2,+y,-z+1/2
loop_
_atom_site_type_symbol
_atom_site_label
_atom_site_fract_x
_atom_site_fract_y
_atom_site_fract_z
_atom_site_occupancy
_atom_site_thermal_displace_type
_atom_site_U_iso_or_equiv
_atom_site_symmetry_multiplicity
ZN Zn1 0.79567(7) 0.10000(19) 0.64981(27) 1.0 Uiso 0.02854(34) 8
S S2 0.81707(12) 0.05997(34) 1.01927(35) 1.0 Uiso 0.0297(10) 8
N N3 0.89288(21) -0.0563(8) 0.4971(8) 1.0 Uiso 0.0290(27) 8
C C4 0.96715(21) 0.0411(10) 0.5702(9) 1.0 Uiso 0.030(4) 8
H H31 0.88822 -0.05271 0.35496 1.0 Uiso 0.05 8
H H32 0.89332 -0.19425 0.53878 1.0 Uiso 0.05 8
H H41 0.97177 0.03631 0.7217 1.0 Uiso 0.05 8
H H42 0.96629 0.18844 0.52413 1.0 Uiso 0.05 8
loop_
_atom_type_symbol
_atom_type_number_in_cell
_atom_type_scat_dispersion_real
_atom_type_scat_dispersion_imag
_atom_type_scat_Cromer_Mann_a1
_atom_type_scat_Cromer_Mann_a2
_atom_type_scat_Cromer_Mann_a3
_atom_type_scat_Cromer_Mann_a4
_atom_type_scat_Cromer_Mann_b1
_atom_type_scat_Cromer_Mann_b2
_atom_type_scat_Cromer_Mann_b3
_atom_type_scat_Cromer_Mann_b4
_atom_type_scat_Cromer_Mann_c
_atom_type_scat_source
ZN 8.0 -1.612 0.678 14.0743 3.26550 7.03180 0.23330 5.16520 10.3163 2.41000
58.7097 1.30410 International_Tables_Vol_C
S 8.0 0.319 0.557 6.90530 1.46790 5.20340 22.2151 1.43790 0.25360 1.58630
56.1720 0.86690 International_Tables_Vol_C
N 8.0 0.029 0.018 12.2126 0.00570 3.13220 9.89330 2.01250 28.9975 1.16630
0.58260 -11.529 International_Tables_Vol_C
C 8.0 0.017 0.009 2.31000 20.8439 1.02000 10.2075 1.58860 0.56870 0.86500
51.6512 0.21560 International_Tables_Vol_C
H 32.0 0.000 0.000 0.49300 10.5109 0.32291 26.1257 0.14019 3.14236 0.04081
57.7997 0.00304 International_Tables_Vol_C
loop_
_diffrn_radiation_wavelength
_diffrn_radiation_wavelength_wt
_diffrn_radiation_type
_diffrn_radiation_wavelength_id
1.540500 1.000 K\a~1~ 1
1.544300 0.500 K\a~2~ 2
loop_
_geom_angle_atom_site_label_1
_geom_angle_atom_site_label_2
_geom_angle_atom_site_label_3
_geom_angle
_geom_angle_site_symmetry_1
_geom_angle_site_symmetry_3
_geom_angle_publ_flag
S2 Zn1 S2 114.51(9) 1_555 3_554 n
S2 Zn1 S2 115.01(8) 1_555 4_654 n
S2 Zn1 N3 104.81(17) 1_555 1_555 n
S2 Zn1 S2 114.54(9) 3_554 4_654 n
S2 Zn1 N3 98.86(17) 3_554 1_555 n
S2 Zn1 N3 106.87(14) 4_654 1_555 n
Zn1 S2 Zn1 102.25(9) 1_555 3_555 n
Zn1 S2 Zn1 104.81(9) 1_555 4_655 n
Zn1 S2 Zn1 98.87(8) 3_555 4_655 n
Zn1 N3 C4 109.80(28) 1_555 1_555 n
Zn1 N3 H31 110.64(33) 1_555 1_555 n
Zn1 N3 H32 108.99(32) 1_555 1_555 n
C4 N3 H31 111.6(5) 1_555 1_555 n
C4 N3 H32 107.9(5) 1_555 1_555 n
H31 N3 H32 107.8(5) 1_555 1_555 n
N3 C4 C4 108.7(5) 1_555 -1_756 n
N3 C4 H41 111.1(5) 1_555 1_555 n
N3 C4 H42 107.3(5) 1_555 1_555 n
C4 C4 H41 119.7(6) -1_756 1_555 n
C4 C4 H42 100.1(6) -1_756 1_555 n
H41 C4 H42 108.7(5) 1_555 1_555 n
N3 H31 H32 36.86(33) 1_555 1_555 n
N3 H32 H31 35.33(31) 1_555 1_555 n
loop_
_geom_bond_atom_site_label_1
_geom_bond_atom_site_label_2
_geom_bond_distance
_geom_bond_site_symmetry_2
_geom_bond_publ_flag
Zn1 S2 2.3359(22) 1_555 n
Zn1 S2 2.3491(22) 3_554 n
Zn1 S2 2.3430(22) 4_654 n
Zn1 N3 2.1707(35) 1_555 n
S2 Zn1 2.3359(22) 1_555 n
S2 Zn1 2.3491(22) 3_555 n
S2 Zn1 2.3430(22) 4_655 n
N3 Zn1 2.1707(35) 1_555 n
N3 C4 1.496(5) 1_555 n
N3 H31 0.886(5) 1_555 n
N3 H32 0.919(5) 1_555 n
N3 H41 2.037(5) 1_555 n
N3 H42 2.021(5) 1_555 n
C4 N3 1.496(5) 1_555 n
C4 C4 1.523(6) -1_756 n
C4 H31 2.000(5) 1_555 n
C4 H32 1.982(6) 1_555 n
C4 H41 0.944(5) 1_555 n
C4 H42 0.984(7) 1_555 n
C4 H42 1.954(5) -1_756 n
H31 N3 0.886(5) 1_555 n
H31 C4 2.000(5) 1_555 n
H31 H32 1.458560(20) 1_555 n
H32 N3 0.919(5) 1_555 n
H32 C4 1.982(6) 1_555 n
H32 H31 1.458560(20) 1_555 n
H41 N3 2.037(5) 1_555 n
H41 C4 0.944(5) 1_555 n
H41 H42 1.567670(20) 1_555 n
H42 N3 2.021(5) 1_555 n
H42 C4 0.984(7) 1_555 n
H42 C4 1.954(5) -1_756 n
H42 H41 1.567670(20) 1_555 n
loop_
_pd_meas_counts_total
_pd_proc_ls_weight
_pd_proc_intensity_bkg_calc
_pd_calc_intensity_total
154.0 0.00649 116.47482 116.47427
159.0 0.00629 116.42676 116.42622
111.0 0.00901 116.37859 116.37804
145.0 0.00690 116.33031 116.32977
145.0 0.00690 116.28193 116.28139
130.0 0.00769 116.23344 116.23290
185.0 0.00541 116.18486 116.18432
117.0 0.00855 116.13615 116.13560
147.0 0.00680 116.08736 116.08681
163.0 0.00613 116.03845 116.03790
136.0 0.00735 115.98944 115.98890
141.0 0.00709 115.94032 115.93977
144.0 0.00694 115.89110 115.89053
145.0 0.00690 115.84177 115.84122
160.0 0.00625 115.79234 115.79178
156.0 0.00641 115.74281 115.74225
133.0 0.00752 115.69318 115.69262
129.0 0.00775 115.64344 115.64288
138.0 0.00725 115.59361 115.59303
150.0 0.00667 115.54366 115.54310
147.0 0.00680 115.49362 115.49306
154.0 0.00649 115.44346 115.44290
129.0 0.00775 115.39322 115.39265
147.0 0.00680 115.34286 115.34229
132.0 0.00758 115.29241 115.29185
115.0 0.00870 115.24187 115.24129
154.0 0.00649 115.19122 115.19063
136.0 0.00735 115.14046 115.13988
136.0 0.00735 115.08960 115.08902
163.0 0.00613 115.03865 115.03806
163.0 0.00613 114.98759 114.98700
132.0 0.00758 114.93645 114.93586
129.0 0.00775 114.88520 114.88459
121.0 0.00826 114.83384 114.83325
150.0 0.00667 114.78239 114.78178
127.0 0.00787 114.73085 114.73025
141.0 0.00709 114.67921 114.67860
132.0 0.00758 114.62745 114.62685
109.0 0.00917 114.57560 114.57500
147.0 0.00680 114.52367 114.52306
127.0 0.00787 114.47163 114.47103
138.0 0.00725 114.41949 114.41889
118.0 0.00847 114.36729 114.36666
148.0 0.00676 114.31495 114.31433
148.0 0.00676 114.26253 114.26190
144.0 0.00694 114.21001 114.20940
129.0 0.00775 114.15739 114.15677
133.0 0.00752 114.10469 114.10406
136.0 0.00735 114.05188 114.05125
115.0 0.00870 113.99898 113.99835
118.0 0.00847 113.94598 113.94537
127.0 0.00787 113.89289 113.89227
124.0 0.00806 113.83973 113.83910
136.0 0.00735 113.78645 113.78581
130.0 0.00769 113.73309 113.73244
150.0 0.00667 113.67962 113.67899
136.0 0.00735 113.62605 113.62542
139.0 0.00719 113.57243 113.57177
126.0 0.00794 113.51868 113.51804
136.0 0.00735 113.46486 113.46421
135.0 0.00741 113.41093 113.41028
124.0 0.00806 113.35693 113.35626
102.0 0.00980 113.30280 113.30215
153.0 0.00654 113.24862 113.24796
142.0 0.00704 113.19433 113.19367
103.0 0.00971 113.13995 113.13929
135.0 0.00741 113.08548 113.08483
148.0 0.00676 113.03094 113.03027
170.0 0.00588 112.97628 112.97562
118.0 0.00847 112.92155 112.92088
118.0 0.00847 112.86671 112.86604
109.0 0.00917 112.81181 112.81113
139.0 0.00719 112.75681 112.75614
126.0 0.00794 112.70171 112.70103
115.0 0.00870 112.64653 112.64585
114.0 0.00877 112.59126 112.59059
135.0 0.00741 112.53591 112.53522
115.0 0.00870 112.48048 112.47978
109.0 0.00917 112.42493 112.42426
141.0 0.00709 112.36933 112.36864
141.0 0.00709 112.31363 112.31295
142.0 0.00704 112.25785 112.25716
127.0 0.00787 112.20197 112.20128
157.0 0.00637 112.14601 112.14531
118.0 0.00847 112.08997 112.08927
133.0 0.00752 112.03384 112.03315
141.0 0.00709 111.97762 111.97692
130.0 0.00769 111.92133 111.92063
139.0 0.00719 111.86495 111.86425
102.0 0.00980 111.80849 111.80779
136.0 0.00735 111.75193 111.75123
117.0 0.00855 111.69530 111.69460
139.0 0.00719 111.63860 111.63788
136.0 0.00735 111.58180 111.58109
141.0 0.00709 111.52492 111.52420
129.0 0.00775 111.46796 111.46724
114.0 0.00877 111.41092 111.41019
130.0 0.00769 111.35378 111.35307
157.0 0.00637 111.29658 111.29586
115.0 0.00870 111.23930 111.23857
127.0 0.00787 111.18192 111.18119
148.0 0.00676 111.12448 111.12375
114.0 0.00877 111.06696 111.06622
141.0 0.00709 111.00935 111.00861
109.0 0.00917 110.95166 110.95092
117.0 0.00855 110.89389 110.89315
135.0 0.00741 110.83604 110.83530
145.0 0.00690 110.77811 110.77737
117.0 0.00855 110.72011 110.71938
142.0 0.00704 110.66204 110.66129
129.0 0.00775 110.60388 110.60312
151.0 0.00662 110.54564 110.54489
129.0 0.00775 110.48733 110.48657
141.0 0.00709 110.42894 110.42819
175.0 0.00571 110.37048 110.36971
136.0 0.00735 110.31193 110.31116
147.0 0.00680 110.25332 110.25256
123.0 0.00813 110.19460 110.19385
148.0 0.00676 110.13584 110.13508
142.0 0.00704 110.07700 110.07622
106.0 0.00943 110.01807 110.01730
138.0 0.00725 109.95909 109.95831
129.0 0.00775 109.90001 109.89924
145.0 0.00690 109.84086 109.84010
156.0 0.00641 109.78164 109.78087
148.0 0.00676 109.72236 109.72158
135.0 0.00741 109.66299 109.66222
157.0 0.00637 109.60356 109.60278
170.0 0.00588 109.54405 109.54327
160.0 0.00625 109.48447 109.48368
170.0 0.00588 109.42482 109.42403
148.0 0.00676 109.36509 109.36430
147.0 0.00680 109.30530 109.30450
151.0 0.00662 109.24544 109.24463
199.0 0.00503 109.18550 109.18468
161.0 0.00621 109.12550 109.12469
176.0 0.00568 109.06541 109.06460
156.0 0.00641 109.00526 109.00445
164.0 0.00610 108.94504 108.94423
169.0 0.00592 108.88475 108.88393
179.0 0.00559 108.82439 108.82357
217.0 0.00461 108.76398 108.76315
181.0 0.00552 108.70348 108.70266
221.0 0.00452 108.64291 108.64209
254.0 0.00394 108.58228 245.64250
233.0 0.00429 108.52159 260.31088
269.0 0.00372 108.46084 350.95380
301.0 0.003322 108.39999 379.40366
398.0 0.002513 108.33909 413.15015
437.0 0.002288 108.27814 453.57773
529.0 0.001890 108.21711 502.54922
644.0 0.001553 108.15600 562.61572
761.0 0.001314 108.09486 637.34766
895.0 0.001117 108.03362 731.90863
1125.0 0.000889 107.97233 854.32373
1367.0 0.000732 107.91097 1019.23096
1989.0 0.000503 107.84956 1260.07825
2615.0 0.000382 107.78807 1663.68835
3594.0 0.0002782 107.72652 2442.90723
4992.0 0.0002003 107.66491 4026.22412
7663.0 0.0001305 107.60324 7045.51709
11221.0 0.0000891 107.54150 12035.28027
16630.0 0.0000601 107.47971 18792.13086
22719.0 0.0000440 107.41784 25585.17578
27750.0 0.0000360 107.35593 29056.22266
29353.0 0.00003407 107.29395 27019.18359
23485.0 0.0000426 107.23190 20942.59570
14572.0 0.0000686 107.16978 14002.68848
7443.0 0.0001344 107.10762 8435.50391
3894.0 0.0002568 107.04539 4846.92676
2341.0 0.000427 106.98310 2869.91650
1607.0 0.000622 106.92078 1875.87219
1345.0 0.000743 106.85836 1372.55774
1052.0 0.000951 106.79589 1087.84558
880.0 0.001136 106.73337 901.75085
663.0 0.001508 106.67079 767.04651
526.0 0.001901 106.60815 664.23578
439.0 0.002278 106.54544 583.53986
365.0 0.002740 106.48270 519.00421
360.0 0.002778 106.41989 466.60587
283.0 0.00353 106.35703 423.50018
256.0 0.00391 106.29411 387.62497
234.0 0.00427 106.23112 357.45630
214.0 0.00467 106.16807 187.98682
195.0 0.00513 106.10497 106.10406
188.0 0.00532 106.04182 106.04092
182.0 0.00549 105.97865 105.97771
203.0 0.00493 105.91537 105.91444
180.0 0.00556 105.85207 105.85114
155.0 0.00645 105.78869 105.78777
154.0 0.00649 105.72529 105.72435
163.0 0.00613 105.66180 105.66087
152.0 0.00658 105.59827 105.59734
142.0 0.00704 105.53469 105.53376
153.0 0.00654 105.47106 105.47012
133.0 0.00752 105.40738 105.40644
150.0 0.00667 105.34364 105.34271
176.0 0.00568 105.27985 105.27892
152.0 0.00658 105.21602 105.21507
159.0 0.00629 105.15211 105.15117
148.0 0.00676 105.08819 105.08723
138.0 0.00725 105.02419 105.02323
142.0 0.00704 104.96014 104.95919
109.0 0.00917 104.89606 104.89509
136.0 0.00735 104.83192 104.83096
139.0 0.00719 104.76773 104.76676
121.0 0.00826 104.70348 104.70254
132.0 0.00758 104.63921 104.63824
125.0 0.00800 104.57487 104.57390
131.0 0.00763 104.51049 104.50951
105.0 0.00952 104.44606 104.44509
96.0 0.01042 104.38159 104.38062
128.0 0.00781 104.31705 104.31607
118.0 0.00847 104.25248 104.25150
103.0 0.00971 104.18787 104.18689
105.0 0.00952 104.12320 104.12222
130.0 0.00769 104.05850 104.05750
110.0 0.00909 103.99375 103.99275
111.0 0.00901 103.92894 103.92795
110.0 0.00909 103.86411 103.86310
101.0 0.00990 103.79921 103.79821
112.0 0.00893 103.73428 103.73328
101.0 0.00990 103.66930 103.66830
99.0 0.01010 103.60427 103.60329
107.0 0.00935 103.53921 103.53822
127.0 0.00787 103.47411 103.47310
108.0 0.00926 103.40897 103.40795
104.0 0.00962 103.34377 103.34276
101.0 0.00990 103.27853 103.27752
99.0 0.01010 103.21327 103.21226
92.0 0.01087 103.14795 103.14694
121.0 0.00826 103.08259 103.08157
100.0 0.01000 103.01721 103.01618
116.0 0.00862 102.95177 102.95074
111.0 0.00901 102.88629 102.88525
90.0 0.01111 102.82078 102.81974
112.0 0.00893 102.75523 102.75418
95.0 0.01053 102.68962 102.68859
96.0 0.01042 102.62399 102.62296
104.0 0.00962 102.55833 102.55729
101.0 0.00990 102.49260 102.49156
102.0 0.00980 102.42684 102.42580
91.0 0.01099 102.36107 102.36003
111.0 0.00901 102.29526 102.29421
106.0 0.00943 102.22939 102.22834
111.0 0.00901 102.16350 102.16245
92.0 0.01087 102.09756 102.09652
83.0 0.01205 102.03160 102.03054
106.0 0.00943 101.96560 101.96454
106.0 0.00943 101.89956 101.89850
85.0 0.01176 101.83347 101.83241
93.0 0.01075 101.76737 101.76630
104.0 0.00962 101.70123 101.70015
98.0 0.01020 101.63506 101.63399
86.0 0.01163 101.56884 101.56778
104.0 0.00962 101.50260 101.50153
89.0 0.01124 101.43633 101.43526
96.0 0.01042 101.37003 101.36894
91.0 0.01099 101.30368 101.30260
89.0 0.01124 101.23731 101.23621
91.0 0.01099 101.17090 101.16982
104.0 0.00962 101.10447 101.10339
86.0 0.01163 101.03799 101.03691
94.0 0.01064 100.97150 100.97041
99.0 0.01010 100.90498 100.90388
103.0 0.00971 100.83842 100.83731
89.0 0.01124 100.77182 100.77072
95.0 0.01053 100.70522 100.70411
95.0 0.01053 100.63855 100.63746
91.0 0.01099 100.57189 100.57078
92.0 0.01087 100.50520 100.50407
88.0 0.01136 100.43845 100.43734
102.0 0.00980 100.37170 100.37057
77.0 0.01299 100.30492 100.30379
98.0 0.01020 100.23809 100.23696
102.0 0.00980 100.17124 100.17011
86.0 0.01163 100.10438 100.10325
101.0 0.00990 100.03748 100.03635
82.0 0.01220 99.97057 99.96943
88.0 0.01136 99.90362 99.90250
104.0 0.00962 99.83664 99.83551
92.0 0.01087 99.76965 99.76852
85.0 0.01176 99.70262 99.70148
87.0 0.01149 99.63557 99.63443
74.0 0.01351 99.56851 99.56737
91.0 0.01099 99.50143 99.50027
84.0 0.01190 99.43431 99.43314
89.0 0.01124 99.36716 99.36600
90.0 0.01111 99.30000 99.29884
95.0 0.01053 99.23282 99.23165
92.0 0.01087 99.16561 99.16446
103.0 0.00971 99.09838 99.09721
99.0 0.01010 99.03113 99.02998
104.0 0.00962 98.96384 98.96268
97.0 0.01031 98.89655 98.89539
86.0 0.01163 98.82925 98.82809
81.0 0.01235 98.76192 98.76075
95.0 0.01053 98.69456 98.69339
104.0 0.00962 98.62719 98.62601
97.0 0.01031 98.55980 98.55862
90.0 0.01111 98.49239 98.49120
94.0 0.01064 98.42496 98.42377
71.0 0.01408 98.35751 98.35632
98.0 0.01020 98.29004 98.28885
84.0 0.01190 98.22256 98.22137
89.0 0.01124 98.15506 98.15386
85.0 0.01176 98.08753 98.08633
90.0 0.01111 98.02000 98.01881
108.0 0.00926 97.95245 97.95125
76.0 0.01316 97.88489 97.88368
88.0 0.01136 97.81732 97.81610
100.0 0.01000 97.74972 97.74850
104.0 0.00962 97.68209 97.68089
87.0 0.01149 97.61446 97.61325
101.0 0.00990 97.54682 97.54562
90.0 0.01111 97.47917 97.47796
97.0 0.01031 97.41151 97.41029
93.0 0.01075 97.34381 97.34260
78.0 0.01282 97.27612 97.27489
98.0 0.01020 97.20841 97.20720
86.0 0.01163 97.14068 97.13947
75.0 0.01333 97.07296 97.07172
91.0 0.01099 97.00520 97.00397
87.0 0.01149 96.93745 96.93621
89.0 0.01124 96.86968 96.86844
97.0 0.01031 96.80190 96.80066
82.0 0.01220 96.73411 96.73287
93.0 0.01075 96.66631 96.66507
113.0 0.00885 96.59850 96.59724
73.0 0.01370 96.53067 96.52943
84.0 0.01190 96.46284 96.46160
86.0 0.01163 96.39500 96.39375
79.0 0.01266 96.32716 96.32589
108.0 0.00926 96.25930 96.25805
94.0 0.01064 96.19144 96.19018
79.0 0.01266 96.12357 96.12231
80.0 0.01250 96.05568 96.05443
80.0 0.01250 95.98779 95.98653
84.0 0.01190 95.91991 95.91862
86.0 0.01163 95.85201 95.85072
90.0 0.01111 95.78410 95.78282
79.0 0.01266 95.71620 95.71492
81.0 0.01235 95.64826 95.64700
92.0 0.01087 95.58035 95.57906
85.0 0.01176 95.51242 95.51114
98.0 0.01020 95.44449 95.44321
94.0 0.01064 95.37656 95.37527
74.0 0.01351 95.30862 95.30731
101.0 0.00990 95.24068 95.23937
80.0 0.01250 95.17271 95.17142
84.0 0.01190 95.10477 95.10347
89.0 0.01124 95.03682 95.03551
97.0 0.01031 94.96886 94.96755
100.0 0.01000 94.90092 94.89960
79.0 0.01266 94.83295 94.83163
113.0 0.00885 94.76499 94.76369
68.0 0.01471 94.69703 94.69572
88.0 0.01136 94.62907 94.62774
84.0 0.01190 94.56110 94.55978
83.0 0.01205 94.49314 94.49182
97.0 0.01031 94.42518 94.42385
95.0 0.01053 94.35722 94.35590
76.0 0.01316 94.28925 94.28793
95.0 0.01053 94.22129 94.21996
103.0 0.00971 94.15334 94.15201
105.0 0.00952 94.08539 94.08405
80.0 0.01250 94.01742 94.01608
108.0 0.00926 93.94947 93.94814
88.0 0.01136 93.88152 93.88017
79.0 0.01266 93.81358 93.81223
90.0 0.01111 93.74564 93.74429
91.0 0.01099 93.67770 93.67635
77.0 0.01299 93.60976 93.60840
93.0 0.01075 93.54182 93.54047
60.0 0.01667 93.47390 93.47255
87.0 0.01149 93.40598 93.40463
89.0 0.01124 93.33806 93.33671
97.0 0.01031 93.27015 93.26878
79.0 0.01266 93.20223 93.20088
78.0 0.01282 93.13435 93.13298
73.0 0.01370 93.06644 93.06509
79.0 0.01266 92.99856 92.99719
98.0 0.01020 92.93067 92.92931
98.0 0.01020 92.86282 92.86143
84.0 0.01190 92.79495 92.79356
99.0 0.01010 92.72710 92.72571
82.0 0.01220 92.65925 92.65786
75.0 0.01333 92.59139 92.59001
85.0 0.01176 92.52357 92.52218
88.0 0.01136 92.45576 92.45437
83.0 0.01205 92.38795 92.38655
85.0 0.01176 92.32015 92.31874
78.0 0.01282 92.25235 92.25095
99.0 0.01010 92.18456 92.18316
80.0 0.01250 92.11680 92.11540
117.0 0.00855 92.04903 92.04763
78.0 0.01282 91.98130 91.97990
110.0 0.00909 91.91355 91.91213
89.0 0.01124 91.84584 91.84443
93.0 0.01075 91.77812 91.77670
83.0 0.01205 91.71041 91.70899
74.0 0.01351 91.64274 91.64133
83.0 0.01205 91.57506 91.57364
78.0 0.01282 91.50742 91.50598
74.0 0.01351 91.43978 91.43833
89.0 0.01124 91.37212 91.37070
116.0 0.00862 91.30451 91.30309
68.0 0.01471 91.23692 91.23548
77.0 0.01299 91.16932 91.16790
75.0 0.01333 91.10176 91.10033
78.0 0.01282 91.03422 91.03276
80.0 0.01250 90.96667 90.96523
63.0 0.01587 90.89915 90.89769
65.0 0.01538 90.83165 90.83020
93.0 0.01075 90.76414 90.76270
75.0 0.01333 90.69667 90.69522
75.0 0.01333 90.62922 90.62777
89.0 0.01124 90.56179 90.56033
90.0 0.01111 90.49436 90.49291
60.0 0.01667 90.42697 90.42551
63.0 0.01587 90.35960 90.35814
89.0 0.01124 90.29224 90.29077
80.0 0.01250 90.22489 90.22341
74.0 0.01351 90.15755 90.15611
102.0 0.00980 90.09026 90.08880
92.0 0.01087 90.02297 90.02152
57.0 0.01754 89.95573 89.95424
72.0 0.01389 89.88847 89.88699
89.0 0.01124 89.82127 89.81977
81.0 0.01235 89.75406 89.75258
84.0 0.01190 89.68688 89.68540
93.0 0.01075 89.61973 89.61824
72.0 0.01389 89.55260 89.55111
78.0 0.01282 89.48550 89.48400
75.0 0.01333 89.41841 89.41692
90.0 0.01111 89.35135 89.34985
59.0 0.01695 89.28431 89.28281
71.0 0.01408 89.21729 89.21579
84.0 0.01190 89.15031 89.14880
98.0 0.01020 89.08334 89.08185
95.0 0.01053 89.01640 89.01490
68.0 0.01471 88.94949 88.94798
81.0 0.01235 88.88261 88.88109
83.0 0.01205 88.81573 88.81422
81.0 0.01235 88.74889 88.74739
77.0 0.01299 88.68208 88.68056
75.0 0.01333 88.61531 88.61378
83.0 0.01205 88.54854 88.54701
77.0 0.01299 88.48181 88.48028
83.0 0.01205 88.41512 88.41357
81.0 0.01235 88.34843 88.34690
83.0 0.01205 88.28179 88.28025
60.0 0.01667 88.21517 88.21363
84.0 0.01190 88.14857 88.14703
62.0 0.01613 88.08202 88.08048
69.0 0.01449 88.01547 88.01394
74.0 0.01351 87.94897 87.94745
86.0 0.01163 87.88250 87.88097
75.0 0.01333 87.81608 87.81453
80.0 0.01250 87.74965 87.74811
89.0 0.01124 87.68327 87.68173
65.0 0.01538 87.61693 87.61539
65.0 0.01538 87.55061 87.54906
74.0 0.01351 87.48431 87.48277
77.0 0.01299 87.41807 87.41651
83.0 0.01205 87.35184 87.35028
74.0 0.01351 87.28565 87.28409
77.0 0.01299 87.21950 87.21794
89.0 0.01124 87.15339 87.15181
62.0 0.01613 87.08729 87.08571
104.0 0.00962 87.02123 87.01966
69.0 0.01449 86.95519 86.95363
84.0 0.01190 86.88922 86.88765
95.0 0.01053 86.82327 86.82169
59.0 0.01695 86.75734 86.75577
81.0 0.01235 86.69146 86.68987
69.0 0.01449 86.62561 86.62403
65.0 0.01538 86.55980 86.55821
96.0 0.01042 86.49401 86.49243
71.0 0.01408 86.42828 86.42670
83.0 0.01205 86.36257 86.36098
59.0 0.01695 86.29693 86.29532
86.0 0.01163 86.23128 86.22969
102.0 0.00980 86.16570 86.16410
78.0 0.01282 86.10014 86.09854
89.0 0.01124 86.03462 86.03302
89.0 0.01124 85.96914 85.96754
96.0 0.01042 85.90369 95.79859
86.0 0.01163 85.83830 96.49965
69.0 0.01449 85.77293 102.16827
80.0 0.01250 85.70762 103.44457
90.0 0.01111 85.64234 104.89199
63.0 0.01587 85.57710 106.54073
110.0 0.00909 85.51191 108.42803
89.0 0.01124 85.44673 110.60001
84.0 0.01190 85.38162 113.11452
93.0 0.01075 85.31652 116.04472
89.0 0.01124 85.25151 119.48431
90.0 0.01111 85.18650 123.55465
98.0 0.01020 85.12155 128.41521
127.0 0.00787 85.05663 134.27853
125.0 0.00800 84.99176 141.43326
134.0 0.00746 84.92696 150.28087
161.0 0.00621 84.86217 161.40733
143.0 0.00699 84.79742 175.76042
175.0 0.00571 84.73273 195.16245
211.0 0.00474 84.66808 223.72885
309.0 0.003236 84.60347 271.10330
369.0 0.002710 84.53891 357.79514
530.0 0.001887 84.47439 519.77313
720.0 0.001389 84.40992 804.47961
1193.0 0.000838 84.34549 1249.58716
1601.0 0.000625 84.28110 1843.87036
2348.0 0.000426 84.21677 2476.10742
2809.0 0.000356 84.15248 2910.31104
3180.0 0.0003145 84.08824 2947.67529
2770.0 0.000361 84.02404 2622.08057
2082.0 0.000480 83.95989 2072.85693
1491.0 0.000671 83.89581 1477.91687
950.0 0.001053 83.83173 984.16669
624.0 0.001603 83.76774 640.42639
389.0 0.002571 83.70377 429.15378
276.0 0.00362 83.63986 309.80707
247.0 0.00405 83.57600 244.30473
191.0 0.00524 83.51219 206.73811
170.0 0.00588 83.44842 182.91455
137.0 0.00730 83.38470 166.14667
119.0 0.00840 83.32104 153.47688
107.0 0.00935 83.25742 143.51793
90.0 0.01111 83.19386 135.50893
105.0 0.00952 83.13034 128.96448
96.0 0.01042 83.06689 123.54659
96.0 0.01042 83.00348 119.00988
92.0 0.01087 82.94010 115.17215
87.0 0.01149 82.87682 111.89568
96.0 0.01042 82.81355 109.07494
92.0 0.01087 82.75035 106.62801
80.0 0.01250 82.68719 104.49046
81.0 0.01235 82.62409 102.61121
89.0 0.01124 82.56104 100.94920
83.0 0.01205 82.49805 99.47124
74.0 0.01351 82.43511 88.24284
99.0 0.01010 82.37223 87.74447
74.0 0.01351 82.30939 82.30768
68.0 0.01471 82.24662 82.24490
96.0 0.01042 82.18389 82.18217
95.0 0.01053 82.12122 82.11949
71.0 0.01408 82.05861 82.05688
56.0 0.01786 81.99604 81.99432
80.0 0.01250 81.93353 81.93182
90.0 0.01111 81.87109 81.86935
102.0 0.00980 81.80870 81.80698
63.0 0.01587 81.74637 81.74464
83.0 0.01205 81.68409 81.68235
75.0 0.01333 81.62186 81.62014
71.0 0.01408 81.55970 81.55796
57.0 0.01754 81.49760 81.49586
83.0 0.01205 81.43555 81.43382
71.0 0.01408 81.37357 81.37180
84.0 0.01190 81.31162 81.30988
81.0 0.01235 81.24975 81.24801
78.0 0.01282 81.18794 81.18618
95.0 0.01053 81.12617 81.12442
92.0 0.01087 81.06448 81.06273
84.0 0.01190 81.00284 81.00109
65.0 0.01538 80.94127 80.93950
66.0 0.01515 80.87974 80.87798
83.0 0.01205 80.81828 80.81651
86.0 0.01163 80.75688 80.75513
72.0 0.01389 80.69554 80.69379
66.0 0.01515 80.63427 80.63250
86.0 0.01163 80.57304 80.57128
86.0 0.01163 80.51189 80.51012
92.0 0.01087 80.45081 80.44904
71.0 0.01408 80.38978 80.38800
84.0 0.01190 80.32879 80.32702
66.0 0.01515 80.26790 80.26612
72.0 0.01389 80.20707 80.20528
72.0 0.01389 80.14628 80.14449
81.0 0.01235 80.08556 80.08379
42.0 0.02381 80.02489 80.02311
48.0 0.02083 79.96430 79.96252
89.0 0.01124 79.90379 79.90199
80.0 0.01250 79.84332 79.84153
75.0 0.01333 79.78292 79.78114
75.0 0.01333 79.72260 79.72079
92.0 0.01087 79.66234 79.66054
77.0 0.01299 79.60213 79.60032
56.0 0.01786 79.54198 79.54018
75.0 0.01333 79.48190 79.48009
92.0 0.01087 79.42191 79.42010
78.0 0.01282 79.36196 79.36015
84.0 0.01190 79.30209 79.30029
77.0 0.01299 79.24228 79.24049
62.0 0.01613 79.18253 79.18073
90.0 0.01111 79.12288 79.12106
72.0 0.01389 79.06326 79.06144
78.0 0.01282 79.00371 79.00191
60.0 0.01667 78.94425 78.94244
68.0 0.01471 78.88484 78.88303
95.0 0.01053 78.82552 78.82368
62.0 0.01613 78.76624 78.76443
86.0 0.01163 78.70705 78.70522
84.0 0.01190 78.64792 78.64610
72.0 0.01389 78.58887 78.58704
71.0 0.01408 78.52988 78.52804
83.0 0.01205 78.47095 78.46912
80.0 0.01250 78.41209 78.41026
63.0 0.01587 78.35332 78.35149
78.0 0.01282 78.29460 78.29277
74.0 0.01351 78.23597 78.23414
69.0 0.01449 78.17741 78.17557
101.0 0.00990 78.11890 78.11706
78.0 0.01282 78.06047 78.05864
80.0 0.01250 78.00213 78.00027
54.0 0.01852 77.94384 77.94200
63.0 0.01587 77.88562 77.88378
68.0 0.01471 77.82748 77.82564
83.0 0.01205 77.76942 77.76758
93.0 0.01075 77.71142 77.70956
81.0 0.01235 77.65351 77.65166
69.0 0.01449 77.59565 77.59380
78.0 0.01282 77.53788 77.53602
75.0 0.01333 77.48018 77.47832
48.0 0.02083 77.42255 77.42069
62.0 0.01613 77.36499 77.36314
62.0 0.01613 77.30751 77.30565
92.0 0.01087 77.25011 77.24826
75.0 0.01333 77.19279 77.19091
60.0 0.01667 77.13552 77.13365
65.0 0.01538 77.07833 77.07646
90.0 0.01111 77.02124 77.01938
81.0 0.01235 76.96421 76.96233
60.0 0.01667 76.90724 76.90537
72.0 0.01389 76.85036 76.84850
80.0 0.01250 76.79357 76.79169
71.0 0.01408 76.73685 76.73496
56.0 0.01786 76.68018 76.67831
63.0 0.01587 76.62362 76.62174
74.0 0.01351 76.56712 76.56524
65.0 0.01538 76.51071 76.50883
72.0 0.01389 76.45438 76.45249
81.0 0.01235 76.39811 76.39622
62.0 0.01613 76.34192 76.34004
102.0 0.00980 76.28580 76.28392
78.0 0.01282 76.22978 76.22790
81.0 0.01235 76.17383 76.17194
84.0 0.01190 76.11795 76.11607
84.0 0.01190 76.06217 76.06026
68.0 0.01471 76.00645 76.00456
83.0 0.01205 75.95081 75.94892
81.0 0.01235 75.89526 75.89336
89.0 0.01124 75.83978 75.83789
77.0 0.01299 75.78440 77.23017
62.0 0.01613 75.72909 85.66011
66.0 0.01515 75.67383 86.38273
65.0 0.01538 75.61870 87.94462
81.0 0.01235 75.56361 93.23837
81.0 0.01235 75.50862 94.70341
86.0 0.01163 75.45372 96.37268
81.0 0.01235 75.39888 98.28427
87.0 0.01149 75.34415 100.48553
77.0 0.01299 75.28947 103.03597
84.0 0.01190 75.23489 106.01108
98.0 0.01020 75.18037 109.50772
71.0 0.01408 75.12598 113.65177
93.0 0.01075 75.07163 118.60923
98.0 0.01020 75.01736 124.60246
133.0 0.00752 74.96321 131.93625
121.0 0.00826 74.90910 141.04579
130.0 0.00769 74.85512 152.60910
170.0 0.00588 74.80119 167.85347
176.0 0.00568 74.74734 189.38187
194.0 0.00515 74.69360 223.07874
279.0 0.00358 74.63993 281.47705
374.0 0.002674 74.58634 387.49951
580.0 0.001724 74.53284 574.54700
908.0 0.001101 74.47943 877.00049
1323.0 0.000756 74.42611 1308.16260
1826.0 0.000548 74.37286 1828.28833
2219.0 0.000451 74.31969 2313.42847
2559.0 0.000391 74.26663 2581.13550
2680.0 0.000373 74.21362 2538.69897
2278.0 0.000439 74.16073 2251.09131
1880.0 0.000532 74.10792 1814.36316
1338.0 0.000747 74.05519 1335.82214
818.0 0.001222 74.00255 921.38574
541.0 0.001848 73.94997 617.63800
392.0 0.002551 73.89751 419.74054
256.0 0.00391 73.84512 301.32339
190.0 0.00526 73.79284 233.63000
164.0 0.00610 73.74062 194.49767
155.0 0.00645 73.68850 170.22643
131.0 0.00763 73.63647 153.63719
104.0 0.00962 73.58451 141.33922
101.0 0.00990 73.53268 131.75000
101.0 0.00990 73.48090 124.05566
96.0 0.01042 73.42922 117.76953
86.0 0.01163 73.37762 112.56387
87.0 0.01149 73.32612 108.20338
98.0 0.01020 73.27470 104.51366
63.0 0.01587 73.22339 101.36299
74.0 0.01351 73.17214 98.65029
98.0 0.01020 73.12099 96.29705
90.0 0.01111 73.06994 94.24158
62.0 0.01613 73.01897 92.43479
77.0 0.01299 72.96810 90.83730
74.0 0.01351 72.91731 88.00743
90.0 0.01111 72.86662 78.62789
104.0 0.00962 72.81602 77.41180
72.0 0.01389 72.76549 72.76353
78.0 0.01282 72.71508 72.71311
77.0 0.01299 72.66474 72.66276
72.0 0.01389 72.61450 72.61253
75.0 0.01333 72.56435 72.56236
98.0 0.01020 72.51429 72.51231
71.0 0.01408 72.46433 72.46235
90.0 0.01111 72.41445 72.41248
78.0 0.01282 72.36468 72.36270
68.0 0.01471 72.31497 72.31299
86.0 0.01163 72.26538 72.26340
83.0 0.01205 72.21587 72.21390
45.0 0.02222 72.16647 72.16448
69.0 0.01449 72.11716 72.11517
104.0 0.00962 72.06792 72.06593
77.0 0.01299 72.01878 72.01680
75.0 0.01333 71.96975 71.96775
57.0 0.01754 71.92081 71.91882
65.0 0.01538 71.87194 71.86996
71.0 0.01408 71.82320 71.82121
63.0 0.01587 71.77454 71.77253
54.0 0.01852 71.72598 71.72398
68.0 0.01471 71.67748 71.67548
68.0 0.01471 71.62910 71.62710
57.0 0.01754 71.58082 71.57883
83.0 0.01205 71.53263 71.53062
62.0 0.01613 71.48454 71.48252
86.0 0.01163 71.43654 71.43452
86.0 0.01163 71.38863 71.38663
72.0 0.01389 71.34081 71.33882
77.0 0.01299 71.29311 71.29110
83.0 0.01205 71.24548 71.24348
53.0 0.01887 71.19795 71.19595
60.0 0.01667 71.15055 71.14854
60.0 0.01667 71.10320 71.10118
63.0 0.01587 71.05597 71.05396
86.0 0.01163 71.00883 71.00680
107.0 0.00935 70.96179 79.58941
92.0 0.01087 70.91486 80.20547
87.0 0.01149 70.86800 80.90065
72.0 0.01389 70.82124 86.04863
81.0 0.01235 70.77460 87.28138
107.0 0.00935 70.72805 88.68186
84.0 0.01190 70.68158 90.28056
84.0 0.01190 70.63522 92.11517
78.0 0.01282 70.58896 94.23272
86.0 0.01163 70.54281 96.69260
80.0 0.01250 70.49673 99.57032
93.0 0.01075 70.45077 102.96340
110.0 0.00909 70.40491 106.99918
107.0 0.00935 70.35913 111.84660
105.0 0.00952 70.31346 117.73443
121.0 0.00826 70.26787 124.98396
117.0 0.00855 70.22241 134.08076
158.0 0.00633 70.17705 145.86002
142.0 0.00704 70.13177 161.98923
236.0 0.00424 70.08658 186.07436
246.0 0.00407 70.04149 225.67303
282.0 0.00355 69.99654 294.79471
428.0 0.002336 69.95164 414.85333
631.0 0.001585 69.90688 610.59369
863.0 0.001159 69.86217 898.56885
1234.0 0.000810 69.81762 1268.94299
1666.0 0.000600 69.77314 1661.43298
1970.0 0.000508 69.72876 1951.16675
2092.0 0.000478 69.68446 2024.77771
2052.0 0.000487 69.64030 1897.22949
1701.0 0.000588 69.59624 1636.91162
1303.0 0.000767 69.55226 1296.93311
1071.0 0.000934 69.50839 952.71838
702.0 0.001425 69.46461 667.67078
434.0 0.002304 69.42094 461.88953
312.0 0.003205 69.37737 327.20309
255.0 0.00392 69.33392 245.02533
212.0 0.00472 69.29054 196.53455
173.0 0.00578 69.24727 167.40877
127.0 0.00787 69.20412 148.70135
127.0 0.00787 69.16106 135.60025
111.0 0.00901 69.11810 125.74548
86.0 0.01163 69.07523 117.98854
102.0 0.00980 69.03249 111.71880
92.0 0.01087 68.98984 106.56426
81.0 0.01235 68.94729 102.27191
90.0 0.01111 68.90485 98.65865
111.0 0.00901 68.86250 95.58777
66.0 0.01515 68.82026 92.95520
62.0 0.01613 68.77813 90.68064
96.0 0.01042 68.73610 88.70127
71.0 0.01408 68.69417 86.96742
84.0 0.01190 68.65234 85.43943
74.0 0.01351 68.61061 84.08535
68.0 0.01471 68.56900 74.04008
75.0 0.01333 68.52749 73.57648
66.0 0.01515 68.48607 73.15974
68.0 0.01471 68.44477 68.44271
86.0 0.01163 68.40355 68.40150
63.0 0.01587 68.36245 68.36040
86.0 0.01163 68.32146 68.31941
65.0 0.01538 68.28056 68.27853
81.0 0.01235 68.23979 68.23772
78.0 0.01282 68.19910 68.19704
75.0 0.01333 68.15852 68.15647
74.0 0.01351 68.11805 68.11599
83.0 0.01205 68.07770 68.07563
68.0 0.01471 68.03743 68.03536
60.0 0.01667 67.99727 67.99520
63.0 0.01587 67.95722 67.95516
69.0 0.01449 67.91726 67.91521
87.0 0.01149 67.87745 67.87538
77.0 0.01299 67.83769 67.83562
59.0 0.01695 67.79807 67.79601
57.0 0.01754 67.75854 67.75648
78.0 0.01282 67.71914 67.71706
47.0 0.02128 67.67982 67.67774
66.0 0.01515 67.64061 67.63854
71.0 0.01408 67.60150 67.59943
65.0 0.01538 67.56252 67.56045
75.0 0.01333 67.52365 67.52157
45.0 0.02222 67.48485 67.48278
60.0 0.01667 67.44617 67.44411
77.0 0.01299 67.40759 67.40553
71.0 0.01408 67.36915 67.36707
65.0 0.01538 67.33080 67.32872
62.0 0.01613 67.29254 67.29047
72.0 0.01389 67.25440 67.25233
71.0 0.01408 67.21635 67.21429
63.0 0.01587 67.17845 67.17637
71.0 0.01408 67.14062 67.13854
66.0 0.01515 67.10291 67.10084
69.0 0.01449 67.06531 67.06322
72.0 0.01389 67.02782 67.02573
74.0 0.01351 66.99042 66.98834
57.0 0.01754 66.95314 66.95106
54.0 0.01852 66.91598 66.91389
54.0 0.01852 66.87891 66.87682
65.0 0.01538 66.84193 66.83986
84.0 0.01190 66.80508 66.80301
77.0 0.01299 66.76833 66.76627
87.0 0.01149 66.73170 66.72963
66.0 0.01515 66.69518 66.69310
93.0 0.01075 66.65875 66.65668
78.0 0.01282 66.62245 66.62038
62.0 0.01613 66.58624 66.58417
57.0 0.01754 66.55015 66.54808
83.0 0.01205 66.51418 66.51208
66.0 0.01515 66.47829 66.47622
77.0 0.01299 66.44251 66.44044
69.0 0.01449 66.40686 66.40479
75.0 0.01333 66.37132 66.36923
65.0 0.01538 66.33588 66.33378
62.0 0.01613 66.30054 66.29845
77.0 0.01299 66.26532 66.26324
71.0 0.01408 66.23019 66.22812
66.0 0.01515 66.19520 66.19313
74.0 0.01351 66.16029 66.15822
66.0 0.01515 66.12551 66.12343
74.0 0.01351 66.09084 66.08876
63.0 0.01587 66.05626 66.05418
71.0 0.01408 66.02181 81.95583
81.0 0.01235 65.98746 83.14341
89.0 0.01124 65.95322 84.47646
89.0 0.01124 65.91908 93.84931
98.0 0.01020 65.88507 96.15078
81.0 0.01235 65.85116 98.75701
92.0 0.01087 65.81736 101.72313
78.0 0.01282 65.78367 105.11732
87.0 0.01149 65.75009 109.02456
89.0 0.01124 65.71661 113.55192
107.0 0.00935 65.68326 118.83569
101.0 0.00990 65.65002 125.05139
121.0 0.00826 65.61686 132.42813
111.0 0.00901 65.58383 141.26962
170.0 0.00588 65.55091 151.98708
164.0 0.00610 65.51810 165.16008
194.0 0.00515 65.48540 181.67371
226.0 0.00442 65.45281 203.07727
264.0 0.00379 65.42034 232.51018
337.0 0.002967 65.38797 276.78397
429.0 0.002331 65.35571 351.38278
597.0 0.001675 65.32356 479.72009
785.0 0.001274 65.29153 701.99194
1216.0 0.000822 65.25961 1062.86475
1716.0 0.000583 65.22779 1589.08582
2421.0 0.000413 65.19608 2261.44141
3175.0 0.0003150 65.16449 2972.32886
3724.0 0.0002685 65.13301 3503.36914
3950.0 0.0002532 65.10165 3654.20313
3852.0 0.0002596 65.07039 3454.64673
3314.0 0.0003018 65.03923 3037.65918
2568.0 0.000389 65.00819 2473.97314
2043.0 0.000489 64.97726 1860.14661
1437.0 0.000696 64.94645 1316.33533
919.0 0.001088 64.91574 902.01666
663.0 0.001508 64.88515 618.45581
485.0 0.002062 64.85468 439.90012
375.0 0.002667 64.82430 333.86771
289.0 0.003460 64.79404 272.37149
214.0 0.00467 64.76389 236.45863
224.0 0.00446 64.73386 215.90369
221.0 0.00452 64.70394 206.77237
230.0 0.00435 64.67412 208.83952
221.0 0.00452 64.64441 223.36140
246.0 0.00407 64.61481 250.95096
298.0 0.003356 64.58534 289.29819
309.0 0.003236 64.55597 330.42941
348.0 0.002874 64.52672 359.45535
360.0 0.002778 64.49758 363.69711
393.0 0.002545 64.46854 345.56131
318.0 0.003145 64.43963 313.54269
258.0 0.00388 64.41081 272.03049
212.0 0.00472 64.38211 227.11455
164.0 0.00610 64.35353 186.70071
149.0 0.00671 64.32506 138.53491
131.0 0.00763 64.29669 116.91942
114.0 0.00877 64.26844 102.59792
98.0 0.01020 64.24030 85.24376
96.0 0.01042 64.21227 80.05716
81.0 0.01235 64.18436 76.77591
99.0 0.01010 64.15655 74.55613
84.0 0.01190 64.12887 72.93736
80.0 0.01250 64.10129 71.68532
86.0 0.01163 64.07382 70.67978
66.0 0.01515 64.04646 69.85336
65.0 0.01538 64.01923 69.16350
83.0 0.01205 63.99209 68.58057
87.0 0.01149 63.96509 68.08282
59.0 0.01695 63.93816 67.65379
74.0 0.01351 63.91137 67.28084
72.0 0.01389 63.88468 66.95403
84.0 0.01190 63.85811 66.66563
59.0 0.01695 63.83165 66.40934
75.0 0.01333 63.80531 66.18021
101.0 0.00990 63.77908 64.63274
62.0 0.01613 63.75296 64.53980
68.0 0.01471 63.72694 64.45446
75.0 0.01333 63.70104 63.69897
75.0 0.01333 63.67526 63.67319
75.0 0.01333 63.64958 63.64752
77.0 0.01299 63.62402 63.62196
74.0 0.01351 63.59857 63.59650
71.0 0.01408 63.57323 63.57117
69.0 0.01449 63.54800 63.54593
51.0 0.01961 63.52290 63.52082
90.0 0.01111 63.49791 63.49583
78.0 0.01282 63.47300 63.47094
59.0 0.01695 63.44823 63.44615
60.0 0.01667 63.42356 63.42150
66.0 0.01515 63.39901 63.39695
53.0 0.01887 63.37458 63.37252
72.0 0.01389 63.35025 63.34818
75.0 0.01333 63.32603 63.32397
81.0 0.01235 63.30193 63.29987
59.0 0.01695 63.27793 63.27586
53.0 0.01887 63.25405 63.25199
74.0 0.01351 63.23029 63.22822
66.0 0.01515 63.20661 63.20456
78.0 0.01282 63.18310 63.18102
92.0 0.01087 63.15967 63.15760
77.0 0.01299 63.13634 63.13428
84.0 0.01190 63.11313 63.11107
65.0 0.01538 63.09003 63.08797
62.0 0.01613 63.06705 63.06499
81.0 0.01235 63.04419 63.04212
68.0 0.01471 63.02144 63.01937
92.0 0.01087 62.99877 62.99671
96.0 0.01042 62.97625 62.97418
87.0 0.01149 62.95382 62.95175
81.0 0.01235 62.93150 62.92943
75.0 0.01333 62.90931 62.90726
65.0 0.01538 62.88723 62.88517
62.0 0.01613 62.86525 62.86319
65.0 0.01538 62.84338 62.84134
74.0 0.01351 62.82164 62.81958
74.0 0.01351 62.80000 62.79794
69.0 0.01449 62.77847 62.77641
89.0 0.01124 62.75706 62.75500
56.0 0.01786 62.73575 62.73369
74.0 0.01351 62.71456 62.71251
66.0 0.01515 62.69347 62.69142
65.0 0.01538 62.67251 62.67046
80.0 0.01250 62.65165 62.64960
66.0 0.01515 62.63091 62.62885
62.0 0.01613 62.61027 62.60822
105.0 0.00952 62.58975 62.58771
80.0 0.01250 62.56934 62.56728
56.0 0.01786 62.54902 62.54699
63.0 0.01587 62.52886 62.52681
69.0 0.01449 62.50879 62.50673
72.0 0.01389 62.48882 62.48677
80.0 0.01250 62.46895 62.46691
71.0 0.01408 62.44921 62.44718
78.0 0.01282 62.42957 62.42753
89.0 0.01124 62.41006 62.40802
75.0 0.01333 62.39067 62.38862
65.0 0.01538 62.37136 62.36932
80.0 0.01250 62.35218 62.35014
74.0 0.01351 62.33310 62.33106
69.0 0.01449 62.31414 62.31210
68.0 0.01471 62.29530 62.29326
74.0 0.01351 62.27655 62.27451
84.0 0.01190 62.25792 62.25589
77.0 0.01299 62.23939 62.23736
54.0 0.01852 62.22099 62.21896
56.0 0.01786 62.20269 62.20065
72.0 0.01389 62.18451 62.18247
74.0 0.01351 62.16643 62.16439
78.0 0.01282 62.14848 62.14645
81.0 0.01235 62.13062 62.12859
57.0 0.01754 62.11287 62.11084
60.0 0.01667 62.09525 73.00298
89.0 0.01124 62.07772 73.82934
66.0 0.01515 62.06031 74.75711
80.0 0.01250 62.04303 75.80308
98.0 0.01020 62.02583 82.62143
80.0 0.01250 62.00874 84.41360
78.0 0.01282 61.99177 86.45444
78.0 0.01282 61.97490 88.79147
92.0 0.01087 61.95815 91.48407
75.0 0.01333 61.94152 94.60718
83.0 0.01205 61.92500 98.25645
80.0 0.01250 61.90857 102.55544
86.0 0.01163 61.89228 107.66590
86.0 0.01163 61.87607 113.80318
117.0 0.00855 61.85998 121.26128
127.0 0.00787 61.84399 130.46233
134.0 0.00746 61.82815 142.07782
161.0 0.00621 61.81239 157.35916
172.0 0.00581 61.79673 178.99095
240.0 0.00417 61.78119 212.94955
313.0 0.003195 61.76575 271.58954
390.0 0.002564 61.75043 376.79395
667.0 0.001499 61.73522 559.54749
952.0 0.001050 61.72012 851.05096
1303.0 0.000767 61.70512 1263.90393
1898.0 0.000527 61.69025 1767.53247
2327.0 0.000430 61.67548 2262.09277
2642.0 0.000379 61.66081 2581.30322
2916.0 0.0003429 61.64627 2618.87939
2791.0 0.000358 61.63181 2442.30981
2264.0 0.000442 61.61747 2151.01367
1899.0 0.000527 61.60324 1775.66467
1529.0 0.000654 61.58911 1358.51477
1071.0 0.000934 61.57510 975.46252
705.0 0.001418 61.56121 673.65045
487.0 0.002053 61.54742 461.10245
322.0 0.003106 61.53373 324.48926
279.0 0.00358 61.52015 242.52158
206.0 0.00485 61.50669 194.72009
184.0 0.00543 61.49333 166.01816
143.0 0.00699 61.48008 147.35492
128.0 0.00781 61.46693 134.04718
113.0 0.00885 61.45389 123.87225
105.0 0.00952 61.44095 118.86382
113.0 0.00885 61.42813 112.48426
87.0 0.01149 61.41543 118.80434
151.0 0.00662 61.40283 115.40097
105.0 0.00952 61.39034 114.43611
78.0 0.01282 61.37794 112.74421
107.0 0.00935 61.36566 117.63757
107.0 0.00935 61.35349 117.72013
122.0 0.00820 61.34142 118.47657
116.0 0.00862 61.32946 119.92530
111.0 0.00901 61.31761 122.11252
128.0 0.00781 61.30586 114.23772
96.0 0.01042 61.29423 118.92543
157.0 0.00637 61.28269 124.63171
145.0 0.00690 61.27126 125.96925
155.0 0.00645 61.25995 134.90779
169.0 0.00592 61.24874 145.86362
220.0 0.00455 61.23764 159.61278
202.0 0.00495 61.22664 177.59361
223.0 0.00448 61.21575 202.76288
297.0 0.003367 61.20497 241.24397
345.0 0.002899 61.19429 304.68927
432.0 0.002315 61.18372 412.14438
714.0 0.001401 61.17324 588.75165
952.0 0.001050 61.16288 882.06842
1304.0 0.000767 61.15264 1256.51379
1780.0 0.000562 61.14248 1711.72021
2079.0 0.000481 61.13245 2176.36719
2615.0 0.000382 61.12251 2550.10400
2695.0 0.000371 61.11267 2712.85693
2799.0 0.000357 61.10296 2656.43579
2567.0 0.000390 61.09332 2442.23096
2187.0 0.000457 61.08381 2134.20898
1771.0 0.000565 61.07439 1769.01709
1425.0 0.000702 61.06511 1390.65381
1062.0 0.000942 61.05590 1054.53064
758.0 0.001319 61.04680 793.34729
566.0 0.001767 61.03782 610.68774
468.0 0.002137 61.02893 494.85120
410.0 0.002439 61.02013 429.88696
389.0 0.002571 61.01147 401.65134
462.0 0.002165 61.00290 401.16837
462.0 0.002165 60.99443 427.10562
496.0 0.002016 60.98607 489.13712
672.0 0.001488 60.97780 612.92328
850.0 0.001176 60.96965 843.95850
1181.0 0.000847 60.96160 1242.83508
1878.0 0.000532 60.95365 1863.85864
2698.0 0.000371 60.94580 2717.07129
3534.0 0.0002830 60.93806 3722.03809
4510.0 0.0002217 60.93042 4661.09131
5049.0 0.0001981 60.92289 5210.11035
5373.0 0.0001861 60.91545 5213.66992
5146.0 0.0001943 60.90812 4835.53760
4130.0 0.0002421 60.90089 4261.42236
3210.0 0.0003115 60.89377 3540.64038
2586.0 0.000387 60.88675 2722.99316
2005.0 0.000499 60.87983 1968.95654
1347.0 0.000742 60.87302 1361.16321
800.0 0.001250 60.86632 919.00458
574.0 0.001742 60.85971 632.58087
431.0 0.002320 60.85320 457.29770
330.0 0.003030 60.84679 353.95670
312.0 0.003205 60.84048 292.18585
220.0 0.00455 60.83427 252.84785
203.0 0.00493 60.82817 225.65977
187.0 0.00535 60.82217 205.64618
173.0 0.00578 60.81627 190.48035
163.0 0.00613 60.81049 179.06561
143.0 0.00699 60.80479 170.99208
193.0 0.00518 60.79918 166.50945
172.0 0.00581 60.79369 166.82385
175.0 0.00571 60.78831 174.52582
203.0 0.00493 60.78302 193.73192
235.0 0.00426 60.77782 229.29326
334.0 0.002994 60.77273 284.64349
374.0 0.002674 60.76775 358.57431
438.0 0.002283 60.76286 441.43088
565.0 0.001770 60.75805 488.75339
566.0 0.001767 60.75337 522.07300
544.0 0.001838 60.74878 511.31784
536.0 0.001866 60.74429 461.95132
414.0 0.002415 60.73990 411.41092
396.0 0.002525 60.73560 348.68112
327.0 0.003058 60.73141 280.33926
271.0 0.00369 60.72733 217.95500
164.0 0.00610 60.72332 168.40935
175.0 0.00571 60.71943 132.87225
164.0 0.00610 60.71564 109.41039
110.0 0.00909 60.71193 94.86705
111.0 0.00901 60.70834 86.10630
104.0 0.00962 60.70483 80.71929
81.0 0.01235 60.70144 77.17993
80.0 0.01250 60.69812 74.77248
105.0 0.00952 60.69493 72.85221
66.0 0.01515 60.69181 71.32399
83.0 0.01205 60.68882 70.07768
81.0 0.01235 60.68589 69.10575
83.0 0.01205 60.68309 68.24747
102.0 0.00980 60.68036 67.52496
80.0 0.01250 60.67774 66.91325
77.0 0.01299 60.67521 66.39323
80.0 0.01250 60.67279 65.95045
72.0 0.01389 60.67046 65.57381
65.0 0.01538 60.66823 65.25506
80.0 0.01250 60.66608 62.70570
80.0 0.01250 60.66404 62.64829
92.0 0.01087 60.66211 62.62112
83.0 0.01205 60.66026 62.62788
78.0 0.01282 60.65850 61.56104
89.0 0.01124 60.65685 61.75214
69.0 0.01449 60.65527 62.04160
81.0 0.01235 60.65382 62.51411
72.0 0.01389 60.65245 63.31084
86.0 0.01163 60.65117 64.62655
66.0 0.01515 60.64999 66.66424
83.0 0.01205 60.64890 71.67750
93.0 0.01075 60.64791 75.45374
93.0 0.01075 60.64701 79.49704
77.0 0.01299 60.64621 82.81913
87.0 0.01149 60.64551 85.42543
99.0 0.01010 60.64490 85.19390
92.0 0.01087 60.64437 83.92832
81.0 0.01235 60.64395 82.13206
65.0 0.01538 60.64362 79.87261
105.0 0.00952 60.64338 77.43896
69.0 0.01449 60.64321 75.35181
99.0 0.01010 60.64318 73.94644
81.0 0.01235 60.64322 73.31893
110.0 0.00909 60.64335 73.44146
81.0 0.01235 60.64358 74.25043
92.0 0.01087 60.64390 75.71557
95.0 0.01053 60.64432 77.91651
93.0 0.01075 60.64481 81.16457
102.0 0.00980 60.64542 86.23006
127.0 0.00787 60.64611 94.70890
136.0 0.00735 60.64688 121.07751
157.0 0.00637 60.64775 146.98438
190.0 0.00526 60.64872 187.70097
249.0 0.00402 60.64977 245.94504
346.0 0.002890 60.65092 325.64258
417.0 0.002398 60.65216 405.79205
556.0 0.001799 60.65347 471.60617
595.0 0.001681 60.65489 500.87973
615.0 0.001626 60.65641 491.89505
544.0 0.001838 60.65801 461.64331
515.0 0.001942 60.65970 420.90723
419.0 0.002387 60.66148 370.80173
348.0 0.002874 60.66335 315.81641
291.0 0.003436 60.66530 266.11859
250.0 0.00400 60.66735 228.64850
230.0 0.00435 60.66948 205.73540
250.0 0.00400 60.67171 197.11934
226.0 0.00442 60.67402 202.48627
236.0 0.00424 60.67643 223.74963
300.0 0.003333 60.67892 267.48761
374.0 0.002674 60.68150 346.59521
497.0 0.002012 60.68419 480.09131
753.0 0.001328 60.68693 685.28046
981.0 0.001019 60.68978 971.64838
1232.0 0.000812 60.69272 1325.35376
1719.0 0.000582 60.69573 1694.68823
1907.0 0.000524 60.69884 1979.75867
2047.0 0.000489 60.70204 2083.87915
2002.0 0.000500 60.70531 2012.86157
1896.0 0.000527 60.70869 1847.17065
1556.0 0.000643 60.71215 1631.02429
1282.0 0.000780 60.71569 1365.97791
1020.0 0.000980 60.71932 1074.76367
747.0 0.001339 60.72303 801.89807
517.0 0.001934 60.72684 582.08618
401.0 0.002494 60.73072 420.09726
318.0 0.003145 60.73471 309.78122
230.0 0.00435 60.73876 238.23244
205.0 0.00488 60.74291 195.02737
161.0 0.00621 60.74714 168.76227
134.0 0.00746 60.75144 152.69162
131.0 0.00763 60.75586 143.27400
149.0 0.00671 60.76033 139.24081
136.0 0.00735 60.76490 140.60641
139.0 0.00719 60.76955 147.74475
166.0 0.00602 60.77430 160.49994
196.0 0.00510 60.77912 177.30132
233.0 0.00429 60.78402 194.21852
206.0 0.00485 60.78901 204.97421
229.0 0.00437 60.79408 205.13106
184.0 0.00543 60.79924 198.33212
194.0 0.00515 60.80447 186.04077
179.0 0.00559 60.80979 171.32191
157.0 0.00637 60.81519 142.66837
140.0 0.00714 60.82067 126.27734
130.0 0.00769 60.82624 110.88365
134.0 0.00746 60.83190 98.63706
96.0 0.01042 60.83763 84.04913
101.0 0.00990 60.84344 78.58496
93.0 0.01075 60.84933 75.23137
77.0 0.01299 60.85532 73.38505
86.0 0.01163 60.86137 72.50145
87.0 0.01149 60.86750 72.27522
89.0 0.01124 60.87373 72.43049
89.0 0.01124 60.88003 72.93829
83.0 0.01205 60.88641 80.44747
77.0 0.01299 60.89286 82.25658
87.0 0.01149 60.89940 84.75197
111.0 0.00901 60.90603 88.35868
127.0 0.00787 60.91272 97.19023
95.0 0.01053 60.91951 106.42442
137.0 0.00730 60.92638 121.32469
149.0 0.00671 60.93329 144.53618
187.0 0.00535 60.94031 178.23366
265.0 0.00377 60.94741 222.69147
243.0 0.00412 60.95457 273.84958
352.0 0.002841 60.96183 324.03345
352.0 0.002841 60.96915 358.23581
425.0 0.002353 60.97655 367.22620
362.0 0.002762 60.98405 356.56824
355.0 0.002817 60.99161 337.88281
309.0 0.003236 60.99924 314.89053
286.0 0.003497 61.00696 288.18143
279.0 0.00358 61.01475 263.20151
298.0 0.003356 61.02262 249.17108
286.0 0.003497 61.03056 265.82010
297.0 0.003367 61.03858 299.85812
387.0 0.002584 61.04668 368.79788
505.0 0.001980 61.05486 477.24069
651.0 0.001536 61.06311 628.95105
767.0 0.001304 61.07143 800.44104
994.0 0.001006 61.07983 965.50372
1062.0 0.000942 61.08829 1076.37231
1035.0 0.000966 61.09685 1101.56360
1076.0 0.000929 61.10547 1057.59937
925.0 0.001081 61.11419 978.79047
841.0 0.001189 61.12295 878.47516
752.0 0.001330 61.13179 756.56769
630.0 0.001587 61.14071 624.93182
521.0 0.001919 61.14971 504.23981
420.0 0.002381 61.15877 407.94888
366.0 0.002732 61.16792 340.21628
324.0 0.003086 61.17713 300.49426
340.0 0.002941 61.18642 287.58908
334.0 0.002994 61.19577 301.27457
440.0 0.002273 61.20519 351.09329
474.0 0.002110 61.21469 446.69138
688.0 0.001453 61.22427 601.35529
856.0 0.001168 61.23392 822.57764
1240.0 0.000806 61.24364 1105.85315
1426.0 0.000701 61.25343 1418.20288
1767.0 0.000566 61.26329 1690.33142
1964.0 0.000509 61.27322 1834.01917
2020.0 0.000495 61.28323 1819.67944
1854.0 0.000539 61.29328 1703.12488
1782.0 0.000561 61.30342 1541.48865
1317.0 0.000759 61.31365 1344.44177
1158.0 0.000864 61.32392 1111.10779
973.0 0.001028 61.33427 869.30878
663.0 0.001508 61.34470 654.15216
517.0 0.001934 61.35519 483.06146
336.0 0.002976 61.36575 357.86465
289.0 0.003460 61.37637 272.23914
203.0 0.00493 61.38707 216.55524
196.0 0.00510 61.39783 181.14189
203.0 0.00493 61.40865 158.26091
158.0 0.00633 61.41955 142.69762
140.0 0.00714 61.43052 131.37646
130.0 0.00769 61.44155 122.63892
113.0 0.00885 61.45266 115.52402
96.0 0.01042 61.46383 109.74950
92.0 0.01087 61.47506 104.93768
122.0 0.00820 61.48637 100.91254
125.0 0.00800 61.49774 92.77850
111.0 0.00901 61.50917 101.16705
92.0 0.01087 61.52068 100.05766
101.0 0.00990 61.53223 99.56095
98.0 0.01020 61.54387 99.62106
101.0 0.00990 61.55556 105.41201
104.0 0.00962 61.56733 95.89571
93.0 0.01075 61.57916 97.75855
111.0 0.00901 61.59105 99.50623
101.0 0.00990 61.60299 101.35442
117.0 0.00855 61.61501 98.15572
98.0 0.01020 61.62711 101.15745
102.0 0.00980 61.63925 104.67620
128.0 0.00781 61.65145 108.94482
134.0 0.00746 61.66373 114.28040
148.0 0.00676 61.67606 121.04329
181.0 0.00552 61.68846 129.72556
157.0 0.00637 61.70091 141.18300
208.0 0.00481 61.71344 157.11594
233.0 0.00429 61.72603 180.96361
274.0 0.00365 61.73867 219.22801
351.0 0.002849 61.75138 282.74609
508.0 0.001969 61.76415 386.65924
664.0 0.001506 61.77698 547.41895
886.0 0.001129 61.78987 776.03876
1106.0 0.000904 61.80282 1068.59497
1422.0 0.000703 61.81584 1395.00330
1693.0 0.000591 61.82891 1687.60913
2071.0 0.000483 61.84204 1854.61816
2026.0 0.000494 61.85524 1855.81445
1979.0 0.000505 61.86850 1744.23572
1756.0 0.000569 61.88181 1586.01270
1472.0 0.000679 61.89518 1397.52136
1318.0 0.000759 61.90860 1171.41272
1073.0 0.000932 61.92210 926.79388
774.0 0.001292 61.93563 700.49384
577.0 0.001733 61.94925 515.40771
423.0 0.002364 61.96292 377.19083
340.0 0.002941 61.97663 281.40546
256.0 0.00391 61.99040 218.94116
197.0 0.00508 62.00425 179.55992
166.0 0.00602 62.01813 154.66812
163.0 0.00613 62.03207 138.23396
137.0 0.00730 62.04609 126.63087
116.0 0.00862 62.06016 117.85832
87.0 0.01149 62.07427 110.90474
125.0 0.00800 62.08843 105.22547
113.0 0.00885 62.10266 100.50163
75.0 0.01333 62.11695 96.52387
87.0 0.01149 62.13129 93.14253
107.0 0.00935 62.14569 90.24512
95.0 0.01053 62.16013 87.74516
89.0 0.01124 62.17465 85.57493
90.0 0.01111 62.18919 87.24414
95.0 0.01053 62.20380 85.85617
75.0 0.01333 62.21849 74.03182
72.0 0.01389 62.23319 73.82718
98.0 0.01020 62.24797 73.75817
74.0 0.01351 62.26278 75.68362
96.0 0.01042 62.27767 70.63860
74.0 0.01351 62.29260 71.65782
87.0 0.01149 62.30758 72.91911
87.0 0.01149 62.32261 74.45824
101.0 0.00990 62.33771 76.27682
98.0 0.01020 62.35284 78.31926
92.0 0.01087 62.36804 80.45850
77.0 0.01299 62.38327 83.52790
89.0 0.01124 62.39856 85.74288
99.0 0.01010 62.41389 88.29688
89.0 0.01124 62.42929 91.55206
117.0 0.00855 62.44474 96.44138
130.0 0.00769 62.46023 106.29707
125.0 0.00800 62.47577 116.72948
164.0 0.00610 62.49136 133.66531
179.0 0.00559 62.50700 160.91104
193.0 0.00518 62.52269 202.75124
259.0 0.00386 62.53843 264.25888
327.0 0.003058 62.55421 342.42896
404.0 0.002475 62.57005 433.51770
473.0 0.002114 62.58594 523.20758
503.0 0.001988 62.60186 587.77216
559.0 0.001789 62.61783 607.94580
569.0 0.001757 62.63386 588.79114
503.0 0.001988 62.64994 550.20306
444.0 0.002252 62.66606 503.34958
404.0 0.002475 62.68222 447.13562
312.0 0.003205 62.69843 381.59909
349.0 0.002865 62.71470 315.23019
268.0 0.00373 62.73101 257.22256
211.0 0.00474 62.74734 211.92949
190.0 0.00526 62.76373 179.87650
148.0 0.00676 62.78018 159.66373
128.0 0.00781 62.79666 149.20242
158.0 0.00633 62.81318 146.74146
161.0 0.00621 62.82976 151.29897
164.0 0.00610 62.84636 162.95117
172.0 0.00581 62.86303 182.60321
196.0 0.00510 62.87973 211.56749
271.0 0.00369 62.89647 251.15562
300.0 0.003333 62.91326 302.00272
413.0 0.002421 62.93010 363.14111
441.0 0.002268 62.94697 431.87585
487.0 0.002053 62.96390 507.65573
569.0 0.001757 62.98085 595.43616
762.0 0.001312 62.99786 698.76221
806.0 0.001241 63.01491 808.75140
964.0 0.001037 63.03197 899.54962
883.0 0.001133 63.04910 935.02539
929.0 0.001076 63.06628 912.23956
905.0 0.001105 63.08348 849.05701
737.0 0.001357 63.10073 771.40570
709.0 0.001410 63.11801 686.77588
590.0 0.001695 63.13535 589.47607
484.0 0.002066 63.15272 486.61096
414.0 0.002415 63.17011 388.68454
313.0 0.003195 63.18756 305.50806
250.0 0.00400 63.20505 240.41159
203.0 0.00493 63.22256 192.54158
196.0 0.00510 63.24013 159.05911
121.0 0.00826 63.25772 136.43842
128.0 0.00781 63.27536 121.32782
127.0 0.00787 63.29303 111.05494
89.0 0.01124 63.31075 103.76733
87.0 0.01149 63.32848 98.31516
84.0 0.01190 63.34627 94.03594
83.0 0.01205 63.36410 90.55785
84.0 0.01190 63.38197 87.66546
83.0 0.01205 63.39986 85.22396
98.0 0.01020 63.41778 83.14111
89.0 0.01124 63.43575 81.34927
86.0 0.01163 63.45375 79.79675
89.0 0.01124 63.47178 78.44295
84.0 0.01190 63.48985 77.25565
81.0 0.01235 63.50797 76.20891
59.0 0.01695 63.52609 75.28162
84.0 0.01190 63.54427 74.45651
66.0 0.01515 63.56248 73.71938
77.0 0.01299 63.58073 72.13824
90.0 0.01111 63.59899 71.59214
74.0 0.01351 63.61731 71.10014
72.0 0.01389 63.63564 70.65555
84.0 0.01190 63.65401 69.78011
57.0 0.01754 63.67241 65.95535
83.0 0.01205 63.69086 65.83348
60.0 0.01667 63.70934 74.37964
81.0 0.01235 63.72782 74.78673
78.0 0.01282 63.74635 75.24906
72.0 0.01389 63.76490 74.07725
75.0 0.01333 63.78351 74.75495
66.0 0.01515 63.80212 79.87146
66.0 0.01515 63.82078 80.94503
92.0 0.01087 63.83947 82.12585
65.0 0.01538 63.85818 83.42893
95.0 0.01053 63.87691 84.87197
68.0 0.01471 63.89570 86.47607
90.0 0.01111 63.91451 88.26631
110.0 0.00909 63.93332 90.27286
80.0 0.01250 63.95219 92.53236
92.0 0.01087 63.97108 95.08937
96.0 0.01042 63.98998 97.99861
92.0 0.01087 64.00893 101.32803
95.0 0.01053 64.02789 105.16259
121.0 0.00826 64.04690 109.60975
122.0 0.00820 64.06593 114.80743
127.0 0.00787 64.08498 120.93682
149.0 0.00671 64.10404 128.24557
127.0 0.00787 64.12314 137.09650
157.0 0.00637 64.14227 148.07402
208.0 0.00481 64.16143 162.20992
199.0 0.00503 64.18063 181.41451
232.0 0.00431 64.19981 209.17580
292.0 0.003425 64.21906 251.44307
374.0 0.002674 64.23829 317.29688
476.0 0.002101 64.25758 418.64294
640.0 0.001563 64.27687 568.08466
815.0 0.001227 64.29620 774.64545
1023.0 0.000978 64.31557 1037.75403
1243.0 0.000805 64.33494 1339.52539
1624.0 0.000616 64.35431 1634.82776
1812.0 0.000552 64.37375 1851.70300
1960.0 0.000510 64.39320 1924.99048
1931.0 0.000518 64.41264 1867.29297
1814.0 0.000551 64.43214 1741.48779
1539.0 0.000650 64.45167 1590.17957
1464.0 0.000683 64.47118 1414.46362
1157.0 0.000864 64.49073 1203.75049
1047.0 0.000955 64.51031 975.95923
848.0 0.001179 64.52989 762.14911
613.0 0.001631 64.54951 582.46771
461.0 0.002169 64.56915 442.91232
395.0 0.002532 64.58879 341.07382
246.0 0.00407 64.60847 270.45746
205.0 0.00488 64.62816 223.19881
161.0 0.00621 64.64787 191.95811
184.0 0.00543 64.66761 170.98482
145.0 0.00690 64.68736 156.35544
169.0 0.00592 64.70713 145.66893
145.0 0.00690 64.72691 137.56203
139.0 0.00719 64.74670 131.28616
131.0 0.00763 64.76653 126.42692
121.0 0.00826 64.78638 122.75042
108.0 0.00926 64.80624 120.13379
110.0 0.00909 64.82610 118.54858
127.0 0.00787 64.84599 118.08723
101.0 0.00990 64.86590 119.04742
137.0 0.00730 64.88583 122.04642
125.0 0.00800 64.90575 128.24814
149.0 0.00671 64.92572 139.49522
155.0 0.00645 64.94569 158.27568
217.0 0.00461 64.96567 187.29538
217.0 0.00461 64.98567 228.55281
258.0 0.00388 65.00571 282.06079
325.0 0.003077 65.02573 344.22369
411.0 0.002433 65.04577 405.81662
471.0 0.002123 65.06582 451.47433
514.0 0.001946 65.08589 459.06943
444.0 0.002252 65.10596 447.44034
435.0 0.002299 65.12606 420.95807
380.0 0.002632 65.14618 389.55490
328.0 0.003049 65.16631 353.86768
324.0 0.003086 65.18643 307.06210
294.0 0.003401 65.20657 260.09103
212.0 0.00472 65.22673 214.91573
185.0 0.00541 65.24690 176.27577
163.0 0.00613 65.26708 145.88885
121.0 0.00826 65.28728 123.52541
125.0 0.00800 65.30750 107.94737
107.0 0.00935 65.32771 97.51676
105.0 0.00952 65.34791 90.64091
101.0 0.00990 65.36816 86.04227
83.0 0.01205 65.38842 82.83792
78.0 0.01282 65.40864 80.48538
74.0 0.01351 65.42892 78.67881
77.0 0.01299 65.44920 77.25269
74.0 0.01351 65.46947 76.11577
74.0 0.01351 65.48974 75.49339
71.0 0.01408 65.51006 74.79710
78.0 0.01282 65.53036 74.25187
54.0 0.01852 65.55067 73.80711
74.0 0.01351 65.57099 73.40033
65.0 0.01538 65.59132 73.11983
66.0 0.01515 65.61164 72.68719
74.0 0.01351 65.63197 72.26421
77.0 0.01299 65.65234 71.87244
39.0 0.02564 65.67271 71.50858
63.0 0.01587 65.69304 71.16090
68.0 0.01471 65.71340 70.83248
87.0 0.01149 65.73377 70.53935
60.0 0.01667 65.75415 70.29443
80.0 0.01250 65.77452 70.10226
95.0 0.01053 65.79490 68.24031
68.0 0.01471 65.81531 68.24102
69.0 0.01449 65.83569 68.28000
65.0 0.01538 65.85607 68.35522
75.0 0.01333 65.87649 68.46642
77.0 0.01299 65.89690 67.76470
71.0 0.01408 65.91728 68.00266
75.0 0.01333 65.93771 68.29064
95.0 0.01053 65.95814 68.64682
80.0 0.01250 65.97853 69.10326
59.0 0.01695 65.99895 69.71667
59.0 0.01695 66.01939 70.58352
68.0 0.01471 66.03979 71.85592
80.0 0.01250 66.06021 73.74979
96.0 0.01042 66.08064 76.53093
84.0 0.01190 66.10106 80.46732
83.0 0.01205 66.12148 85.74457
104.0 0.00962 66.14188 92.34908
87.0 0.01149 66.16233 99.90771
128.0 0.00781 66.18277 107.46426
124.0 0.00806 66.20316 113.38903
140.0 0.00714 66.22359 116.08769
137.0 0.00730 66.24401 115.39681
122.0 0.00820 66.26443 112.63086
143.0 0.00699 66.28484 109.05775
107.0 0.00935 66.30526 104.97231
133.0 0.00752 66.32568 100.10027
117.0 0.00855 66.34610 94.49457
92.0 0.01087 66.36649 88.80002
84.0 0.01190 66.38692 83.67558
65.0 0.01538 66.40733 79.44494
69.0 0.01449 66.42770 76.16868
66.0 0.01515 66.44812 73.75227
68.0 0.01471 66.46852 72.03883
59.0 0.01695 66.48889 70.85462
71.0 0.01408 66.50928 70.04150
65.0 0.01538 66.52967 69.47452
65.0 0.01538 66.55005 69.06564
75.0 0.01333 66.57041 68.75826
66.0 0.01515 66.59078 68.51815
66.0 0.01515 66.61114 68.32503
60.0 0.01667 66.63149 68.16665
74.0 0.01351 66.65182 68.03522
59.0 0.01695 66.67218 67.92536
78.0 0.01282 66.69254 67.83303
66.0 0.01515 66.71284 67.75522
63.0 0.01587 66.73316 67.68954
83.0 0.01205 66.75348 67.63408
87.0 0.01149 66.77379 67.58727
53.0 0.01887 66.79408 67.54782
66.0 0.01515 66.81436 67.51472
59.0 0.01695 66.83466 67.48709
90.0 0.01111 66.85493 67.46420
77.0 0.01299 66.87518 67.44543
56.0 0.01786 66.89546 67.43031
66.0 0.01515 66.91572 67.41839
68.0 0.01471 66.93593 67.12607
66.0 0.01515 66.95618 67.13457
60.0 0.01667 66.97641 67.14413
68.0 0.01471 66.99660 68.30154
66.0 0.01515 67.01678 68.37880
57.0 0.01754 67.03699 68.32142
71.0 0.01408 67.05716 68.41997
54.0 0.01852 67.07732 68.52584
74.0 0.01351 67.09748 69.20515
71.0 0.01408 67.11762 69.36103
48.0 0.02083 67.13775 69.53043
74.0 0.01351 67.15784 69.71518
44.0 0.02273 67.17796 69.91753
57.0 0.01754 67.19807 70.14004
77.0 0.01299 67.21814 70.38573
75.0 0.01333 67.23819 70.65837
57.0 0.01754 67.25825 70.96235
68.0 0.01471 67.27830 71.30311
74.0 0.01351 67.29832 71.68723
63.0 0.01587 67.31832 72.12285
56.0 0.01786 67.33833 72.62015
63.0 0.01587 67.35831 74.83172
75.0 0.01333 67.37825 75.58969
66.0 0.01515 67.39823 76.46809
63.0 0.01587 67.41818 77.49655
66.0 0.01515 67.43806 78.71754
63.0 0.01587 67.45798 81.00343
60.0 0.01667 67.47789 82.90442
98.0 0.01020 67.49774 85.39355
101.0 0.00990 67.51759 88.85490
101.0 0.00990 67.53744 93.95198
121.0 0.00826 67.55727 101.72500
114.0 0.00877 67.57706 113.59707
136.0 0.00735 67.59685 131.18436
157.0 0.00637 67.61662 157.33147
230.0 0.00435 67.63637 189.56935
265.0 0.00377 67.65609 227.95592
262.0 0.00382 67.67581 268.32495
345.0 0.002899 67.69552 302.81485
330.0 0.003030 67.71517 322.04797
383.0 0.002611 67.73483 323.39563
325.0 0.003077 67.75446 311.40906
322.0 0.003106 67.77409 295.06488
285.0 0.00351 67.79367 277.94070
286.0 0.003497 67.81325 258.79288
267.0 0.00375 67.83282 236.10844
256.0 0.00391 67.85235 212.09074
227.0 0.00441 67.87185 191.12933
190.0 0.00526 67.89136 176.92932
182.0 0.00549 67.91084 172.09381
182.0 0.00549 67.93026 178.58780
218.0 0.00459 67.94971 197.77950
230.0 0.00435 67.96913 230.00627
286.0 0.003497 67.98850 273.83261
321.0 0.003115 68.00786 324.98874
368.0 0.002717 68.02721 374.95306
431.0 0.002320 68.04652 411.08359
413.0 0.002421 68.06582 423.35257
401.0 0.002494 68.08508 419.23096
410.0 0.002439 68.10432 399.67020
387.0 0.002584 68.12355 378.66949
333.0 0.003003 68.14272 358.18698
327.0 0.003058 68.16190 336.44095
339.0 0.002950 68.18107 317.24600
306.0 0.003268 68.20017 301.52765
334.0 0.002994 68.21928 297.80045
298.0 0.003356 68.23834 308.84207
327.0 0.003058 68.25739 333.48578
380.0 0.002632 68.27641 366.16177
410.0 0.002439 68.29539 396.41333
401.0 0.002494 68.31438 414.40161
425.0 0.002353 68.33331 411.57718
395.0 0.002532 68.35221 393.84769
399.0 0.002506 68.37112 371.78366
342.0 0.002924 68.38999 348.11084
312.0 0.003205 68.40879 323.71576
304.0 0.003289 68.42761 296.89786
250.0 0.00400 68.44640 265.65652
229.0 0.00437 68.46514 236.27254
176.0 0.00568 68.48384 212.08432
185.0 0.00541 68.50256 194.12465
179.0 0.00559 68.52121 184.01140
149.0 0.00671 68.53985 181.21292
157.0 0.00637 68.55845 186.01622
181.0 0.00552 68.57703 199.47009
208.0 0.00481 68.59556 223.76131
289.0 0.003460 68.61406 262.22241
310.0 0.003226 68.63256 318.79825
426.0 0.002347 68.65102 396.92300
520.0 0.001923 68.66944 497.90268
621.0 0.001610 68.68782 619.29474
765.0 0.001307 68.70618 750.14679
889.0 0.001125 68.72453 868.88831
976.0 0.001025 68.74281 950.76337
1048.0 0.000954 68.76107 975.97229
1026.0 0.000975 68.77932 953.79419
985.0 0.001015 68.79752 910.28400
916.0 0.001092 68.81567 863.35907
871.0 0.001148 68.83383 819.68866
833.0 0.001200 68.85194 777.19495
785.0 0.001274 68.87000 742.35321
762.0 0.001312 68.88802 730.83142
731.0 0.001368 68.90605 755.97046
807.0 0.001239 68.92400 819.94415
836.0 0.001196 68.94194 910.78400
966.0 0.001035 68.95985 999.36713
1050.0 0.000952 68.97772 1051.44080
1106.0 0.000904 68.99555 1042.97021
1074.0 0.000931 69.01335 986.78339
973.0 0.001028 69.03111 912.31854
777.0 0.001287 69.04884 837.57410
780.0 0.001282 69.06651 760.53351
678.0 0.001475 69.08418 672.70020
595.0 0.001681 69.10181 572.39941
512.0 0.001953 69.11939 470.58432
381.0 0.002625 69.13692 378.90750
294.0 0.003401 69.15443 303.85547
229.0 0.00437 69.17191 247.29416
176.0 0.00568 69.18933 208.16226
161.0 0.00621 69.20673 183.91376
178.0 0.00562 69.22411 171.64182
142.0 0.00704 69.24142 169.11716
172.0 0.00581 69.25871 173.30344
139.0 0.00719 69.27597 182.32191
179.0 0.00559 69.29319 193.32295
164.0 0.00610 69.31032 202.37291
167.0 0.00599 69.32747 205.60480
199.0 0.00503 69.34458 201.48164
197.0 0.00508 69.36162 192.86116
179.0 0.00559 69.37862 177.96365
148.0 0.00676 69.39561 168.70570
142.0 0.00704 69.41254 159.01717
124.0 0.00806 69.42943 147.85724
142.0 0.00704 69.44629 135.58597
124.0 0.00806 69.46310 121.01342
99.0 0.01010 69.47985 110.65111
86.0 0.01163 69.49658 102.25224
96.0 0.01042 69.51329 95.86604
83.0 0.01205 69.52995 91.26683
83.0 0.01205 69.54654 88.09207
80.0 0.01250 69.56310 85.95786
74.0 0.01351 69.57962 84.53945
68.0 0.01471 69.59610 79.81548
74.0 0.01351 69.61253 79.43234
72.0 0.01389 69.62894 79.25201
93.0 0.01075 69.64530 79.43278
72.0 0.01389 69.66159 79.96693
63.0 0.01587 69.67787 79.74469
80.0 0.01250 69.69410 80.86850
98.0 0.01020 69.71030 83.57492
102.0 0.00980 69.72639 87.51857
87.0 0.01149 69.74250 92.86920
102.0 0.00980 69.75858 99.68065
113.0 0.00885 69.77457 107.72163
114.0 0.00877 69.79051 116.28791
148.0 0.00676 69.80645 124.00794
133.0 0.00752 69.82231 129.06017
128.0 0.00781 69.83811 130.69510
154.0 0.00649 69.85390 128.74797
137.0 0.00730 69.86964 125.18822
121.0 0.00826 69.88531 121.16751
125.0 0.00800 69.90094 116.34455
87.0 0.01149 69.91656 111.46402
98.0 0.01020 69.93212 105.54285
105.0 0.00952 69.94762 99.30669
92.0 0.01087 69.96306 93.47018
98.0 0.01020 69.97845 88.47328
75.0 0.01333 69.99384 84.22746
113.0 0.00885 70.00912 81.17716
66.0 0.01515 70.02439 78.95264
75.0 0.01333 70.03963 77.39223
80.0 0.01250 70.05477 76.33186
69.0 0.01449 70.06990 75.62929
78.0 0.01282 70.08499 78.96018
72.0 0.01389 70.10003 78.96775
54.0 0.01852 70.11496 79.13642
71.0 0.01408 70.12991 79.44617
128.0 0.00781 70.14480 79.89262
86.0 0.01163 70.15964 80.48405
104.0 0.00962 70.17438 83.17355
81.0 0.01235 70.18913 84.28716
96.0 0.01042 70.20380 85.69583
83.0 0.01205 70.21841 87.52062
121.0 0.00826 70.23301 89.95302
99.0 0.01010 70.24754 93.27219
99.0 0.01010 70.26199 97.84402
105.0 0.00952 70.27642 104.08564
125.0 0.00800 70.29081 112.39191
107.0 0.00935 70.30515 123.04262
128.0 0.00781 70.31942 136.11932
152.0 0.00658 70.33362 151.44437
182.0 0.00549 70.34778 168.59216
200.0 0.00500 70.36192 187.34888
223.0 0.00448 70.37597 209.42264
214.0 0.00467 70.38998 239.31406
277.0 0.00361 70.40395 282.91418
331.0 0.003021 70.41784 343.98407
380.0 0.002632 70.43170 421.16681
461.0 0.002169 70.44550 507.23669
565.0 0.001770 70.45927 586.20673
616.0 0.001623 70.47293 636.91718
640.0 0.001563 70.48659 644.21252
619.0 0.001616 70.50019 614.62317
557.0 0.001795 70.51373 569.21887
541.0 0.001848 70.52718 524.02307
508.0 0.001969 70.54061 482.08829
414.0 0.002415 70.55399 436.74393
390.0 0.002564 70.56728 382.34805
377.0 0.002653 70.58056 322.33557
277.0 0.00361 70.59377 264.57178
235.0 0.00426 70.60689 214.77592
178.0 0.00562 70.61999 175.40279
169.0 0.00592 70.63303 146.52557
137.0 0.00730 70.64603 126.69502
110.0 0.00909 70.65896 113.75359
102.0 0.00980 70.67182 105.55139
105.0 0.00952 70.68462 100.39006
99.0 0.01010 70.69740 97.16039
93.0 0.01075 70.71008 95.36887
110.0 0.00909 70.72273 94.68783
86.0 0.01163 70.73534 95.33978
92.0 0.01087 70.74783 97.67863
107.0 0.00935 70.76031 102.14423
113.0 0.00885 70.77274 109.07451
136.0 0.00735 70.78511 118.50801
146.0 0.00685 70.79738 129.75296
176.0 0.00568 70.80964 141.34454
155.0 0.00645 70.82184 150.71620
172.0 0.00581 70.83396 154.69771
160.0 0.00625 70.84601 153.30536
185.0 0.00541 70.85802 148.21848
139.0 0.00719 70.86997 142.10677
125.0 0.00800 70.88184 136.27637
139.0 0.00719 70.89369 125.66474
134.0 0.00746 70.90547 119.10045
137.0 0.00730 70.91715 111.30511
142.0 0.00704 70.92881 103.16190
107.0 0.00935 70.94042 95.67531
81.0 0.01235 70.95196 89.42184
92.0 0.01087 70.96343 84.58714
90.0 0.01111 70.97483 81.10288
80.0 0.01250 70.98618 78.74091
69.0 0.01449 70.99748 77.22922
92.0 0.01087 71.00869 76.31699
81.0 0.01235 71.01986 75.82529
87.0 0.01149 71.03099 75.65818
86.0 0.01163 71.04202 75.79519
86.0 0.01163 71.05299 76.26389
84.0 0.01190 71.06393 77.12167
89.0 0.01124 71.07481 78.41524
63.0 0.01587 71.08558 80.14513
75.0 0.01333 71.09632 82.22330
83.0 0.01205 71.10701 84.42159
93.0 0.01075 71.11763 86.32743
90.0 0.01111 71.12815 87.43350
92.0 0.01087 71.13866 87.48615
72.0 0.01389 71.14908 86.73242
84.0 0.01190 71.15942 85.64764
93.0 0.01075 71.16973 84.54119
96.0 0.01042 71.17998 83.43594
75.0 0.01333 71.19012 82.17883
54.0 0.01852 71.20024 80.68432
69.0 0.01449 71.21029 79.06691
74.0 0.01351 71.22028 77.16044
56.0 0.01786 71.23021 75.83378
96.0 0.01042 71.24004 74.76108
71.0 0.01408 71.24982 73.94441
59.0 0.01695 71.25957 73.35593
77.0 0.01299 71.26920 72.95319
66.0 0.01515 71.27881 72.51499
77.0 0.01299 71.28834 72.60855
63.0 0.01587 71.29778 72.54234
72.0 0.01389 71.30718 72.52673
39.0 0.02564 71.31652 72.54545
72.0 0.01389 71.32581 72.58333
81.0 0.01235 71.33498 72.62287
66.0 0.01515 71.34413 72.76911
84.0 0.01190 71.35322 72.77690
60.0 0.01667 71.36223 72.76751
72.0 0.01389 71.37113 72.75317
62.0 0.01613 71.38002 72.74287
93.0 0.01075 71.38882 72.73830
92.0 0.01087 71.39754 72.73647
78.0 0.01282 71.40623 72.73637
95.0 0.01053 71.41484 72.74184
81.0 0.01235 71.42336 72.75936
59.0 0.01695 71.43182 72.79470
45.0 0.02222 71.44024 72.85182
63.0 0.01587 71.44859 72.93355
69.0 0.01449 71.45687 73.04247
66.0 0.01515 71.46503 73.27554
72.0 0.01389 71.47317 73.46575
84.0 0.01190 71.48125 73.70168
68.0 0.01471 71.48923 73.99999
66.0 0.01515 71.49716 74.39040
57.0 0.01754 71.50504 74.87947
68.0 0.01471 71.51279 75.72731
59.0 0.01695 71.52052 76.83541
80.0 0.01250 71.52819 78.44544
87.0 0.01149 71.53578 81.19153
95.0 0.01053 71.54327 84.35622
93.0 0.01075 71.55074 88.46358
102.0 0.00980 71.55813 93.46438
121.0 0.00826 71.56544 99.07315
92.0 0.01087 71.57265 104.64594
116.0 0.00862 71.57983 109.35842
136.0 0.00735 71.58692 111.69419
122.0 0.00820 71.59393 111.59729
121.0 0.00826 71.60091 109.85932
92.0 0.01087 71.60780 107.54397
107.0 0.00935 71.61459 105.23235
101.0 0.00990 71.62135 102.87785
80.0 0.01250 71.62803 100.13599
119.0 0.00840 71.63465 96.88527
80.0 0.01250 71.64118 93.46343
86.0 0.01163 71.64763 90.36863
86.0 0.01163 71.65403 89.63571
74.0 0.01351 71.66036 88.32122
87.0 0.01149 71.66658 88.18366
101.0 0.00990 71.67278 89.37997
101.0 0.00990 71.67889 92.01062
98.0 0.01020 71.68491 97.42605
90.0 0.01111 71.69087 103.56783
113.0 0.00885 71.69678 109.67262
117.0 0.00855 71.70261 115.66288
102.0 0.00980 71.70834 120.45484
99.0 0.01010 71.71403 123.48635
116.0 0.00862 71.71965 126.21539
122.0 0.00820 71.72517 129.01097
133.0 0.00752 71.73061 133.99434
102.0 0.00980 71.73600 141.78822
140.0 0.00714 71.74133 152.03215
142.0 0.00704 71.74654 163.60538
163.0 0.00613 71.75173 174.86934
200.0 0.00500 71.75682 183.46678
184.0 0.00543 71.76183 186.84145
185.0 0.00541 71.76677 184.43228
161.0 0.00621 71.77167 178.56383
148.0 0.00676 71.77647 172.27089
148.0 0.00676 71.78121 167.25508
167.0 0.00599 71.78583 163.54980
170.0 0.00588 71.79042 160.07265
125.0 0.00800 71.79494 157.22821
176.0 0.00568 71.79935 156.26637
173.0 0.00578 71.80371 159.56541
190.0 0.00526 71.80801 169.35510
182.0 0.00549 71.81219 187.27628
235.0 0.00426 71.81632 213.80974
243.0 0.00412 71.82040 248.44724
288.0 0.003472 71.82439 288.20236
330.0 0.003030 71.82828 327.37073
375.0 0.002667 71.83213 357.46072
405.0 0.002469 71.83591 370.88953
410.0 0.002439 71.83960 367.26215
357.0 0.002801 71.84319 353.77405
369.0 0.002710 71.84673 338.52628
330.0 0.003030 71.85019 331.89297
318.0 0.003145 71.85354 321.70236
315.0 0.003175 71.85687 311.78751
306.0 0.003268 71.86012 302.19824
312.0 0.003205 71.86325 296.28821
321.0 0.003115 71.86633 297.82397
280.0 0.00357 71.86936 312.26611
315.0 0.003175 71.87230 332.98715
300.0 0.003333 71.87516 359.41754
339.0 0.002950 71.87791 384.87115
414.0 0.002415 71.88062 400.92416
354.0 0.002825 71.88325 402.21182
380.0 0.002632 71.88578 391.86444
399.0 0.002506 71.88826 374.34531
319.0 0.003135 71.89067 355.51599
313.0 0.003195 71.89295 337.77814
301.0 0.003322 71.89520 318.82050
294.0 0.003401 71.89738 296.51773
264.0 0.00379 71.89948 271.86151
250.0 0.00400 71.90147 246.73888
247.0 0.00405 71.90342 224.27936
215.0 0.00465 71.90529 206.68312
206.0 0.00485 71.90707 194.42285
172.0 0.00581 71.90874 187.72821
221.0 0.00452 71.91039 186.78912
197.0 0.00508 71.91193 192.22981
227.0 0.00441 71.91338 205.71768
271.0 0.00369 71.91478 230.62723
334.0 0.002994 71.91611 272.36539
349.0 0.002865 71.91732 337.90973
425.0 0.002353 71.91848 434.30945
544.0 0.001838 71.91957 564.47736
764.0 0.001309 71.92059 730.69592
851.0 0.001175 71.92152 920.89648
1062.0 0.000942 71.92234 1111.73071
1122.0 0.000891 71.92311 1265.08923
1365.0 0.000733 71.92382 1340.69568
1226.0 0.000816 71.92442 1327.80054
1270.0 0.000787 71.92495 1257.00183
1110.0 0.000901 71.92542 1170.50476
1083.0 0.000923 71.92577 1093.48962
987.0 0.001013 71.92607 1027.60339
908.0 0.001101 71.92629 958.33099
819.0 0.001221 71.92645 873.47382
729.0 0.001372 71.92648 777.28455
670.0 0.001493 71.92648 682.70142
587.0 0.001704 71.92639 597.83905
505.0 0.001980 71.92622 523.10187
437.0 0.002288 71.92593 456.16180
371.0 0.002695 71.92561 397.32956
354.0 0.002825 71.92520 348.95508
264.0 0.00379 71.92467 311.80072
280.0 0.00357 71.92413 283.75375
241.0 0.00415 71.92348 260.60699
224.0 0.00446 71.92272 238.19682
199.0 0.00503 71.92191 214.75328
182.0 0.00549 71.92104 189.76837
163.0 0.00613 71.92006 168.44865
142.0 0.00704 71.91903 150.16597
130.0 0.00769 71.91786 135.31221
140.0 0.00714 71.91666 123.79791
107.0 0.00935 71.91539 115.12199
102.0 0.00980 71.91399 108.02710
116.0 0.00862 71.91255 103.31393
98.0 0.01020 71.91103 99.75368
86.0 0.01163 71.90939 96.96906
96.0 0.01042 71.90771 94.82427
81.0 0.01235 71.90595 100.28424
80.0 0.01250 71.90410 99.09298
84.0 0.01190 71.90215 98.14967
110.0 0.00909 71.90015 97.42014
130.0 0.00769 71.89806 90.49348
102.0 0.00980 71.89589 90.53410
99.0 0.01010 71.89361 94.24969
98.0 0.01020 71.89130 94.72723
83.0 0.01205 71.88888 95.36810
107.0 0.00935 71.88634 97.69833
83.0 0.01205 71.88380 98.77000
84.0 0.01190 71.88114 97.00900
90.0 0.01111 71.87837 98.71140
92.0 0.01087 71.87556 100.69997
89.0 0.01124 71.87267 103.03661
80.0 0.01250 71.86971 105.79756
95.0 0.01053 71.86665 108.85881
108.0 0.00926 71.86348 112.82763
127.0 0.00787 71.86025 117.50067
137.0 0.00730 71.85696 122.97487
124.0 0.00806 71.85355 129.34764
131.0 0.00763 71.85010 136.73523
157.0 0.00637 71.84655 144.85486
166.0 0.00602 71.84289 155.27480
169.0 0.00592 71.83918 168.70761
212.0 0.00472 71.83540 187.38022
233.0 0.00429 71.83154 214.61444
271.0 0.00369 71.82755 254.79025
268.0 0.00373 71.82352 313.03128
366.0 0.002732 71.81941 394.39307
461.0 0.002169 71.81522 502.49979
587.0 0.001704 71.81091 637.69763
678.0 0.001475 71.80656 794.73297
910.0 0.001099 71.80211 959.77527
981.0 0.001019 71.79756 1107.64636
1249.0 0.000801 71.79296 1205.52966
1253.0 0.000798 71.78829 1231.61792
1219.0 0.000820 71.78348 1194.59607
1188.0 0.000842 71.77863 1125.12598
961.0 0.001041 71.77370 1050.64307
961.0 0.001041 71.76870 981.94922
869.0 0.001151 71.76360 913.64691
821.0 0.001218 71.75839 833.58588
679.0 0.001473 71.75314 737.34686
609.0 0.001642 71.74780 633.53198
514.0 0.001946 71.74236 535.25525
438.0 0.002283 71.73684 452.17340
389.0 0.002571 71.73126 389.31848
331.0 0.003021 71.72556 348.43161
301.0 0.003322 71.71981 328.98938
310.0 0.003226 71.71398 328.76462
325.0 0.003077 71.70806 344.70682
343.0 0.002915 71.70205 370.63602
411.0 0.002433 71.69596 400.13821
462.0 0.002165 71.68980 424.31631
401.0 0.002494 71.68356 434.84811
447.0 0.002237 71.67720 428.99841
414.0 0.002415 71.67080 411.57004
401.0 0.002494 71.66431 389.17438
336.0 0.002976 71.65771 366.99335
349.0 0.002865 71.65106 345.66449
310.0 0.003226 71.64432 322.88831
285.0 0.00351 71.63747 296.30618
270.0 0.00370 71.63056 266.26392
214.0 0.00467 71.62358 235.48721
173.0 0.00578 71.61652 206.76033
175.0 0.00571 71.60938 181.80231
155.0 0.00645 71.60211 161.17006
130.0 0.00769 71.59480 144.79080
125.0 0.00800 71.58742 132.22223
102.0 0.00980 71.57990 122.72269
127.0 0.00787 71.57235 108.67340
108.0 0.00926 71.56470 104.08436
111.0 0.00901 71.55695 100.87125
92.0 0.01087 71.54914 98.69949
102.0 0.00980 71.54124 97.39532
101.0 0.00990 71.53327 96.88650
121.0 0.00826 71.52520 93.77248
116.0 0.00862 71.51707 95.81837
92.0 0.01087 71.50885 99.55487
104.0 0.00962 71.50055 105.42219
111.0 0.00901 71.49213 113.74799
119.0 0.00840 71.48367 124.56401
143.0 0.00699 71.47512 137.39871
179.0 0.00559 71.46645 151.03468
172.0 0.00581 71.45775 163.27974
149.0 0.00671 71.44895 171.25443
167.0 0.00599 71.44003 172.99057
184.0 0.00543 71.43108 169.20647
188.0 0.00532 71.42204 162.61746
136.0 0.00735 71.41293 155.71028
194.0 0.00515 71.40369 149.54929
161.0 0.00621 71.39439 143.74455
142.0 0.00704 71.38501 137.12541
139.0 0.00719 71.37557 128.99503
140.0 0.00714 71.36599 119.84454
95.0 0.01053 71.35638 110.73972
87.0 0.01149 71.34668 102.52399
101.0 0.00990 71.33686 95.62754
81.0 0.01235 71.32700 90.16737
77.0 0.01299 71.31705 84.49827
81.0 0.01235 71.30702 81.58466
75.0 0.01333 71.29688 79.53899
77.0 0.01299 71.28668 78.11077
93.0 0.01075 71.27641 77.09673
77.0 0.01299 71.26604 76.34866
68.0 0.01471 71.25558 75.77119
65.0 0.01538 71.24506 75.26826
69.0 0.01449 71.23445 74.95369
69.0 0.01449 71.22372 74.69764
69.0 0.01449 71.21297 74.48794
80.0 0.01250 71.20210 74.31699
89.0 0.01124 71.19115 74.17847
92.0 0.01087 71.18013 74.06891
98.0 0.01020 71.16904 74.35003
81.0 0.01235 71.15785 74.31185
74.0 0.01351 71.14659 74.29846
75.0 0.01333 71.13521 74.30936
101.0 0.00990 71.12378 74.34489
78.0 0.01282 71.11228 74.40594
83.0 0.01205 71.10065 74.49400
87.0 0.01149 71.08899 74.61151
81.0 0.01235 71.07725 74.19964
72.0 0.01389 71.06537 74.47410
60.0 0.01667 71.05345 74.73384
77.0 0.01299 71.04145 75.04176
83.0 0.01205 71.02937 75.40825
87.0 0.01149 71.01718 75.84803
84.0 0.01190 71.00494 76.09431
62.0 0.01613 70.99261 76.77847
83.0 0.01205 70.98021 77.68776
60.0 0.01667 70.96769 78.87848
113.0 0.00885 70.95512 80.56949
90.0 0.01111 70.94246 83.06331
95.0 0.01053 70.92970 86.79552
105.0 0.00952 70.91689 92.32013
89.0 0.01124 70.90400 100.23142
93.0 0.01075 70.89098 111.01113
133.0 0.00752 70.87793 124.81558
160.0 0.00625 70.86478 141.23076
175.0 0.00571 70.85156 159.19330
167.0 0.00599 70.83826 175.91167
199.0 0.00503 70.82484 188.12759
193.0 0.00518 70.81139 192.86620
184.0 0.00543 70.79785 190.06889
181.0 0.00552 70.78419 182.70671
172.0 0.00581 70.77048 174.21745
158.0 0.00633 70.75669 166.65739
142.0 0.00704 70.74277 159.93312
155.0 0.00645 70.72884 155.96724
119.0 0.00840 70.71481 147.37398
157.0 0.00637 70.70070 137.02475
114.0 0.00877 70.68649 126.06158
122.0 0.00820 70.67222 115.73764
105.0 0.00952 70.65785 106.84044
108.0 0.00926 70.64342 99.70795
98.0 0.01020 70.62889 95.92390
101.0 0.00990 70.61426 92.28912
110.0 0.00909 70.59959 90.00186
93.0 0.01075 70.58481 88.77054
101.0 0.00990 70.56998 88.34994
98.0 0.01020 70.55505 88.56787
104.0 0.00962 70.54005 89.32280
90.0 0.01111 70.52497 90.56287
95.0 0.01053 70.50980 92.25890
87.0 0.01149 70.49457 94.37698
111.0 0.00901 70.47925 96.85077
110.0 0.00909 70.46384 99.55382
122.0 0.00820 70.44836 102.29562
83.0 0.01205 70.43281 104.90364
130.0 0.00769 70.41714 107.39906
140.0 0.00714 70.40142 111.07101
130.0 0.00769 70.38560 114.61613
125.0 0.00800 70.36971 119.67830
119.0 0.00840 70.35375 127.18648
133.0 0.00752 70.33772 138.37608
142.0 0.00704 70.32161 154.88838
185.0 0.00541 70.30539 178.74005
252.0 0.00397 70.28911 211.78026
233.0 0.00429 70.27276 256.11688
292.0 0.003425 70.25633 311.66611
404.0 0.002475 70.23980 376.47012
456.0 0.002193 70.22318 446.28296
508.0 0.001969 70.20651 509.84909
548.0 0.001825 70.18974 555.26343
577.0 0.001733 70.17292 572.14410
583.0 0.001715 70.15601 561.90692
604.0 0.001656 70.13901 534.83936
565.0 0.001770 70.12196 502.99109
449.0 0.002227 70.10481 474.07205
447.0 0.002237 70.08759 447.36948
386.0 0.002591 70.07030 419.19366
340.0 0.002941 70.05290 384.87320
368.0 0.002717 70.03545 344.08990
301.0 0.003322 70.01791 300.80441
264.0 0.00379 70.00028 259.74509
252.0 0.00397 69.98260 224.33514
185.0 0.00541 69.96480 196.17448
200.0 0.00500 69.94694 176.05327
155.0 0.00645 69.92902 163.99922
184.0 0.00543 69.91101 159.63321
166.0 0.00602 69.89294 162.31865
184.0 0.00543 69.87476 171.18784
173.0 0.00578 69.85652 185.04150
196.0 0.00510 69.83822 211.66406
215.0 0.00465 69.81984 229.85214
220.0 0.00455 69.80135 247.24284
241.0 0.00415 69.78278 255.94975
274.0 0.00365 69.76414 257.27078
249.0 0.00402 69.74545 254.03960
224.0 0.00446 69.72666 250.62082
253.0 0.00395 69.70782 255.13162
240.0 0.00417 69.68887 259.72678
227.0 0.00441 69.66987 269.44327
276.0 0.00362 69.65079 280.30676
285.0 0.00351 69.63163 291.55591
307.0 0.003257 69.61240 301.99646
303.0 0.003300 69.59307 309.65170
306.0 0.003268 69.57368 311.95059
289.0 0.003460 69.55422 309.32892
315.0 0.003175 69.53467 301.43814
300.0 0.003333 69.51505 293.50375
307.0 0.003257 69.49533 288.39990
253.0 0.00395 69.47556 286.71869
303.0 0.003300 69.45572 294.19983
325.0 0.003077 69.43579 294.62506
300.0 0.003333 69.41580 294.65292
325.0 0.003077 69.39572 294.89447
322.0 0.003106 69.37558 300.30951
315.0 0.003175 69.35537 320.58505
366.0 0.002732 69.33507 350.31049
389.0 0.002571 69.31468 403.83841
554.0 0.001805 69.29420 480.84079
637.0 0.001570 69.27370 590.53229
639.0 0.001565 69.25307 737.36884
890.0 0.001124 69.23241 922.07458
1035.0 0.000966 69.21166 1140.75916
1283.0 0.000779 69.19083 1371.21106
1532.0 0.000653 69.16994 1583.22461
1790.0 0.000559 69.14897 1742.72241
1872.0 0.000534 69.12793 1819.14124
1845.0 0.000542 69.10683 1812.78064
1765.0 0.000567 69.08562 1746.13501
1604.0 0.000623 69.06436 1651.99817
1535.0 0.000651 69.04301 1554.39258
1449.0 0.000690 69.02160 1463.23303
1333.0 0.000750 69.00012 1372.74316
1350.0 0.000741 68.97852 1272.42419
1124.0 0.000890 68.95689 1159.84460
1085.0 0.000922 68.93518 1040.90576
1024.0 0.000977 68.91340 926.88959
865.0 0.001156 68.89156 827.33575
758.0 0.001319 68.86962 748.59821
673.0 0.001486 68.84761 691.76752
636.0 0.001572 68.82556 653.05859
625.0 0.001600 68.80342 631.45056
666.0 0.001502 68.78117 627.11859
663.0 0.001508 68.75887 645.69391
774.0 0.001292 68.73651 694.13275
747.0 0.001339 68.71406 777.82916
904.0 0.001106 68.69157 898.70239
1021.0 0.000979 68.66900 1054.24805
1216.0 0.000822 68.64634 1237.31372
1448.0 0.000691 68.62361 1433.11121
1570.0 0.000637 68.60083 1621.20605
1684.0 0.000594 68.57797 1782.85901
1799.0 0.000556 68.55504 1913.90430
2006.0 0.000499 68.53202 2022.19958
2015.0 0.000496 68.50896 2109.22974
1978.0 0.000506 68.48581 2159.76221
2050.0 0.000488 68.46257 2153.63403
2061.0 0.000485 68.43929 2084.55518
1884.0 0.000531 68.41591 1964.98132
1735.0 0.000576 68.39246 1817.22144
1598.0 0.000626 68.36896 1662.50378
1431.0 0.000699 68.34540 1504.80627
1286.0 0.000778 68.32175 1357.81030
1131.0 0.000884 68.29803 1204.77917
1094.0 0.000914 68.27425 1049.15271
940.0 0.001064 68.25040 895.82019
741.0 0.001350 68.22649 754.08240
590.0 0.001695 68.20248 629.60382
563.0 0.001776 68.17840 520.52069
372.0 0.002688 68.15429 433.98346
381.0 0.002625 68.13006 363.60580
330.0 0.003030 68.10580 309.66702
270.0 0.00370 68.08148 268.48349
261.0 0.00383 68.05705 237.37320
208.0 0.00481 68.03259 213.82010
224.0 0.00446 68.00806 195.68277
196.0 0.00510 67.98344 179.96127
173.0 0.00578 67.95876 168.38931
145.0 0.00690 67.93401 158.82684
149.0 0.00671 67.90919 150.84969
137.0 0.00730 67.88431 144.15181
140.0 0.00714 67.85935 138.51682
108.0 0.00926 67.83434 133.78175
121.0 0.00826 67.80923 129.81888
143.0 0.00699 67.78405 126.52582
124.0 0.00806 67.75886 123.82124
108.0 0.00926 67.73356 121.64338
108.0 0.00926 67.70822 119.94970
127.0 0.00787 67.68279 118.71656
117.0 0.00855 67.65729 117.94035
116.0 0.00862 67.63173 117.64127
145.0 0.00690 67.60614 117.87262
111.0 0.00901 67.58044 120.04510
151.0 0.00662 67.55464 121.79834
151.0 0.00662 67.52884 124.71280
140.0 0.00714 67.50294 129.32565
151.0 0.00662 67.47700 136.45236
157.0 0.00637 67.45098 147.23395
166.0 0.00602 67.42490 163.10724
209.0 0.00478 67.39875 185.65421
191.0 0.00524 67.37254 216.96950
273.0 0.00366 67.34627 249.15767
289.0 0.003460 67.31995 297.73065
318.0 0.003145 67.29352 352.90115
404.0 0.002475 67.26705 410.08435
411.0 0.002433 67.24051 458.69455
446.0 0.002242 67.21391 494.15240
526.0 0.001901 67.18726 506.14496
485.0 0.002062 67.16049 492.18356
465.0 0.002151 67.13369 468.41702
441.0 0.002268 67.10685 441.40430
417.0 0.002398 67.07993 416.39417
386.0 0.002591 67.05295 393.39838
342.0 0.002924 67.02589 372.12323
363.0 0.002755 66.99879 346.69327
298.0 0.003356 66.97162 315.16818
288.0 0.003472 66.94440 279.63309
232.0 0.00431 66.91708 243.94815
220.0 0.00455 66.88969 211.44029
196.0 0.00510 66.86228 183.45061
146.0 0.00685 66.83479 160.80515
137.0 0.00730 66.80724 143.36169
140.0 0.00714 66.77964 130.71992
130.0 0.00769 66.75196 122.30157
133.0 0.00752 66.72424 116.91306
122.0 0.00820 66.69645 114.16944
124.0 0.00806 66.66860 113.73405
136.0 0.00735 66.64070 115.58898
136.0 0.00735 66.61271 120.04189
172.0 0.00581 66.58467 127.68307
172.0 0.00581 66.55658 139.28345
170.0 0.00588 66.52843 155.74011
206.0 0.00485 66.50021 177.38087
229.0 0.00437 66.47189 204.35732
238.0 0.00420 66.44355 235.86240
262.0 0.00382 66.41516 269.81183
360.0 0.002778 66.38670 302.34915
389.0 0.002571 66.35818 327.87567
362.0 0.002762 66.32961 340.95337
377.0 0.002653 66.30096 339.93719
357.0 0.002801 66.27228 328.44525
339.0 0.002950 66.24354 312.47461
312.0 0.003205 66.21471 296.75073
268.0 0.00373 66.18581 283.23291
267.0 0.00375 66.15689 271.21457
271.0 0.00369 66.12789 258.36288
202.0 0.00495 66.09885 242.76802
255.0 0.00392 66.06976 224.74332
220.0 0.00455 66.04059 206.49335
200.0 0.00500 66.01138 191.66687
182.0 0.00549 65.98210 179.54482
173.0 0.00578 65.95277 172.07167
200.0 0.00500 65.92339 167.27942
181.0 0.00552 65.89394 168.60574
136.0 0.00735 65.86444 172.58694
175.0 0.00571 65.83488 177.25391
172.0 0.00581 65.80525 180.59641
167.0 0.00599 65.77559 182.03630
185.0 0.00541 65.74583 180.37888
157.0 0.00637 65.71603 175.44554
154.0 0.00649 65.68621 170.08955
161.0 0.00621 65.65632 164.00618
142.0 0.00704 65.62637 157.70007
122.0 0.00820 65.59636 151.48592
149.0 0.00671 65.56630 144.55856
136.0 0.00735 65.53618 137.22922
139.0 0.00719 65.50602 129.53957
116.0 0.00862 65.47578 121.75206
98.0 0.01020 65.44547 114.16373
130.0 0.00769 65.41515 107.15975
98.0 0.01020 65.38475 101.06191
81.0 0.01235 65.35431 96.18516
110.0 0.00909 65.32381 92.24470
95.0 0.01053 65.29326 89.30878
81.0 0.01235 65.26268 87.24820
84.0 0.01190 65.23202 85.91724
72.0 0.01389 65.20131 85.17927
69.0 0.01449 65.17057 84.92495
75.0 0.01333 65.13974 85.08263
80.0 0.01250 65.10889 85.62482
98.0 0.01020 65.07797 86.57362
102.0 0.00980 65.04698 88.00977
102.0 0.00980 65.01598 90.08710
101.0 0.00990 64.98488 91.70497
113.0 0.00885 64.95374 95.96363
98.0 0.01020 64.92258 101.91999
108.0 0.00926 64.89135 110.12608
121.0 0.00826 64.86008 121.16456
142.0 0.00704 64.82874 135.65240
194.0 0.00515 64.79737 153.70035
203.0 0.00493 64.76595 175.34895
194.0 0.00515 64.73447 199.54637
224.0 0.00446 64.70293 225.62311
249.0 0.00402 64.67133 250.39795
319.0 0.003135 64.63971 270.06262
270.0 0.00370 64.60803 281.12222
312.0 0.003205 64.57630 282.75940
291.0 0.003436 64.54453 277.44003
283.0 0.00353 64.51270 269.35675
255.0 0.00392 64.48083 261.96588
259.0 0.00386 64.44891 256.44766
233.0 0.00429 64.41694 251.98631
229.0 0.00437 64.38494 247.49654
232.0 0.00431 64.35285 240.63235
255.0 0.00392 64.32076 230.88774
208.0 0.00481 64.28859 219.37920
193.0 0.00518 64.25638 207.66454
179.0 0.00559 64.22414 196.59380
169.0 0.00592 64.19180 186.08749
172.0 0.00581 64.15944 175.29077
161.0 0.00621 64.12706 164.83969
158.0 0.00633 64.09461 154.63702
151.0 0.00662 64.06213 145.18593
122.0 0.00820 64.02959 136.86714
128.0 0.00781 63.99701 129.74788
95.0 0.01053 63.96438 123.53360
101.0 0.00990 63.93172 117.72910
116.0 0.00862 63.89900 111.96670
96.0 0.01042 63.86621 106.23566
87.0 0.01149 63.83341 100.79124
74.0 0.01351 63.80056 95.91373
86.0 0.01163 63.76766 91.78102
89.0 0.01124 63.73473 88.47340
104.0 0.00962 63.70173 86.45695
83.0 0.01205 63.66872 84.89930
90.0 0.01111 63.63564 84.24501
101.0 0.00990 63.60254 84.55552
86.0 0.01163 63.56939 85.92935
89.0 0.01124 63.53617 88.49313
105.0 0.00952 63.50294 92.37206
102.0 0.00980 63.46966 97.68124
127.0 0.00787 63.43631 104.48894
107.0 0.00935 63.40295 112.11700
133.0 0.00752 63.36951 120.18023
121.0 0.00826 63.33605 127.80405
127.0 0.00787 63.30257 133.96707
142.0 0.00704 63.26903 137.68498
160.0 0.00625 63.23545 138.34674
136.0 0.00735 63.20183 136.21954
131.0 0.00763 63.16817 132.34274
95.0 0.01053 63.13447 126.70898
131.0 0.00763 63.10074 122.61984
146.0 0.00685 63.06694 118.93901
128.0 0.00781 63.03310 115.42313
128.0 0.00781 62.99923 111.63658
116.0 0.00862 62.96533 107.26097
87.0 0.01149 62.93139 102.40371
89.0 0.01124 62.89742 97.57048
117.0 0.00855 62.86340 93.01446
95.0 0.01053 62.82934 89.91154
87.0 0.01149 62.79525 88.55988
96.0 0.01042 62.76110 89.23853
78.0 0.01282 62.72696 92.27101
92.0 0.01087 62.69274 97.82315
96.0 0.01042 62.65849 105.48416
107.0 0.00935 62.62420 115.36037
116.0 0.00862 62.58987 126.16308
133.0 0.00752 62.55552 136.09134
131.0 0.00763 62.52109 143.03706
128.0 0.00781 62.48665 145.23790
125.0 0.00800 62.45219 142.67474
93.0 0.01075 62.41769 137.15439
104.0 0.00962 62.38314 130.77473
111.0 0.00901 62.34856 125.38970
119.0 0.00840 62.31395 121.39516
99.0 0.01010 62.27930 118.39995
108.0 0.00926 62.24463 115.35777
113.0 0.00885 62.20989 111.27132
90.0 0.01111 62.17511 105.96362
102.0 0.00980 62.14033 100.06254
78.0 0.01282 62.10550 94.37710
108.0 0.00926 62.07064 89.49111
87.0 0.01149 62.03576 85.69012
89.0 0.01124 62.00082 82.98966
62.0 0.01613 61.96589 81.17859
81.0 0.01235 61.93089 79.90363
77.0 0.01299 61.89584 78.82656
83.0 0.01205 61.86081 78.81678
71.0 0.01408 61.82571 77.89532
72.0 0.01389 61.79060 80.26555
75.0 0.01333 61.75544 79.82111
87.0 0.01149 61.72025 79.79877
77.0 0.01299 61.68504 79.83799
74.0 0.01351 61.64975 80.41547
93.0 0.01075 61.61445 81.28323
87.0 0.01149 61.57916 83.05659
87.0 0.01149 61.54380 84.89645
87.0 0.01149 61.50843 88.95199
78.0 0.01282 61.47303 92.37637
90.0 0.01111 61.43760 96.71656
87.0 0.01149 61.40212 101.44214
86.0 0.01163 61.36664 106.57194
92.0 0.01087 61.33111 111.39037
102.0 0.00980 61.29552 115.14852
145.0 0.00690 61.25995 116.81237
122.0 0.00820 61.22432 117.25115
122.0 0.00820 61.18868 116.56162
124.0 0.00806 61.15302 115.58873
98.0 0.01020 61.11732 114.82523
111.0 0.00901 61.08160 114.65083
125.0 0.00800 61.04584 115.12309
95.0 0.01053 61.01005 116.18452
113.0 0.00885 60.97425 117.92260
131.0 0.00763 60.93842 120.82965
110.0 0.00909 60.90255 125.82552
124.0 0.00806 60.86666 134.01277
145.0 0.00690 60.83075 146.35872
143.0 0.00699 60.79480 163.41188
181.0 0.00552 60.75880 185.04518
212.0 0.00472 60.72281 210.23396
208.0 0.00481 60.68679 236.74805
262.0 0.00382 60.65075 261.17609
267.0 0.00375 60.61467 279.60010
298.0 0.003356 60.57857 290.15732
294.0 0.003401 60.54245 294.82571
307.0 0.003257 60.50630 299.37421
298.0 0.003356 60.47013 309.77487
303.0 0.003300 60.43393 330.36874
348.0 0.002874 60.39768 363.17361
399.0 0.002506 60.36146 407.76578
455.0 0.002198 60.32519 461.20959
473.0 0.002114 60.28890 519.21387
559.0 0.001789 60.25259 576.81702
639.0 0.001565 60.21625 627.03625
658.0 0.001520 60.17990 660.66077
676.0 0.001479 60.14352 669.77252
687.0 0.001456 60.10710 654.28632
604.0 0.001656 60.07069 621.52856
566.0 0.001767 60.03426 583.18610
511.0 0.001957 59.99780 547.83215
447.0 0.002237 59.96130 519.07654
474.0 0.002110 59.92480 495.59076
450.0 0.002222 59.88827 472.49512
420.0 0.002381 59.85170 444.45334
456.0 0.002193 59.81512 408.41672
359.0 0.002786 59.77854 366.49857
304.0 0.003289 59.74193 322.17722
328.0 0.003049 59.70529 281.65527
255.0 0.00392 59.66865 243.41306
206.0 0.00485 59.63197 210.69258
175.0 0.00571 59.59528 184.54532
134.0 0.00746 59.55859 164.15608
136.0 0.00735 59.52186 148.51126
114.0 0.00877 59.48510 136.57167
140.0 0.00714 59.44835 127.30381
98.0 0.01020 59.41156 121.08887
102.0 0.00980 59.37476 115.48782
104.0 0.00962 59.33796 111.23167
111.0 0.00901 59.30111 107.56901
95.0 0.01053 59.26428 106.28968
96.0 0.01042 59.22742 106.41099
83.0 0.01205 59.19054 107.96449
108.0 0.00926 59.15365 110.97265
96.0 0.01042 59.11674 115.42242
142.0 0.00704 59.07982 121.24419
102.0 0.00980 59.04287 128.33063
116.0 0.00862 59.00591 136.58833
133.0 0.00752 58.96895 145.89584
146.0 0.00685 58.93193 155.94868
155.0 0.00645 58.89492 166.19043
152.0 0.00658 58.85792 175.83556
158.0 0.00633 58.82088 183.83578
172.0 0.00581 58.78383 189.09290
154.0 0.00649 58.74678 191.25130
143.0 0.00699 58.70971 191.22131
142.0 0.00704 58.67262 190.52390
160.0 0.00625 58.63553 190.23900
152.0 0.00658 58.59842 190.57372
173.0 0.00578 58.56127 191.08243
187.0 0.00535 58.52415 191.23181
200.0 0.00500 58.48699 187.53101
157.0 0.00637 58.44983 187.64684
197.0 0.00508 58.41267 189.67259
208.0 0.00481 58.37549 194.22784
194.0 0.00515 58.33830 202.64984
200.0 0.00500 58.30110 215.29863
206.0 0.00485 58.26388 232.17999
247.0 0.00405 58.22667 253.29309
274.0 0.00365 58.18943 276.99365
294.0 0.003401 58.15220 306.48529
351.0 0.002849 58.11495 336.85736
356.0 0.002809 58.07768 364.35556
379.0 0.002639 58.04042 384.24945
426.0 0.002347 58.00311 392.07074
401.0 0.002494 57.96582 387.04150
385.0 0.002597 57.92852 372.72229
372.0 0.002688 57.89121 353.88107
352.0 0.002841 57.85390 335.31085
305.0 0.003279 57.81660 318.43433
285.0 0.00351 57.77926 303.37201
277.0 0.00361 57.74192 288.45728
252.0 0.00397 57.70458 271.39587
287.0 0.003484 57.66723 251.10760
251.0 0.00398 57.62984 228.46730
202.0 0.00495 57.59249 205.15790
168.0 0.00595 57.55512 183.10016
134.0 0.00746 57.51775 163.51823
135.0 0.00741 57.48037 147.06627
125.0 0.00800 57.44299 134.02348
120.0 0.00833 57.40561 124.44538
114.0 0.00877 57.36821 118.22713
111.0 0.00901 57.33080 115.22131
103.0 0.00971 57.29340 115.12986
106.0 0.00943 57.25600 117.58157
125.0 0.00800 57.21860 121.92828
121.0 0.00826 57.18117 127.78748
145.0 0.00690 57.14374 134.08734
124.0 0.00806 57.10634 139.73866
163.0 0.00613 57.06888 143.89064
129.0 0.00775 57.03144 146.65143
143.0 0.00699 56.99402 148.84055
129.0 0.00775 56.95659 151.40767
157.0 0.00637 56.91914 154.10220
164.0 0.00610 56.88172 157.80701
145.0 0.00690 56.84427 160.78687
153.0 0.00654 56.80683 161.90282
168.0 0.00595 56.76939 160.84366
161.0 0.00621 56.73195 158.51106
157.0 0.00637 56.69448 156.50113
161.0 0.00621 56.65705 156.26610
177.0 0.00565 56.61960 158.57353
181.0 0.00552 56.58216 163.31960
161.0 0.00621 56.54472 169.52336
191.0 0.00524 56.50727 175.54936
189.0 0.00529 56.46984 179.53560
170.0 0.00588 56.43240 180.40535
193.0 0.00518 56.39496 178.39487
170.0 0.00588 56.35752 175.02235
183.0 0.00546 56.32009 168.98221
167.0 0.00599 56.28266 165.74818
183.0 0.00546 56.24522 162.60396
180.0 0.00556 56.20779 158.74672
174.0 0.00575 56.17037 153.52034
179.0 0.00559 56.13292 146.69891
154.0 0.00649 56.09550 138.80026
139.0 0.00719 56.05810 130.24887
140.0 0.00714 56.02067 120.96174
105.0 0.00952 55.98326 113.47846
107.0 0.00935 55.94587 106.69821
122.0 0.00820 55.90846 100.34573
87.0 0.01149 55.87106 94.22772
93.0 0.01075 55.83368 88.41241
94.0 0.01064 55.79628 83.11163
83.0 0.01205 55.75888 78.18081
72.0 0.01389 55.72152 74.44067
79.0 0.01266 55.68414 71.33511
88.0 0.01136 55.64677 68.89420
58.0 0.01724 55.60941 67.02368
60.0 0.01667 55.57206 65.61771
70.0 0.01429 55.53472 64.57466
67.0 0.01493 55.49739 63.45750
70.0 0.01429 55.46006 62.92366
59.0 0.01695 55.42274 62.60475
50.0 0.02000 55.38542 62.37888
58.0 0.01724 55.34812 62.26840
72.0 0.01389 55.31082 62.27208
63.0 0.01587 55.27352 62.39730
66.0 0.01515 55.23626 62.75930
71.0 0.01408 55.19895 63.22591
73.0 0.01370 55.16168 63.96006
81.0 0.01235 55.12444 65.07000
64.0 0.01563 55.08719 66.69920
80.0 0.01250 55.04995 69.01199
72.0 0.01389 55.01273 72.18781
81.0 0.01235 54.97551 76.38539
81.0 0.01235 54.93831 81.74744
91.0 0.01099 54.90112 88.16460
106.0 0.00943 54.86393 95.46288
123.0 0.00813 54.82673 103.65801
111.0 0.00901 54.78958 111.04214
115.0 0.00870 54.75243 116.80708
136.0 0.00735 54.71529 121.18215
127.0 0.00787 54.67817 123.40902
121.0 0.00826 54.64106 123.59682
116.0 0.00862 54.60397 122.27380
127.0 0.00787 54.56688 120.27680
104.0 0.00962 54.52980 118.05785
119.0 0.00840 54.49275 116.71775
101.0 0.00990 54.45570 115.21864
129.0 0.00775 54.41868 114.30747
122.0 0.00820 54.38166 111.41880
107.0 0.00935 54.34465 107.36294
112.0 0.00893 54.30767 102.35865
101.0 0.00990 54.27066 96.91547
88.0 0.01136 54.23370 91.50676
70.0 0.01429 54.19678 86.90002
64.0 0.01563 54.15984 82.92034
75.0 0.01333 54.12292 79.66165
72.0 0.01389 54.08603 77.59360
63.0 0.01587 54.04914 75.35292
85.0 0.01176 54.01228 73.49094
70.0 0.01429 53.97543 72.04559
74.0 0.01351 53.93861 71.07768
56.0 0.01786 53.90176 70.64049
73.0 0.01370 53.86497 70.83835
72.0 0.01389 53.82821 71.57693
76.0 0.01316 53.79142 73.04018
82.0 0.01220 53.75470 74.96696
69.0 0.01449 53.71797 77.40259
75.0 0.01333 53.68127 80.23046
94.0 0.01064 53.64458 83.27756
92.0 0.01087 53.60791 86.32143
90.0 0.01111 53.57125 89.17196
90.0 0.01111 53.53464 91.86108
120.0 0.00833 53.49803 94.76500
96.0 0.01042 53.46143 98.56648
113.0 0.00885 53.42487 103.77226
127.0 0.00787 53.38832 110.88226
127.0 0.00787 53.35177 120.05888
140.0 0.00714 53.31527 131.11952
183.0 0.00546 53.27877 143.50430
159.0 0.00629 53.24231 156.17506
185.0 0.00541 53.20586 167.81075
186.0 0.00538 53.16946 177.03642
214.0 0.00467 53.13304 183.19579
196.0 0.00510 53.09667 187.10472
233.0 0.00429 53.06031 191.01685
244.0 0.00410 53.02399 197.75304
215.0 0.00465 52.98764 208.30150
223.0 0.00448 52.95137 224.22740
226.0 0.00442 52.91510 244.97910
281.0 0.00356 52.87887 268.92795
293.0 0.003413 52.84266 292.93832
344.0 0.002907 52.80647 313.17383
309.0 0.003236 52.77031 325.94351
323.0 0.003096 52.73416 328.27136
321.0 0.003115 52.69804 320.77118
298.0 0.003356 52.66195 306.23141
261.0 0.00383 52.62589 289.69626
233.0 0.00429 52.58986 274.21182
254.0 0.00394 52.55383 261.12598
239.0 0.00418 52.51783 250.29376
208.0 0.00481 52.48189 240.41972
237.0 0.00422 52.44592 229.69981
194.0 0.00515 52.41002 216.54445
220.0 0.00455 52.37414 201.14281
186.0 0.00538 52.33828 184.75328
180.0 0.00556 52.30243 168.84607
157.0 0.00637 52.26665 154.38640
113.0 0.00885 52.23087 141.73198
132.0 0.00758 52.19511 130.84032
129.0 0.00775 52.15941 121.48940
91.0 0.01099 52.12372 113.48907
95.0 0.01053 52.08803 106.49235
116.0 0.00862 52.05242 100.49440
99.0 0.01010 52.01682 95.52068
86.0 0.01163 51.98123 91.58298
95.0 0.01053 51.94569 88.64162
81.0 0.01235 51.91019 86.50701
83.0 0.01205 51.87471 85.21296
90.0 0.01111 51.83926 84.50529
93.0 0.01075 51.80382 84.27264
91.0 0.01099 51.76844 84.52063
81.0 0.01235 51.73308 85.38799
90.0 0.01111 51.69776 87.07138
95.0 0.01053 51.66245 89.76586
85.0 0.01176 51.62719 93.58945
81.0 0.01235 51.59196 98.74711
92.0 0.01087 51.55675 105.19730
108.0 0.00926 51.52156 112.25856
121.0 0.00826 51.48643 120.45445
139.0 0.00719 51.45133 128.45190
137.0 0.00730 51.41626 135.23041
143.0 0.00699 51.38123 140.03731
131.0 0.00763 51.34621 142.75067
138.0 0.00725 51.31123 143.83987
136.0 0.00735 51.27631 143.89932
131.0 0.00763 51.24141 143.34561
144.0 0.00694 51.20652 142.12288
139.0 0.00719 51.17169 141.09262
147.0 0.00680 51.13689 137.78107
134.0 0.00746 51.10213 135.01837
128.0 0.00781 51.06739 131.64526
135.0 0.00741 51.03271 128.01025
129.0 0.00775 50.99806 124.45489
120.0 0.00833 50.96343 121.13593
105.0 0.00952 50.92884 117.81155
116.0 0.00862 50.89429 114.44488
127.0 0.00787 50.85979 110.75754
110.0 0.00909 50.82532 105.55717
105.0 0.00952 50.79087 100.45057
115.0 0.00870 50.75646 95.22520
82.0 0.01220 50.72212 90.33472
76.0 0.01316 50.68776 86.06419
80.0 0.01250 50.65348 82.50916
81.0 0.01235 50.61926 79.52706
70.0 0.01429 50.58501 77.05286
73.0 0.01370 50.55084 74.78783
73.0 0.01370 50.51672 72.43694
90.0 0.01111 50.48262 71.82954
85.0 0.01176 50.44854 69.69321
74.0 0.01351 50.41455 67.69695
74.0 0.01351 50.38056 65.92002
65.0 0.01538 50.34660 64.40723
66.0 0.01515 50.31273 63.17520
49.0 0.02041 50.27886 62.22158
58.0 0.01724 50.24503 61.47153
63.0 0.01587 50.21127 61.03014
59.0 0.01695 50.17753 61.63161
58.0 0.01724 50.14384 61.66467
71.0 0.01408 50.11019 61.91471
72.0 0.01389 50.07658 62.38747
70.0 0.01429 50.04300 63.18761
49.0 0.02041 50.00947 64.40607
63.0 0.01587 49.97601 66.21735
79.0 0.01266 49.94255 68.86253
95.0 0.01053 49.90914 73.18227
71.0 0.01408 49.87580 78.42173
92.0 0.01087 49.84246 85.02316
114.0 0.00877 49.80921 93.98256
108.0 0.00926 49.77600 104.55827
143.0 0.00699 49.74279 116.45525
157.0 0.00637 49.70965 128.80916
168.0 0.00595 49.67655 140.23810
176.0 0.00568 49.64351 148.95181
181.0 0.00552 49.61047 153.76743
198.0 0.00505 49.57753 153.57549
178.0 0.00562 49.54462 149.98016
154.0 0.00649 49.51172 145.06322
154.0 0.00649 49.47892 140.46936
155.0 0.00645 49.44613 137.42099
127.0 0.00787 49.41339 136.39223
159.0 0.00629 49.38070 137.25368
153.0 0.00654 49.34808 139.44487
171.0 0.00585 49.31547 142.45880
160.0 0.00625 49.28292 146.19101
174.0 0.00575 49.25042 151.48451
168.0 0.00595 49.21795 160.54434
181.0 0.00552 49.18555 172.28218
190.0 0.00526 49.15319 188.19611
212.0 0.00472 49.12088 208.14319
238.0 0.00420 49.08860 231.14677
258.0 0.00388 49.05642 255.24974
252.0 0.00397 49.02422 277.12460
280.0 0.00357 48.99208 293.39474
285.0 0.00351 48.96005 300.66980
311.0 0.003215 48.92800 298.80533
287.0 0.003484 48.89603 289.38116
290.0 0.003448 48.86411 276.03757
264.0 0.00379 48.83222 262.45697
257.0 0.00389 48.80037 250.67474
234.0 0.00427 48.76863 241.26883
239.0 0.00418 48.73690 233.30479
233.0 0.00429 48.70520 225.51601
227.0 0.00441 48.67360 215.98410
207.0 0.00483 48.64202 203.97491
184.0 0.00543 48.61049 190.29898
197.0 0.00508 48.57902 176.11476
166.0 0.00602 48.54760 163.02824
149.0 0.00671 48.51622 152.08371
139.0 0.00719 48.48492 143.89322
136.0 0.00735 48.45365 138.72758
154.0 0.00649 48.42243 136.58403
127.0 0.00787 48.39127 137.23187
147.0 0.00680 48.36018 140.30077
172.0 0.00581 48.32911 145.45097
145.0 0.00690 48.29810 152.52405
165.0 0.00606 48.26717 161.49847
165.0 0.00606 48.23624 173.07574
185.0 0.00541 48.20540 185.23180
201.0 0.00498 48.17464 197.62537
217.0 0.00461 48.14388 209.91753
220.0 0.00455 48.11320 220.47336
220.0 0.00455 48.08256 228.63637
245.0 0.00408 48.05200 234.57826
230.0 0.00435 48.02145 239.70767
225.0 0.00444 47.99101 245.81491
250.0 0.00400 47.96061 255.03787
267.0 0.00375 47.93023 267.29822
272.0 0.00368 47.89996 282.26477
285.0 0.00351 47.86970 298.68066
321.0 0.003115 47.83950 313.19269
298.0 0.003356 47.80938 322.29834
313.0 0.003195 47.77931 323.18484
289.0 0.003460 47.74929 315.64514
283.0 0.00353 47.71933 302.25131
263.0 0.00380 47.68943 286.98468
242.0 0.00413 47.65957 273.22400
234.0 0.00427 47.62979 262.87219
234.0 0.00427 47.60006 256.26718
233.0 0.00429 47.57037 250.56845
228.0 0.00439 47.54074 246.79800
238.0 0.00420 47.51120 240.41681
218.0 0.00459 47.48167 229.56593
227.0 0.00441 47.45223 214.48199
193.0 0.00518 47.42287 196.98819
170.0 0.00588 47.39351 179.26047
164.0 0.00610 47.36426 162.96243
138.0 0.00725 47.33503 149.01508
130.0 0.00769 47.30590 136.84863
116.0 0.00862 47.27678 127.88513
117.0 0.00855 47.24776 120.59254
109.0 0.00917 47.21880 114.20405
110.0 0.00909 47.18987 108.27798
115.0 0.00870 47.16103 102.78891
114.0 0.00877 47.13223 97.97419
101.0 0.00990 47.10350 94.12030
95.0 0.01053 47.07483 91.47014
91.0 0.01099 47.04623 90.21523
81.0 0.01235 47.01766 90.51704
82.0 0.01220 46.98918 92.45684
84.0 0.01190 46.96076 96.11090
110.0 0.00909 46.93239 101.49252
118.0 0.00847 46.90408 108.54615
115.0 0.00870 46.87585 117.11669
125.0 0.00800 46.84766 126.94155
146.0 0.00685 46.81954 137.74417
147.0 0.00680 46.79149 149.42751
162.0 0.00617 46.76348 162.16063
185.0 0.00541 46.73556 176.13879
187.0 0.00535 46.70771 191.29059
205.0 0.00488 46.67989 207.04008
226.0 0.00442 46.65216 222.19012
271.0 0.00369 46.62446 234.86697
265.0 0.00377 46.59685 242.84569
256.0 0.00391 46.56928 244.51071
253.0 0.00395 46.54181 239.89314
268.0 0.00373 46.51440 230.73328
243.0 0.00412 46.48702 219.47321
196.0 0.00510 46.45974 208.17126
188.0 0.00532 46.43252 197.33406
208.0 0.00481 46.40533 188.80376
187.0 0.00535 46.37823 181.14296
186.0 0.00538 46.35121 173.48738
173.0 0.00578 46.32423 164.78964
147.0 0.00680 46.29733 154.55270
165.0 0.00606 46.27049 143.58382
168.0 0.00595 46.24371 131.61432
147.0 0.00680 46.21701 119.91358
132.0 0.00758 46.19038 107.19067
97.0 0.01031 46.16380 97.64194
112.0 0.00893 46.13729 89.37244
81.0 0.01235 46.11086 82.48640
85.0 0.01176 46.08447 76.90149
80.0 0.01250 46.05816 72.47546
64.0 0.01563 46.03194 69.02720
70.0 0.01429 46.00574 66.62532
70.0 0.01429 45.97964 64.40022
72.0 0.01389 45.95360 62.77608
78.0 0.01282 45.92764 61.47820
59.0 0.01695 45.90171 60.43619
74.0 0.01351 45.87589 59.59821
69.0 0.01449 45.85013 59.35883
66.0 0.01515 45.82441 58.79869
54.0 0.01852 45.79881 58.29736
63.0 0.01587 45.77323 57.82764
60.0 0.01667 45.74773 57.39100
63.0 0.01587 45.72231 57.00980
64.0 0.01563 45.69697 56.71228
53.0 0.01887 45.67168 56.51538
57.0 0.01754 45.64646 56.43251
45.0 0.02222 45.62132 56.46870
60.0 0.01667 45.59624 56.85141
45.0 0.02222 45.57124 57.14248
54.0 0.01852 45.54631 57.57415
65.0 0.01538 45.52144 58.19965
56.0 0.01786 45.49664 59.11070
63.0 0.01587 45.47193 60.30007
62.0 0.01613 45.44726 61.95393
60.0 0.01667 45.42267 64.12920
61.0 0.01639 45.39817 66.99269
66.0 0.01515 45.37373 70.67316
72.0 0.01389 45.34937 75.30654
79.0 0.01266 45.32504 80.98586
87.0 0.01149 45.30082 88.01366
92.0 0.01087 45.27665 95.72737
95.0 0.01053 45.25257 104.21479
116.0 0.00862 45.22858 113.17654
116.0 0.00862 45.20461 122.38092
131.0 0.00763 45.18076 131.39029
136.0 0.00735 45.15698 139.50453
134.0 0.00746 45.13323 144.71605
145.0 0.00690 45.10959 147.91336
150.0 0.00667 45.08602 147.87704
138.0 0.00725 45.06250 144.94208
139.0 0.00719 45.03908 140.51683
143.0 0.00699 45.01573 135.91356
113.0 0.00885 44.99244 132.13850
125.0 0.00800 44.96924 129.81059
129.0 0.00775 44.94610 129.13698
119.0 0.00840 44.92303 129.90181
125.0 0.00800 44.90004 131.08282
126.0 0.00794 44.87714 133.10291
134.0 0.00746 44.85429 135.13927
135.0 0.00741 44.83152 137.17355
131.0 0.00763 44.80884 139.09627
145.0 0.00690 44.78621 140.45923
124.0 0.00806 44.76366 140.46555
134.0 0.00746 44.74119 138.36305
140.0 0.00714 44.71880 134.01030
118.0 0.00847 44.69648 128.06339
120.0 0.00833 44.67425 121.65614
113.0 0.00885 44.65208 115.75333
95.0 0.01053 44.62997 111.00948
88.0 0.01136 44.60798 107.57986
116.0 0.00862 44.58604 105.30610
89.0 0.01124 44.56416 103.68322
94.0 0.01064 44.54238 102.03416
103.0 0.00971 44.52068 99.79149
87.0 0.01149 44.49903 96.74392
96.0 0.01042 44.47748 93.05251
83.0 0.01205 44.45601 89.00034
89.0 0.01124 44.43459 84.86158
89.0 0.01124 44.41327 80.87484
85.0 0.01176 44.39203 77.31501
80.0 0.01250 44.37084 74.42038
76.0 0.01316 44.34975 72.36053
78.0 0.01282 44.32874 71.22382
75.0 0.01333 44.30778 71.02825
81.0 0.01235 44.28693 71.73621
82.0 0.01220 44.26615 73.26775
76.0 0.01316 44.24542 75.52320
75.0 0.01333 44.22481 78.30236
90.0 0.01111 44.20423 81.80426
85.0 0.01176 44.18378 85.88411
89.0 0.01124 44.16336 90.49264
93.0 0.01075 44.14305 95.51390
91.0 0.01099 44.12283 100.72808
96.0 0.01042 44.10265 105.22912
109.0 0.00917 44.08258 109.48978
114.0 0.00877 44.06259 112.25177
88.0 0.01136 44.04265 112.90190
96.0 0.01042 44.02281 111.54640
104.0 0.00962 44.00305 108.60567
110.0 0.00909 43.98336 104.85948
80.0 0.01250 43.96376 101.00151
94.0 0.01064 43.94424 97.48348
89.0 0.01124 43.92479 94.49097
83.0 0.01205 43.90543 91.95985
77.0 0.01299 43.88614 89.61523
93.0 0.01075 43.86692 87.08162
87.0 0.01149 43.84781 84.07516
76.0 0.01316 43.82877 80.56281
68.0 0.01471 43.80978 76.74850
69.0 0.01449 43.79091 72.92092
83.0 0.01205 43.77211 69.31628
52.0 0.01923 43.75337 66.08228
69.0 0.01449 43.73474 63.23648
70.0 0.01429 43.71616 60.77649
66.0 0.01515 43.69770 58.66791
57.0 0.01754 43.67928 56.88517
59.0 0.01695 43.66096 55.41541
58.0 0.01724 43.64274 54.24524
58.0 0.01724 43.62457 53.34994
47.0 0.02128 43.60650 52.84744
62.0 0.01613 43.58852 52.24404
64.0 0.01563 43.57059 51.91896
48.0 0.02083 43.55277 51.65273
29.0 0.03448 43.53504 51.39499
51.0 0.01961 43.51735 51.11452
53.0 0.01887 43.49978 50.81534
53.0 0.01887 43.48229 50.52604
50.0 0.02000 43.46486 50.27892
57.0 0.01754 43.44753 50.09437
36.0 0.02778 43.43029 50.05201
49.0 0.02041 43.41310 49.77230
55.0 0.01818 43.39602 49.71590
72.0 0.01389 43.37902 49.61981
45.0 0.02222 43.36208 49.44312
48.0 0.02083 43.34526 49.17446
51.0 0.01961 43.32850 48.83727
45.0 0.02222 43.31181 48.35619
38.0 0.02632 43.29524 48.00952
50.0 0.02000 43.27872 47.70240
57.0 0.01754 43.26231 47.44601
47.0 0.02128 43.24595 47.23738
46.0 0.02174 43.22970 47.13625
49.0 0.02041 43.21354 46.97675
40.0 0.02500 43.19744 46.81342
56.0 0.01786 43.18144 46.60199
53.0 0.01887 43.16553 46.43376
55.0 0.01818 43.14968 46.28347
54.0 0.01852 43.13393 46.13814
65.0 0.01538 43.11827 46.07466
50.0 0.02000 43.10268 46.06457
40.0 0.02500 43.08719 46.12363
42.0 0.02381 43.07178 46.28386
47.0 0.02128 43.05643 46.17589
48.0 0.02083 43.04120 46.39793
56.0 0.01786 43.02605 46.67042
56.0 0.01786 43.01096 46.94578
47.0 0.02128 42.99597 47.19241
62.0 0.01613 42.98108 47.36856
44.0 0.02273 42.96624 47.50160
38.0 0.02632 42.95151 47.59741
54.0 0.01852 42.93687 47.70958
39.0 0.02564 42.92229 47.88697
51.0 0.01961 42.90782 48.03432
52.0 0.01923 42.89341 48.49097
51.0 0.01961 42.87911 49.14690
57.0 0.01754 42.86487 50.03659
53.0 0.01887 42.85074 51.18814
59.0 0.01695 42.83670 52.62418
58.0 0.01724 42.82272 54.36351
52.0 0.01923 42.80884 56.42082
60.0 0.01667 42.79506 58.77390
59.0 0.01695 42.78133 61.36929
82.0 0.01220 42.76772 64.08279
71.0 0.01408 42.75419 66.70429
53.0 0.01887 42.74073 68.93954
72.0 0.01389 42.72736 70.46780
75.0 0.01333 42.71410 71.06855
59.0 0.01695 42.70090 70.74509
72.0 0.01389 42.68780 69.72960
69.0 0.01449 42.67479 68.36346
67.0 0.01493 42.66185 66.92924
65.0 0.01538 42.64901 65.67594
68.0 0.01471 42.63625 64.66801
56.0 0.01786 42.62357 63.88321
67.0 0.01493 42.61100 63.21167
71.0 0.01408 42.59851 62.50026
60.0 0.01667 42.58607 61.62774
60.0 0.01667 42.57377 60.57504
69.0 0.01449 42.56151 59.44135
64.0 0.01563 42.54936 58.36343
60.0 0.01667 42.53730 57.46001
62.0 0.01613 42.52532 56.89110
59.0 0.01695 42.51344 56.67545
72.0 0.01389 42.50163 56.81438
60.0 0.01667 42.48993 57.26106
54.0 0.01852 42.47830 57.91617
57.0 0.01754 42.46675 58.63090
63.0 0.01587 42.45531 59.19157
58.0 0.01724 42.44396 59.41411
54.0 0.01852 42.43266 59.18534
53.0 0.01887 42.42148 58.54331
49.0 0.02041 42.41039 57.63584
61.0 0.01639 42.39935 56.70228
49.0 0.02041 42.38845 55.75361
53.0 0.01887 42.37760 54.95576
47.0 0.02128 42.36685 54.33195
49.0 0.02041 42.35620 53.80936
68.0 0.01471 42.34563 53.31547
49.0 0.02041 42.33514 52.75398
50.0 0.02000 42.32475 52.05450
49.0 0.02041 42.31444 51.20969
45.0 0.02222 42.30421 50.26921
57.0 0.01754 42.29409 49.30464
50.0 0.02000 42.28403 48.48795
53.0 0.01887 42.27408 47.64780
37.0 0.02703 42.26421 46.92337
42.0 0.02381 42.25442 46.30718
45.0 0.02222 42.24474 45.80901
53.0 0.01887 42.23513 45.42248
50.0 0.02000 42.22562 45.13628
46.0 0.02174 42.21620 44.93588
54.0 0.01852 42.20686 44.80515
51.0 0.01961 42.19761 44.72728
51.0 0.01961 42.18846 44.72358
45.0 0.02222 42.17938 44.70139
53.0 0.01887 42.17041 44.68296
41.0 0.02439 42.16152 44.65865
57.0 0.01754 42.15271 44.62715
49.0 0.02041 42.14399 44.59514
52.0 0.01923 42.13538 44.57340
70.0 0.01429 42.12682 44.57320
42.0 0.02381 42.11839 44.60453
64.0 0.01563 42.11003 44.51611
45.0 0.02222 42.10175 44.64050
56.0 0.01786 42.09357 44.81993
45.0 0.02222 42.08549 45.06355
39.0 0.02564 42.07747 45.38432
38.0 0.02632 42.06956 45.92708
44.0 0.02273 42.06172 46.46510
47.0 0.02128 42.05400 47.14265
52.0 0.01923 42.04634 47.97516
58.0 0.01724 42.03878 48.96727
59.0 0.01695 42.03132 50.03247
53.0 0.01887 42.02393 51.30644
67.0 0.01493 42.01664 52.85568
61.0 0.01639 42.00945 54.23124
48.0 0.02083 42.00233 55.50647
63.0 0.01587 41.99531 56.60035
44.0 0.02273 41.98838 57.25208
70.0 0.01429 41.98151 57.45344
56.0 0.01786 41.97478 57.23849
56.0 0.01786 41.96812 56.72437
69.0 0.01449 41.96152 56.05688
56.0 0.01786 41.95504 55.37435
58.0 0.01724 41.94865 54.87794
48.0 0.02083 41.94233 54.36855
60.0 0.01667 41.93612 54.09823
64.0 0.01563 41.92999 53.95250
55.0 0.01818 41.92396 53.87118
61.0 0.01639 41.91801 53.80810
66.0 0.01515 41.91214 53.76129
54.0 0.01852 41.90637 53.76957
53.0 0.01887 41.90069 53.89138
57.0 0.01754 41.89507 54.18039
60.0 0.01667 41.88959 54.66941
54.0 0.01852 41.88416 55.31909
60.0 0.01667 41.87883 56.15853
61.0 0.01639 41.87361 57.04901
64.0 0.01563 41.86846 57.84251
56.0 0.01786 41.86340 58.37380
62.0 0.01613 41.85845 58.52337
50.0 0.02000 41.85357 59.71366
59.0 0.01695 41.84878 59.22563
63.0 0.01587 41.84409 58.60238
54.0 0.01852 41.83946 57.99175
58.0 0.01724 41.83495 57.61395
67.0 0.01493 41.83054 57.28995
67.0 0.01493 41.82617 57.13464
52.0 0.01923 41.82193 57.10855
53.0 0.01887 41.81777 57.14648
71.0 0.01408 41.81368 57.18847
47.0 0.02128 41.80973 57.92046
65.0 0.01538 41.80582 57.99866
75.0 0.01333 41.80202 58.19783
65.0 0.01538 41.79831 59.22436
48.0 0.02083 41.79467 60.01555
68.0 0.01471 41.79114 61.25956
70.0 0.01429 41.78771 62.77901
60.0 0.01667 41.78431 64.73470
69.0 0.01449 41.78107 67.12328
74.0 0.01351 41.77789 69.90367
82.0 0.01220 41.77478 72.98624
68.0 0.01471 41.77180 76.42314
84.0 0.01190 41.76889 79.69389
68.0 0.01471 41.76606 83.17234
97.0 0.01031 41.76336 86.25315
85.0 0.01176 41.76070 89.28230
109.0 0.00917 41.75814 92.37474
109.0 0.00917 41.75569 95.32626
97.0 0.01031 41.75329 97.98873
101.0 0.00990 41.75103 100.03323
94.0 0.01064 41.74884 101.11725
113.0 0.00885 41.74670 101.22736
100.0 0.01000 41.74470 100.29798
109.0 0.00917 41.74277 98.73421
102.0 0.00980 41.74092 96.91017
100.0 0.01000 41.73919 95.16383
98.0 0.01020 41.73752 93.74747
91.0 0.01099 41.73595 92.80159
79.0 0.01266 41.73446 92.34839
89.0 0.01124 41.73307 92.31916
101.0 0.00990 41.73175 92.53925
90.0 0.01111 41.73055 93.14025
90.0 0.01111 41.72940 94.19074
105.0 0.00952 41.72838 95.99476
96.0 0.01042 41.72743 98.94886
111.0 0.00901 41.72655 103.47426
102.0 0.00980 41.72579 109.96052
124.0 0.00806 41.72510 118.76175
138.0 0.00725 41.72450 130.15779
125.0 0.00800 41.72403 144.32274
162.0 0.00617 41.72359 161.27863
165.0 0.00606 41.72326 180.83554
206.0 0.00485 41.72304 202.50896
227.0 0.00441 41.72284 225.46930
235.0 0.00426 41.72280 248.20609
255.0 0.00392 41.72285 268.81995
286.0 0.003497 41.72292 285.47449
329.0 0.003040 41.72314 296.69510
309.0 0.003236 41.72343 302.44693
308.0 0.003247 41.72379 304.17267
289.0 0.003460 41.72429 304.15735
310.0 0.003226 41.72483 304.70569
306.0 0.003268 41.72548 307.44955
343.0 0.002915 41.72621 313.29691
332.0 0.003012 41.72702 322.07278
349.0 0.002865 41.72791 332.66913
351.0 0.002849 41.72893 343.01935
361.0 0.002770 41.72999 350.69427
367.0 0.002725 41.73118 353.30972
327.0 0.003058 41.73243 349.32394
344.0 0.002907 41.73376 338.46042
330.0 0.003030 41.73521 321.82785
294.0 0.003401 41.73673 301.53955
264.0 0.00379 41.73832 279.92651
262.0 0.00382 41.74006 259.02023
227.0 0.00441 41.74183 240.18085
207.0 0.00483 41.74369 224.02074
226.0 0.00442 41.74567 210.46297
203.0 0.00493 41.74768 198.86490
186.0 0.00538 41.74984 188.14383
194.0 0.00515 41.75208 177.56087
162.0 0.00617 41.75434 166.32016
178.0 0.00562 41.75676 154.30754
139.0 0.00719 41.75926 141.86212
121.0 0.00826 41.76180 129.50764
135.0 0.00741 41.76449 117.74376
111.0 0.00901 41.76722 106.95303
96.0 0.01042 41.77005 97.22518
83.0 0.01205 41.77298 88.98689
80.0 0.01250 41.77597 83.16562
81.0 0.01235 41.77905 77.47292
65.0 0.01538 41.78226 72.95845
63.0 0.01587 41.78549 69.39954
72.0 0.01389 41.78886 66.63815
75.0 0.01333 41.79229 64.52597
72.0 0.01389 41.79580 62.96073
66.0 0.01515 41.79942 61.80066
72.0 0.01389 41.80312 60.90117
79.0 0.01266 41.80689 60.42974
53.0 0.01887 41.81079 60.75116
63.0 0.01587 41.81472 60.81963
57.0 0.01754 41.81877 61.17926
60.0 0.01667 41.82291 61.69320
64.0 0.01563 41.82708 62.37746
67.0 0.01493 41.83140 63.17724
65.0 0.01538 41.83580 64.01555
68.0 0.01471 41.84022 64.80563
61.0 0.01639 41.84481 65.42284
64.0 0.01563 41.84945 65.79314
59.0 0.01695 41.85415 65.89493
64.0 0.01563 41.85900 65.67005
79.0 0.01266 41.86388 65.19823
49.0 0.02041 41.86886 64.60544
59.0 0.01695 41.87394 63.95001
61.0 0.01639 41.87907 61.94653
70.0 0.01429 41.88430 61.50410
49.0 0.02041 41.88964 61.17924
58.0 0.01724 41.89502 60.83284
53.0 0.01887 41.90052 60.66433
62.0 0.01613 41.90610 60.51703
63.0 0.01587 41.91174 60.38480
54.0 0.01852 41.91749 60.24584
55.0 0.01818 41.92332 60.15231
63.0 0.01587 41.92922 60.17006
64.0 0.01563 41.93525 59.66352
66.0 0.01515 41.94132 60.15568
67.0 0.01493 41.94748 60.36073
66.0 0.01515 41.95374 61.56785
69.0 0.01449 41.96004 63.13140
49.0 0.02041 41.96648 64.96620
71.0 0.01408 41.97299 67.55404
71.0 0.01408 41.97954 70.70271
75.0 0.01333 41.98622 74.50223
75.0 0.01333 41.99296 79.10748
92.0 0.01087 41.99978 84.78117
93.0 0.01075 42.00674 91.90051
88.0 0.01136 42.01372 100.88947
93.0 0.01075 42.02080 111.82780
120.0 0.00833 42.02797 125.56216
124.0 0.00806 42.03521 141.79739
147.0 0.00680 42.04254 160.18309
167.0 0.00599 42.04997 180.19624
201.0 0.00498 42.05743 200.55241
219.0 0.00457 42.06503 219.63614
259.0 0.00386 42.07268 235.17862
247.0 0.00405 42.08042 245.02867
254.0 0.00394 42.08825 247.95517
234.0 0.00427 42.09616 244.34779
280.0 0.00357 42.10413 236.06177
216.0 0.00463 42.11225 225.53726
213.0 0.00469 42.12038 214.93265
171.0 0.00585 42.12861 205.70493
186.0 0.00538 42.13694 198.54449
166.0 0.00602 42.14529 193.42775
194.0 0.00515 42.15380 189.70305
176.0 0.00568 42.16237 186.19110
193.0 0.00518 42.17098 181.54526
204.0 0.00490 42.17971 174.74957
159.0 0.00629 42.18851 165.54463
186.0 0.00538 42.19736 154.45070
141.0 0.00709 42.20638 142.38329
137.0 0.00730 42.21540 130.31822
121.0 0.00826 42.22454 118.84824
89.0 0.01124 42.23375 108.46326
73.0 0.01370 42.24302 99.37487
84.0 0.01190 42.25237 91.62561
100.0 0.01000 42.26184 85.08067
91.0 0.01099 42.27133 79.70840
86.0 0.01163 42.28094 75.25433
76.0 0.01316 42.29064 71.50069
81.0 0.01235 42.30038 68.31676
89.0 0.01124 42.31023 65.61772
68.0 0.01471 42.32016 63.26959
54.0 0.01852 42.33013 61.21978
68.0 0.01471 42.34026 59.45325
57.0 0.01754 42.35039 57.92523
56.0 0.01786 42.36063 56.59103
50.0 0.02000 42.37096 55.37439
57.0 0.01754 42.38132 54.51709
59.0 0.01695 42.39181 53.59626
56.0 0.01786 42.40238 52.78620
57.0 0.01754 42.41297 52.31245
60.0 0.01667 42.42369 51.73891
35.0 0.02857 42.43448 51.38340
61.0 0.01639 42.44533 50.97315
55.0 0.01818 42.45631 50.64011
55.0 0.01818 42.46729 50.36927
50.0 0.02000 42.47840 50.14077
47.0 0.02128 42.48958 49.93143
53.0 0.01887 42.50081 49.72088
69.0 0.01449 42.51213 49.56690
58.0 0.01724 42.52357 49.34253
44.0 0.02273 42.53501 49.23618
57.0 0.01754 42.54657 49.03669
55.0 0.01818 42.55822 48.93911
51.0 0.01961 42.56992 48.80866
62.0 0.01613 42.58171 48.71937
53.0 0.01887 42.59357 48.89853
48.0 0.02083 42.60549 48.95789
56.0 0.01786 42.61755 48.98146
51.0 0.01961 42.62962 49.02605
64.0 0.01563 42.64178 49.21772
49.0 0.02041 42.65403 48.23470
51.0 0.01961 42.66632 48.41219
52.0 0.01923 42.67872 48.64935
60.0 0.01667 42.69120 48.96691
42.0 0.02381 42.70371 49.38773
67.0 0.01493 42.71635 49.93739
53.0 0.01887 42.72903 50.64447
58.0 0.01724 42.74178 51.65937
66.0 0.01515 42.75466 52.78868
57.0 0.01754 42.76754 54.21436
52.0 0.01923 42.78054 55.98564
62.0 0.01613 42.79360 57.50915
61.0 0.01639 42.80672 59.97525
66.0 0.01515 42.81992 62.78389
64.0 0.01563 42.83323 66.02747
78.0 0.01282 42.84655 69.59826
84.0 0.01190 42.85999 73.43073
74.0 0.01351 42.87351 77.53205
91.0 0.01099 42.88705 81.68768
73.0 0.01370 42.90070 85.86758
97.0 0.01031 42.91443 89.82842
105.0 0.00952 42.92820 93.28982
101.0 0.00990 42.94210 95.94624
86.0 0.01163 42.95602 97.69196
102.0 0.00980 42.97002 98.65812
101.0 0.00990 42.98412 99.23362
101.0 0.00990 42.99823 99.86553
90.0 0.01111 43.01247 100.67005
98.0 0.01020 43.02678 101.98869
109.0 0.00917 43.04111 104.07368
106.0 0.00943 43.05556 106.92427
124.0 0.00806 43.07006 110.44099
105.0 0.00952 43.08463 114.32626
104.0 0.00962 43.09931 118.07790
122.0 0.00820 43.11400 121.15672
127.0 0.00787 43.12879 123.43720
142.0 0.00704 43.14365 123.96814
136.0 0.00735 43.15856 123.02274
113.0 0.00885 43.17356 120.88270
108.0 0.00926 43.18865 117.88216
122.0 0.00820 43.20376 114.69169
103.0 0.00971 43.21898 111.89619
122.0 0.00820 43.23426 109.93718
114.0 0.00877 43.24957 109.06077
114.0 0.00877 43.26500 109.31483
106.0 0.00943 43.28049 110.56975
90.0 0.01111 43.29601 112.72284
109.0 0.00917 43.31166 115.09908
135.0 0.00741 43.32733 117.47646
141.0 0.00709 43.34308 119.50237
113.0 0.00885 43.35891 120.81989
140.0 0.00714 43.37477 121.10634
121.0 0.00826 43.39074 120.12993
132.0 0.00758 43.40678 117.87217
120.0 0.00833 43.42283 114.60709
129.0 0.00775 43.43901 110.83664
101.0 0.00990 43.45523 107.12326
128.0 0.00781 43.47150 103.94444
115.0 0.00870 43.48790 101.62851
92.0 0.01087 43.50428 100.38873
112.0 0.00893 43.52078 100.17050
97.0 0.01031 43.53734 100.90583
114.0 0.00877 43.55394 102.39301
116.0 0.00862 43.57064 104.31612
98.0 0.01020 43.58741 106.43240
111.0 0.00901 43.60419 108.56551
91.0 0.01099 43.62109 110.61942
130.0 0.00769 43.63804 112.52241
125.0 0.00800 43.65503 114.20531
110.0 0.00909 43.67210 115.55448
125.0 0.00800 43.68926 116.54549
128.0 0.00781 43.70643 117.10813
128.0 0.00781 43.72373 117.26923
118.0 0.00847 43.74105 117.14290
101.0 0.00990 43.75844 116.83143
112.0 0.00893 43.77591 116.54504
112.0 0.00893 43.79340 116.45012
112.0 0.00893 43.81099 116.59839
118.0 0.00847 43.82865 116.89867
97.0 0.01031 43.84633 117.20402
124.0 0.00806 43.86411 117.12152
108.0 0.00926 43.88194 116.54449
114.0 0.00877 43.89981 115.46352
105.0 0.00952 43.91781 113.99062
108.0 0.00926 43.93580 112.26648
109.0 0.00917 43.95388 110.79988
99.0 0.01010 43.97205 109.55199
113.0 0.00885 43.99021 108.66926
125.0 0.00800 44.00849 108.12481
111.0 0.00901 44.02683 107.73267
100.0 0.01000 44.04519 107.15923
100.0 0.01000 44.06364 106.04028
114.0 0.00877 44.08215 103.78682
110.0 0.00909 44.10069 100.84091
116.0 0.00862 44.11933 96.95876
97.0 0.01031 44.13803 92.97523
103.0 0.00971 44.15673 89.01019
87.0 0.01149 44.17558 85.35789
90.0 0.01111 44.19442 82.23069
89.0 0.01124 44.21333 79.65736
81.0 0.01235 44.23232 77.54835
91.0 0.01099 44.25133 75.82730
83.0 0.01205 44.27043 74.75047
83.0 0.01205 44.28960 73.32512
78.0 0.01282 44.30879 72.27203
83.0 0.01205 44.32806 70.62358
80.0 0.01250 44.34738 69.04913
91.0 0.01099 44.36675 67.57763
71.0 0.01408 44.38623 66.30036
67.0 0.01493 44.40570 64.98064
63.0 0.01587 44.42525 64.25975
58.0 0.01724 44.44489 63.80343
51.0 0.01961 44.46451 63.54386
64.0 0.01563 44.48425 63.44212
73.0 0.01370 44.50403 63.43026
65.0 0.01538 44.52383 63.45260
76.0 0.01316 44.54374 64.27486
68.0 0.01471 44.56370 64.34674
63.0 0.01587 44.58368 64.46753
68.0 0.01471 44.60373 64.81737
64.0 0.01563 44.62385 65.23133
74.0 0.01351 44.64397 65.90305
66.0 0.01515 44.66423 66.89797
73.0 0.01370 44.68449 68.25207
73.0 0.01370 44.70481 69.95857
60.0 0.01667 44.72520 71.96107
75.0 0.01333 44.74560 74.15349
87.0 0.01149 44.76608 76.38004
90.0 0.01111 44.78662 78.72124
76.0 0.01316 44.80720 80.39186
83.0 0.01205 44.82784 81.46577
72.0 0.01389 44.84853 81.93643
89.0 0.01124 44.86927 81.81328
89.0 0.01124 44.89010 81.44695
82.0 0.01220 44.91091 81.19008
85.0 0.01176 44.93183 81.36772
85.0 0.01176 44.95279 82.23704
81.0 0.01235 44.97376 83.97777
84.0 0.01190 44.99483 86.47521
80.0 0.01250 45.01594 90.18269
99.0 0.01010 45.03705 94.81897
107.0 0.00935 45.05827 100.26147
105.0 0.00952 45.07954 106.35908
126.0 0.00794 45.10081 112.96282
128.0 0.00781 45.12218 119.91728
136.0 0.00735 45.14360 127.00195
138.0 0.00725 45.16500 133.87747
155.0 0.00645 45.18654 140.27664
158.0 0.00633 45.20808 145.54054
143.0 0.00699 45.22967 149.85059
150.0 0.00667 45.25132 153.76810
148.0 0.00676 45.27298 158.06610
184.0 0.00543 45.29473 163.61366
179.0 0.00559 45.31653 171.07291
173.0 0.00578 45.33833 180.77388
170.0 0.00588 45.36023 192.68141
187.0 0.00535 45.38214 206.38858
239.0 0.00418 45.40411 221.08276
225.0 0.00444 45.42616 235.48755
239.0 0.00418 45.44819 247.66141
271.0 0.00369 45.47032 256.01791
272.0 0.00368 45.49249 259.08731
252.0 0.00397 45.51466 256.14621
263.0 0.00380 45.53692 248.13290
209.0 0.00478 45.55922 236.52559
205.0 0.00488 45.58154 223.43253
199.0 0.00503 45.60392 210.70903
175.0 0.00571 45.62636 199.51585
171.0 0.00585 45.64879 190.55560
174.0 0.00575 45.67133 183.96445
166.0 0.00602 45.69390 179.41182
186.0 0.00538 45.71646 176.04866
172.0 0.00581 45.73914 172.78691
154.0 0.00649 45.76182 168.64989
186.0 0.00538 45.78454 162.88603
152.0 0.00658 45.80732 155.40681
135.0 0.00741 45.83010 146.37134
116.0 0.00862 45.85298 136.43922
125.0 0.00800 45.87588 126.24208
133.0 0.00752 45.89879 116.37810
95.0 0.01053 45.92178 107.26450
116.0 0.00862 45.94479 99.22506
98.0 0.01020 45.96785 92.42699
97.0 0.01031 45.99099 86.86441
98.0 0.01020 46.01409 82.44728
78.0 0.01282 46.03728 79.05896
82.0 0.01220 46.06052 76.47366
79.0 0.01266 46.08374 74.37220
94.0 0.01064 46.10707 72.76738
80.0 0.01250 46.13042 71.42679
71.0 0.01408 46.15376 70.30697
68.0 0.01471 46.17718 69.43848
70.0 0.01429 46.20066 68.89497
86.0 0.01163 46.22412 68.76345
59.0 0.01695 46.24767 69.12508
66.0 0.01515 46.27125 70.04284
78.0 0.01282 46.29481 71.55266
85.0 0.01176 46.31850 73.65398
71.0 0.01408 46.34217 76.29884
79.0 0.01266 46.36588 79.37996
86.0 0.01163 46.38964 82.73270
101.0 0.00990 46.41340 86.06285
89.0 0.01124 46.43724 89.04681
108.0 0.00926 46.46110 91.42087
116.0 0.00862 46.48498 92.72936
101.0 0.00990 46.50891 92.99375
88.0 0.01136 46.53287 92.37496
93.0 0.01075 46.55687 91.20421
103.0 0.00971 46.58094 89.88322
78.0 0.01282 46.60498 88.90214
97.0 0.01031 46.62908 88.35544
96.0 0.01042 46.65325 88.60748
80.0 0.01250 46.67738 89.59599
92.0 0.01087 46.70160 91.31020
98.0 0.01020 46.72585 93.57321
108.0 0.00926 46.75008 96.15593
91.0 0.01099 46.77439 98.65039
116.0 0.00862 46.79874 100.79771
112.0 0.00893 46.82307 102.22707
98.0 0.01020 46.84749 102.91627
117.0 0.00855 46.87194 102.63339
109.0 0.00917 46.89635 101.44484
115.0 0.00870 46.92088 99.45441
91.0 0.01099 46.94540 97.02480
91.0 0.01099 46.96994 94.51137
94.0 0.01064 46.99453 92.10495
98.0 0.01020 47.01913 90.01551
84.0 0.01190 47.04377 88.33334
83.0 0.01205 47.06846 87.27264
97.0 0.01031 47.09312 86.36162
87.0 0.01149 47.11787 85.45021
84.0 0.01190 47.14261 84.79181
94.0 0.01064 47.16740 83.90898
96.0 0.01042 47.19225 82.36053
84.0 0.01190 47.21705 80.71383
76.0 0.01316 47.24193 78.78947
77.0 0.01299 47.26685 76.64207
84.0 0.01190 47.29174 74.43995
72.0 0.01389 47.31671 72.30171
86.0 0.01163 47.34171 70.31859
66.0 0.01515 47.36667 68.63769
78.0 0.01282 47.39170 67.10197
76.0 0.01316 47.41678 66.28773
60.0 0.01667 47.44183 65.27551
59.0 0.01695 47.46696 64.49400
61.0 0.01639 47.49211 63.85922
73.0 0.01370 47.51722 63.48280
66.0 0.01515 47.54244 63.41294
60.0 0.01667 47.56764 63.46218
57.0 0.01754 47.59286 63.75694
52.0 0.01923 47.61813 64.32701
73.0 0.01370 47.64339 65.19827
70.0 0.01429 47.66870 67.00894
78.0 0.01282 47.69402 68.52686
65.0 0.01538 47.71935 70.35423
80.0 0.01250 47.74472 72.46231
68.0 0.01471 47.77011 74.79886
78.0 0.01282 47.79551 77.28924
85.0 0.01176 47.82098 79.84469
73.0 0.01370 47.84640 82.41991
92.0 0.01087 47.87189 84.70947
76.0 0.01316 47.89742 87.03384
114.0 0.00877 47.92289 89.21895
92.0 0.01087 47.94845 91.18147
89.0 0.01124 47.97402 92.96935
103.0 0.00971 47.99956 94.73798
98.0 0.01020 48.02517 95.77866
98.0 0.01020 48.05082 96.43346
96.0 0.01042 48.07641 96.87505
120.0 0.00833 48.10209 97.37437
98.0 0.01020 48.12778 98.22941
103.0 0.00971 48.15343 99.72325
91.0 0.01099 48.17917 102.04212
110.0 0.00909 48.20491 105.59639
119.0 0.00840 48.23063 110.54745
122.0 0.00820 48.25640 117.07339
111.0 0.00901 48.28217 125.36911
133.0 0.00752 48.30796 135.28929
131.0 0.00763 48.33379 147.07547
156.0 0.00641 48.35959 160.40544
182.0 0.00549 48.38544 175.02298
187.0 0.00535 48.41129 190.54959
209.0 0.00478 48.43716 206.39107
218.0 0.00459 48.46309 221.69513
249.0 0.00402 48.48895 235.30675
263.0 0.00380 48.51489 245.89537
250.0 0.00400 48.54084 252.26814
266.0 0.00376 48.56675 253.79573
267.0 0.00375 48.59275 250.72147
251.0 0.00398 48.61873 244.11392
239.0 0.00418 48.64468 235.47069
184.0 0.00543 48.67067 226.24831
205.0 0.00488 48.69672 217.57559
191.0 0.00524 48.72270 210.17177
192.0 0.00521 48.74878 204.35805
202.0 0.00495 48.77482 200.08899
198.0 0.00505 48.80085 196.96237
195.0 0.00513 48.82695 194.70175
214.0 0.00467 48.85303 191.74278
193.0 0.00518 48.87912 187.67276
189.0 0.00529 48.90522 182.16844
210.0 0.00476 48.93132 175.25404
166.0 0.00602 48.95745 167.11641
160.0 0.00625 48.98359 158.45842
148.0 0.00676 49.00972 149.60561
136.0 0.00735 49.03588 141.02844
140.0 0.00714 49.06202 133.19742
108.0 0.00926 49.08819 126.54424
112.0 0.00893 49.11441 121.41183
118.0 0.00847 49.14054 118.11384
119.0 0.00840 49.16675 116.82441
123.0 0.00813 49.19297 117.26631
117.0 0.00855 49.21914 119.52110
127.0 0.00787 49.24538 123.46275
106.0 0.00943 49.27161 128.79750
125.0 0.00800 49.29780 135.32031
167.0 0.00599 49.32404 142.58873
147.0 0.00680 49.35030 150.28261
193.0 0.00518 49.37651 157.61505
171.0 0.00585 49.40278 164.06172
179.0 0.00559 49.42905 168.90855
187.0 0.00535 49.45527 171.52475
191.0 0.00524 49.48157 171.62802
179.0 0.00559 49.50784 169.17157
190.0 0.00526 49.53409 164.97238
166.0 0.00602 49.56038 159.70236
161.0 0.00621 49.58663 154.17191
148.0 0.00676 49.61292 148.88632
130.0 0.00769 49.63921 144.26418
128.0 0.00781 49.66548 140.45929
140.0 0.00714 49.69177 137.53682
143.0 0.00699 49.71804 135.04965
136.0 0.00735 49.74434 132.74530
124.0 0.00806 49.77067 130.41925
137.0 0.00730 49.79691 127.52067
125.0 0.00800 49.82322 124.05245
137.0 0.00730 49.84954 119.59051
121.0 0.00826 49.87579 114.74846
120.0 0.00833 49.90212 109.88914
111.0 0.00901 49.92842 105.29533
105.0 0.00952 49.95467 101.26105
115.0 0.00870 49.98097 97.99967
87.0 0.01149 50.00730 95.67532
107.0 0.00935 50.03354 95.07223
98.0 0.01020 50.05985 94.97971
84.0 0.01190 50.08615 96.08195
97.0 0.01031 50.11239 98.48312
114.0 0.00877 50.13871 102.01897
91.0 0.01099 50.16499 106.64004
99.0 0.01010 50.19125 111.88135
121.0 0.00826 50.21753 117.51508
119.0 0.00840 50.24377 123.32190
121.0 0.00826 50.27005 128.66751
138.0 0.00725 50.29631 132.95587
151.0 0.00662 50.32254 135.67261
161.0 0.00621 50.34880 136.58713
142.0 0.00704 50.37503 136.21098
168.0 0.00595 50.40128 134.41638
130.0 0.00769 50.42754 132.15782
118.0 0.00847 50.45372 130.12178
134.0 0.00746 50.47996 128.69411
115.0 0.00870 50.50620 128.13463
110.0 0.00909 50.53236 127.81664
136.0 0.00735 50.55860 128.99246
142.0 0.00704 50.58479 130.65874
154.0 0.00649 50.61094 132.72388
137.0 0.00730 50.63712 134.03806
139.0 0.00719 50.66333 134.56711
169.0 0.00592 50.68944 134.17914
142.0 0.00704 50.71562 133.00154
122.0 0.00820 50.74177 131.32390
146.0 0.00685 50.76786 128.99484
140.0 0.00714 50.79401 127.35203
120.0 0.00833 50.82014 125.74743
123.0 0.00813 50.84622 124.44359
121.0 0.00826 50.87231 123.56215
128.0 0.00781 50.89839 123.26157
106.0 0.00943 50.92445 123.71076
118.0 0.00847 50.95052 125.22437
133.0 0.00752 50.97656 127.56411
148.0 0.00676 51.00260 130.96233
136.0 0.00735 51.02860 135.45421
150.0 0.00667 51.05462 141.09706
140.0 0.00714 51.08065 147.74461
154.0 0.00649 51.10659 155.37161
177.0 0.00565 51.13257 163.92969
160.0 0.00625 51.15855 173.09219
177.0 0.00565 51.18445 182.73262
180.0 0.00556 51.21042 192.62442
210.0 0.00476 51.23634 202.49335
219.0 0.00457 51.26220 211.99773
204.0 0.00490 51.28808 220.12271
213.0 0.00469 51.31400 227.91681
224.0 0.00446 51.33980 234.70311
227.0 0.00441 51.36566 240.77164
234.0 0.00427 51.39150 246.59718
231.0 0.00433 51.41726 252.46837
259.0 0.00386 51.44308 258.42587
282.0 0.00355 51.46886 264.06046
325.0 0.003077 51.49460 268.61435
293.0 0.003413 51.52034 271.21741
278.0 0.00360 51.54604 271.19357
291.0 0.003436 51.57175 268.26746
264.0 0.00379 51.59743 262.25626
282.0 0.00355 51.62308 254.23529
235.0 0.00426 51.64873 244.52466
222.0 0.00450 51.67434 233.91702
222.0 0.00450 51.69995 223.26285
199.0 0.00503 51.72557 213.32539
214.0 0.00467 51.75109 204.63483
192.0 0.00521 51.77665 197.40454
181.0 0.00552 51.80219 191.52965
199.0 0.00503 51.82765 186.66928
195.0 0.00513 51.85316 182.39819
196.0 0.00510 51.87862 178.53986
199.0 0.00503 51.90403 174.62079
178.0 0.00562 51.92944 170.80255
179.0 0.00559 51.95488 167.20114
152.0 0.00658 51.98021 163.91774
165.0 0.00606 52.00558 160.98032
162.0 0.00617 52.03091 158.31500
161.0 0.00621 52.05617 155.72116
137.0 0.00730 52.08147 152.98279
146.0 0.00685 52.10675 149.97726
138.0 0.00725 52.13195 146.74034
157.0 0.00637 52.15715 143.42616
110.0 0.00909 52.18232 140.19693
113.0 0.00885 52.20747 137.12747
123.0 0.00813 52.23260 134.26906
115.0 0.00870 52.25770 131.35715
133.0 0.00752 52.28277 128.54976
93.0 0.01075 52.30780 125.53062
105.0 0.00952 52.33283 122.27171
140.0 0.00714 52.35786 119.26591
113.0 0.00885 52.38277 116.26524
131.0 0.00763 52.40773 113.22515
110.0 0.00909 52.43267 110.12501
89.0 0.01124 52.45751 106.75895
92.0 0.01087 52.48240 103.70091
106.0 0.00943 52.50723 100.77334
96.0 0.01042 52.53199 98.00130
87.0 0.01149 52.55676 95.35607
102.0 0.00980 52.58154 92.78788
104.0 0.00962 52.60620 90.33854
90.0 0.01111 52.63091 87.86925
88.0 0.01136 52.65560 85.51396
78.0 0.01282 52.68014 83.33736
84.0 0.01190 52.70477 81.77705
82.0 0.01220 52.72934 80.06637
68.0 0.01471 52.75384 78.56467
85.0 0.01176 52.77834 77.20145
68.0 0.01471 52.80278 75.98564
71.0 0.01408 52.82721 74.86002
67.0 0.01493 52.85161 73.82185
78.0 0.01282 52.87595 72.89424
77.0 0.01299 52.90029 72.11556
72.0 0.01389 52.92455 71.31919
81.0 0.01235 52.94884 70.96913
77.0 0.01299 52.97310 70.88392
56.0 0.01786 52.99723 71.09007
72.0 0.01389 53.02141 71.80078
87.0 0.01149 53.04557 72.63800
71.0 0.01408 53.06959 73.78362
86.0 0.01163 53.09370 75.21440
78.0 0.01282 53.11773 76.89188
70.0 0.01429 53.14167 78.76397
66.0 0.01515 53.16562 80.87639
77.0 0.01299 53.18959 82.90963
80.0 0.01250 53.21339 84.69568
96.0 0.01042 53.23726 86.35670
77.0 0.01299 53.26109 87.53910
104.0 0.00962 53.28478 88.07188
88.0 0.01136 53.30853 87.88603
90.0 0.01111 53.33224 86.17919
76.0 0.01316 53.35585 84.91855
83.0 0.01205 53.37946 83.45701
71.0 0.01408 53.40302 81.99433
89.0 0.01124 53.42655 80.71255
76.0 0.01316 53.45004 79.72094
92.0 0.01087 53.47348 79.12692
90.0 0.01111 53.49688 78.81692
94.0 0.01064 53.52021 78.79401
72.0 0.01389 53.54358 78.98924
70.0 0.01429 53.56689 79.23180
78.0 0.01282 53.59007 79.57693
76.0 0.01316 53.61331 79.26442
84.0 0.01190 53.63650 79.26485
70.0 0.01429 53.65955 79.23821
71.0 0.01408 53.68268 79.29908
86.0 0.01163 53.70572 79.67922
84.0 0.01190 53.72868 80.27029
82.0 0.01220 53.75161 81.18190
81.0 0.01235 53.77458 82.46520
64.0 0.01563 53.79738 84.10140
91.0 0.01099 53.82023 86.02940
89.0 0.01124 53.84303 88.14133
101.0 0.00990 53.86569 90.31431
92.0 0.01087 53.88840 92.08742
91.0 0.01099 53.91108 93.81548
85.0 0.01176 53.93363 95.01535
79.0 0.01266 53.95618 95.86229
105.0 0.00952 53.97867 96.28876
91.0 0.01099 54.00113 96.68255
92.0 0.01087 54.02353 97.21880
91.0 0.01099 54.04589 98.16650
113.0 0.00885 54.06820 99.73386
93.0 0.01075 54.09043 102.04772
93.0 0.01075 54.11268 105.16351
95.0 0.01053 54.13488 109.06013
105.0 0.00952 54.15694 113.64916
127.0 0.00787 54.17905 118.52408
138.0 0.00725 54.20110 123.79851
97.0 0.01031 54.22301 128.93019
139.0 0.00719 54.24500 133.51413
137.0 0.00730 54.26688 137.17676
144.0 0.00694 54.28867 139.50446
147.0 0.00680 54.31045 140.14697
159.0 0.00629 54.33223 139.16052
143.0 0.00699 54.35385 136.80052
125.0 0.00800 54.37550 133.52846
150.0 0.00667 54.39711 129.87978
116.0 0.00862 54.41857 126.24818
135.0 0.00741 54.44007 123.21922
130.0 0.00769 54.46153 120.91991
88.0 0.01136 54.48286 119.48743
115.0 0.00870 54.50418 118.93280
116.0 0.00862 54.52543 119.15997
120.0 0.00833 54.54664 119.97871
140.0 0.00714 54.56780 121.13403
150.0 0.00667 54.58889 122.39876
127.0 0.00787 54.60995 123.48872
121.0 0.00826 54.63091 124.33073
133.0 0.00752 54.65188 124.90564
151.0 0.00662 54.67279 125.23627
122.0 0.00820 54.69356 125.32034
114.0 0.00877 54.71436 125.19820
127.0 0.00787 54.73512 124.82686
123.0 0.00813 54.75571 124.17523
106.0 0.00943 54.77639 123.29629
111.0 0.00901 54.79694 122.05588
108.0 0.00926 54.81740 120.49846
107.0 0.00935 54.83784 118.63525
95.0 0.01053 54.85829 116.54169
101.0 0.00990 54.87855 114.37213
107.0 0.00935 54.89885 112.32742
103.0 0.00971 54.91908 110.59583
101.0 0.00990 54.93917 109.30743
117.0 0.00855 54.95930 108.51888
103.0 0.00971 54.97937 108.29374
108.0 0.00926 54.99931 108.43061
104.0 0.00962 55.01922 108.91051
85.0 0.01176 55.03908 109.82517
85.0 0.01176 55.05888 110.66949
121.0 0.00826 55.07861 111.43451
138.0 0.00725 55.09829 112.02562
107.0 0.00935 55.11792 112.31931
112.0 0.00893 55.13744 112.17517
92.0 0.01087 55.15697 111.68976
111.0 0.00901 55.17644 110.73119
116.0 0.00862 55.19574 109.38850
103.0 0.00971 55.21509 107.79263
120.0 0.00833 55.23437 106.13165
99.0 0.01010 55.25349 104.60500
107.0 0.00935 55.27268 103.37424
113.0 0.00885 55.29174 102.53061
103.0 0.00971 55.31071 102.18838
107.0 0.00935 55.32965 102.07935
90.0 0.01111 55.34858 102.20575
85.0 0.01176 55.36733 102.16909
91.0 0.01099 55.38611 102.14717
95.0 0.01053 55.40482 101.84107
95.0 0.01053 55.42338 101.13036
100.0 0.01000 55.44196 99.99239
92.0 0.01087 55.46048 98.54453
84.0 0.01190 55.47886 96.93428
96.0 0.01042 55.49722 95.32431
98.0 0.01020 55.51552 93.85506
89.0 0.01124 55.53374 92.62200
96.0 0.01042 55.55190 91.66755
99.0 0.01010 55.56999 90.98293
77.0 0.01299 55.58801 90.51421
78.0 0.01282 55.60594 90.10358
80.0 0.01250 55.62387 89.77181
81.0 0.01235 55.64172 89.33096
91.0 0.01099 55.65942 88.70647
93.0 0.01075 55.67714 87.45129
87.0 0.01149 55.69479 86.40451
84.0 0.01190 55.71228 85.25938
81.0 0.01235 55.72982 84.21899
79.0 0.01266 55.74724 83.24046
72.0 0.01389 55.76455 82.50671
81.0 0.01235 55.78183 82.12894
72.0 0.01389 55.79910 82.09504
79.0 0.01266 55.81617 82.46770
87.0 0.01149 55.83327 83.25723
79.0 0.01266 55.85029 84.45576
79.0 0.01266 55.86715 86.02512
99.0 0.01010 55.88404 87.91383
79.0 0.01266 55.90085 90.04829
90.0 0.01111 55.91753 92.14547
78.0 0.01282 55.93417 94.49147
91.0 0.01099 55.95074 96.76402
105.0 0.00952 55.96723 98.85770
101.0 0.00990 55.98366 100.55192
89.0 0.01124 56.00001 101.67403
94.0 0.01064 56.01630 102.43597
96.0 0.01042 56.03246 102.81362
108.0 0.00926 56.04863 102.86214
115.0 0.00870 56.06472 102.88814
102.0 0.00980 56.08064 102.99932
87.0 0.01149 56.09658 103.33362
100.0 0.01000 56.11245 103.98845
85.0 0.01176 56.12815 105.00704
103.0 0.00971 56.14389 106.37563
98.0 0.01020 56.15951 108.02492
120.0 0.00833 56.17502 109.83746
108.0 0.00926 56.19048 111.65018
125.0 0.00800 56.20592 113.26939
119.0 0.00840 56.22118 114.43197
135.0 0.00741 56.23644 115.06280
104.0 0.00962 56.25162 114.86895
110.0 0.00909 56.26665 114.01836
107.0 0.00935 56.28168 112.45744
104.0 0.00962 56.29664 110.32065
110.0 0.00909 56.31145 107.79558
78.0 0.01282 56.32623 105.08432
93.0 0.01075 56.34092 102.37476
83.0 0.01205 56.35555 99.70852
76.0 0.01316 56.37009 97.32860
91.0 0.01099 56.38454 95.37054
96.0 0.01042 56.39892 93.75545
78.0 0.01282 56.41320 92.49706
88.0 0.01136 56.42745 91.44263
101.0 0.00990 56.44162 90.53379
97.0 0.01031 56.45564 89.66309
76.0 0.01316 56.46964 88.73786
89.0 0.01124 56.48357 87.69491
74.0 0.01351 56.49735 86.77731
86.0 0.01163 56.51115 85.43849
77.0 0.01299 56.52481 83.86011
83.0 0.01205 56.53836 82.29243
70.0 0.01429 56.55186 80.63917
71.0 0.01408 56.56533 79.06925
74.0 0.01351 56.57862 77.66025
78.0 0.01282 56.59191 76.46584
68.0 0.01471 56.60511 75.57102
68.0 0.01471 56.61814 74.98085
73.0 0.01370 56.63118 74.74430
70.0 0.01429 56.64414 74.87119
65.0 0.01538 56.65695 75.35238
84.0 0.01190 56.66972 76.15872
60.0 0.01667 56.68239 77.37656
75.0 0.01333 56.69499 78.66607
69.0 0.01449 56.70750 80.01946
76.0 0.01316 56.71992 81.35123
79.0 0.01266 56.73227 82.86150
88.0 0.01136 56.74449 83.93681
69.0 0.01449 56.75671 84.65591
83.0 0.01205 56.76882 84.93499
92.0 0.01087 56.78076 84.75059
69.0 0.01449 56.79271 84.14645
66.0 0.01515 56.80457 83.21729
95.0 0.01053 56.81627 82.08347
69.0 0.01449 56.82798 80.86822
74.0 0.01351 56.83956 79.68041
60.0 0.01667 56.85102 78.62280
68.0 0.01471 56.86242 77.71223
64.0 0.01563 56.87379 77.13657
80.0 0.01250 56.88497 76.54922
79.0 0.01266 56.89614 76.14539
85.0 0.01176 56.90721 75.89099
61.0 0.01639 56.91813 75.54413
66.0 0.01515 56.92903 75.09123
72.0 0.01389 56.93985 74.36561
69.0 0.01449 56.95052 73.66491
86.0 0.01163 56.96114 72.85655
68.0 0.01471 56.97166 71.97916
75.0 0.01333 56.98211 71.01698
58.0 0.01724 56.99245 70.14347
79.0 0.01266 57.00272 69.32896
65.0 0.01538 57.01288 68.61291
55.0 0.01818 57.02293 68.08218
68.0 0.01471 57.03295 67.61566
68.0 0.01471 57.04288 67.30691
69.0 0.01449 57.05263 67.14992
62.0 0.01613 57.06237 67.16241
77.0 0.01299 57.07203 67.36707
76.0 0.01316 57.08152 67.67876
65.0 0.01538 57.09102 68.27323
78.0 0.01282 57.10038 69.09315
68.0 0.01471 57.10960 69.95686
83.0 0.01205 57.11878 71.24873
62.0 0.01613 57.12793 72.88688
78.0 0.01282 57.13685 74.83926
66.0 0.01515 57.14578 77.12782
68.0 0.01471 57.15461 79.76447
73.0 0.01370 57.16328 82.78814
87.0 0.01149 57.17191 86.10709
91.0 0.01099 57.18047 89.72556
85.0 0.01176 57.18887 93.59425
78.0 0.01282 57.19721 97.65377
97.0 0.01031 57.20547 101.83709
116.0 0.00862 57.21362 106.06401
117.0 0.00855 57.22168 110.22736
129.0 0.00775 57.22964 114.06648
113.0 0.00885 57.23751 117.65520
113.0 0.00885 57.24526 120.71986
127.0 0.00787 57.25297 123.16116
123.0 0.00813 57.26058 124.94670
113.0 0.00885 57.26802 126.02943
122.0 0.00820 57.27544 126.53609
140.0 0.00714 57.28277 126.41399
114.0 0.00877 57.28992 125.60867
138.0 0.00725 57.29709 124.17358
140.0 0.00714 57.30411 122.22005
127.0 0.00787 57.31099 119.93726
99.0 0.01010 57.31781 117.53292
104.0 0.00962 57.32460 115.18111
111.0 0.00901 57.33117 112.99135
114.0 0.00877 57.33773 111.10088
120.0 0.00833 57.34419 109.32897
92.0 0.01087 57.35048 107.75398
114.0 0.00877 57.35674 106.64742
127.0 0.00787 57.36292 105.44862
93.0 0.01075 57.36893 104.45953
96.0 0.01042 57.37487 103.63657
96.0 0.01042 57.38073 102.94307
100.0 0.01000 57.38647 102.26985
126.0 0.00794 57.39213 101.79141
105.0 0.00952 57.39769 101.45403
92.0 0.01087 57.40315 101.39988
97.0 0.01031 57.40847 101.44093
97.0 0.01031 57.41377 101.63828
101.0 0.00990 57.41894 102.10444
106.0 0.00943 57.42395 102.29355
104.0 0.00962 57.42892 102.25240
100.0 0.01000 57.43382 101.84115
98.0 0.01020 57.43854 101.12535
110.0 0.00909 57.44324 99.84169
95.0 0.01053 57.44780 98.21087
101.0 0.00990 57.45223 96.36778
89.0 0.01124 57.45659 94.40945
98.0 0.01020 57.46091 92.54710
96.0 0.01042 57.46502 90.83851
79.0 0.01266 57.46911 89.40276
110.0 0.00909 57.47308 88.17580
89.0 0.01124 57.47688 87.20087
73.0 0.01370 57.48066 86.44009
97.0 0.01031 57.48434 85.98778
73.0 0.01370 57.48786 85.41126
99.0 0.01010 57.49130 84.78568
87.0 0.01149 57.49465 84.03953
82.0 0.01220 57.49790 83.29228
83.0 0.01205 57.50103 82.25777
62.0 0.01613 57.50407 81.12514
67.0 0.01493 57.50701 79.95229
64.0 0.01563 57.50982 78.79774
76.0 0.01316 57.51257 77.71319
55.0 0.01818 57.51522 76.73917
75.0 0.01333 57.51769 75.90324
72.0 0.01389 57.52013 75.21892
74.0 0.01351 57.52249 74.75252
59.0 0.01695 57.52464 74.35728
68.0 0.01471 57.52680 74.11548
66.0 0.01515 57.52881 73.90195
76.0 0.01316 57.53068 73.72932
69.0 0.01449 57.53247 73.77374
64.0 0.01563 57.53421 73.78612
67.0 0.01493 57.53575 73.68859
72.0 0.01389 57.53727 73.65488
69.0 0.01449 57.53866 73.72611
69.0 0.01449 57.53988 73.94719
79.0 0.01266 57.54107 74.36403
68.0 0.01471 57.54216 75.02319
70.0 0.01429 57.54308 75.97392
79.0 0.01266 57.54394 77.43329
58.0 0.01724 57.54468 79.14447
84.0 0.01190 57.54532 81.25282
85.0 0.01176 57.54585 83.83044
77.0 0.01299 57.54628 86.90895
99.0 0.01010 57.54659 90.51080
82.0 0.01220 57.54678 94.64759
103.0 0.00971 57.54692 99.31596
90.0 0.01111 57.54694 104.48895
128.0 0.00781 57.54678 110.10413
106.0 0.00943 57.54659 116.05303
125.0 0.00800 57.54630 122.17271
133.0 0.00752 57.54583 128.46062
150.0 0.00667 57.54533 134.24748
141.0 0.00709 57.54469 139.56985
180.0 0.00556 57.54391 144.31248
147.0 0.00680 57.54306 148.23033
158.0 0.00633 57.54213 151.45628
167.0 0.00599 57.54101 154.16621
159.0 0.00629 57.53986 156.61630
163.0 0.00613 57.53859 159.41502
172.0 0.00581 57.53714 162.02939
175.0 0.00571 57.53564 165.00333
167.0 0.00599 57.53407 167.56616
181.0 0.00552 57.53231 170.44305
193.0 0.00518 57.53048 173.04588
200.0 0.00500 57.52854 175.17885
174.0 0.00575 57.52648 176.81891
180.0 0.00556 57.52433 177.62546
177.0 0.00565 57.52206 177.71031
204.0 0.00490 57.51967 177.12909
183.0 0.00546 57.51716 175.78412
173.0 0.00578 57.51460 174.05849
158.0 0.00633 57.51189 171.82379
166.0 0.00602 57.50904 169.20032
174.0 0.00575 57.50611 166.69601
161.0 0.00621 57.50311 163.78609
174.0 0.00575 57.49992 160.96669
155.0 0.00645 57.49670 158.39287
190.0 0.00526 57.49333 155.88240
157.0 0.00637 57.48983 153.41766
178.0 0.00562 57.48623 150.86043
152.0 0.00658 57.48257 148.15010
138.0 0.00725 57.47873 145.07205
149.0 0.00671 57.47483 141.70250
147.0 0.00680 57.47080 138.07069
153.0 0.00654 57.46662 134.47543
124.0 0.00806 57.46238 131.01413
126.0 0.00794 57.45803 127.72005
135.0 0.00741 57.45353 124.70595
105.0 0.00952 57.44894 122.19739
128.0 0.00781 57.44423 120.07951
130.0 0.00769 57.43941 118.54128
118.0 0.00847 57.43449 117.63198
134.0 0.00746 57.42945 117.34344
118.0 0.00847 57.42430 117.60487
123.0 0.00813 57.41901 118.30595
109.0 0.00917 57.41366 119.27876
123.0 0.00813 57.40819 120.31169
114.0 0.00877 57.40255 121.26634
143.0 0.00699 57.39684 122.01152
152.0 0.00658 57.39106 122.59437
153.0 0.00654 57.38507 123.22304
139.0 0.00719 57.37906 123.56910
156.0 0.00641 57.37289 123.94467
128.0 0.00781 57.36660 124.48378
127.0 0.00787 57.36020 125.15240
122.0 0.00820 57.35374 125.99303
132.0 0.00758 57.34709 126.97185
153.0 0.00654 57.34039 128.05185
130.0 0.00769 57.33355 129.22592
127.0 0.00787 57.32656 130.54425
140.0 0.00714 57.31950 132.05586
123.0 0.00813 57.31234 133.84123
137.0 0.00730 57.30502 135.93552
128.0 0.00781 57.29761 138.30365
145.0 0.00690 57.29008 140.91786
162.0 0.00617 57.28245 143.92755
163.0 0.00613 57.27469 146.74254
140.0 0.00714 57.26683 149.37527
152.0 0.00658 57.25885 151.85243
154.0 0.00649 57.25072 154.23555
146.0 0.00685 57.24253 156.49591
185.0 0.00541 57.23422 158.96507
159.0 0.00629 57.22574 161.63075
204.0 0.00490 57.21720 164.52634
180.0 0.00556 57.20856 167.34789
198.0 0.00505 57.19974 170.54701
186.0 0.00538 57.19088 173.71048
200.0 0.00500 57.18187 176.69582
199.0 0.00503 57.17272 179.39395
165.0 0.00606 57.16347 181.74501
228.0 0.00439 57.15415 183.84616
203.0 0.00493 57.14464 185.29622
195.0 0.00513 57.13509 186.44844
208.0 0.00481 57.12538 187.13795
209.0 0.00478 57.11554 187.38771
210.0 0.00476 57.10561 187.07567
205.0 0.00488 57.09559 186.71687
152.0 0.00658 57.08540 186.17035
206.0 0.00485 57.07511 185.28891
211.0 0.00474 57.06472 184.25192
190.0 0.00526 57.05421 182.75275
208.0 0.00481 57.04358 180.62428
184.0 0.00543 57.03285 177.76448
169.0 0.00592 57.02198 174.18648
162.0 0.00617 57.01098 170.02614
191.0 0.00524 56.99992 165.50270
176.0 0.00568 56.98872 160.78726
169.0 0.00592 56.97736 156.22545
151.0 0.00662 56.96593 151.89212
173.0 0.00578 56.95441 147.91258
135.0 0.00741 56.94270 144.24390
155.0 0.00645 56.93095 141.14656
142.0 0.00704 56.91905 138.56526
133.0 0.00752 56.90700 136.39888
134.0 0.00746 56.89487 134.86896
129.0 0.00775 56.88265 133.82060
140.0 0.00714 56.87025 133.21411
153.0 0.00654 56.85779 133.02391
146.0 0.00685 56.84520 133.24915
166.0 0.00602 56.83244 133.91376
156.0 0.00641 56.81962 135.05717
149.0 0.00671 56.80669 136.71967
141.0 0.00709 56.79360 138.92610
156.0 0.00641 56.78042 141.67087
174.0 0.00575 56.76711 144.89090
152.0 0.00658 56.75370 148.47029
183.0 0.00546 56.74017 152.19539
160.0 0.00625 56.72651 155.76804
159.0 0.00629 56.71275 159.01601
153.0 0.00654 56.69884 161.13727
189.0 0.00529 56.68486 161.96043
191.0 0.00524 56.67075 161.30336
182.0 0.00549 56.65648 159.10713
180.0 0.00556 56.64214 155.61812
151.0 0.00662 56.62769 151.20764
159.0 0.00629 56.61307 146.30341
131.0 0.00763 56.59840 141.30479
134.0 0.00746 56.58358 136.53558
113.0 0.00885 56.56861 132.23021
125.0 0.00800 56.55355 128.53343
142.0 0.00704 56.53842 125.50165
129.0 0.00775 56.52309 123.10313
136.0 0.00735 56.50771 121.21391
128.0 0.00781 56.49220 119.63419
129.0 0.00775 56.47652 118.33411
128.0 0.00781 56.46077 116.61594
123.0 0.00813 56.44493 114.48978
127.0 0.00787 56.42891 111.86339
114.0 0.00877 56.41279 108.71823
128.0 0.00781 56.39657 105.18327
116.0 0.00862 56.38023 101.43236
110.0 0.00909 56.36376 97.65263
103.0 0.00971 56.34718 94.01298
72.0 0.01389 56.33049 90.65105
87.0 0.01149 56.31364 87.67158
80.0 0.01250 56.29674 85.14812
93.0 0.01075 56.27969 83.12394
102.0 0.00980 56.26250 81.42780
83.0 0.01205 56.24522 80.42817
79.0 0.01266 56.22784 79.87625
87.0 0.01149 56.21029 79.90727
85.0 0.01176 56.19270 80.05645
79.0 0.01266 56.17494 80.40238
73.0 0.01370 56.15704 80.82195
79.0 0.01266 56.13905 81.18378
82.0 0.01220 56.12097 81.36510
74.0 0.01351 56.10273 81.31229
78.0 0.01282 56.08441 80.92554
76.0 0.01316 56.06596 80.27262
100.0 0.01000 56.04735 79.43628
82.0 0.01220 56.02867 78.57175
75.0 0.01333 56.00988 77.67765
63.0 0.01587 55.99093 76.90079
59.0 0.01695 55.97189 76.27879
85.0 0.01176 55.95272 75.87064
78.0 0.01282 55.93344 75.69028
79.0 0.01266 55.91404 75.30225
85.0 0.01176 55.89454 75.60836
79.0 0.01266 55.87491 76.12791
78.0 0.01282 55.85513 76.83577
72.0 0.01389 55.83529 77.70669
76.0 0.01316 55.81532 78.72615
88.0 0.01136 55.79519 79.92090
76.0 0.01316 55.77498 81.29603
78.0 0.01282 55.75466 82.93530
83.0 0.01205 55.73418 84.91776
83.0 0.01205 55.71365 87.34371
96.0 0.01042 55.69297 90.21787
85.0 0.01176 55.67213 93.59983
86.0 0.01163 55.65122 97.49665
83.0 0.01205 55.63021 101.81625
83.0 0.01205 55.60903 106.45564
94.0 0.01064 55.58779 110.94858
100.0 0.01000 55.56640 115.82739
117.0 0.00855 55.54488 120.59628
123.0 0.00813 55.52325 124.59274
127.0 0.00787 55.50154 127.66005
133.0 0.00752 55.47966 129.55870
126.0 0.00794 55.45770 130.14001
153.0 0.00654 55.43560 129.49109
133.0 0.00752 55.41340 127.84813
108.0 0.00926 55.39108 125.55021
114.0 0.00877 55.36864 122.96468
103.0 0.00971 55.34609 120.43063
110.0 0.00909 55.32339 118.22665
107.0 0.00935 55.30063 116.57078
99.0 0.01010 55.27773 115.40511
103.0 0.00971 55.25468 115.11643
103.0 0.00971 55.23155 115.51504
108.0 0.00926 55.20831 116.49746
106.0 0.00943 55.18493 117.97545
107.0 0.00935 55.16146 119.54452
105.0 0.00952 55.13786 121.02305
123.0 0.00813 55.11412 122.16058
128.0 0.00781 55.09028 122.72374
143.0 0.00699 55.06635 122.57065
131.0 0.00763 55.04227 121.62257
124.0 0.00806 55.01811 119.87415
121.0 0.00826 54.99381 117.39680
101.0 0.00990 54.96938 114.33516
108.0 0.00926 54.94485 110.86717
114.0 0.00877 54.92022 107.23324
97.0 0.01031 54.89544 103.43972
93.0 0.01075 54.87056 99.95970
83.0 0.01205 54.84557 96.73730
84.0 0.01190 54.82046 93.84950
92.0 0.01087 54.79524 91.54112
101.0 0.00990 54.76990 89.43893
87.0 0.01149 54.74445 87.71712
77.0 0.01299 54.71886 86.32474
84.0 0.01190 54.69320 85.18331
83.0 0.01205 54.66740 84.19666
74.0 0.01351 54.64146 83.26511
83.0 0.01205 54.61543 82.30471
93.0 0.01075 54.58930 81.26508
67.0 0.01493 54.56303 80.13383
85.0 0.01176 54.53667 78.79260
80.0 0.01250 54.51019 77.58128
85.0 0.01176 54.48356 76.39247
81.0 0.01235 54.45684 75.26878
81.0 0.01235 54.43003 74.24174
72.0 0.01389 54.40306 73.36357
60.0 0.01667 54.37603 72.63842
50.0 0.02000 54.34884 72.23865
57.0 0.01754 54.32154 71.93540
52.0 0.01923 54.29413 71.87330
75.0 0.01333 54.26663 72.07694
56.0 0.01786 54.23898 72.54354
65.0 0.01538 54.21124 73.27585
72.0 0.01389 54.18338 74.27737
57.0 0.01754 54.15541 75.49828
87.0 0.01149 54.12731 77.01237
94.0 0.01064 54.09912 78.72142
101.0 0.00990 54.07081 80.60916
74.0 0.01351 54.04235 82.64244
88.0 0.01136 54.01384 84.78688
79.0 0.01266 53.98518 87.00209
105.0 0.00952 53.95639 89.24332
76.0 0.01316 53.92751 91.54855
98.0 0.01020 53.89854 93.61217
94.0 0.01064 53.86942 95.40049
96.0 0.01042 53.84021 96.80444
121.0 0.00826 53.81088 97.65675
102.0 0.00980 53.78141 97.94225
90.0 0.01111 53.75187 97.58452
119.0 0.00840 53.72221 96.64682
83.0 0.01205 53.69241 95.26217
90.0 0.01111 53.66254 93.60143
79.0 0.01266 53.63253 91.84174
81.0 0.01235 53.60240 90.10969
78.0 0.01282 53.57216 88.51991
92.0 0.01087 53.54184 87.14321
76.0 0.01316 53.51138 86.01644
79.0 0.01266 53.48081 85.14461
83.0 0.01205 53.45014 84.50193
79.0 0.01266 53.41935 84.08389
88.0 0.01136 53.38845 83.71413
80.0 0.01250 53.35744 83.34176
76.0 0.01316 53.32632 82.90523
82.0 0.01220 53.29507 82.22784
98.0 0.01020 53.26375 81.29790
92.0 0.01087 53.23229 80.11340
84.0 0.01190 53.20072 78.72190
81.0 0.01235 53.16904 77.21861
73.0 0.01370 53.13728 75.66016
78.0 0.01282 53.10537 74.14383
83.0 0.01205 53.07337 72.73645
77.0 0.01299 53.04126 71.48830
78.0 0.01282 53.00901 70.43467
77.0 0.01299 52.97669 69.59838
73.0 0.01370 52.94425 68.99236
58.0 0.01724 52.91169 68.36194
75.0 0.01333 52.87905 68.23521
66.0 0.01515 52.84627 68.34606
75.0 0.01333 52.81337 68.70930
56.0 0.01786 52.78038 69.30211
71.0 0.01408 52.74730 70.12501
67.0 0.01493 52.71408 71.25859
56.0 0.01786 52.68076 72.55592
73.0 0.01370 52.64733 74.08492
78.0 0.01282 52.61380 75.84359
73.0 0.01370 52.58015 77.79579
92.0 0.01087 52.54641 79.91670
82.0 0.01220 52.51255 82.15738
96.0 0.01042 52.47857 84.45105
92.0 0.01087 52.44452 86.71127
113.0 0.00885 52.41033 88.83266
115.0 0.00870 52.37603 90.56660
102.0 0.00980 52.34163 92.05863
80.0 0.01250 52.30714 93.08136
86.0 0.01163 52.27253 93.58652
101.0 0.00990 52.23782 93.58702
118.0 0.00847 52.20300 93.16103
94.0 0.01064 52.16805 92.40488
93.0 0.01075 52.13302 91.50469
91.0 0.01099 52.09789 90.48965
93.0 0.01075 52.06263 89.51118
84.0 0.01190 52.02729 88.79823
95.0 0.01053 51.99183 88.09262
73.0 0.01370 51.95626 87.54833
74.0 0.01351 51.92057 87.17235
87.0 0.01149 51.88482 86.89455
81.0 0.01235 51.84892 86.68393
109.0 0.00917 51.81294 86.41381
100.0 0.01000 51.77684 86.19852
83.0 0.01205 51.74065 85.87698
73.0 0.01370 51.70435 85.45154
83.0 0.01205 51.66795 84.93327
91.0 0.01099 51.63143 84.35725
91.0 0.01099 51.59480 83.95465
80.0 0.01250 51.55810 83.44600
100.0 0.01000 51.52127 83.05768
94.0 0.01064 51.48434 82.84605
99.0 0.01010 51.44730 82.84175
91.0 0.01099 51.41019 83.13416
93.0 0.01075 51.37294 83.55922
98.0 0.01020 51.33562 84.06742
80.0 0.01250 51.29818 84.78559
87.0 0.01149 51.26062 85.55399
100.0 0.01000 51.22297 86.24477
110.0 0.00909 51.18523 86.78894
108.0 0.00926 51.14737 87.11931
94.0 0.01064 51.10944 87.16183
85.0 0.01176 51.07138 86.91273
107.0 0.00935 51.03321 86.39184
80.0 0.01250 50.99495 85.63741
96.0 0.01042 50.95660 84.82952
94.0 0.01064 50.91813 83.76856
80.0 0.01250 50.87957 82.63345
85.0 0.01176 50.84091 81.48051
86.0 0.01163 50.80215 80.36493
72.0 0.01389 50.76328 79.33720
63.0 0.01587 50.72432 78.28679
89.0 0.01124 50.68526 77.53474
85.0 0.01176 50.64608 76.92179
88.0 0.01136 50.60683 76.44382
76.0 0.01316 50.56747 76.04372
67.0 0.01493 50.52800 75.69312
91.0 0.01099 50.48844 75.35462
83.0 0.01205 50.44878 75.00117
76.0 0.01316 50.40903 74.61905
93.0 0.01075 50.36918 74.20598
88.0 0.01136 50.32922 73.76625
72.0 0.01389 50.28915 73.30003
89.0 0.01124 50.24900 72.83134
73.0 0.01370 50.20876 72.36686
77.0 0.01299 50.16841 71.92948
66.0 0.01515 50.12798 71.55171
95.0 0.01053 50.08743 71.27367
92.0 0.01087 50.04679 71.13907
76.0 0.01316 50.00605 71.19084
72.0 0.01389 49.96523 71.46684
52.0 0.01923 49.92429 71.99704
82.0 0.01220 49.88327 72.80147
67.0 0.01493 49.84214 73.84191
86.0 0.01163 49.80092 75.20835
68.0 0.01471 49.75962 76.83433
70.0 0.01429 49.71822 78.68633
87.0 0.01149 49.67671 80.71746
88.0 0.01136 49.63509 82.86177
98.0 0.01020 49.59342 85.07560
89.0 0.01124 49.55162 87.28944
98.0 0.01020 49.50975 89.44781
97.0 0.01031 49.46776 91.49977
96.0 0.01042 49.42571 93.39728
101.0 0.00990 49.38354 95.09683
99.0 0.01010 49.34129 96.56982
96.0 0.01042 49.29894 97.81887
99.0 0.01010 49.25649 98.88674
121.0 0.00826 49.21395 99.86752
110.0 0.00909 49.17133 100.86543
113.0 0.00885 49.12860 101.98047
124.0 0.00806 49.08581 103.08022
100.0 0.01000 49.04290 104.58485
112.0 0.00893 48.99989 106.24911
119.0 0.00840 48.95680 107.97470
121.0 0.00826 48.91364 109.61561
102.0 0.00980 48.87035 110.99853
134.0 0.00746 48.82699 111.95584
122.0 0.00820 48.78354 112.36288
loop_
_refln_index_h
_refln_index_k
_refln_index_l
_pd_refln_wavelength_id
_refln_observed_status
_refln_F_squared_meas
_refln_F_squared_calc
_refln_phase_calc
_refln_d_spacing
_gsas_i100_meas
2 0 0 1 o 42313.75 42392.48 180.00 8.63152 100.00
2 0 0 2 o 42348.87 42392.48 180.00 8.63152 49.80
2 1 0 1 o 6591.462 6925.626 0.00 5.13753 11.03
2 1 0 2 o 6679.087 6925.626 0.00 5.13753 5.57
4 0 0 1 o 3092.492 3187.961 0.00 4.31576 1.62
1 1 1 1 o 3738.394 3877.495 180.00 4.31142 8.89
4 0 0 2 o 3093.799 3187.961 0.00 4.31576 0.81
1 1 1 2 o 3720.899 3877.495 180.00 4.31142 4.40
2 1 1 1 o 4778.928 4736.453 180.00 3.95706 9.06
2 1 1 2 o 4797.107 4736.453 180.00 3.95706 4.53
4 1 0 1 o 22006.230 20450.938 180.00 3.57705 18.27
4 1 0 2 o 21924.912 20450.938 180.00 3.57705 9.05
3 1 1 1 o 452.467 410.595 180.00 3.52144 1.32
3 1 1 2 o 509.470 410.595 180.00 3.52144 0.71
0 2 0 1 o 37563.66 35251.92 0.00 3.19668 13.11
0 2 0 2 o 37867.80 35251.92 0.00 3.19668 6.57
0 0 2 1 o 8865.940 8476.424 0.00 3.10225 3.86
4 1 1 1 o 9078.167 8822.502 0.00 3.09892 10.43
0 0 2 2 o 8726.273 8476.424 0.00 3.10225 1.89
4 1 1 2 o 8964.002 8822.502 0.00 3.09892 5.11
1 0 2 1 o 39108.00 39580.70 0.00 3.05334 25.12
1 0 2 2 o 38683.20 39580.70 0.00 3.05334 12.35
2 2 0 1 o 4382.395 3875.861 180.00 2.99770 2.58
2 2 0 2 o 4823.887 3875.861 180.00 2.99770 1.42
2 0 2 1 o 507.217 312.340 0.00 2.91942 0.23
2 0 2 2 o 442.245 312.340 0.00 2.91942 0.10
6 0 0 1 o 8718.551 7293.792 0.00 2.87717 2.54
6 0 0 2 o 8719.869 7293.792 0.00 2.87717 1.26
0 2 1 1 o 21735.182 21750.619 0.00 2.84169 10.72
0 2 1 2 o 21263.559 21750.619 0.00 2.84169 5.20
1 2 1 1 o 1093.902 1025.231 180.00 2.80395 0.71
1 2 1 2 o 1163.144 1025.231 180.00 2.80395 0.39
1 1 2 1 o 1672.746 1546.578 180.00 2.75526 1.63
1 1 2 2 o 1652.490 1546.578 180.00 2.75526 0.80
5 1 1 1 o 13.211 11.820 0.00 2.72843 0.13
5 1 1 2 o 15.738 11.820 0.00 2.72843 0.07
3 0 2 1 o 12106.073 12002.114 180.00 2.73070 5.68
3 0 2 2 o 12144.145 12002.114 180.00 2.73070 2.84
2 2 1 1 o 12040.109 11261.861 180.00 2.69917 10.62
2 2 1 2 o 11959.681 11261.861 180.00 2.69917 5.24
2 1 2 1 o 56.569 53.078 180.00 2.65565 0.03
2 1 2 2 o 59.345 53.078 180.00 2.65565 0.02
6 1 0 1 o 24130.764 21807.244 0.00 2.62373 11.28
6 1 0 2 o 24371.324 21807.244 0.00 2.62373 5.67
4 2 0 1 o 107.062 78.157 0.00 2.56877 0.04
4 2 0 2 o 93.835 78.157 0.00 2.56877 0.02
3 2 1 1 o 3878.617 4003.561 0.00 2.54794 3.00
3 2 1 2 o 3850.864 4003.561 0.00 2.54794 1.48
4 0 2 1 o 2848.469 2795.721 180.00 2.51899 1.24
4 0 2 2 o 2851.192 2795.721 180.00 2.51899 0.62
3 1 2 1 o 6046.077 5934.823 0.00 2.51123 4.75
3 1 2 2 o 6096.061 5934.823 0.00 2.51123 2.39
6 1 1 1 o 15503.939 15228.679 180.00 2.41655 11.79
6 1 1 2 o 15597.235 15228.679 180.00 2.41655 5.91
4 2 1 1 o 3501.130 3451.948 0.00 2.37340 2.44
4 2 1 2 o 3588.817 3451.948 0.00 2.37340 1.25
4 1 2 1 o -4.386 0.163 180.00 2.34364 0.00
4 1 2 2 o -1.754 0.163 180.00 2.34364 0.00
5 0 2 1 o 1313.025 985.651 0.00 2.30758 0.46
5 0 2 2 o 1195.953 985.651 0.00 2.30758 0.21
0 2 2 1 o 4408.946 4148.312 0.00 2.22626 1.67
0 2 2 2 o 4610.683 4148.312 0.00 2.22626 0.87
1 2 2 1 o 3529.168 3486.337 0.00 2.20797 2.20
1 2 2 2 o 3524.515 3486.337 0.00 2.20797 1.09
5 2 1 1 o 2954.473 2922.628 180.00 2.19410 2.01
5 2 1 2 o 2844.532 2922.628 180.00 2.19410 0.96
5 1 2 1 o 10226.120 9933.025 180.00 2.17053 6.22
5 1 2 2 o 10237.102 9933.025 180.00 2.17053 3.10
8 0 0 1 o 25362.463 25283.357 180.00 2.15788 3.92
7 1 1 1 o 3020.877 3010.781 0.00 2.15734 1.74
2 2 2 1 o 103.080 102.254 180.00 2.15571 0.10
8 0 0 2 o 25322.350 25283.357 180.00 2.15788 1.95
7 1 1 2 o 2993.783 3010.781 0.00 2.15734 0.85
2 2 2 2 o 99.053 102.254 180.00 2.15571 0.05
6 2 0 1 o 1675.537 1974.751 0.00 2.13853 0.57
6 2 0 2 o 1682.286 1974.751 0.00 2.13853 0.28
6 0 2 1 o 1309.926 1186.839 0.00 2.10956 0.47
6 0 2 2 o 1242.198 1186.839 0.00 2.10956 0.22
3 2 2 1 o 901.201 876.936 180.00 2.07629 0.48
3 2 2 2 o 867.405 876.936 180.00 2.07629 0.23
2 3 0 1 o 12378.699 12489.150 0.00 2.06899 3.46
2 3 0 2 o 13038.664 12489.150 0.00 2.06899 1.82
8 1 0 1 o 2394.934 2048.006 180.00 2.04456 0.62
8 1 0 2 o 2566.482 2048.006 180.00 2.04456 0.33
6 2 1 1 o 215.379 226.222 0.00 2.02181 0.10
6 2 1 2 o 118.880 226.222 0.00 2.02181 0.02
6 1 2 1 o -6.002 0.005 180.00 2.00332 0.00
1 3 1 1 o -0.298 0.014 0.00 2.00194 0.00
6 1 2 2 o 10.552 0.005 180.00 2.00332 0.00
1 3 1 2 o 1.455 0.014 0.00 2.00194 0.00
4 2 2 1 o 519.064 516.135 180.00 1.97853 0.29
4 2 2 2 o 464.617 516.135 180.00 1.97853 0.13
2 3 1 1 o 435.358 502.281 0.00 1.96274 0.20
2 3 1 2 o 438.316 502.281 0.00 1.96274 0.10
1 1 3 1 o 1159.892 1262.765 0.00 1.95511 0.57
1 1 3 2 o 1227.091 1262.765 0.00 1.95511 0.30
8 1 1 1 o 4318.166 4174.497 0.00 1.94185 2.09
7 0 2 1 o 8814.124 9194.962 0.00 1.93048 2.17
8 1 1 2 o 4220.926 4174.497 0.00 1.94185 1.01
7 0 2 2 o 9087.213 9194.962 0.00 1.93048 1.12
2 1 3 1 o 96.284 91.422 180.00 1.91855 0.03
2 1 3 2 o 92.079 91.422 180.00 1.91855 0.02
4 3 0 1 o 35177.31 36127.32 180.00 1.91085 8.43
4 3 0 2 o 34818.559 36127.32 180.00 1.91085 4.15
3 3 1 1 o 2484.802 2610.700 180.00 1.90223 1.25
3 3 1 2 o 2444.663 2610.700 180.00 1.90223 0.61
5 2 2 1 o 146.592 145.588 0.00 1.87102 0.07
5 2 2 2 o 141.354 145.588 0.00 1.87102 0.03
7 2 1 1 o 403.826 415.355 180.00 1.86255 0.13
3 1 3 1 o 17389.184 18021.645 180.00 1.86192 8.17
7 2 1 2 o 405.634 415.355 180.00 1.86255 0.07
3 1 3 2 o 17382.857 18021.645 180.00 1.86192 4.06
7 1 2 1 o 5549.776 5642.189 0.00 1.84807 2.49
7 1 2 2 o 5467.496 5642.189 0.00 1.84807 1.22
4 3 1 1 o 1819.222 1672.545 180.00 1.82620 0.78
4 3 1 2 o 1830.351 1672.545 180.00 1.82620 0.39
4 1 3 1 o 4.146 3.885 0.00 1.79045 0.00
8 2 0 1 o 4313.979 4004.153 180.00 1.78852 0.98
4 1 3 2 o 3.969 3.885 0.00 1.79045 0.00
8 2 0 2 o 4127.633 4004.153 180.00 1.78852 0.47
8 0 2 1 o 343.908 256.760 180.00 1.77147 0.11
8 0 2 2 o 291.080 256.760 180.00 1.77147 0.05
6 2 2 1 o 693.468 668.436 0.00 1.76072 0.34
6 2 2 2 o 684.246 668.436 0.00 1.76072 0.17
9 1 1 1 o 8060.740 7804.593 180.00 1.76161 3.69
9 1 1 2 o 7936.523 7804.593 180.00 1.76161 1.81
1 3 2 1 o 2716.951 2817.884 180.00 1.74755 1.08
1 3 2 2 o 2709.175 2817.884 180.00 1.74755 0.54
5 3 1 1 o 2672.765 2714.237 0.00 1.74065 1.12
0 2 3 1 o 1275.412 1249.084 0.00 1.73644 0.22
5 3 1 2 o 2785.028 2714.237 0.00 1.74065 0.58
0 2 3 2 o 1263.927 1249.084 0.00 1.73644 0.11
1 2 3 1 o 26892.221 27093.338 0.00 1.72772 10.51
10 0 0 1 o 31297.246 31381.385 0.00 1.72630 3.05
1 2 3 2 o 27293.434 27093.338 0.00 1.72772 5.32
10 0 0 2 o 31827.557 31381.385 0.00 1.72630 1.55
2 3 2 1 o 6.196 5.687 0.00 1.72129 0.01
8 2 1 1 o 4343.285 4292.389 180.00 1.71855 1.57
2 3 2 2 o 6.039 5.687 0.00 1.72129 0.01
5 1 3 1 o 27159.254 27963.758 0.00 1.70960 11.09
8 2 1 2 o 4264.958 4292.389 180.00 1.71855 0.76
8 1 2 1 o 1167.870 1198.044 0.00 1.70715 0.49
6 3 0 1 o 34831.340 35572.50 0.00 1.71251 6.71
5 1 3 2 o 27491.672 27963.758 0.00 1.70960 5.59
8 1 2 2 o 1196.713 1198.044 0.00 1.70715 0.25
6 3 0 2 o 34503.898 35572.50 0.00 1.71251 3.30
2 2 3 2 o 314.796 309.801 180.00 1.70233 0.05
2 2 3 1 o 310.541 309.801 180.00 1.70233 0.09
3 3 2 1 o 9881.813 9952.871 0.00 1.68004 3.50
3 3 2 2 o 10024.284 9952.871 0.00 1.68004 1.77
3 2 3 1 o 7079.990 6450.860 180.00 1.66240 2.48
10 1 0 1 o 14.187 13.684 0.00 1.66662 0.00
3 2 3 2 o 6684.051 6450.860 180.00 1.66240 1.16
10 1 0 2 o 13.928 13.684 0.00 1.66662 0.00
7 2 2 1 o 1557.683 1605.371 0.00 1.65252 0.59
7 2 2 2 o 1524.661 1605.371 0.00 1.65252 0.29
6 3 1 1 o 753.461 794.391 0.00 1.65079 0.24
6 3 1 2 o 774.005 794.391 0.00 1.65079 0.13
9 0 2 1 o 11618.910 11130.408 180.00 1.63145 1.95
9 0 2 2 o 10955.705 11130.408 180.00 1.63145 0.91
4 3 2 1 o 310.998 324.068 180.00 1.62698 0.19
6 1 3 1 o 1238.450 1298.321 180.00 1.62423 0.42
4 3 2 2 o 286.948 324.068 180.00 1.62698 0.09
6 1 3 2 o 1178.825 1298.321 180.00 1.62423 0.20
4 2 3 1 o 523.627 486.624 0.00 1.61094 0.18
10 1 1 1 o 1286.235 1220.218 180.00 1.60956 0.46
4 2 3 2 o 517.147 486.624 0.00 1.61094 0.09
10 1 1 2 o 1305.624 1220.218 180.00 1.60956 0.24
0 4 0 1 o 6738.955 7950.880 180.00 1.59834 0.49
9 2 1 1 o 398.197 419.648 0.00 1.58983 0.07
0 4 0 2 o 6995.718 7950.880 180.00 1.59834 0.26
9 2 1 2 o 407.582 419.648 0.00 1.58983 0.04
9 1 2 1 o 1095.552 1176.720 180.00 1.58080 0.34
9 1 2 2 o 1111.976 1176.720 180.00 1.58080 0.17
2 4 0 1 o 8407.007 8718.425 0.00 1.57162 1.30
5 3 2 1 o 15618.623 16072.450 180.00 1.56560 4.85
2 4 0 2 o 8454.022 8718.425 0.00 1.57162 0.65
5 3 2 2 o 15557.332 16072.450 180.00 1.56560 2.41
7 3 1 1 o 688.512 710.032 180.00 1.56063 0.22
7 3 1 2 o 633.930 710.032 180.00 1.56063 0.10
5 2 3 1 o 36.468 49.653 180.00 1.55129 0.02
8 2 2 1 o 400.132 500.537 180.00 1.54946 0.18
5 2 3 2 o 34.974 49.653 180.00 1.55129 0.01
0 0 4 1 o 1201.206 1312.751 180.00 1.55113 0.06
8 2 2 2 o 407.683 500.537 180.00 1.54946 0.09
0 4 1 1 o 3177.523 3785.287 0.00 1.54781 0.46
0 0 4 2 o 1181.969 1312.751 180.00 1.55113 0.03
1 0 4 1 o 1744.785 1937.018 180.00 1.54490 0.24
0 4 1 2 o 3460.755 3785.287 0.00 1.54781 0.25
7 1 3 1 o 9140.050 9240.653 180.00 1.53814 2.96
1 4 1 1 o 250.991 275.715 0.00 1.54162 0.16
1 0 4 2 o 1873.513 1937.018 180.00 1.54490 0.13
7 1 3 2 o 9038.964 9240.653 180.00 1.53814 1.45
1 4 1 2 o 275.410 275.715 0.00 1.54162 0.08
2 0 4 1 o 3122.455 3226.213 0.00 1.52667 0.43
2 4 1 1 o 1525.576 1537.222 180.00 1.52351 0.42
10 2 0 1 o 4129.867 3879.284 0.00 1.51897 0.67
2 0 4 2 o 3243.274 3226.213 0.00 1.52667 0.23
8 3 0 1 o 3195.438 2920.344 180.00 1.51630 0.41
2 4 1 2 o 1612.161 1537.222 180.00 1.52351 0.22
10 2 0 2 o 4407.734 3879.284 0.00 1.51897 0.36
8 3 0 2 o 3251.859 2920.344 180.00 1.51630 0.21
10 0 2 1 o 4.521 0.877 0.00 1.50848 0.00
10 0 2 2 o 7.895 0.877 0.00 1.50848 0.00
6 3 2 1 o 76.241 58.279 0.00 1.49925 0.05
3 0 4 1 o 2354.642 2239.160 0.00 1.49767 0.36
1 1 4 1 o 28.016 23.897 0.00 1.50168 0.01
6 3 2 2 o 60.317 58.279 0.00 1.49925 0.02
4 4 0 1 o 1607.403 1474.586 180.00 1.49885 0.23
3 0 4 2 o 2194.747 2239.160 0.00 1.49767 0.16
1 1 4 2 o 24.897 23.897 0.00 1.50168 0.00
4 4 0 2 o 1482.828 1474.586 180.00 1.49885 0.10
3 4 1 1 o 463.105 463.976 0.00 1.49468 0.12
3 4 1 2 o 420.616 463.976 0.00 1.49468 0.05
6 2 3 1 o 10.590 10.052 180.00 1.48667 0.01
2 1 4 1 o 649.723 604.036 180.00 1.48492 0.17
6 2 3 2 o 12.138 10.052 180.00 1.48667 0.00
2 1 4 2 o 669.248 604.036 180.00 1.48492 0.09
11 1 1 1 o 2598.137 2282.875 0.00 1.48012 0.94
1 3 3 1 o 63.466 59.229 180.00 1.47872 0.02
11 1 1 2 o 2346.262 2282.875 0.00 1.48012 0.42
10 2 1 1 o 7311.239 7329.964 0.00 1.47539 2.02
1 3 3 2 o 58.805 59.229 180.00 1.47872 0.01
8 3 1 1 o 726.206 750.587 180.00 1.47295 0.20
10 2 1 2 o 7136.213 7329.964 0.00 1.47539 0.98
8 3 1 2 o 732.225 750.587 180.00 1.47295 0.10
10 1 2 1 o 487.725 498.381 180.00 1.46816 0.17
10 1 2 2 o 504.804 498.381 180.00 1.46816 0.09
2 3 3 1 o 104.067 106.124 0.00 1.46271 0.03
4 0 4 1 o 3498.841 3598.784 180.00 1.45971 0.53
2 3 3 2 o 103.421 106.124 0.00 1.46271 0.02
8 1 3 1 o 196.379 191.423 0.00 1.45400 0.05
3 1 4 1 o 658.560 668.716 180.00 1.45819 0.17
4 4 1 1 o 684.644 687.389 0.00 1.45694 0.19
4 0 4 2 o 3625.421 3598.784 180.00 1.45971 0.28
8 1 3 2 o 202.688 191.423 0.00 1.45400 0.03
3 1 4 2 o 683.157 668.716 180.00 1.45819 0.09
4 4 1 2 o 712.042 687.389 0.00 1.45694 0.10
9 2 2 1 o 790.085 762.590 180.00 1.45315 0.22
9 2 2 2 o 834.598 762.590 180.00 1.45315 0.11
12 0 0 1 o 14619.228 12262.136 180.00 1.43859 0.98
3 3 3 1 o 86.735 79.905 0.00 1.43714 0.01
12 0 0 2 o 13664.505 12262.136 180.00 1.43859 0.45
3 3 3 2 o 83.275 79.905 0.00 1.43714 0.01
7 3 2 1 o 9368.617 9179.592 0.00 1.43074 2.44
7 3 2 2 o 9389.396 9179.592 0.00 1.43074 1.22
7 2 3 1 o 3898.273 3926.546 0.00 1.41980 1.10
4 1 4 1 o 1013.139 995.960 0.00 1.42309 0.23
0 4 2 1 o 1428.173 1424.736 0.00 1.42085 0.19
7 2 3 2 o 3761.711 3926.546 0.00 1.41980 0.53
4 1 4 2 o 987.521 995.960 0.00 1.42309 0.11
0 4 2 2 o 1378.268 1424.736 0.00 1.42085 0.09
1 4 2 1 o 6563.128 6863.949 180.00 1.41606 1.64
5 0 4 1 o 99.189 105.145 180.00 1.41490 0.01
1 4 2 2 o 6574.610 6863.949 180.00 1.41606 0.82
5 4 1 1 o 1652.219 1739.520 180.00 1.41238 0.51
5 0 4 2 o 101.500 105.145 180.00 1.41490 0.01
5 4 1 2 o 1740.938 1739.520 180.00 1.41238 0.27
11 0 2 1 o 14054.733 13272.933 0.00 1.40038 1.80
4 3 3 1 o 512.759 501.668 180.00 1.40350 0.15
12 1 0 1 o 1099.204 1078.289 0.00 1.40350 0.16
2 4 2 1 o 493.292 475.691 180.00 1.40198 0.12
11 0 2 2 o 14733.140 13272.933 0.00 1.40038 0.95
4 3 3 2 o 536.776 501.668 180.00 1.40350 0.08
12 1 0 2 o 1152.633 1078.289 0.00 1.40350 0.08
2 4 2 2 o 510.195 475.691 180.00 1.40198 0.06
6 4 0 1 o 120.491 110.376 180.00 1.39722 0.01
0 2 4 1 o 199.678 151.807 0.00 1.39552 0.05
6 4 0 2 o 129.508 110.376 180.00 1.39722 0.01
0 2 4 2 o 227.570 151.807 0.00 1.39552 0.02
1 2 4 1 o 9.093 8.892 180.00 1.39098 0.00
9 3 1 1 o 63.562 46.219 180.00 1.38948 0.03
1 2 4 2 o 8.915 8.892 180.00 1.39098 0.00
9 3 1 2 o 41.317 46.219 180.00 1.38948 0.01
5 1 4 1 o 761.964 795.960 0.00 1.38147 0.18
3 4 2 1 o 3253.734 3375.932 0.00 1.37942 0.79
5 1 4 2 o 768.431 795.960 0.00 1.38147 0.09
2 2 4 1 o 10.217 10.239 0.00 1.37763 0.00
9 1 3 1 o 47.198 47.380 0.00 1.37353 0.00
3 4 2 2 o 3231.500 3375.932 0.00 1.37942 0.39
2 2 4 2 o 10.215 10.239 0.00 1.37763 0.00
9 1 3 2 o 47.319 47.380 0.00 1.37353 0.00
11 2 1 1 o 2772.450 2902.336 180.00 1.37379 0.66
11 1 2 1 o 11.519 10.691 180.00 1.36795 0.00
11 2 1 2 o 2827.877 2902.336 180.00 1.37379 0.34
6 0 4 1 o 144.757 135.141 0.00 1.36535 0.03
12 1 1 1 o 389.735 377.778 180.00 1.36891 0.09
11 1 2 2 o 10.863 10.691 180.00 1.36795 0.00
10 2 2 1 o 177.750 177.884 0.00 1.36421 0.07
5 3 3 1 o 91.742 92.730 180.00 1.36353 0.01
8 3 2 1 o 2142.819 2277.871 0.00 1.36228 0.57
6 0 4 2 o 122.146 135.141 0.00 1.36535 0.01
12 1 1 2 o 398.346 377.778 180.00 1.36891 0.05
10 2 2 2 o 162.953 177.884 0.00 1.36421 0.03
5 3 3 2 o 90.575 92.730 180.00 1.36353 0.01
6 4 1 1 o 16.908 17.429 0.00 1.36308 0.00
8 3 2 2 o 2233.436 2277.871 0.00 1.36228 0.30
6 4 1 2 o 16.795 17.429 0.00 1.36308 0.00
8 2 3 1 o 112.028 107.816 180.00 1.35283 0.02
3 2 4 1 o 166.793 150.623 0.00 1.35620 0.04
8 2 3 2 o 123.587 107.816 180.00 1.35283 0.01
3 2 4 2 o 156.646 150.623 0.00 1.35620 0.02
4 4 2 1 o 135.341 113.658 0.00 1.34959 0.03
4 4 2 2 o 187.710 113.658 0.00 1.34959 0.02
10 3 0 1 o 159.804 71.001 180.00 1.34142 0.03
6 1 4 1 o 1470.547 1362.525 180.00 1.33524 0.33
10 3 0 2 o 111.291 71.001 180.00 1.34142 0.01
6 1 4 2 o 1531.404 1362.525 180.00 1.33524 0.17
4 2 4 1 o 633.025 603.272 180.00 1.32783 0.16
4 2 4 2 o 670.970 603.272 180.00 1.32783 0.09
6 3 3 1 o 102.137 41.618 0.00 1.31902 0.03
6 3 3 2 o 78.975 41.618 0.00 1.31902 0.01
7 0 4 1 o 78.625 37.656 0.00 1.31301 0.02
5 4 2 1 o 70.480 50.218 180.00 1.31393 0.02
7 0 4 2 o 65.366 37.656 0.00 1.31301 0.01
12 2 0 1 o 1124.767 888.422 180.00 1.31187 0.13
10 3 1 1 o 2.965 2.704 0.00 1.31113 0.00
7 4 1 1 o 85.982 53.053 0.00 1.31099 0.04
5 4 2 2 o 61.624 50.218 180.00 1.31393 0.01
12 2 0 2 o 1114.731 888.422 180.00 1.31187 0.07
12 0 2 1 o 1471.425 1294.168 0.00 1.30509 0.18
10 3 1 2 o 2.954 2.704 0.00 1.31113 0.00
7 4 1 2 o 84.719 53.053 0.00 1.31099 0.02
12 0 2 2 o 1478.963 1294.168 0.00 1.30509 0.09
10 1 3 1 o 855.278 800.703 180.00 1.29770 0.24
9 3 2 1 o 1913.687 1829.473 180.00 1.29544 0.40
10 1 3 2 o 838.328 800.703 180.00 1.29770 0.11
5 2 4 1 o 7.216 6.949 180.00 1.29383 0.00
9 3 2 2 o 1849.930 1829.473 180.00 1.29544 0.19
5 2 4 2 o 6.989 6.949 180.00 1.29383 0.00
9 2 3 1 o 10909.939 10835.545 180.00 1.28730 2.57
7 1 4 1 o 930.237 918.471 180.00 1.28616 0.21
9 2 3 2 o 10975.374 10835.545 180.00 1.28730 1.29
12 2 1 1 o 6072.208 6023.003 180.00 1.28349 1.38
7 1 4 2 o 925.352 918.471 180.00 1.28616 0.11
11 2 2 1 o 1217.105 1208.685 0.00 1.28270 0.28
8 4 0 1 o 2804.628 2767.470 0.00 1.28438 0.30
12 2 1 2 o 6145.322 6023.003 180.00 1.28349 0.70
11 2 2 2 o 1238.865 1208.685 0.00 1.28270 0.14
12 1 2 1 o 33.063 31.557 0.00 1.27872 0.01
8 4 0 2 o 2798.817 2767.470 0.00 1.28438 0.15
12 1 2 2 o 37.130 31.557 0.00 1.27872 0.01
6 4 2 1 o 32.220 30.295 0.00 1.27397 0.01
7 3 3 1 o 519.383 534.298 0.00 1.27165 0.10
6 4 2 2 o 28.624 30.295 0.00 1.27397 0.00
13 1 1 1 o 277.783 278.604 0.00 1.27254 0.05
7 3 3 2 o 521.388 534.298 0.00 1.27165 0.05
13 1 1 2 o 266.736 278.604 0.00 1.27254 0.02
0 4 3 1 o 149.099 151.469 0.00 1.26468 0.01
2 5 0 1 o 463.907 475.628 0.00 1.26487 0.07
0 4 3 2 o 150.501 151.469 0.00 1.26468 0.01
1 4 3 1 o 9385.318 9428.526 0.00 1.26130 2.21
8 0 4 1 o 558.753 555.314 0.00 1.25950 0.04
2 5 0 2 o 468.626 475.628 0.00 1.26487 0.03
1 4 3 2 o 9688.301 9428.526 0.00 1.26130 1.14
8 4 1 1 o 654.904 636.592 180.00 1.25772 0.13
8 0 4 2 o 579.320 555.314 0.00 1.25950 0.02
6 2 4 1 o 190.817 166.840 0.00 1.25562 0.06
8 4 1 2 o 725.674 636.592 180.00 1.25772 0.07
6 2 4 2 o 209.673 166.840 0.00 1.25562 0.03
2 4 3 1 o 14.018 8.065 0.00 1.25132 0.01
1 3 4 1 o 0.762 0.244 0.00 1.25081 0.00
2 4 3 2 o 22.151 8.065 0.00 1.25132 0.00
1 3 4 2 o 1.365 0.244 0.00 1.25081 0.00
1 5 1 1 o 107.922 79.322 0.00 1.24907 0.02
1 5 1 2 o 116.601 79.322 0.00 1.24907 0.01
2 3 4 1 o 741.126 657.959 180.00 1.24108 0.13
11 3 1 1 o 406.802 387.835 0.00 1.23827 0.11
2 3 4 2 o 677.513 657.959 180.00 1.24108 0.06
2 5 1 1 o 1694.212 1600.302 0.00 1.23938 0.34
8 1 4 1 o 1754.425 1695.896 0.00 1.23575 0.40
11 3 1 2 o 402.536 387.835 0.00 1.23827 0.05
3 4 3 1 o 1408.280 1365.920 180.00 1.23520 0.29
2 5 1 2 o 1636.336 1600.302 0.00 1.23938 0.16
8 1 4 2 o 1774.543 1695.896 0.00 1.23575 0.20
3 4 3 2 o 1441.219 1365.920 180.00 1.23520 0.15
10 3 2 1 o 1863.965 1713.905 180.00 1.23124 0.47
7 4 2 1 o 720.880 674.731 180.00 1.23113 0.14
11 1 3 1 o 1210.631 1158.560 0.00 1.22694 0.33
14 0 0 1 o 23.166 18.049 180.00 1.23307 0.01
10 3 2 2 o 1818.598 1713.905 180.00 1.23124 0.23
7 4 2 2 o 704.884 674.731 180.00 1.23113 0.07
10 2 3 1 o 395.606 397.642 0.00 1.22425 0.07
11 1 3 2 o 1150.922 1158.560 0.00 1.22694 0.16
14 0 0 2 o 31.242 18.049 180.00 1.23307 0.00
3 3 4 1 o 779.289 777.237 180.00 1.22535 0.13
10 2 3 2 o 419.479 397.642 0.00 1.22425 0.04
4 5 0 1 o 1469.093 1441.535 180.00 1.22599 0.19
8 3 3 1 o 154.541 153.499 180.00 1.22285 0.03
3 3 4 2 o 789.390 777.237 180.00 1.22535 0.07
13 0 2 1 o 4380.312 4069.818 180.00 1.22079 0.42
3 5 1 1 o 1089.283 1107.347 180.00 1.22371 0.20
4 5 0 2 o 1426.068 1441.535 180.00 1.22599 0.09
8 3 3 2 o 173.803 153.499 180.00 1.22285 0.02
13 0 2 2 o 4779.140 4069.818 180.00 1.22079 0.23
3 5 1 2 o 1192.788 1107.347 180.00 1.22371 0.11
7 2 4 1 o 276.375 243.146 0.00 1.21455 0.08
4 4 3 1 o 173.989 158.862 0.00 1.21365 0.04
1 1 5 1 o 90.638 79.952 0.00 1.21515 0.02
7 2 4 2 o 262.241 243.146 0.00 1.21455 0.04
14 1 0 1 o 2275.621 2175.799 180.00 1.21076 0.23
4 4 3 2 o 166.777 158.862 0.00 1.21365 0.02
9 0 4 1 o 1627.434 1584.955 0.00 1.20611 0.15
1 1 5 2 o 86.633 79.952 0.00 1.21515 0.01
12 2 2 1 o 165.465 159.196 0.00 1.20827 0.04
14 1 0 2 o 2259.540 2175.799 180.00 1.21076 0.12
9 0 4 2 o 1578.186 1584.955 0.00 1.20611 0.07
12 2 2 2 o 162.236 159.196 0.00 1.20827 0.02
9 4 1 1 o 227.934 225.994 180.00 1.20454 0.09
4 3 4 1 o 705.824 704.493 0.00 1.20429 0.08
2 1 5 1 o 2970.186 2873.936 0.00 1.20622 0.64
2 1 5 2 o 2848.385 2873.936 0.00 1.20622 0.31
13 2 1 1 o 4219.975 4266.552 0.00 1.20305 0.95
9 4 1 2 o 215.813 225.994 180.00 1.20454 0.04
4 3 4 2 o 696.290 704.493 0.00 1.20429 0.04
13 2 1 2 o 4243.536 4266.552 0.00 1.20305 0.48
4 5 1 1 o 4466.173 4534.125 180.00 1.20274 0.85
13 1 2 1 o 1123.505 1093.196 0.00 1.19912 0.23
4 5 1 2 o 4535.232 4534.125 180.00 1.20274 0.43
13 1 2 2 o 1236.589 1093.196 0.00 1.19912 0.13
12 3 0 1 o 3296.277 2935.605 0.00 1.19235 0.37
3 1 5 1 o 497.921 441.109 180.00 1.19176 0.13
12 3 0 2 o 3176.798 2935.605 0.00 1.19235 0.18
3 1 5 2 o 484.125 441.109 180.00 1.19176 0.06
14 1 1 1 o 1881.574 1759.232 0.00 1.18835 0.36
9 1 4 1 o 511.142 466.869 0.00 1.18520 0.11
5 4 3 1 o 278.132 253.027 180.00 1.18752 0.08
8 4 2 1 o 285.626 266.632 180.00 1.18670 0.06
14 1 1 2 o 1913.390 1759.232 0.00 1.18835 0.18
9 1 4 2 o 491.830 466.869 0.00 1.18520 0.05
5 4 3 2 o 289.365 253.027 180.00 1.18752 0.04
8 4 2 2 o 293.260 266.632 180.00 1.18670 0.03
1 5 2 1 o 144.323 139.075 180.00 1.17943 0.03
5 3 4 1 o 1053.996 1022.528 0.00 1.17876 0.17
5 5 1 1 o 1500.758 1440.293 0.00 1.17730 0.25
9 3 3 1 o 789.533 784.573 180.00 1.17381 0.17
1 5 2 2 o 146.009 139.075 180.00 1.17943 0.02
5 3 4 2 o 1045.372 1022.528 0.00 1.17876 0.08
8 2 4 1 o 25.092 24.934 180.00 1.17182 0.01
5 5 1 2 o 1444.088 1440.293 0.00 1.17730 0.12
9 3 3 2 o 785.523 784.573 180.00 1.17381 0.08
10 4 0 1 o 4662.126 4637.955 180.00 1.17283 0.43
4 1 5 1 o 8441.844 8407.129 180.00 1.17236 1.79
8 2 4 2 o 25.769 24.934 180.00 1.17182 0.01
2 5 2 1 o 338.307 339.603 0.00 1.17125 0.09
12 3 1 1 o 45.492 45.554 0.00 1.17092 0.01
11 3 2 1 o 45.519 45.219 180.00 1.17032 0.01
10 4 0 2 o 4680.377 4637.955 180.00 1.17283 0.22
4 1 5 2 o 8522.491 8407.129 180.00 1.17236 0.90
6 5 0 1 o 1633.104 1614.420 0.00 1.16848 0.19
2 5 2 2 o 343.187 339.603 0.00 1.17125 0.04
12 3 1 2 o 45.748 45.554 0.00 1.17092 0.00
11 3 2 2 o 45.398 45.219 180.00 1.17032 0.01
11 2 3 1 o 7814.015 7471.915 0.00 1.16431 1.54
6 5 0 2 o 1675.293 1614.420 0.00 1.16848 0.10
11 2 3 2 o 7800.060 7471.915 0.00 1.16431 0.77
12 1 3 1 o 1.711 1.408 0.00 1.16133 0.00
12 1 3 2 o 1.560 1.408 0.00 1.16133 0.00
6 4 3 1 o 56.311 54.712 180.00 1.15777 0.02
3 5 2 1 o 10.327 10.085 0.00 1.15800 0.00
6 4 3 2 o 58.028 54.712 180.00 1.15777 0.01
0 2 5 1 o 8958.238 8668.978 180.00 1.15680 0.86
10 0 4 1 o 1652.185 1594.595 180.00 1.15379 0.13
3 5 2 2 o 10.693 10.085 0.00 1.15800 0.00
1 2 5 1 o 699.865 657.757 0.00 1.15421 0.17
0 2 5 2 o 9118.102 8668.978 180.00 1.15680 0.44
10 0 4 2 o 1608.082 1594.595 180.00 1.15379 0.06
6 3 4 1 o 1694.922 1696.602 180.00 1.14964 0.26
10 4 1 1 o 1329.662 1294.437 0.00 1.15242 0.24
1 2 5 2 o 668.373 657.757 0.00 1.15421 0.08
14 2 0 1 o 674.639 669.921 180.00 1.15045 0.10
6 3 4 2 o 1715.659 1696.602 180.00 1.14964 0.13
10 4 1 2 o 1290.127 1294.437 0.00 1.15242 0.11
5 1 5 1 o 1481.666 1494.155 0.00 1.14876 0.37
14 0 2 1 o 4866.086 4760.906 180.00 1.14587 0.54
6 5 1 1 o 4344.619 4376.935 0.00 1.14829 0.77
14 2 0 2 o 671.253 669.921 180.00 1.15045 0.05
2 2 5 1 o 6802.015 6681.048 0.00 1.14655 1.29
5 1 5 2 o 1529.149 1494.155 0.00 1.14876 0.19
14 0 2 2 o 4818.161 4760.906 180.00 1.14587 0.27
6 5 1 2 o 4452.806 4376.935 0.00 1.14829 0.40
2 2 5 2 o 6804.243 6681.048 0.00 1.14655 0.65
13 2 2 1 o 176.550 184.804 180.00 1.14045 0.03
9 4 2 1 o 3306.911 3399.250 0.00 1.14172 0.59
13 2 2 2 o 183.621 184.804 180.00 1.14045 0.01
4 5 2 1 o 1207.366 1306.858 180.00 1.14019 0.29
9 4 2 2 o 3291.064 3399.250 0.00 1.14172 0.29
10 1 4 1 o 542.712 541.115 180.00 1.13545 0.12
4 5 2 2 o 1302.371 1306.858 180.00 1.14019 0.16
10 1 4 2 o 543.049 541.115 180.00 1.13545 0.06
3 2 5 1 o 1.250 1.219 0.00 1.13411 0.00
3 2 5 2 o 1.215 1.219 0.00 1.13411 0.00
14 2 1 1 o 1714.777 1718.313 0.00 1.13117 0.33
9 2 4 1 o 92.372 92.807 0.00 1.12846 0.01
14 1 2 1 o 45.028 45.686 0.00 1.12790 0.01
14 2 1 2 o 1707.547 1718.313 0.00 1.13117 0.16
9 2 4 2 o 89.708 92.807 0.00 1.12846 0.01
10 3 3 1 o 53.541 56.847 180.00 1.12542 0.01
7 4 3 1 o 1730.990 1825.233 0.00 1.12534 0.36
14 1 2 2 o 44.074 45.686 0.00 1.12790 0.00
10 3 3 2 o 55.258 56.847 180.00 1.12542 0.01
7 4 3 2 o 1785.481 1825.233 0.00 1.12534 0.19
6 1 5 1 o 4863.292 4867.968 0.00 1.12177 0.93
6 1 5 2 o 4918.884 4867.968 0.00 1.12177 0.47
7 3 4 1 o 1458.670 1494.155 180.00 1.11787 0.25
4 2 5 1 o 720.428 754.099 180.00 1.11736 0.12
5 5 2 1 o 98.841 98.612 180.00 1.11844 0.02
7 3 4 2 o 1396.299 1494.155 180.00 1.11787 0.12
4 2 5 2 o 710.938 754.099 180.00 1.11736 0.06
7 5 1 1 o 1595.315 1725.036 180.00 1.11663 0.27
5 5 2 2 o 88.403 98.612 180.00 1.11844 0.01
0 4 4 1 o 3057.630 3158.405 0.00 1.11313 0.27
12 3 2 1 o 268.674 282.130 0.00 1.11297 0.07
15 1 1 1 o 402.411 420.598 180.00 1.11425 0.06
7 5 1 2 o 1653.105 1725.036 180.00 1.11663 0.14
1 4 4 1 o 1378.387 1475.145 0.00 1.11082 0.24
0 4 4 2 o 2935.532 3158.405 0.00 1.11313 0.13
12 3 2 2 o 251.484 282.130 0.00 1.11297 0.03
15 1 1 2 o 403.419 420.598 180.00 1.11425 0.03
1 4 4 2 o 1357.368 1475.145 0.00 1.11082 0.12
12 2 3 1 o 782.952 855.682 180.00 1.10780 0.15
13 3 1 1 o 104.227 114.004 180.00 1.10889 0.02
12 2 3 2 o 778.472 855.682 180.00 1.10780 0.07
2 4 4 1 o 1916.425 2077.442 180.00 1.10399 0.32
13 3 1 2 o 102.051 114.004 180.00 1.10889 0.01
11 0 4 1 o 1405.941 1507.747 180.00 1.10320 0.11
2 4 4 2 o 1947.585 2077.442 180.00 1.10399 0.17
13 1 3 1 o 2058.760 2249.749 180.00 1.10073 0.40
11 0 4 2 o 1387.061 1507.747 180.00 1.10320 0.06
11 4 1 1 o 393.873 415.673 180.00 1.10201 0.06
13 1 3 2 o 1948.836 2249.749 180.00 1.10073 0.19
8 5 0 1 o 535.441 615.337 0.00 1.10005 0.06
10 4 2 1 o 348.403 405.584 0.00 1.09705 0.06
5 2 5 1 o 80.889 100.394 180.00 1.09687 0.02
11 4 1 2 o 371.499 415.673 180.00 1.10201 0.03
8 5 0 2 o 511.923 615.337 0.00 1.10005 0.03
10 4 2 2 o 332.247 405.584 0.00 1.09705 0.03
5 2 5 2 o 76.355 100.394 180.00 1.09687 0.01
6 5 2 1 o 761.447 991.473 0.00 1.09348 0.17
3 4 4 1 o 402.191 484.886 180.00 1.09287 0.06
7 1 5 1 o 19.968 25.739 180.00 1.09219 0.00
8 4 3 1 o 5.474 8.787 0.00 1.09110 0.00
6 5 2 2 o 835.413 991.473 0.00 1.09348 0.09
3 4 4 2 o 441.553 484.886 180.00 1.09287 0.04
11 1 4 1 o 16.549 17.043 180.00 1.08714 0.00
7 1 5 2 o 23.472 25.739 180.00 1.09219 0.00
8 4 3 2 o 8.361 8.787 0.00 1.09110 0.00
10 2 4 1 o -0.151 0.119 180.00 1.08526 0.00
11 1 4 2 o 16.286 17.043 180.00 1.08714 0.00
1 5 3 1 o 569.751 603.431 180.00 1.08544 0.10
10 2 4 2 o 0.060 0.119 180.00 1.08526 0.00
8 3 4 1 o 3132.248 3223.658 0.00 1.08429 0.56
1 5 3 2 o 598.789 603.431 180.00 1.08544 0.05
8 3 4 2 o 3199.487 3223.658 0.00 1.08429 0.28
8 5 1 1 o 2295.781 2312.076 180.00 1.08315 0.39
2 5 3 1 o 76.899 77.132 0.00 1.07906 0.01
15 0 2 1 o 452.474 454.065 0.00 1.07901 0.03
14 2 2 1 o 1525.551 1531.164 180.00 1.07867 0.35
11 3 3 1 o 151.389 152.448 0.00 1.07833 0.03
8 5 1 2 o 2307.318 2312.076 180.00 1.08315 0.19
4 4 4 1 o 344.667 346.772 0.00 1.07786 0.06
16 0 0 1 o 120.187 120.213 0.00 1.07894 0.01
2 5 3 2 o 72.861 77.132 0.00 1.07906 0.01
15 0 2 2 o 426.184 454.065 0.00 1.07901 0.02
14 2 2 2 o 1334.433 1531.164 180.00 1.07867 0.15
11 3 3 2 o 125.283 152.448 0.00 1.07833 0.01
4 4 4 2 o 288.812 346.772 0.00 1.07786 0.02
16 0 0 2 o 104.544 120.213 0.00 1.07894 0.00
6 2 5 1 o 334.202 436.715 180.00 1.07330 0.06
6 2 5 2 o 401.762 436.715 180.00 1.07330 0.04
1 3 5 1 o 21.410 22.795 0.00 1.07029 0.00
12 4 0 1 o 3079.459 3029.375 0.00 1.06927 0.25
3 5 3 1 o 4036.134 3898.698 0.00 1.06867 0.70
1 3 5 2 o 24.194 22.795 0.00 1.07029 0.00
14 3 0 1 o 4425.780 4214.408 180.00 1.06729 0.39
15 2 1 1 o 2110.784 2001.302 180.00 1.06671 0.45
12 4 0 2 o 3163.118 3029.375 0.00 1.06927 0.13
3 5 3 2 o 4070.299 3898.698 0.00 1.06867 0.35
7 5 2 1 o 0.415 0.390 0.00 1.06603 0.00
14 3 0 2 o 4441.846 4214.408 180.00 1.06729 0.20
2 3 5 1 o 60.190 57.804 180.00 1.06418 0.01
15 2 1 2 o 2132.127 2001.302 180.00 1.06671 0.23
15 1 2 1 o 1398.604 1328.826 180.00 1.06397 0.23
7 5 2 2 o 0.422 0.390 0.00 1.06603 0.00
0 6 0 1 o 7978.704 7620.800 180.00 1.06556 0.36
16 1 0 1 o 1803.062 1710.439 0.00 1.06390 0.15
2 3 5 2 o 61.341 57.804 180.00 1.06418 0.00
15 1 2 2 o 1438.529 1328.826 180.00 1.06397 0.12
8 1 5 1 o 2505.841 2292.818 180.00 1.06081 0.45
0 6 0 2 o 8072.298 7620.800 180.00 1.06556 0.18
8 1 5 2 o 2429.899 2292.818 180.00 1.06081 0.22
5 4 4 1 o 63.431 58.378 0.00 1.05943 0.01
13 3 2 1 o 2410.905 2230.992 0.00 1.05930 0.43
16 1 0 2 o 1860.130 1710.439 0.00 1.06390 0.08
13 2 3 1 o 1432.662 1334.755 180.00 1.05483 0.22
12 0 4 1 o 4745.577 4351.809 0.00 1.05478 0.41
5 4 4 2 o 63.193 58.378 0.00 1.05943 0.01
13 3 2 2 o 2416.641 2230.992 0.00 1.05930 0.21
9 4 3 1 o 4442.921 4028.826 180.00 1.05584 0.84
2 6 0 1 o 4354.740 4102.289 0.00 1.05753 0.38
4 5 3 1 o 391.423 361.479 180.00 1.05462 0.06
13 2 3 2 o 1419.469 1334.755 180.00 1.05483 0.11
12 0 4 2 o 4699.115 4351.809 0.00 1.05478 0.20
3 3 5 1 o 47.312 42.283 180.00 1.05421 0.01
12 4 1 1 o 1506.252 1394.575 180.00 1.05373 0.26
11 4 2 1 o 3128.899 2912.087 180.00 1.05329 0.51
9 4 3 2 o 4379.983 4028.826 180.00 1.05584 0.41
2 6 0 2 o 4505.435 4102.289 0.00 1.05753 0.20
4 5 3 2 o 387.451 361.479 180.00 1.05462 0.03
9 3 4 1 o 1071.834 962.991 0.00 1.04966 0.19
14 3 1 1 o 259.762 241.148 180.00 1.05185 0.04
3 3 5 2 o 47.094 42.283 180.00 1.05421 0.01
12 4 1 2 o 1518.154 1394.575 180.00 1.05373 0.13
11 4 2 2 o 3186.241 2912.087 180.00 1.05329 0.26
7 2 5 1 o 236.158 212.642 0.00 1.04731 0.05
9 3 4 2 o 1049.120 962.991 0.00 1.04966 0.09
14 3 1 2 o 266.887 241.148 180.00 1.05185 0.02
9 5 1 1 o 1071.338 971.239 0.00 1.04863 0.19
16 1 1 1 o 2613.121 2385.953 180.00 1.04859 0.44
0 6 1 1 o 1248.325 1126.625 180.00 1.05019 0.10
14 1 3 1 o 70.527 65.813 0.00 1.04488 0.01
7 2 5 2 o 239.072 212.642 0.00 1.04731 0.03
1 6 1 1 o 2936.416 2661.168 0.00 1.04825 0.56
9 5 1 2 o 1076.826 971.239 0.00 1.04863 0.10
16 1 1 2 o 2630.047 2385.953 180.00 1.04859 0.22
0 6 1 2 o 1211.900 1126.625 180.00 1.05019 0.05
11 2 4 1 o 61.228 59.916 180.00 1.04285 0.01
14 1 3 2 o 66.322 65.813 0.00 1.04488 0.00
1 6 1 2 o 3003.100 2661.168 0.00 1.04825 0.29
12 1 4 1 o 10.525 10.573 180.00 1.04071 0.00
11 2 4 2 o 58.851 59.916 180.00 1.04285 0.00
4 3 5 1 o 81.756 82.326 0.00 1.04071 0.01
2 6 1 1 o 1187.651 1177.111 0.00 1.04250 0.20
6 4 4 1 o 51.579 56.397 0.00 1.03814 0.01
12 1 4 2 o 10.258 10.573 180.00 1.04071 0.00
4 3 5 2 o 77.801 82.326 0.00 1.04071 0.00
2 6 1 2 o 1138.220 1177.111 0.00 1.04250 0.09
6 4 4 2 o 52.073 56.397 0.00 1.03814 0.00
5 5 3 1 o 5469.528 5952.027 180.00 1.03734 0.89
8 5 2 1 o 306.967 341.813 0.00 1.03679 0.06
12 3 3 1 o 16.317 17.350 0.00 1.03297 0.00
5 5 3 2 o 5600.028 5952.027 180.00 1.03734 0.46
8 5 2 2 o 321.537 341.813 0.00 1.03679 0.03
12 3 3 2 o 14.905 17.350 0.00 1.03297 0.00
4 6 0 1 o 257.358 268.351 180.00 1.03450 0.02
0 0 6 1 o 6789.382 7121.021 0.00 1.03408 0.34
3 6 1 1 o 389.997 410.716 180.00 1.03312 0.07
9 1 5 1 o 559.010 607.382 180.00 1.02832 0.13
1 0 6 1 o 369.858 382.016 180.00 1.03223 0.02
4 6 0 2 o 257.618 268.351 180.00 1.03450 0.01
0 0 6 2 o 6702.713 7121.021 0.00 1.03408 0.17
3 6 1 2 o 360.905 410.716 180.00 1.03312 0.03
9 1 5 2 o 591.229 607.382 180.00 1.02832 0.07
1 0 6 2 o 338.757 382.016 180.00 1.03223 0.01
10 5 0 1 o 600.566 608.368 180.00 1.02751 0.07
2 0 6 1 o 4522.691 4567.286 180.00 1.02674 0.44
5 3 5 1 o 258.347 242.073 0.00 1.02410 0.05
10 5 0 2 o 604.650 608.368 180.00 1.02751 0.03
15 2 2 1 o 10.255 10.001 0.00 1.02234 0.00
2 0 6 2 o 4814.307 4567.286 180.00 1.02674 0.24
5 3 5 2 o 251.003 242.073 0.00 1.02410 0.03
10 4 3 1 o 21.481 20.703 0.00 1.02020 0.00
16 2 0 1 o 118.222 110.451 0.00 1.02228 0.02
15 2 2 2 o 10.421 10.001 0.00 1.02234 0.00
8 2 5 1 o 3335.489 3077.123 0.00 1.01954 0.59
10 4 3 2 o 21.424 20.703 0.00 1.02020 0.00
16 2 0 2 o 125.641 110.451 0.00 1.02228 0.01
6 5 3 1 o 325.871 304.468 0.00 1.01734 0.05
8 2 5 2 o 3379.775 3077.123 0.00 1.01954 0.30
16 0 2 1 o 616.274 559.785 0.00 1.01907 0.07
1 1 6 1 o 5.895 5.689 0.00 1.01904 0.00
16 0 2 2 o 648.752 559.785 0.00 1.01907 0.03
4 6 1 1 o 126.495 118.737 180.00 1.02041 0.02
3 0 6 1 o 516.907 490.383 0.00 1.01778 0.04
6 5 3 2 o 351.662 304.468 0.00 1.01734 0.03
10 3 4 1 o 1981.998 1658.055 180.00 1.01463 0.39
7 4 4 1 o 391.677 334.553 0.00 1.01457 0.07
1 1 6 2 o 6.021 5.689 0.00 1.01904 0.00
4 6 1 2 o 124.500 118.737 180.00 1.02041 0.01
3 0 6 2 o 567.908 490.383 0.00 1.01778 0.02
10 3 4 2 o 1989.383 1658.055 180.00 1.01463 0.19
7 4 4 2 o 393.820 334.553 0.00 1.01457 0.03
2 1 6 1 o 473.272 412.444 0.00 1.01375 0.08
10 5 1 1 o 249.658 219.325 0.00 1.01370 0.04
12 4 2 1 o 361.602 307.448 180.00 1.01090 0.06
14 3 2 1 o 30.009 28.732 0.00 1.00924 0.00
2 1 6 2 o 494.350 412.444 0.00 1.01375 0.04
10 5 1 2 o 260.230 219.325 0.00 1.01370 0.02
13 0 4 1 o 2344.607 2114.900 0.00 1.00875 0.21
12 4 2 2 o 337.679 307.448 180.00 1.01090 0.03
14 3 2 2 o 30.213 28.732 0.00 1.00924 0.00
16 2 1 1 o 117.387 106.401 180.00 1.00868 0.02
16 1 2 1 o 222.215 198.210 180.00 1.00636 0.04
13 0 4 2 o 2377.638 2114.900 0.00 1.00875 0.10
13 4 1 1 o 2169.987 1933.006 0.00 1.00784 0.41
0 6 2 1 o 63.505 50.696 180.00 1.00777 0.01
9 5 2 1 o 32.409 28.042 0.00 1.00640 0.01
16 2 1 2 o 120.156 106.401 180.00 1.00868 0.01
1 6 2 1 o 3220.383 2880.193 180.00 1.00606 0.53
