#------------------------------------------------------------------------------
#$Date: 2016-03-26 14:14:05 +0200 (Sat, 26 Mar 2016) $
#$Revision: 180253 $
#$URL: svn://www.crystallography.net/cod/cif/7/11/39/7113980.cif $
#------------------------------------------------------------------------------
#
# This file is available in the Crystallography Open Database (COD),
# http://www.crystallography.net/
#
# All data on this site have been placed in the public domain by the
# contributors.
#
data_7113980
loop_
_publ_author_name
'Jun Li'
'Yuting Liao'
'Yulong Zhang'
'Xiaohua Liu'
'Lili Lin'
'Xiaoming Feng'
_publ_section_title
;
 Chiral magnesium(II)-catalyzed asymmetric ring-opening of meso-aziridines
 with primary alcohols
;
_journal_name_full               Chem.Commun.
_journal_page_first              6672
_journal_paper_doi               10.1039/C4CC02206H
_journal_volume                  50
_journal_year                    2014
_chemical_formula_moiety         'C13 H17 Cl N2 O2'
_chemical_formula_sum            'C13 H17 Cl N2 O2'
_chemical_formula_weight         268.73
_chemical_name_systematic
;
 ?
;
_space_group_crystal_system      triclinic
_space_group_IT_number           1
_space_group_name_Hall           'P 1'
_space_group_name_H-M_alt        'P 1'
_symmetry_space_group_name_Hall  'P 1'
_symmetry_space_group_name_H-M   'P 1'
_atom_sites_solution_hydrogens   mixed
_atom_sites_solution_primary     direct
_audit_creation_date             2014-03-04
_audit_creation_method
;
Olex2 1.2
(compiled 2014.02.28 svn.r2899 for OlexSys, GUI svn.r4781)
;
_cell_angle_alpha                103.797(6)
_cell_angle_beta                 101.344(5)
_cell_angle_gamma                91.264(5)
_cell_formula_units_Z            2
_cell_length_a                   8.0981(4)
_cell_length_b                   8.8180(7)
_cell_length_c                   10.4495(7)
_cell_measurement_reflns_used    1367
_cell_measurement_temperature    293(2)
_cell_measurement_theta_max      22.6560
_cell_measurement_theta_min      3.5000
_cell_volume                     708.64(9)
_computing_cell_refinement
;
CrysAlisPro, Agilent Technologies,
Version 1.171.36.28 (release 01-02-2013 CrysAlis171 .NET)
(compiled Feb  1 2013,16:14:44)
;
_computing_data_collection
;
CrysAlisPro, Agilent Technologies,
Version 1.171.36.28 (release 01-02-2013 CrysAlis171 .NET)
(compiled Feb  1 2013,16:14:44)
;
_computing_data_reduction
;
CrysAlisPro, Agilent Technologies,
Version 1.171.36.28 (release 01-02-2013 CrysAlis171 .NET)
(compiled Feb  1 2013,16:14:44)
;
_computing_molecular_graphics    'Olex2 (Dolomanov et al., 2009)'
_computing_publication_material  'Olex2 (Dolomanov et al., 2009)'
_computing_structure_refinement  'ShelXL (Sheldrick, 2008)'
_computing_structure_solution    'ShelXS (Sheldrick, 2008)'
_diffrn_ambient_temperature      293(2)
_diffrn_detector_area_resol_mean 16.0874
_diffrn_measured_fraction_theta_full 0.998
_diffrn_measured_fraction_theta_max 0.870
_diffrn_measurement_device_type  'Xcalibur, Eos'
_diffrn_measurement_method       '\w scans'
_diffrn_orient_matrix_UB_11      0.0208578000
_diffrn_orient_matrix_UB_12      0.0174117000
_diffrn_orient_matrix_UB_13      0.0713795000
_diffrn_orient_matrix_UB_21      0.0352805000
_diffrn_orient_matrix_UB_22      -0.0734022000
_diffrn_orient_matrix_UB_23      -0.0033324000
_diffrn_orient_matrix_UB_31      0.0796422000
_diffrn_orient_matrix_UB_32      0.0347209000
_diffrn_orient_matrix_UB_33      -0.0005004000
_diffrn_radiation_monochromator  graphite
_diffrn_radiation_type           MoK\a
_diffrn_radiation_wavelength     0.71073
_diffrn_reflns_av_R_equivalents  0.0181
_diffrn_reflns_av_unetI/netI     0.0482
_diffrn_reflns_Laue_measured_fraction_full 0.998
_diffrn_reflns_Laue_measured_fraction_max 0.870
_diffrn_reflns_limit_h_max       10
_diffrn_reflns_limit_h_min       -10
_diffrn_reflns_limit_k_max       11
_diffrn_reflns_limit_k_min       -11
_diffrn_reflns_limit_l_max       13
_diffrn_reflns_limit_l_min       -13
_diffrn_reflns_number            6348
_diffrn_reflns_point_group_measured_fraction_full 0.766
_diffrn_reflns_point_group_measured_fraction_max 0.649
_diffrn_reflns_theta_full        26.000
_diffrn_reflns_theta_max         28.848
_diffrn_reflns_theta_min         2.938
_diffrn_source                   'Enhance (Mo) X-ray Source'
_exptl_absorpt_coefficient_mu    0.266
_exptl_absorpt_correction_T_max  1.00000
_exptl_absorpt_correction_T_min  0.88791
_exptl_absorpt_correction_type   multi-scan
_exptl_absorpt_process_details
;
CrysAlisPro, Agilent Technologies,
Version 1.171.36.28 (release 01-02-2013 CrysAlis171 .NET)
(compiled Feb  1 2013,16:14:44)
Empirical absorption correction using spherical harmonics,
 implemented in SCALE3 ABSPACK scaling algorithm.
;
_exptl_crystal_density_diffrn    1.259
_exptl_crystal_F_000             284
_refine_diff_density_max         0.420
_refine_diff_density_min         -0.385
_refine_diff_density_rms         0.036
_refine_ls_abs_structure_details
;
 Flack x determined using 730 quotients [(I+)-(I-)]/[(I+)+(I-)]
 (Parsons and Flack (2004), Acta Cryst. A60, s61).
;
_refine_ls_abs_structure_Flack   0.05(4)
_refine_ls_extinction_method     none
_refine_ls_goodness_of_fit_ref   1.022
_refine_ls_hydrogen_treatment    mixed
_refine_ls_matrix_type           full
_refine_ls_number_parameters     332
_refine_ls_number_reflns         4806
_refine_ls_number_restraints     3
_refine_ls_restrained_S_all      1.022
_refine_ls_R_factor_all          0.1201
_refine_ls_R_factor_gt           0.0623
_refine_ls_shift/su_max          0.069
_refine_ls_shift/su_mean         0.006
_refine_ls_structure_factor_coef Fsqd
_refine_ls_weighting_details
;
 w=1/[\s^2^(Fo^2^)+(0.0862P)^2^]
 where P=(Fo^2^+2Fc^2^)/3
;
_refine_ls_weighting_scheme      calc
_refine_ls_wR_factor_gt          0.1524
_refine_ls_wR_factor_ref         0.1940
_reflns_Friedel_coverage         0.493
_reflns_Friedel_fraction_full    0.534
_reflns_Friedel_fraction_max     0.429
_reflns_number_gt                2507
_reflns_number_total             4806
_reflns_threshold_expression     'I > 2\s(I)'
_cod_data_source_file            c4cc02206h2.cif
_cod_data_source_block           140304_s2_lj
_cod_original_cell_volume        708.63(8)
_cod_database_code               7113980
#BEGIN Tags that were not found in dictionaries:
_shelxl_version_number           2013-2
_chemical_oxdiff_formula         c12h12n2o4cl1
_shelx_space_group_comment
;
The symmetry employed for this shelxl refinement is uniquely defined
by the following loop, which should always be used as a source of
symmetry information in preference to the above space-group names.
They are only intended as comments.
;
_reflns_odcompleteness_completeness 99.86
_reflns_odcompleteness_iscentric 1
_reflns_odcompleteness_theta     26.32
_olex2_refinement_description
;
1. Fixed Uiso
 At 1.2 times of:
  All C(H) groups, All C(H,H) groups, All N(H) groups
 At 1.5 times of:
  All C(H,H,H) groups
2. Uiso/Uaniso restraints and constraints
Uanis(Cl3) = Uanis(Cl3A)
Uanis(Cl1) = Uanis(Cl1A)
Uanis(C26) = Uanis(C13)
3. Others
 Sof(Cl1A)=Sof(Cl3A)=1-FVAR(1)
 Sof(Cl1)=Sof(Cl3)=FVAR(1)
4.a Ternary CH refined with riding coordinates:
 C14(H14), C15(H15), C1(H1), C2(H2)
4.b Secondary CH2 refined with riding coordinates:
 C16(H16A,H16B), C17(H17A,H17B), C18(H18A,H18B), C19(H19A,H19B), C3(H3A,H3B),
 C4(H4A,H4B), C5(H5A,H5B), C6(H6A,H6B)
4.c Aromatic/amide H refined with riding coordinates:
 C22(H22), C24(H24), C25(H25), C9(H9), C11(H11), C12(H12), N1(H1A)
4.d Idealised Me refined as rotating group:
 C26(H26A,H26B,H26C), C13(H13A,H13B,H13C)
;
_shelx_res_file
;
TITL 140304_s2_lj in P1 #1
CELL 0.71073 8.098078 8.818008 10.449458 103.7971 101.3442 91.2637
ZERR 2 0.000392 0.00068 0.000653 0.006 0.0047 0.005
LATT -1

SFAC C H Cl N O
UNIT 26 34 2 4 4
EADP Cl3 Cl3A
EADP Cl1 Cl1A
EADP C26 C13

L.S. 4
PLAN  20
REM reset to P1 #1
BOND
fmap 2
MORE -1
ACTA 52
CONF
REM <HKL>E:/CCD%20data/1402/olex2_140304_s2_lj/140304_s2_lj.hkl</HKL>

WGHT    0.086200
FVAR      10.58037   0.74122
C14   1   -0.847805   -1.162591   -1.130502    11.00000    0.09313    0.11796 =
         0.10965    0.04543    0.01222   -0.01706
AFIX  13
H14   2   -0.848670   -1.101639   -1.197710    11.00000   -1.20000
AFIX   0
C15   1   -0.689129   -1.118357   -1.024274    11.00000    0.10174    0.07877 =
         0.07037    0.02800    0.01318   -0.00177
AFIX  13
H15   2   -0.696137   -1.175064   -0.955248    11.00000   -1.20000
AFIX   0
C16   1   -0.536509   -1.170935   -1.083703    11.00000    0.11048    0.11172 =
         0.09514    0.02644    0.01567    0.03491
AFIX  23
H16A  2   -0.524364   -1.112710   -1.149625    11.00000   -1.20000
H16B  2   -0.435932   -1.145698   -1.012519    11.00000   -1.20000
AFIX   0
C17   1   -0.548144   -1.341759   -1.149446    11.00000    0.24363    0.13783 =
         0.10118    0.04705    0.05049    0.08079
AFIX  23
H17A  2   -0.545893   -1.401169   -1.082119    11.00000   -1.20000
H17B  2   -0.451941   -1.366579   -1.191201    11.00000   -1.20000
AFIX   0
C18   1   -0.707889   -1.386309   -1.253810    11.00000    0.23853    0.09136 =
         0.12388    0.00675   -0.00358    0.00146
AFIX  23
H18A  2   -0.717447   -1.498847   -1.290379    11.00000   -1.20000
H18B  2   -0.701883   -1.337518   -1.326884    11.00000   -1.20000
AFIX   0
C19   1   -0.863399   -1.339014   -1.200364    11.00000    0.19380    0.10031 =
         0.12991    0.03446   -0.01465   -0.05089
AFIX  23
H19A  2   -0.879442   -1.398948   -1.136497    11.00000   -1.20000
H19B  2   -0.961379   -1.362279   -1.273987    11.00000   -1.20000
AFIX   0
C20   1   -0.609262   -0.894666   -0.827520    11.00000    0.06590    0.08993 =
         0.06812    0.02716    0.02344    0.00135
C21   1   -0.584687   -0.721899   -0.782498    11.00000    0.06529    0.09403 =
         0.06521    0.02706    0.02904    0.01454
C22   1   -0.496441   -0.651220   -0.655029    11.00000    0.07119    0.09937 =
         0.06725    0.01975    0.01939   -0.00393
AFIX  43
H22   2   -0.453769   -0.709991   -0.594598    11.00000   -1.20000
AFIX   0
C23   1   -0.473291   -0.490696   -0.619748    11.00000    0.09045    0.10908 =
         0.08155    0.00926    0.03785    0.00212
C24   1   -0.539689   -0.404007   -0.705744    11.00000    0.13445    0.08442 =
         0.10394   -0.00316    0.05752    0.01027
AFIX  43
H24   2   -0.525782   -0.295238   -0.681819    11.00000   -1.20000
AFIX   0
C25   1   -0.628279   -0.485042   -0.829647    11.00000    0.17400    0.09000 =
         0.10633    0.04436    0.04976    0.03355
AFIX  43
H25   2   -0.675407   -0.427292   -0.889656    11.00000   -1.20000
AFIX   0
C26   1   -1.106430   -1.082386   -1.125746    11.00000    0.16316    0.21301 =
         0.17682    0.09064    0.05176    0.02605
AFIX 137
H26A  2   -1.127241   -1.145052   -1.216832    11.00000   -1.50000
H26B  2   -1.090990   -0.974003   -1.125329    11.00000   -1.50000
H26C  2   -1.200977   -1.097332   -1.086100    11.00000   -1.50000
AFIX   0
PART 1
CL1   3   -0.346191   -0.394746   -0.463270    21.00000    0.11387    0.15951 =
         0.10138   -0.01189    0.02328   -0.03408
PART 0
PART 2
CL1A  3   -0.405839   -0.393086   -0.455767   -21.00000    0.11387    0.15951 =
         0.10138   -0.01189    0.02328   -0.03408
PART 0
N3    4   -0.670356   -0.955475   -0.960068    11.00000    0.09138    0.08287 =
         0.07244    0.02969    0.01556    0.00396
H3    2   -0.681425   -0.898562   -1.005689    11.00000    0.05827
N4    4   -0.652094   -0.640492   -0.870782    11.00000    0.12961    0.09494 =
         0.07426    0.02645    0.02861    0.02607
O5    5   -0.575171   -0.974595   -0.745817    11.00000    0.08510    0.10877 =
         0.07257    0.04072    0.00621    0.00216
O27   5   -0.981091   -1.120987   -1.061743    11.00000    0.07647    0.22016 =
         0.19635    0.09906    0.01080   -0.00672

C1    1   -0.958305   -0.889097   -1.614754    11.00000    0.06260    0.07864 =
         0.06509    0.02039    0.01550    0.00305
AFIX  13
H1    2   -0.892015   -0.888272   -1.683622    11.00000   -1.20000
AFIX   0
C2    1   -0.874670   -0.982082   -1.522124    11.00000    0.05717    0.07750 =
         0.06295    0.02249    0.00607   -0.00595
AFIX  13
H2    2   -0.940183   -0.977981   -1.452025    11.00000   -1.20000
AFIX   0
C3    1   -0.873912   -1.154462   -1.597419    11.00000    0.09897    0.07067 =
         0.07861    0.01639   -0.00380    0.00001
AFIX  23
H3A   2   -0.807225   -1.161913   -1.666001    11.00000   -1.20000
H3B   2   -0.822231   -1.213596   -1.534727    11.00000   -1.20000
AFIX   0
C4    1   -1.050456   -1.223164   -1.662165    11.00000    0.14145    0.08634 =
         0.09485    0.01723   -0.02388   -0.03020
AFIX  23
H4A   2   -1.115206   -1.223267   -1.593335    11.00000   -1.20000
H4B   2   -1.047597   -1.330540   -1.712342    11.00000   -1.20000
AFIX   0
C5    1   -1.133984   -1.126461   -1.756867    11.00000    0.10027    0.11992 =
         0.09118    0.01533   -0.01614   -0.02368
AFIX  23
H5A   2   -1.072490   -1.131909   -1.828487    11.00000   -1.20000
H5B   2   -1.248584   -1.170057   -1.797557    11.00000   -1.20000
AFIX   0
C6    1   -1.137247   -0.959378   -1.683591    11.00000    0.07300    0.10467 =
         0.07890    0.02917   -0.00013    0.00070
AFIX  23
H6A   2   -1.206077   -0.952874   -1.616532    11.00000   -1.20000
H6B   2   -1.187435   -0.900026   -1.746589    11.00000   -1.20000
AFIX   0
C7    1   -0.653080   -0.854682   -1.324864    11.00000    0.06404    0.06863 =
         0.06236    0.01928    0.02067    0.00257
C8    1   -0.474558   -0.789717   -1.276050    11.00000    0.06157    0.05948 =
         0.05981    0.01645    0.01702    0.00466
C9    1   -0.416233   -0.723294   -1.143389    11.00000    0.07353    0.08739 =
         0.05895    0.00455    0.01602   -0.00940
AFIX  43
H9    2   -0.487026   -0.715584   -1.082355    11.00000   -1.20000
AFIX   0
C10   1   -0.249694   -0.667515   -1.101157    11.00000    0.09645    0.11045 =
         0.06422   -0.01512    0.00450   -0.02258
C11   1   -0.147216   -0.682918   -1.192535    11.00000    0.08101    0.10554 =
         0.08754    0.01214    0.00724   -0.02212
AFIX  43
H11   2   -0.032972   -0.650489   -1.164912    11.00000   -1.20000
AFIX   0
C12   1   -0.215352   -0.745718   -1.322472    11.00000    0.07551    0.11100 =
         0.08320    0.01607    0.02257   -0.01047
AFIX  43
H12   2   -0.146607   -0.751697   -1.384829    11.00000   -1.20000
AFIX   0
C13   1   -0.969735   -0.615737   -1.601818    11.00000    0.16316    0.21301 =
         0.17682    0.09064    0.05176    0.02605
AFIX 137
H13A  2   -0.916395   -0.644297   -1.677616    11.00000   -1.50000
H13B  2   -0.914330   -0.520492   -1.541780    11.00000   -1.50000
H13C  2   -1.086426   -0.600429   -1.632655    11.00000   -1.50000
AFIX   0
PART 1
CL3   3   -0.177536   -0.562722   -0.932017    21.00000    0.13574    0.19526 =
         0.08097   -0.05096   -0.00406   -0.03511
PART 0
PART 2
CL3A  3   -0.144564   -0.649220   -0.938280   -21.00000    0.13574    0.19526 =
         0.08097   -0.05096   -0.00406   -0.03511
PART 0
N1    4   -0.702715   -0.917522   -1.456027    11.00000    0.05697    0.09198 =
         0.04842    0.01442    0.01034   -0.00438
AFIX  43
H1A   2   -0.628982   -0.920512   -1.505462    11.00000   -1.20000
AFIX   0
N2    4   -0.378687   -0.800992   -1.368153    11.00000    0.06766    0.11118 =
         0.05493    0.01058    0.01755   -0.01126
O2    5   -0.747060   -0.846784   -1.243494    11.00000    0.07415    0.10410 =
         0.06471    0.01537    0.02246   -0.00309
O13   5   -0.958359   -0.733130   -1.535105    11.00000    0.10916    0.08128 =
         0.08442    0.02913    0.03592    0.01710
HKLF 4

REM  140304_s2_lj in P1 #1
REM R1 =  0.0623 for    2507 Fo > 4sig(Fo)  and  0.1201 for all    4806 data
REM    332 parameters refined using      3 restraints

END

WGHT      0.0855      0.0000

REM Highest difference peak  0.420,  deepest hole -0.385,  1-sigma level  0.036
Q1    1  -1.0837 -0.9481 -1.0138  11.00000  0.05    0.18
Q2    1  -1.1999 -1.0068 -1.0168  11.00000  0.05    0.15
Q3    1  -1.1323 -1.0768 -1.2224  11.00000  0.05    0.13
Q4    1  -0.1214 -0.7379 -0.9762  11.00000  0.05    0.12
Q5    1  -1.3678 -1.1065 -1.8023  11.00000  0.05    0.12
Q6    1  -0.8282 -1.4631 -1.1624  11.00000  0.05    0.12
Q7    1  -0.7336 -1.1575 -1.3057  11.00000  0.05    0.12
Q8    1  -0.4958 -0.4357 -0.4044  11.00000  0.05    0.11
Q9    1  -0.6217 -1.1956 -0.8927  11.00000  0.05    0.11
Q10   1  -0.6526 -1.1904 -1.1137  11.00000  0.05    0.11
Q11   1  -0.9026 -1.2457 -0.9424  11.00000  0.05    0.11
Q12   1  -0.8678 -0.8417 -1.6789  11.00000  0.05    0.11
Q13   1  -0.6478 -1.5106 -1.1445  11.00000  0.05    0.11
Q14   1  -1.0211 -1.2701 -1.1884  11.00000  0.05    0.11
Q15   1  -1.2453 -1.2218 -1.2812  11.00000  0.05    0.10
Q16   1  -0.6519 -1.1878 -1.4789  11.00000  0.05    0.10
Q17   1  -1.0661 -0.7716 -1.6173  11.00000  0.05    0.10
Q18   1  -0.6728 -1.2104 -1.5484  11.00000  0.05    0.10
Q19   1  -0.6616 -0.9474 -1.2580  11.00000  0.05    0.10
Q20   1  -0.6296 -1.4782 -1.1231  11.00000  0.05    0.10
;
_shelx_res_checksum              98406
_shelx_hkl_file
;
   0   0   2 98130.6 1248.07   6
   0   0  -2 100967. 1247.30   6
   0   0   3 5285.49 357.285   6
   0   0  -3 4632.95 334.559   6
   0   0  -4 7997.83 505.797   6
   0   0   4 7597.68 464.706   7
   0   0   4 8050.35 508.275   6
   0   0   4 8928.78 364.435   4
   0   0  -5 6038.49 286.117   3
   0   0   5 6522.80 346.780   4
   0   0  -5 6523.16 516.930   6
   0   0   5 6743.97 481.160   7
   0   0  -6 17130.5 509.442   3
   0   0   6 17799.1 624.965   4
   0   0   6 15990.4 503.256   2
   0   0  -6 18416.8 956.849   6
   0   0  -7 2211.37 359.827   6
   0   0   7 1724.37 210.530   4
   0   0   7 1291.70 151.483   2
   0   0  -7 1815.39 166.909   3
   0   0  -8 1162.30 299.928   6
   0   0   8 476.542 87.4769   2
   0   0  -8 627.776 93.3880   3
   0   0   8 726.485 146.127   4
   0   0  -9 492.107 209.101   6
   0   0 -10 1594.77 394.198   6
   0   0 -11-45.1049 146.457   6
   0   0 -12 371.390 284.832   6
   0   1 -12-121.116 154.162   6
   0   1 -11-79.9815 121.012   6
   0   1 -10 32.3364 153.707   6
   0  -1   9 660.075 184.790   4
   0   1  -9 516.330 223.848   6
   0  -1   8 822.325 205.427   4
   0   1  -8 255.438 63.4393   3
   0   1  -8 567.097 223.431   6
   0   1  -7 5344.91 559.284   6
   0   1  -6 2046.52 324.538   6
   0   1  -5 18039.1 859.698   6
   0  -1   5 18235.2 774.976   7
   0  -1   4 14695.1 634.329   7
   0   1  -4 14392.3 638.000   7
   0   1  -4 13672.2 665.876   6
   0  -1   4 14103.1 668.682   6
   0  -1   3 233702. 2367.48   6
   0   1  -3 231469. 2364.53   6
   0  -1   3 233081. 2167.55   7
   0   1  -2 75208.1 1112.00   6
   0  -1   2 77421.7 1129.37   6
   0   1  -2 74996.1 1063.86   7
   0  -1   2 77403.6 1046.22   7
   0  -1  -1 16290.5 448.997   3
   0   1   1 16027.0 486.530   5
   0  -1  -1 16163.8 427.535   6
   0  -1  -1 16743.0 493.140   5
   0   1   1 15836.1 448.248   3
   0   1   2 128454. 1496.05   6
   0  -1  -2 127879. 964.076   2
   0   1   2 128481. 1659.64   5
   0  -1  -2 130980. 1354.70   3
   0  -1  -2 128854. 942.733   4
   0   1   2 128718. 1361.97   3
   0  -1  -2 127453. 1508.02   6
   0   1   3 30278.3 504.801   4
   0  -1  -3 30424.4 886.113   6
   0  -1  -3 30605.6 707.156   3
   0  -1  -3 30799.6 519.967   4
   0   1   3 29708.5 856.030   6
   0  -1  -3 26560.3 461.889   2
   0  -1  -4 83582.6 1685.00   6
   0  -1  -4 83383.4 1234.87   3
   0   1   4 82669.9 948.128   4
   0  -1  -5 3423.35 386.084   6
   0   1   5 3432.36 218.396   4
   0  -1  -5 3824.39 276.059   3
   0  -1  -6 1773.71 199.002   3
   0  -1  -6 2082.23 338.876   6
   0   1   6 1535.97 156.620   4
   0  -1  -7 998.313 150.013   3
   0  -1  -7 976.679 248.918   6
   0   1   7 850.283 125.353   4
   0   1   8 2125.62 201.512   4
   0  -1  -8 2519.89 429.344   6
   0  -1  -9 554.534 248.184   6
   0  -1 -10 8.79776 155.268   6
   0  -1 -11 25.8843 125.148   6
   0  -1 -12 296.729 236.810   6
   0   2 -12 154.019 170.562   6
   0   2 -11 1441.56 434.824   6
   0   2 -10-21.6778 149.366   6
   0  -2  10 489.180 209.326   4
   0   2  -9 3386.81 530.486   6
   0   2  -8 5161.85 601.264   6
   0   2  -7 3942.47 485.879   6
   0   2  -6 679.426 176.805   7
   0   2  -6 1028.62 232.129   6
   0   2  -5 10319.1 632.557   7
   0   2  -5 10488.5 668.379   6
   0   2  -4 66622.5 1493.14   6
   0   2  -4 65850.5 1416.19   7
   0  -2   4 65361.4 1363.87   7
   0   2  -3 605.583 124.002   7
   0   2  -3 804.050 157.421   6
   0  -2   3 577.188 126.742   7
   0  -2   3 454.142 113.301   6
   0  -2   2 322401. 2571.33   7
   0  -2   2 320471. 2530.04   6
   0   2  -2 320181. 2557.37   7
   0  -2   2 314898. 2688.29   5
   0  -2   1 646888. 3538.90   5
   0   2  -1 628926. 2091.54   1
   0   2  -1 648344. 3529.80   5
   0   2  -1 648719. 3496.03   7
   0   2   0 6459.51 377.728   3
   0   2   0 7011.52 382.524   5
   0  -2   0 6100.31 371.718   5
   0   2   1 70024.4 1288.34   5
   0   2   1 67205.9 1258.72   3
   0  -2  -1 68454.7 1283.22   5
   0   2   2 5064.57 366.077   3
   0  -2  -2 5347.33 372.605   3
   0   2   2 5114.62 383.516   5
   0  -2  -2 5073.97 347.096   6
   0  -2  -2 5175.89 405.829   5
   0   2   3 3533.33 323.895   6
   0  -2  -3 3370.06 317.194   6
   0  -2  -3 3364.27 206.169   4
   0  -2  -3 3401.27 311.327   3
   0   2   3 3444.75 310.246   3
   0  -2  -4 77254.3 1000.65   4
   0  -2  -4 78285.2 1497.81   3
   0  -2  -4 79572.3 1736.17   6
   0   2   4 72037.2 1425.15   3
   0  -2  -4 72437.7 990.731   2
   0  -2  -5 13845.2 646.463   3
   0  -2  -5 13331.3 793.831   6
   0  -2  -6 9929.95 744.275   6
   0  -2  -7 547.980 207.999   6
   0  -2  -8 5617.63 656.737   6
   0  -2  -9-42.7087 110.251   6
   0  -2 -10 1002.85 348.520   6
   0  -2 -11 600.625 246.735   6
   0   3 -12-143.999 124.793   6
   0   3 -11 10.6526 147.630   6
   0   3 -10 949.962 302.667   6
   0   3  -9 3625.55 546.590   6
   0   3  -8 652.848 222.011   6
   0   3  -8 734.286 251.005   7
   0   3  -7 632.071 205.565   7
   0   3  -7 654.501 222.921   6
   0   3  -6 5781.15 553.498   6
   0   3  -6 5225.16 496.235   7
   0   3  -5 12476.9 717.527   7
   0   3  -5 12638.9 753.122   6
   0   3  -4 120218. 2107.24   6
   0  -3   4 121141. 2209.68   5
   0   3  -4 121909. 2068.55   7
   0  -3   3 19252.7 780.769   7
   0   3  -3 20251.1 790.097   7
   0  -3   3 19595.5 811.415   5
   0  -3   3 18852.9 758.736   6
   0   3  -2 13879.0 652.320   5
   0  -3   2 13706.6 642.265   5
   0   3  -2 13605.1 641.572   7
   0   3  -1 61188.8 910.247   1
   0   3  -1 58983.8 1393.56   3
   0   3  -1 63506.2 1347.42   5
   0  -3   0 10011.1 564.513   5
   0   3   0 9685.96 575.266   3
   0   3   0 9237.76 544.677   5
   0   3   1 65231.9 1528.81   3
   0   3   1 68833.5 1537.83   5
   0  -3  -1 66786.3 1509.67   5
   0  -3  -2 662.140 177.134   5
   0   3   2 272.382 104.656   3
   0  -3  -2 352.384 134.295   6
   0   3   3 67036.6 1611.76   3
   0  -3  -3 71687.9 1598.01   6
   0  -3  -3 72378.2 1176.73   4
   0  -3  -4 4852.55 299.040   4
   0  -3  -4 5183.09 480.815   6
   0  -3  -4 5891.15 356.108   2
   0  -3  -5 4309.30 484.307   6
   0  -3  -5 3341.01 251.863   2
   0  -3  -5 3649.82 252.159   4
   0  -3  -6 797.373 239.267   6
   0  -3  -7 1610.21 349.720   6
   0  -3  -8 1302.63 338.657   6
   0  -3  -9-132.880 185.247   6
   0  -3 -10-3.47070 116.163   6
   0  -3 -11 64.9402 150.059   6
   0   4 -12 236.748 231.991   6
   0   4 -11-14.5963 161.180   6
   0   4 -10 202.345 182.132   6
   0   4  -9 131.005 112.757   7
   0   4  -9 399.022 200.223   6
   0   4  -8 1523.72 337.716   6
   0   4  -8 1384.09 312.989   7
   0   4  -7 3348.01 467.089   6
   0   4  -7 3185.54 442.413   7
   0   4  -6 7442.13 654.157   6
   0   4  -6 8047.51 658.035   7
   0  -4   6 8038.59 703.391   5
   0   4  -5 30981.4 1221.42   7
   0  -4   5 32671.7 1332.64   5
   0  -4   4 7738.72 601.925   5
   0   4  -4 6990.51 547.598   7
   0   4  -3 15621.4 803.186   7
   0  -4   3 15524.8 815.354   5
   0   4  -2 14839.7 765.509   7
   0  -4   2 15297.3 806.543   5
   0   4  -1 24945.8 702.427   1
   0  -4   1 24551.6 1014.10   5
   0  -4   0 88712.4 1957.35   5
   0  -4  -1 38045.0 1317.10   5
   0  -4  -2 13768.4 737.984   6
   0  -4  -2 13362.7 822.941   5
   0  -4  -3 14056.9 885.100   5
   0  -4  -3 14155.2 791.120   6
   0  -4  -4 2489.71 356.027   6
   0  -4  -4 2014.74 223.005   4
   0  -4  -5 4304.93 348.654   2
   0  -4  -5 4837.98 336.204   4
   0  -4  -5 5632.03 578.349   6
   0  -4  -6 7.82314 124.112   6
   0  -4  -7 3227.38 508.061   6
   0  -4  -8 807.050 290.366   6
   0  -4  -9 2217.06 483.598   6
   0  -4 -10-1.10830 132.969   6
   0  -4 -11-282.596 252.944   6
   0   5 -12 47.2365 177.712   6
   0   5 -11-76.3710 161.451   6
   0   5 -10 1426.88 381.170   6
   0  -5  10 1015.86 377.073   5
   0   5 -10 890.713 316.431   7
   0   5  -9 436.470 242.799   7
   0  -5   9 357.377 214.199   5
   0   5  -9 33.6081 157.065   6
   0   5  -8 226.071 147.879   7
   0  -5   8 336.946 200.705   5
   0  -5   7 163.223 167.410   5
   0   5  -7-31.7530 128.569   7
   0   5  -6 413.518 180.708   7
   0  -5   6 445.487 165.473   5
   0  -5   5 480.313 185.046   5
   0   5  -5 623.284 189.719   7
   0  -5   4 2008.39 341.510   5
   0   5  -4 1714.56 310.745   7
   0   5  -3 2480.49 374.375   7
   0  -5   3 2774.45 400.301   5
   0  -5   2 3145.04 419.833   5
   0   5  -2 3424.20 431.730   7
   0   5  -2 2718.26 230.304   1
   0   5  -1 7479.54 456.460   1
   0  -5   1 7896.52 646.280   5
   0  -5   0 14457.2 885.083   5
   0  -5  -1 3764.62 471.829   5
   0  -5  -2 9821.56 796.530   5
   0  -5  -3 3100.66 411.875   6
   0  -5  -3 3227.01 467.610   5
   0  -5  -4 6819.17 637.607   6
   0  -5  -5 9275.87 787.535   6
   0  -5  -6 1162.63 306.680   6
   0  -5  -7 48.7888 111.800   6
   0  -5  -8 70.6476 145.663   6
   0  -5  -9 422.772 279.302   6
   0  -5 -10 192.680 174.940   6
   0  -6  12 85.3503 171.093   5
   0  -6  11 460.372 259.077   5
   0   6 -11 370.587 180.393   7
   0  -6  10 146.501 156.889   5
   0   6 -10 375.290 206.614   7
   0  -6   9 797.029 303.327   5
   0   6  -9 1251.82 343.841   7
   0  -6   8 900.655 321.782   5
   0   6  -8 207.826 131.293   7
   0   6  -7 196.366 141.897   7
   0  -6   7 342.799 222.498   5
   0  -6   6 1163.90 352.647   5
   0   6  -6 925.760 265.569   7
   0  -6   5 172.895 146.185   5
   0   6  -5 274.108 171.518   7
   0  -6   4 2104.54 400.842   5
   0   6  -4 1974.10 373.461   7
   0   6  -3 1923.11 356.908   7
   0  -6   3 1422.84 336.963   5
   0   6  -2 4187.20 518.487   7
   0   6  -2 3524.80 307.930   1
   0  -6   2 4542.67 546.633   5
   0  -6   1 10338.4 816.772   5
   0   6  -1 8634.16 546.385   1
   0  -6   0 898.182 263.789   5
   0  -6  -1 190.206 109.796   5
   0  -6  -2 3032.33 482.860   5
   0  -6  -3 2248.53 376.189   6
   0  -6  -3 2027.05 422.053   5
   0  -6  -4 323.238 183.881   6
   0  -6  -4 355.758 211.507   5
   0  -6  -5 159.054 159.787   6
   0  -6  -6 882.235 286.421   6
   0  -6  -7 112.431 165.816   6
   0  -6  -8 628.034 300.821   6
   0  -6  -9 80.5957 118.988   6
   0   7 -12-209.966 203.037   7
   0   7 -11 1150.02 391.368   7
   0  -7  11 830.326 343.490   5
   0  -7  10-13.4435 183.385   5
   0   7 -10 172.381 166.742   7
   0  -7   9 87.2749 133.978   5
   0   7  -9 116.771 161.644   7
   0  -7   8-12.0129 159.684   5
   0   7  -8 78.0937 125.618   7
   0   7  -7-118.424 151.349   7
   0  -7   7 188.924 162.128   5
   0   7  -6 1282.96 326.940   7
   0  -7   6 1081.09 316.953   5
   0  -7   5 4784.60 661.568   5
   0   7  -5 5043.56 616.655   7
   0   7  -4 14630.8 1046.26   7
   0  -7   4 14567.0 1076.85   5
   0   7  -3 3386.02 517.321   7
   0  -7   3 4058.34 567.144   5
   0   7  -2 338.842 108.875   1
   0  -7   2 490.228 211.614   5
   0   7  -2 382.509 253.067   7
   0  -7   1 509.853 249.038   5
   0   7  -1 458.249 160.710   1
   0   7   0 1012.53 251.273   1
   0  -7   0 622.881 233.359   5
   0  -7  -1 436.264 221.389   5
   0  -7  -2 240.580 189.342   5
   0  -7  -3-44.7766 128.135   6
   0  -7  -3 50.2350 165.680   5
   0  -7  -4 606.890 261.222   5
   0  -7  -4 206.545 179.951   6
   0  -7  -5 214.552 134.708   6
   0  -7  -6 95.1248 155.156   6
   0  -7  -7 265.664 226.877   6
   0  -7  -8-71.4452 159.501   6
   0  -8  11 373.096 274.546   5
   0   8 -11 542.389 274.884   7
   0  -8  10 337.260 228.318   5
   0   8 -10-80.1727 143.675   7
   0  -8   9 31.4502 139.881   5
   0   8  -9 171.587 176.451   7
   0  -8   8-152.117 141.431   5
   0   8  -8-56.4275 121.311   7
   0   8  -7 29.9524 156.792   7
   0  -8   7 38.3904 138.872   5
   0   8  -6 272.332 174.157   7
   0  -8   6 618.657 265.100   5
   0   8  -5 1846.54 420.303   7
   0  -8   5 1486.04 405.788   5
   0   8  -4 2886.55 535.665   7
   0  -8   4 2866.90 522.001   5
   0  -8   3 204.252 173.424   5
   0   8  -3-22.7356 127.932   7
   0   8  -2-65.2340 98.2872   1
   0   8  -2-159.354 162.337   7
   0  -8   2 177.503 210.709   5
   0   8  -1 317.257 130.167   1
   0  -8   1 241.624 180.294   5
   0   8  -1 590.299 271.264   7
   0   8   0 783.084 222.939   1
   0  -8   0 825.416 339.954   5
   0  -8  -1 405.323 211.744   5
   0   8   1 1024.56 279.916   1
   0  -8  -2-49.8501 85.5736   6
   0  -8  -2-22.8706 94.7705   5
   0  -8  -3-6.95369 106.388   6
   0  -8  -3 218.117 176.271   5
   0  -8  -4 224.298 218.886   6
   0  -8  -4 234.173 175.786   5
   0  -8  -5 322.578 185.118   6
   0  -8  -6 481.250 259.169   6
   0  -8  -7 468.470 264.531   6
   0   9 -10-71.1202 153.303   7
   0  -9   9 265.432 235.685   5
   0   9  -9-62.5481 137.569   7
   0  -9   8 325.947 246.617   5
   0   9  -8 111.396 124.823   7
   0   9  -7-6.00770 146.402   7
   0  -9   7-128.069 166.989   5
   0  -9   6 297.606 239.840   5
   0   9  -6 253.686 209.101   7
   0  -9   5 432.830 245.113   5
   0   9  -5 257.449 231.009   7
   0  -9   4-274.266 240.028   5
   0   9  -4 216.514 141.102   7
   0   9  -3 118.752 135.426   7
   0  -9   3 418.768 225.161   5
   0  -9   2 322.671 188.227   5
   0   9  -2 447.393 258.988   7
   0  -9   1 235.269 188.973   5
   0   9  -1 426.661 240.148   7
   0  -9   0 178.094 193.654   5
   0   9   0 4.06974 87.6542   1
   0  -9  -1-111.988 97.3546   5
   0   9   1 103.130 161.520   1
   0  -9  -2-41.8953 113.621   5
   0   9   2 94.9399 170.085   1
   0  -9  -2-1.16496 112.181   6
   0  -9  -3-127.036 184.258   6
   0  -9  -3-157.464 148.895   5
   0  -9  -4-20.2728 127.164   5
   0  -9  -4 159.610 152.174   6
   0  -9  -5 134.321 175.687   6
   0  -9  -6 23.6949 126.072   6
   0  10  -8 272.399 227.186   7
   0 -10   8 92.7059 240.060   5
   0  10  -7-341.508 231.123   7
   0 -10   7 201.849 218.167   5
   0  10  -6-24.2912 120.282   7
   0 -10   6-24.0760 150.750   5
   0 -10   5-215.476 154.255   5
   0  10  -5-69.6617 126.725   7
   0  10  -4 281.956 228.666   7
   0 -10   4-35.9525 148.309   5
   0 -10   3 20.2730 194.799   5
   0  10  -3-375.700 239.964   7
   0 -10   2-7.53531 104.751   5
   0  10  -2-151.236 174.178   7
   0  10  -1 111.124 199.330   7
   0 -10   1-108.109 188.884   5
   0  10   0 68.9284 163.904   7
   0 -10   0 32.2508 105.917   5
   0 -10  -1-260.466 263.903   5
   0 -10  -2 197.805 239.295   5
   0 -10  -2-85.1821 128.801   6
   0  10   3-66.0741 126.808   1
   0 -10  -3-181.907 146.734   6
   0 -10  -4-102.226 124.232   6
   0  10   4 283.700 281.576   1
   0  11  -4 277.032 239.900   7
   0 -11   4 174.049 147.314   5
   0  11  -3 140.918 190.760   7
   0 -11   3 531.641 310.441   5
   0  11  -2 274.975 288.266   7
   0 -11   2 126.189 195.433   5
   0  11  -1 29.3485 164.547   7
   0 -11  -1-178.995 204.128   6
   0 -11  -2 71.1939 165.570   6
  -1  11  -3-333.049 231.874   7
   1 -11   3 396.134 269.906   5
   1 -10  -3 133.968 153.707   6
   1 -10  -2-73.4095 125.256   5
   1 -10  -2-142.000 171.919   6
   1 -10  -1-164.238 177.733   5
   1 -10   0-6.54350 123.239   5
  -1  10  -1-145.839 133.349   7
   1 -10   1-197.995 188.456   5
  -1  10  -2-167.641 192.718   7
   1 -10   2 99.0571 166.666   5
   1 -10   3 370.435 264.459   5
  -1  10  -3-388.455 240.625   7
   1 -10   4-23.3443 156.588   5
  -1  10  -4 167.541 207.431   7
   1 -10   5-30.6884 144.633   5
  -1  10  -5 137.287 175.427   7
  -1  10  -6 88.8969 156.904   7
   1 -10   6-52.0344 155.930   5
  -1  10  -7 159.816 171.003   7
   1 -10   7 60.0101 119.277   5
   1 -10   8 2.78267 118.018   5
  -1  10  -8-259.564 209.881   7
   1  -9  -5 196.890 235.471   6
   1  -9  -4-33.6773 133.588   5
   1  -9  -4 89.7775 185.335   6
   1  -9  -3-28.0595 99.5995   6
   1  -9  -3-319.383 221.674   5
   1  -9  -2 235.404 197.846   6
   1  -9  -2 155.401 141.189   5
   1  -9  -1 24.1042 166.049   5
   1  -9   0-34.8966 182.290   5
   1  -9   1-24.0167 114.247   5
   1  -9   2 375.134 255.578   5
  -1   9  -2 306.139 229.918   7
  -1   9  -3 115.516 165.386   7
   1  -9   3 172.037 229.785   5
   1  -9   4 267.347 188.323   5
  -1   9  -4 235.486 203.880   7
   1  -9   5 208.630 190.069   5
  -1   9  -5 202.086 195.704   7
   1  -9   6-77.8021 161.776   5
  -1   9  -6 187.294 176.820   7
   1  -9   7-5.90786 119.922   5
  -1   9  -7 50.1095 138.617   7
   1  -9   8-28.4098 130.007   5
  -1   9  -8-34.7238 111.780   7
  -1   9  -9 160.819 156.357   7
   1  -9   9 312.276 249.938   5
  -1   9 -10 83.0035 136.287   7
   1  -8  -7-69.5402 157.251   6
   1  -8  -6-144.948 199.330   6
   1  -8  -5 101.878 158.471   6
   1  -8  -4 81.5882 140.921   5
   1  -8  -4 150.934 155.300   6
   1  -8  -3 150.138 133.846   6
   1  -8  -3 168.995 158.173   5
   1  -8  -2 284.510 201.134   5
   1  -8  -1 944.729 346.515   5
   1  -8   0 509.852 239.067   5
  -1   8  -1 245.557 134.387   1
   1  -8   1 120.320 164.692   5
   1  -8   2 209.053 148.675   5
  -1   8  -2 613.280 260.033   7
   1  -8   3 106.057 162.799   5
  -1   8  -3-178.915 168.338   7
   1  -8   4 1598.25 412.554   5
  -1   8  -4 1965.63 431.826   7
   1  -8   5 1990.97 457.181   5
  -1   8  -5 2078.36 439.689   7
   1  -8   6 338.272 214.474   5
  -1   8  -6 384.773 212.860   7
   1  -8   7 180.486 218.337   5
  -1   8  -7 148.097 196.529   7
   1  -8   8 355.117 239.677   5
  -1   8  -8-217.241 217.520   7
   1  -8   9 39.3423 204.665   5
  -1   8  -9-169.359 142.882   7
   1  -8  10 35.6787 164.553   5
  -1   8 -10 407.411 260.432   7
  -1   8 -11 402.021 242.214   7
   1  -8  11 45.0330 165.003   5
   1  -7  -8 395.530 244.163   6
   1  -7  -7-244.940 202.193   6
   1  -7  -6 41.4182 117.428   6
   1  -7  -5-4.62957 160.809   6
   1  -7  -4 574.368 264.630   6
   1  -7  -4 404.662 216.731   5
   1  -7  -3 196.862 164.296   6
   1  -7  -3 398.049 172.934   5
   1  -7  -2 141.099 186.220   5
   1  -7  -1 687.987 287.283   5
   1  -7   0 1130.84 319.178   5
   1  -7   1 3372.56 521.399   5
  -1   7  -2 1352.65 365.588   7
   1  -7   2 2230.88 442.438   5
  -1   7  -2 1808.29 213.891   1
   1  -7   3 7161.66 788.600   5
  -1   7  -3 7129.32 755.553   7
  -1   7  -4 1342.34 321.968   7
   1  -7   4 1574.35 385.542   5
  -1   7  -5 1881.67 393.099   7
   1  -7   5 1134.44 309.444   5
  -1   7  -6 1367.27 338.170   7
   1  -7   6 503.977 241.002   5
  -1   7  -7 353.706 149.921   7
   1  -7   7 522.341 258.504   5
  -1   7  -8 196.975 149.571   7
   1  -7   8 388.965 241.680   5
   1  -7   9-116.506 146.091   5
  -1   7  -9 182.407 160.977   7
   1  -7  10 324.650 283.031   5
  -1   7 -10-44.5821 90.8512   7
  -1   7 -11-137.278 162.604   7
   1  -7  11-124.463 173.879   5
  -1   7 -12-328.932 216.349   7
   1  -6  -9 253.054 213.544   6
   1  -6  -8 171.549 195.608   6
   1  -6  -7-4.50691 120.812   6
   1  -6  -6 98.8275 147.170   6
   1  -6  -5 101.794 146.955   6
   1  -6  -4 1717.00 431.359   5
   1  -6  -4 1909.30 391.221   6
   1  -6  -3 1583.80 361.518   5
   1  -6  -3 1444.00 322.875   6
   1  -6  -2 5366.39 640.083   5
   1  -6  -1 492.502 212.464   5
   1  -6   0 1953.09 373.226   5
   1  -6   1 1763.44 356.405   5
  -1   6  -2 1640.85 176.917   1
   1  -6   2 2166.99 391.968   5
   1  -6   3 10370.7 832.055   5
  -1   6  -3 11060.3 843.346   7
   1  -6   4 2606.31 435.297   5
  -1   6  -4 2038.84 380.310   7
   1  -6   5-549.302 209.138   5
  -1   6  -5 60.8378 98.2089   7
  -1   6  -6 438.890 171.832   7
   1  -6   6 225.063 155.975   5
  -1   6  -7 70.4810 79.4154   7
   1  -6   7 455.272 225.145   5
   1  -6   8 1063.17 319.556   5
  -1   6  -8 1036.46 309.981   7
  -1   6  -9 785.450 281.695   7
   1  -6   9 792.361 280.979   5
  -1   6 -10 208.741 172.911   7
   1  -6  10 189.059 211.044   5
   1  -6  11 68.0826 137.502   5
  -1   6 -11-54.9975 109.220   7
   1  -6  12 31.8043 115.115   5
   1  -5 -10 185.379 216.410   6
   1  -5  -9-79.4923 160.559   6
   1  -5  -8 633.219 308.711   6
   1  -5  -7-185.777 198.744   6
   1  -5  -6 1223.96 325.034   6
   1  -5  -5 4462.98 564.824   6
   1  -5  -4 751.361 240.055   6
   1  -5  -3 1790.51 362.042   5
   1  -5  -3 2038.98 341.226   6
   1  -5  -2 330.934 136.798   5
   1  -5  -1 1985.08 357.386   5
   1  -5   0 4357.60 500.352   5
   1  -5   1 19303.8 1022.58   5
  -1   5  -2 36169.0 663.812   1
   1  -5   2 43042.5 1517.91   5
   1  -5   3 1540.91 298.659   5
  -1   5  -3 1535.44 301.818   7
   1  -5   4 4701.09 512.258   5
  -1   5  -4 5318.13 528.688   7
   1  -5   5 309.883 147.579   5
  -1   5  -5 355.052 176.889   7
   1  -5   6 21.5507 112.024   5
  -1   5  -6-51.1405 114.056   7
  -1   5  -7 702.374 222.738   7
   1  -5   7 639.950 240.920   5
   1  -5   7 338.075 69.1191   1
   1  -5   8 306.832 192.139   5
  -1   5  -8 189.747 164.663   7
  -1   5  -9 778.167 251.789   7
   1  -5   9 950.288 312.458   5
  -1   5 -10 107.002 143.637   7
   1  -5  10 76.2162 128.590   5
   1  -5  11 409.867 259.718   5
   1  -5  12 31.3609 107.302   5
   1  -4 -10 97.1548 223.727   6
   1  -4  -9 104.742 140.100   6
   1  -4  -8 569.095 257.601   6
   1  -4  -7 1787.01 398.989   6
   1  -4  -6 5859.21 657.340   6
   1  -4  -5 1768.83 333.745   6
   1  -4  -5 1572.17 158.717   4
   1  -4  -4 8373.77 673.330   6
   1  -4  -3 25572.8 1111.38   6
   1  -4  -3 24032.9 1183.17   5
   1  -4  -2 38683.6 1421.84   5
   1  -4  -1 14192.6 818.977   5
   1  -4   0 6718.10 544.133   5
   1  -4   1 55624.6 1525.12   5
   1  -4   2 62660.9 1632.13   5
   1  -4   3 19636.9 917.153   5
  -1   4  -3 20452.8 909.234   7
   1  -4   4 15544.7 846.062   5
  -1   4  -4 13515.3 758.936   7
   1  -4   5 16978.9 948.300   5
  -1   4  -5 17139.5 860.364   7
   1  -4   6 7304.88 664.551   5
  -1   4  -6 6499.31 573.216   7
  -1   4  -7 148.378 120.319   7
   1  -4   7 249.017 148.416   5
  -1   4  -8 1479.74 354.442   6
  -1   4  -8 1393.91 321.223   7
  -1   4  -9 374.059 183.620   7
  -1   4  -9 492.026 228.352   6
  -1   4 -10 520.095 256.740   6
  -1   4 -11 176.888 225.602   6
  -1   4 -12-119.457 135.250   6
   1  -3 -11 741.136 290.467   6
   1  -3 -10 433.879 255.473   6
   1  -3  -9 3065.57 547.647   6
   1  -3  -8 771.456 247.073   6
   1  -3  -7 1013.46 292.642   6
   1  -3  -6 304.063 103.643   2
  -1   3   6 287.590 98.8672   3
   1  -3  -6 655.315 224.446   6
  -1   3   5 9780.90 606.357   3
   1  -3  -5 11142.2 779.055   6
   1  -3  -5 9290.57 513.741   2
   1  -3  -4 13356.6 777.849   6
  -1   3   4 12203.2 666.384   3
   1  -3  -4 12629.0 612.438   2
   1  -3  -4 11168.6 355.360   4
   1  -3  -3 2515.97 320.843   6
  -1   3   3 1743.20 257.917   3
   1  -3  -3 2554.09 288.788   2
   1  -3  -2 45091.9 1370.72   5
   1  -3  -1 70311.4 1565.14   5
  -1   3   1 67264.4 1556.99   5
  -1   3   0 54205.2 1336.89   5
   1  -3   0 55826.3 1347.76   5
   1  -3   1 89847.1 1677.08   5
  -1   3  -1 91034.2 1640.52   5
  -1   3  -2 47319.3 1177.78   5
   1  -3   2 47516.0 1202.71   5
  -1   3  -2 46160.3 1172.65   7
   1  -3   3 7991.28 518.461   5
  -1   3  -3 7350.08 478.174   7
   1  -3   4 4503.14 420.970   5
  -1   3  -4 4135.62 370.734   7
  -1   3  -5 15524.6 855.997   6
  -1   3  -5 14903.6 759.320   7
  -1   3  -6 20136.6 930.183   7
  -1   3  -6 19315.7 1029.29   6
  -1   3  -7 46.4001 153.687   6
  -1   3  -7 192.798 113.248   7
  -1   3  -8 4380.71 519.823   7
  -1   3  -8 4937.05 599.189   6
  -1   3  -9 4498.71 621.522   6
  -1   3 -10 545.167 251.586   6
  -1   3 -11 277.229 200.051   6
  -1   3 -12 283.276 210.729   6
   1  -2 -12 149.702 182.497   6
   1  -2 -11 67.9162 113.844   6
   1  -2 -10-163.197 199.760   6
   1  -2  -9 311.591 168.979   6
   1  -2  -8 375.083 168.861   6
   1  -2  -7 4448.29 556.219   6
   1  -2  -6 1258.16 279.034   6
   1  -2  -5 6259.31 376.559   2
  -1   2   5 6191.48 390.623   3
   1  -2  -5 6469.44 559.688   6
  -1   2   4 193.362 80.7755   3
   1  -2  -4 243.205 110.785   6
   1  -2  -4 137.525 47.2729   2
  -1   2   3 23056.9 741.091   3
   1  -2  -3 22584.2 854.228   6
   1  -2  -3 23166.8 720.071   2
   1  -2  -2 8120.26 471.237   6
   1  -2  -2 7969.44 418.583   2
   1  -2  -2 7624.75 491.953   5
  -1   2   2 7601.76 481.795   5
   1  -2  -1 60282.3 1237.05   5
  -1   2   1 58266.5 1210.85   5
  -1   2   0 247335. 2317.31   5
   1  -2   0 247585. 2327.32   5
  -1   2  -1 259587. 2266.11   5
   1  -2   1 259164. 2321.42   5
   1  -2   2 94766.0 1441.29   5
   1  -2   2 96367.3 1486.49   6
  -1   2  -2 94873.4 1376.71   7
  -1   2  -3 10960.1 493.883   7
  -1   2  -3 10960.8 561.499   6
   1  -2   3 10635.2 493.483   7
   1  -2   3 10696.5 559.794   6
  -1   2  -4 7980.18 532.563   6
  -1   2  -4 7897.19 467.443   7
   1  -2   4 7878.85 461.705   7
  -1   2  -5 20043.5 918.235   6
  -1   2  -5 19806.7 808.053   7
   1  -2   5 19171.4 766.674   7
  -1   2  -6 12480.5 802.000   6
  -1   2  -6 13040.9 731.737   7
  -1   2  -7 6795.67 646.462   6
  -1   2  -8 3978.36 530.890   6
  -1   2  -9 1232.13 338.937   6
   1  -2   9 2576.69 393.879   4
   1  -2  10 757.864 234.814   4
  -1   2 -10 337.157 204.392   6
  -1   2 -11 264.747 228.996   6
  -1   2 -12 16.1839 157.267   6
   1  -1 -12 561.117 308.498   6
   1  -1 -11 1806.58 458.021   6
   1  -1 -10 1599.58 411.222   6
   1  -1  -9 457.559 234.716   6
   1  -1  -8 1881.33 373.428   6
   1  -1  -7 573.002 205.049   6
  -1   1   7 1071.29 185.004   2
  -1   1   6 29418.5 831.730   2
   1  -1  -6 31888.9 1309.95   6
  -1   1   5 50797.2 1061.84   2
   1  -1  -5 50819.0 1491.19   6
  -1   1   4 11057.6 473.383   2
   1  -1  -4 10741.2 617.893   6
  -1   1   4 10788.2 368.233   3
  -1   1   3 46745.2 764.276   3
  -1   1   3 45563.3 1096.73   6
   1  -1  -3 47158.5 1132.33   6
   1  -1  -3 44190.7 880.604   2
  -1   1   3 47042.5 931.586   2
   1  -1  -2 40875.3 810.593   2
   1  -1  -2 42438.8 914.595   6
  -1   1   2 41982.8 819.448   2
  -1   1   2 41885.6 970.746   5
  -1   1   2 40704.2 901.840   6
   1  -1  -1 237448. 1866.44   2
   1  -1  -1 238075. 1949.84   5
  -1   1   1 235763. 1928.47   5
   1  -1   0 218873. 1567.19   5
  -1   1   0 218527. 1580.51   5
  -1   1  -1 235280. 1573.56   5
  -1   1  -1 230854. 1365.18   1
   1  -1   1 232096. 1579.36   5
   1  -1   2 11848.5 467.892   6
   1  -1   2 11895.2 377.903   7
  -1   1  -2 11371.1 456.196   6
  -1   1  -2 11874.4 368.862   7
   1  -1   2 12526.8 396.825   1
  -1   1  -3 16662.6 654.059   6
   1  -1   3 15409.3 628.034   6
   1  -1   3 15322.7 492.138   7
  -1   1  -3 15729.8 519.360   7
   1  -1   4 1541.26 184.962   7
  -1   1  -4 1458.59 222.607   6
  -1   1  -4 1539.98 202.928   7
  -1   1  -5 54451.8 1487.85   6
   1  -1   5 51598.8 1203.41   7
  -1   1  -6 6857.35 588.492   6
   1  -1   6 8027.75 540.341   4
  -1   1  -7 3459.09 454.871   6
   1  -1   7 3183.93 367.999   4
  -1   1  -8 360.113 161.523   6
   1  -1   8 470.416 170.385   4
   1  -1   9 1970.19 306.871   4
  -1   1  -9 2326.35 429.049   6
  -1   1 -10 315.369 176.529   6
  -1   1 -11 872.172 345.815   6
  -1   1 -12 154.400 184.791   6
   1   0 -12 230.929 214.687   6
   1   0 -11 664.751 264.669   6
   1   0 -10 663.115 284.704   6
   1   0  -9 98.3410 134.234   6
   1   0  -8 4536.86 567.070   6
  -1   0   8 3879.66 264.653   4
  -1   0   8 4232.43 351.912   2
  -1   0   7 1587.30 172.642   4
   1   0  -7 1179.05 252.238   6
  -1   0   7 1364.94 195.229   2
  -1   0   6 17796.1 675.329   2
   1   0  -6 17877.2 938.611   6
   1   0  -5 7516.77 550.778   6
  -1   0   5 6768.02 392.944   2
  -1   0   4 53453.1 1293.63   6
   1   0  -4 53410.7 1314.91   6
  -1   0   4 52997.5 1035.08   2
   1   0  -3 164243. 1988.96   6
  -1   0   3 162206. 1950.11   6
   1   0  -2 84138.9 1160.31   6
  -1   0   2 83227.9 1141.95   6
  -1   0   2 85874.2 1106.25   2
  -1   0   1 2625.31 175.774   2
  -1   0  -1 9270.60 266.558   2
   1   0   1 9382.47 355.956   1
   1   0   1 9568.88 348.202   4
  -1   0  -1 8952.14 273.665   6
   1   0   1 9477.39 287.757   6
  -1   0  -1 8756.92 339.544   4
   1   0   1 9522.05 267.189   2
   1   0   2 186353. 1098.86   2
   1   0   2 186255. 1272.52   7
  -1   0  -2 189947. 1749.50   6
  -1   0  -2 188945. 1746.45   4
   1   0   2 188898. 1748.76   4
   1   0   2 188661. 1740.25   6
   1   0   3 33369.0 894.564   6
  -1   0  -3 31725.1 877.498   6
   1   0   3 33304.6 717.791   7
   1   0   3 33246.4 814.447   4
  -1   0  -4 31672.1 1014.27   6
   1   0   4 35750.3 902.388   7
   1   0   4 35013.0 1071.30   6
   1   0   4 34266.3 899.562   4
  -1   0  -5 32661.1 1157.52   6
   1   0   5 32570.5 970.539   7
   1   0   5 31515.1 927.849   4
   1   0   6 1990.72 251.270   4
  -1   0  -6 2393.74 351.699   6
  -1   0  -7 8981.37 733.078   6
  -1   0  -7 9433.49 543.840   3
   1   0   7 9762.72 589.130   4
  -1   0  -8 1619.76 342.529   6
  -1   0  -8 1344.16 212.964   3
   1   0   8 1727.19 264.899   4
   1   0   9 835.678 192.832   4
  -1   0  -9 793.910 276.057   6
  -1   0 -10 1316.16 363.690   6
  -1   0 -11 1233.75 377.946   6
  -1   0 -12 399.513 247.673   6
   1   1 -12 717.284 308.896   6
   1   1 -11 230.990 151.600   6
   1   1 -10 827.321 305.915   6
  -1  -1   9 490.281 140.888   2
   1   1  -9 635.704 252.468   6
   1   1  -8 5187.61 596.844   6
   1   1  -7 2611.14 401.726   6
   1   1  -6 17817.8 935.836   6
   1   1  -5 1643.34 273.042   6
  -1  -1   4 31654.6 996.548   6
   1   1  -4 29289.9 462.008   3
  -1  -1   4 31340.0 985.668   7
   1   1  -4 33212.7 1026.50   6
   1   1  -3 28936.8 527.034   3
   1   1  -3 29334.4 875.388   7
  -1  -1   3 28075.4 802.579   6
  -1  -1   3 29551.6 855.086   7
   1   1  -3 28569.4 822.179   6
   1   1  -2 982312. 3919.27   6
  -1  -1   2 969440. 4333.38   7
  -1  -1   2 999999. 3446.74   3
   1   1  -2 983985. 3427.72   3
  -1  -1   2 982148. 3842.54   6
   1   1  -2 994987. 4331.88   7
  -1  -1   1 1920.47 159.158   7
  -1  -1   1 2215.71 195.425   3
   1   1  -1 1937.85 121.175   6
   1   1  -1 2393.97 192.866   3
  -1  -1   1 1904.97 131.486   6
   1   1  -1 1901.14 157.044   7
   1   1   0 154842. 1477.57   1
  -1  -1   0 154776. 1608.80   3
  -1  -1   0 154975. 1204.68   5
   1   1   0 154913. 1158.91   7
  -1  -1   0 151797. 1451.68   4
  -1  -1   0 157983. 1479.46   1
   1   1   0 152503. 1190.84   5
  -1  -1   0 153518. 1161.54   7
   1   1   1 55092.4 887.230   4
  -1  -1  -1 56161.4 727.860   6
  -1  -1  -1 55701.6 898.805   4
  -1  -1  -1 58583.3 1079.27   3
   1   1   1 54939.3 704.019   6
   1   1   1 55203.7 840.989   5
  -1  -1  -1 54636.4 860.491   5
   1   1   2 36399.5 875.463   5
   1   1   2 37577.2 782.764   4
  -1  -1  -2 39362.1 951.053   3
  -1  -1  -2 40616.1 832.325   6
   1   1   2 38443.1 790.777   6
  -1  -1  -2 39981.1 816.578   4
  -1  -1  -3 11227.8 536.645   6
  -1  -1  -3 11117.0 544.313   3
  -1  -1  -3 11156.9 467.750   4
   1   1   3 11349.0 526.817   6
   1   1   3 10571.1 450.874   4
  -1  -1  -4 148883. 2210.57   6
  -1  -1  -4 149410. 1807.23   4
  -1  -1  -4 146465. 2075.55   3
   1   1   4 147947. 1812.75   4
  -1  -1  -5 5239.84 419.251   3
   1   1   5 5808.61 385.332   4
  -1  -1  -5 5797.36 493.343   6
  -1  -1  -6 4174.67 383.470   3
  -1  -1  -6 4367.49 478.952   6
   1   1   6 4716.05 371.287   4
  -1  -1  -7 1959.50 354.672   6
   1   1   7 1659.97 236.490   4
  -1  -1  -7 1679.67 246.253   3
  -1  -1  -8 4866.42 423.822   3
   1   1   8 5422.87 418.920   4
  -1  -1  -8 5820.28 648.218   6
  -1  -1  -9 329.037 185.724   6
  -1  -1 -10 3150.72 563.050   6
  -1  -1 -11 454.305 223.048   6
  -1  -1 -12 124.753 193.038   6
   1   2 -12 375.287 269.024   6
   1   2 -11 312.586 217.655   6
   1   2 -10 2448.50 472.867   6
   1   2  -9 5695.37 685.187   6
   1   2  -8 7754.05 731.131   6
   1   2  -7 3281.32 441.907   6
   1   2  -7 2414.55 175.946   3
   1   2  -6 7358.51 344.616   3
   1   2  -6 8692.19 657.145   7
   1   2  -6 8118.80 639.575   6
   1   2  -5 10636.4 680.040   7
   1   2  -5 9315.91 617.457   6
   1   2  -5 9597.24 416.391   3
   1   2  -4 40730.9 1186.86   7
   1   2  -4 40573.1 1144.72   6
   1   2  -4 39297.0 880.565   3
  -1  -2   4 39396.0 1122.80   6
  -1  -2   3 58425.7 1246.10   7
   1   2  -3 56558.3 1265.23   7
   1   2  -3 53374.7 1176.38   6
  -1  -2   3 57830.5 1187.00   6
   1   2  -3 54712.9 1078.41   3
  -1  -2   2 56731.0 1132.86   3
  -1  -2   2 55889.6 990.412   6
  -1  -2   2 57277.4 1126.25   7
   1   2  -2 56623.9 1128.80   7
   1   2  -2 54286.4 1117.16   3
  -1  -2   2 54814.9 1114.65   5
   1   2  -2 55588.6 982.744   6
  -1  -2   1 8883.60 410.513   5
  -1  -2   1 8866.98 470.441   3
   1   2  -1 8473.32 469.327   3
   1   2  -1 8899.81 410.121   5
  -1  -2   1 8500.36 414.398   7
   1   2  -1 8396.25 407.930   7
  -1  -2   1 8256.91 366.611   1
  -1  -2   0 138195. 1681.42   5
   1   2   0 136269. 1640.01   5
   1   2   0 137703. 1915.13   3
  -1  -2   0 140194. 1922.92   3
   1   2   0 137248. 1697.94   1
   1   2   1 2227.61 229.158   5
  -1  -2  -1 2326.22 264.021   3
  -1  -2  -1 2299.06 189.285   6
   1   2   1 2671.43 278.935   3
  -1  -2  -1 2287.07 220.501   4
  -1  -2  -1 2439.10 238.114   5
  -1  -2  -2 29939.7 969.140   3
   1   2   2 30462.8 907.147   5
  -1  -2  -2 29780.3 787.524   6
  -1  -2  -2 28746.7 914.475   5
  -1  -2  -2 29824.8 771.852   4
  -1  -2  -3 10525.0 549.125   6
  -1  -2  -3 10742.6 485.452   4
   1   2   3 9981.20 601.751   5
  -1  -2  -3 11239.6 625.657   3
   1   2   3 10760.9 541.419   6
  -1  -2  -4 13223.2 704.929   3
  -1  -2  -4 13907.8 710.580   6
  -1  -2  -4 13122.3 561.069   4
  -1  -2  -5 798.995 156.930   4
  -1  -2  -5 421.388 135.353   3
  -1  -2  -5 323.482 114.276   6
  -1  -2  -6 8352.66 678.387   6
  -1  -2  -6 7915.30 577.840   3
  -1  -2  -7 555.978 154.522   3
  -1  -2  -7 441.776 164.573   6
  -1  -2  -8 1352.34 241.862   3
  -1  -2  -8 1818.87 374.225   6
  -1  -2  -9 544.155 241.431   6
  -1  -2 -10 1586.58 407.688   6
  -1  -2 -11 621.249 289.441   6
   1   3 -13 433.513 270.972   6
   1   3 -12 71.5694 175.984   6
   1   3 -11 326.433 179.745   6
   1   3 -10 6114.27 751.700   6
   1   3  -9 1688.79 396.112   6
   1   3  -8 11332.9 892.252   6
   1   3  -8 9615.21 481.019   3
   1   3  -7 12708.7 873.867   7
   1   3  -7 10720.6 540.094   3
   1   3  -7 12066.1 855.764   6
   1   3  -6 8941.96 509.173   3
   1   3  -6 9529.78 700.651   6
   1   3  -6 9950.07 720.675   7
   1   3  -5 4973.23 393.786   3
   1   3  -5 5968.22 499.058   6
   1   3  -5 5567.10 511.530   7
   1   3  -4 23935.4 958.855   7
   1   3  -4 21463.0 823.985   3
   1   3  -4 21899.4 880.460   6
  -1  -3   3 25409.3 847.572   6
   1   3  -3 24784.7 901.330   3
   1   3  -3 25521.6 912.606   7
  -1  -3   3 25753.7 942.012   5
  -1  -3   2 1646.55 228.858   5
   1   3  -2 1747.40 231.452   5
  -1  -3   2 1752.70 250.902   3
   1   3  -2 1918.26 244.950   7
  -1  -3   2 1505.79 165.962   1
   1   3  -2 1750.16 248.765   3
  -1  -3   2 1812.14 206.622   6
  -1  -3   2 1633.01 225.225   7
   1   3  -1 61978.2 1512.15   3
   1   3  -1 67486.9 1202.07   1
   1   3  -1 67044.6 1373.81   5
   1   3  -1 67676.1 1385.06   7
  -1  -3   1 66031.6 1391.78   5
  -1  -3   1 67858.5 1553.49   3
   1   3   0 22331.1 788.455   1
   1   3   0 22220.5 822.757   5
  -1  -3   0 22461.9 931.700   3
   1   3   0 22507.3 928.654   3
  -1  -3   0 21941.9 818.035   5
  -1  -3  -1 14665.7 697.341   5
  -1  -3  -1 15264.9 774.723   3
   1   3   1 14323.8 691.505   5
  -1  -3  -2 5166.77 466.428   5
  -1  -3  -2 5385.24 477.380   3
  -1  -3  -2 5719.48 396.815   6
  -1  -3  -2 5305.20 380.357   4
  -1  -3  -3 41467.6 1172.96   6
  -1  -3  -3 39384.1 1026.87   4
  -1  -3  -3 41262.7 1344.62   3
  -1  -3  -4 9867.05 678.650   3
  -1  -3  -4 9849.81 638.178   6
  -1  -3  -4 9327.35 505.836   4
  -1  -3  -5 1379.89 194.981   4
  -1  -3  -5 1715.32 293.677   6
  -1  -3  -5 1457.19 271.976   3
  -1  -3  -6 5933.11 551.876   3
  -1  -3  -6 6577.60 442.789   4
  -1  -3  -6 6950.10 656.003   6
  -1  -3  -7 2233.80 398.481   6
  -1  -3  -7 2063.56 330.233   3
  -1  -3  -8 789.035 257.783   6
  -1  -3  -9 484.756 217.273   6
  -1  -3 -10 435.022 205.942   6
  -1  -3 -11-91.3211 203.565   6
   1   4 -12-158.041 157.818   6
   1   4 -11 52.1267 211.542   6
   1   4 -10 176.563 156.995   6
   1   4  -9 5095.46 660.242   7
   1   4  -9 4508.65 625.143   6
   1   4  -8 6544.93 700.428   6
   1   4  -8 7194.83 721.865   7
   1   4  -7 3953.03 500.902   7
   1   4  -7 4497.40 539.738   6
   1   4  -6 22743.7 1112.13   6
   1   4  -6 22549.7 1115.98   7
  -1  -4   5 3769.71 464.852   5
   1   4  -5 4382.03 470.242   7
  -1  -4   4 2681.17 363.960   5
   1   4  -4 2567.79 365.524   7
   1   4  -3 6748.26 531.109   7
  -1  -4   3 6895.65 545.533   5
  -1  -4   3 6279.62 347.703   1
   1   4  -2 8455.48 594.768   7
  -1  -4   2 7347.91 543.141   5
  -1  -4   1 4545.08 431.163   5
  -1  -4   1 4607.12 475.945   3
   1   4  -1 3987.53 341.019   1
   1   4  -1 4428.90 418.436   7
  -1  -4   0 20964.1 932.523   5
  -1  -4   0 19375.0 981.984   3
   1   4   0 20022.6 838.054   1
  -1  -4  -1 53243.4 1539.70   5
  -1  -4  -1 53316.4 1655.85   3
  -1  -4  -2 298.245 159.788   5
  -1  -4  -2 376.808 163.271   3
  -1  -4  -2 96.9085 78.0832   6
  -1  -4  -3 6493.63 595.192   5
  -1  -4  -3 5876.30 488.511   6
  -1  -4  -3 6419.97 596.290   3
  -1  -4  -4 2966.47 385.516   6
  -1  -4  -4 2455.66 381.918   3
  -1  -4  -5 12743.4 880.129   3
  -1  -4  -5 12516.5 847.413   6
  -1  -4  -6 6035.88 622.558   3
  -1  -4  -6 5842.80 619.643   6
  -1  -4  -7 150.654 144.775   6
  -1  -4  -8 225.524 126.867   6
  -1  -4  -9 830.598 297.279   6
  -1  -4 -10-113.137 178.758   6
   1   5 -12 490.245 283.063   6
   1   5 -11 745.284 331.350   6
   1   5 -10 1113.02 357.602   6
   1   5 -10 747.021 304.971   7
  -1  -5   9 4578.14 654.050   5
   1   5  -9 4399.11 620.965   7
   1   5  -9 3644.73 569.275   6
   1   5  -8 361.115 185.435   6
   1   5  -8 821.715 285.612   7
  -1  -5   8 751.025 267.675   5
  -1  -5   7 2129.17 404.728   5
   1   5  -7 1443.59 323.687   7
  -1  -5   6 305.154 179.111   5
   1   5  -6 154.438 119.732   7
  -1  -5   5 2284.66 379.007   5
   1   5  -5 1727.52 322.490   7
  -1  -5   5 1839.68 195.958   1
  -1  -5   4 12835.6 850.624   5
  -1  -5   4 11302.5 474.933   1
   1   5  -4 12301.6 806.841   7
  -1  -5   3 8505.08 674.107   5
   1   5  -3 9041.83 671.824   7
   1   5  -2 21418.9 1039.54   7
  -1  -5   2 22183.9 1073.32   5
   1   5  -1 3528.34 358.615   1
   1   5  -1 3799.31 437.596   7
  -1  -5   1 4571.00 491.194   5
  -1  -5   0 2315.41 378.362   5
   1   5   0 2730.82 346.928   1
  -1  -5  -1 2176.33 365.196   5
  -1  -5  -2 324.450 144.964   6
  -1  -5  -2 289.313 143.451   5
  -1  -5  -3 3361.62 412.380   6
  -1  -5  -3 3214.29 474.759   5
  -1  -5  -4 747.896 232.520   6
  -1  -5  -5 924.452 261.820   6
  -1  -5  -6 1683.18 359.011   6
  -1  -5  -7 943.129 295.296   6
  -1  -5  -8 42.0645 117.015   6
  -1  -5  -9 532.633 251.648   6
  -1  -5 -10-108.958 218.032   6
  -1  -6  12 464.696 333.123   5
  -1  -6  11 1354.62 450.911   5
   1   6 -11 1492.27 420.039   7
  -1  -6  10 118.648 156.762   5
   1   6 -10 279.770 234.881   7
   1   6  -9 2327.02 455.397   7
  -1  -6   9 1721.75 450.471   5
   1   6  -8 23.7157 144.812   7
  -1  -6   8 144.543 127.183   5
   1   6  -7 516.796 215.279   7
  -1  -6   7 486.973 226.591   5
   1   6  -6-108.281 154.957   7
  -1  -6   6 179.931 150.051   5
  -1  -6   5 452.903 202.576   5
   1   6  -5 559.310 213.641   7
   1   6  -4 274.641 179.736   7
  -1  -6   4 655.839 221.164   5
   1   6  -3 1716.54 334.091   7
  -1  -6   3 1811.90 347.930   5
   1   6  -2 5842.47 606.864   7
  -1  -6   2 5712.89 614.924   5
  -1  -6   1 3179.47 463.997   5
   1   6  -1 2580.23 330.232   1
   1   6  -1 3122.54 446.438   7
  -1  -6   0 1263.43 298.089   5
   1   6   0 1449.10 282.592   1
  -1  -6  -1 2085.51 381.932   5
   1   6   1 2039.56 370.233   1
  -1  -6  -2 1836.56 307.518   6
  -1  -6  -2 2510.04 438.364   5
  -1  -6  -3 1859.82 333.693   6
  -1  -6  -3 2070.41 409.754   5
  -1  -6  -4 103.554 126.848   6
  -1  -6  -5 143.109 106.087   6
  -1  -6  -6 236.084 162.679   6
  -1  -6  -7 252.678 136.756   6
  -1  -6  -8-43.3194 102.152   6
  -1  -6  -9-84.5104 166.466   6
   1   7 -12 123.735 161.679   7
   1   7 -11 426.790 241.107   7
  -1  -7  11 237.501 222.726   5
   1   7 -10 77.8444 170.999   7
  -1  -7  10 90.8651 135.987   5
  -1  -7   9 787.774 319.646   5
   1   7  -9 264.532 170.408   7
   1   7  -8 138.683 132.287   7
  -1  -7   8 624.949 280.796   5
  -1  -7   7 2425.02 491.155   5
   1   7  -7 1905.23 419.068   7
   1   7  -6-16.6210 120.419   7
  -1  -7   6 107.484 157.557   5
  -1  -7   5 322.689 185.227   5
   1   7  -5 62.1699 118.843   7
  -1  -7   4 5245.13 647.112   5
   1   7  -4 4062.25 562.000   7
   1   7  -3 2874.47 472.126   7
  -1  -7   3 2809.45 476.023   5
   1   7  -2 228.280 178.712   7
  -1  -7   2-180.329 145.464   5
   1   7  -1 1681.05 291.662   1
   1   7  -1 2326.77 412.999   7
  -1  -7   1 2429.19 448.359   5
   1   7   0 1233.17 277.755   1
  -1  -7   0 1714.32 380.222   5
   1   7   1 732.367 245.567   1
  -1  -7  -1 371.282 200.364   5
  -1  -7  -2 1084.75 286.839   6
  -1  -7  -2 627.281 236.505   5
   1   7   2 1328.06 353.278   1
  -1  -7  -3 629.923 238.458   6
  -1  -7  -3 586.018 257.229   5
  -1  -7  -4-143.575 143.664   6
  -1  -7  -4-6.18692 92.4555   5
  -1  -7  -5 40.0302 98.2070   6
  -1  -7  -6 533.620 253.762   6
  -1  -7  -7 159.256 154.503   6
  -1  -7  -8-43.5851 151.743   6
   1   8 -11 643.322 322.237   7
  -1  -8  11 250.488 250.167   5
  -1  -8  10-195.520 205.622   5
   1   8 -10-104.322 150.503   7
  -1  -8   9-112.832 155.747   5
   1   8  -9 156.958 155.391   7
   1   8  -8-84.3993 175.395   7
  -1  -8   8 286.846 207.205   5
  -1  -8   7 706.990 310.734   5
   1   8  -7 764.927 301.169   7
  -1  -8   6 2835.51 558.732   5
   1   8  -6 2118.11 455.954   7
  -1  -8   5 2197.12 483.480   5
   1   8  -5 1912.98 419.125   7
  -1  -8   4 1542.86 429.717   5
   1   8  -4 983.683 302.953   7
  -1  -8   3 308.501 196.231   5
   1   8  -3 291.197 195.030   7
   1   8  -2 336.846 200.298   7
  -1  -8   2 474.216 229.625   5
   1   8  -1 750.424 313.628   7
   1   8  -1 669.038 212.320   1
  -1  -8   1 1015.70 318.586   5
   1   8   0 422.469 188.868   1
  -1  -8   0 737.794 290.664   5
   1   8   0 671.355 229.221   7
  -1  -8  -1-163.548 167.136   5
   1   8   1 57.7438 125.087   1
  -1  -8  -2 219.657 187.190   5
  -1  -8  -2 357.038 180.540   6
   1   8   2 498.806 241.084   1
  -1  -8  -3 385.082 200.093   6
  -1  -8  -3-35.2043 99.5278   5
   1   8   3 98.1644 208.558   1
  -1  -8  -4-75.6044 111.042   5
  -1  -8  -4 47.8463 114.176   6
   1   8   4 135.853 215.106   1
  -1  -8  -5 246.819 159.278   6
  -1  -8  -6-141.561 154.341   6
   1   9 -10 249.798 232.797   7
   1   9  -9 169.285 190.624   7
  -1  -9   9 370.795 256.401   5
  -1  -9   8 581.637 311.814   5
   1   9  -8 258.719 170.764   7
  -1  -9   7 44.0607 160.721   5
   1   9  -7 467.974 273.601   7
   1   9  -6 242.419 191.025   7
  -1  -9   6 222.960 170.269   5
  -1  -9   5 270.860 232.151   5
   1   9  -5 120.129 137.498   7
   1   9  -4 76.0912 170.322   7
  -1  -9   4 239.625 164.441   5
  -1  -9   3 132.248 173.805   5
   1   9  -3-254.726 189.909   7
   1   9  -2 283.150 210.753   7
  -1  -9   2 221.362 210.675   5
   1   9  -1 23.1407 97.4074   1
  -1  -9   1 213.136 194.867   5
   1   9  -1 106.953 164.612   7
   1   9   0-130.474 124.253   1
  -1  -9   0-154.472 128.203   5
   1   9   0-167.473 170.369   7
  -1  -9  -1 297.506 209.229   5
   1   9   1 165.470 198.264   1
   1   9   1 271.501 264.303   7
  -1  -9  -2 60.8751 101.921   6
  -1  -9  -2 332.776 221.846   5
   1   9   2 65.5508 145.271   1
  -1  -9  -3-67.7683 146.272   5
   1   9   3 155.159 202.094   1
  -1  -9  -3 82.2995 148.023   6
   1   9   4 420.814 291.838   1
  -1  -9  -4 220.531 218.501   6
   1   9   5 406.306 346.899   1
   1  10  -8 419.665 225.296   7
  -1 -10   8 136.896 185.540   5
   1  10  -7 115.649 175.270   7
  -1 -10   7 90.9945 183.017   5
   1  10  -6 87.7765 130.911   7
  -1 -10   6-21.8367 169.562   5
   1  10  -5 65.9097 181.826   7
  -1 -10   5 116.097 219.932   5
  -1 -10   4 100.508 208.965   5
   1  10  -4-124.769 151.601   7
  -1 -10   3 175.508 179.782   5
   1  10  -3 465.491 244.784   7
   1  10  -2 68.4173 144.828   7
  -1 -10   2-61.0454 166.527   5
  -1 -10   1 151.328 218.161   5
   1  10  -1 240.665 192.007   7
  -1 -10   0 177.796 201.247   5
   1  10   0 278.669 211.218   7
  -1 -10  -1 15.0540 133.279   5
  -1 -10  -1-180.632 153.038   6
   1  10   1 237.977 219.801   7
  -1 -10  -2 338.770 259.406   5
   1  10   2 110.229 183.388   7
  -1 -10  -2-136.539 127.349   6
   1  10   2-0.33333 91.2594   1
   1  10   3-0.36920 128.466   1
   1  11  -4 200.009 259.112   7
  -1 -11   4 74.2947 159.542   5
   1  11  -3 130.007 251.130   7
  -1 -11   3 117.399 161.459   5
   1  11  -2-5.98301 151.223   7
   1  11  -1-43.7493 175.995   7
   2 -10  -3 91.4387 115.783   6
   2 -10  -2-24.2637 184.481   5
   2 -10  -2 354.099 230.301   6
   2 -10  -1 326.073 237.795   5
   2 -10   0-7.09479 149.222   5
   2 -10   1-51.9382 178.950   5
   2 -10   2 86.4700 178.333   5
  -2  10  -2-225.765 223.336   7
  -2  10  -3 164.166 190.473   7
   2 -10   3 138.966 132.379   5
   2 -10   4 249.826 245.584   5
  -2  10  -4 78.6318 192.759   7
  -2  10  -5 241.656 223.043   7
   2 -10   5 118.543 219.743   5
  -2  10  -6 258.477 198.526   7
   2 -10   6 23.4286 121.880   5
   2 -10   7 78.8379 147.495   5
  -2  10  -7-1.18180 116.671   7
  -2  10  -8 3.73990 139.700   7
   2  -9  -5 115.205 226.142   6
   2  -9  -4-256.684 210.469   5
   2  -9  -4 46.2404 110.516   6
   2  -9  -3 89.6663 114.999   5
   2  -9  -3-15.4062 118.908   6
   2  -9  -2 357.322 257.484   5
   2  -9  -1 244.741 197.175   5
   2  -9   0 71.0655 127.715   5
   2  -9   1 99.2642 154.045   5
  -2   9  -2 484.390 272.437   7
   2  -9   2 284.651 220.917   5
  -2   9  -3 492.202 233.036   7
   2  -9   3 797.729 322.851   5
   2  -9   4 195.512 169.445   5
  -2   9  -4 308.933 236.798   7
   2  -9   5 239.114 205.416   5
  -2   9  -5 569.889 261.094   7
   2  -9   6 94.8199 180.892   5
  -2   9  -6 79.6362 181.587   7
   2  -9   7 40.6466 197.605   5
  -2   9  -7 229.986 189.836   7
  -2   9  -8 151.252 192.336   7
   2  -9   8-143.904 239.219   5
   2  -9   9 287.371 225.998   5
  -2   9  -9 80.5940 129.584   7
  -2   9 -10-54.7616 150.798   7
   2  -8  -6 129.491 239.909   6
   2  -8  -5 545.009 250.093   6
   2  -8  -4-36.8104 127.777   6
   2  -8  -4 146.871 151.177   5
   2  -8  -3 137.260 161.425   6
   2  -8  -3 467.139 263.864   5
   2  -8  -2 326.275 182.062   5
   2  -8  -1 961.950 333.716   5
   2  -8   0 135.075 176.169   5
   2  -8   1 112.677 154.487   5
   2  -8   2 1393.28 388.575   5
   2  -8   3 3192.84 562.846   5
  -2   8  -3 2939.52 536.997   7
  -2   8  -4 266.185 206.050   7
   2  -8   4 461.389 246.373   5
   2  -8   5 209.409 177.940   5
  -2   8  -5 285.810 219.053   7
   2  -8   6 133.218 172.489   5
  -2   8  -6 279.747 187.596   7
  -2   8  -7 502.692 235.829   7
   2  -8   7 438.286 246.431   5
  -2   8  -8-59.8781 170.724   7
   2  -8   8-42.5277 159.967   5
   2  -8   9-7.77171 145.590   5
  -2   8  -9-27.8641 115.337   7
  -2   8 -10 108.478 113.394   7
   2  -8  10-199.372 187.590   5
  -2   8 -11-60.0914 114.878   7
   2  -7  -8 37.6481 141.334   6
   2  -7  -7 5.12634 143.652   6
   2  -7  -6 245.051 199.032   6
   2  -7  -5 220.901 168.344   6
   2  -7  -4 50.4726 112.686   6
   2  -7  -4 78.7119 161.818   5
   2  -7  -3 385.111 248.311   5
   2  -7  -3-0.53238 164.946   6
   2  -7  -2-41.7101 160.563   5
   2  -7  -1 96.4535 111.728   5
   2  -7   0 2214.37 447.082   5
   2  -7   1 124.008 172.786   5
   2  -7   2 12770.0 1014.59   5
  -2   7  -3 14220.5 1074.69   7
   2  -7   3 15781.1 1117.97   5
  -2   7  -4 2223.82 428.406   7
   2  -7   4 1889.59 395.549   5
  -2   7  -5 256.341 203.316   7
   2  -7   5-39.1681 113.663   5
  -2   7  -6 285.046 178.363   7
   2  -7   6 68.3226 138.946   5
   2  -7   7 1098.34 338.148   5
  -2   7  -7 1274.58 344.887   7
   2  -7   8 520.612 228.471   5
  -2   7  -8 302.384 172.545   7
  -2   7  -9 94.8385 170.514   7
   2  -7   9 109.701 144.927   5
   2  -7  10-189.039 177.167   5
  -2   7 -10-71.6527 138.998   7
  -2   7 -11-126.137 186.611   7
   2  -7  11 60.2547 141.235   5
   2  -6  -9-63.2292 201.429   6
   2  -6  -8-28.3489 147.313   6
   2  -6  -7 100.762 133.258   6
   2  -6  -6 152.044 164.212   6
   2  -6  -5 535.532 229.723   6
   2  -6  -4-78.4804 135.422   6
   2  -6  -4-27.8762 114.050   5
   2  -6  -3 88.1101 94.9981   6
   2  -6  -3 207.867 169.554   5
   2  -6  -2 983.334 291.463   5
   2  -6  -1 835.805 254.914   5
   2  -6   0 411.580 159.652   5
   2  -6   1 4539.51 556.854   5
   2  -6   2 3041.17 454.466   5
   2  -6   3 696.798 229.793   5
  -2   6  -3 801.996 235.237   7
  -2   6  -4 1602.26 346.773   7
   2  -6   4 1068.89 301.777   5
   2  -6   5 247.345 153.039   5
  -2   6  -5 338.895 163.785   7
   2  -6   6 1911.52 386.944   5
  -2   6  -6 1519.14 327.413   7
  -2   6  -7 880.632 270.785   7
   2  -6   7 1191.73 330.446   5
   2  -6   8 247.670 186.435   5
  -2   6  -8 206.741 140.281   7
  -2   6  -9 140.021 156.263   7
   2  -6   9 239.598 176.769   5
  -2   6 -10 72.3036 159.760   7
   2  -6  10 189.511 197.081   5
   2  -6  11 29.7265 128.596   5
   2  -6  12 33.2314 150.883   5
   2  -5 -10-62.8338 155.852   6
   2  -5  -9-162.041 149.654   6
   2  -5  -8 381.957 243.765   6
   2  -5  -7 197.439 132.021   6
   2  -5  -6 4953.40 652.457   6
   2  -5  -5 5023.66 617.923   6
   2  -5  -4 823.545 228.664   6
   2  -5  -3 1586.77 315.319   6
   2  -5  -3 1530.89 341.139   5
   2  -5  -2 3792.36 509.476   5
   2  -5  -1 299.655 138.421   5
   2  -5   0 2414.89 379.890   5
   2  -5   1 13660.4 867.452   5
   2  -5   2 9796.91 728.408   5
  -2   5  -3 1369.95 293.316   7
   2  -5   3 811.211 211.402   5
   2  -5   4 3021.33 415.399   5
  -2   5  -4 2402.78 366.720   7
   2  -5   5 351.788 163.885   5
  -2   5  -5 254.682 120.531   7
   2  -5   6 2071.27 383.698   5
  -2   5  -6 1619.32 303.743   7
  -2   5  -7 1558.02 325.381   7
   2  -5   7 669.789 242.145   5
  -2   5  -8 158.891 145.473   7
   2  -5   8 257.229 175.853   5
   2  -5   9 512.120 220.495   5
  -2   5  -9 528.943 219.935   7
  -2   5 -10 137.686 156.301   7
   2  -5  10 521.907 243.548   5
   2  -5  11 79.5237 130.911   5
   2  -5  12 166.138 147.413   5
   2  -4 -10 511.496 278.687   6
   2  -4  -9 450.100 256.624   6
   2  -4  -8 849.851 302.679   6
   2  -4  -7 1470.85 368.614   6
   2  -4  -6 1816.14 383.165   6
   2  -4  -5 1115.30 115.645   4
   2  -4  -5 1487.01 315.588   6
   2  -4  -4 192.659 167.306   6
   2  -4  -3 9694.22 762.455   5
   2  -4  -3 8809.56 684.464   6
   2  -4  -2 16512.4 942.833   5
   2  -4  -1 35736.1 1297.74   5
   2  -4   0 2.80337 95.5776   5
   2  -4   1 2817.41 365.378   5
   2  -4   2 1017.73 220.576   5
   2  -4   3 10515.0 679.689   5
  -2   4  -3 9497.33 630.514   7
   2  -4   4 6548.19 560.505   5
  -2   4  -4 5979.78 504.851   7
   2  -4   5 3290.63 431.337   5
  -2   4  -5 3360.20 379.188   7
  -2   4  -6 2812.41 370.881   7
   2  -4   6 2276.33 368.921   5
   2  -4   6 2033.42 201.221   1
  -2   4  -7 1508.37 285.568   7
   2  -4   7 1147.33 184.547   1
   2  -4   7 1463.03 319.714   5
  -2   4  -8 2228.78 372.677   7
   2  -4   8 2271.34 413.331   5
   2  -4   8 2066.34 282.894   1
  -2   4  -9 372.769 180.233   7
   2  -4   9 767.974 279.657   5
   2  -4  10 1167.83 377.772   4
   2  -4  11 323.589 235.489   4
  -2   4 -11-243.108 215.275   6
  -2   4 -12-76.2111 203.272   6
   2  -3 -11 286.554 217.595   6
   2  -3 -10 106.787 217.694   6
   2  -3  -9 253.735 205.881   6
   2  -3  -8 66.8943 112.700   6
   2  -3  -7 867.572 286.314   6
   2  -3  -6 4739.40 577.914   6
  -2   3   6 3655.46 358.353   3
   2  -3  -5 13510.2 872.599   6
  -2   3   5 11720.0 655.085   3
   2  -3  -4 18964.0 960.921   6
   2  -3  -4 16208.6 421.827   4
   2  -3  -3 9041.64 623.777   6
   2  -3  -2 47212.5 1407.57   5
   2  -3  -1 2741.55 320.263   5
   2  -3   0 22276.6 867.192   5
  -2   3   0 21843.4 856.262   5
   2  -3   1 4773.05 393.203   5
  -2   3  -1 4236.29 363.492   5
   2  -3   2 65185.3 1455.96   5
  -2   3  -2 64381.7 1377.34   5
  -2   3  -3 17039.1 720.943   7
   2  -3   3 16417.4 751.598   5
   2  -3   4 16041.8 787.987   5
  -2   3  -4 15453.9 691.236   7
  -2   3  -5 4481.12 404.551   7
   2  -3   5 4428.38 324.304   1
   2  -3   5 3838.88 426.721   5
   2  -3   6 334.724 150.272   1
  -2   3  -6 320.267 130.271   7
  -2   3  -7 1374.20 269.906   7
   2  -3   7 1784.76 273.533   1
  -2   3  -7 1632.61 328.760   6
  -2   3  -8 6920.89 723.977   6
   2  -3   9 949.407 295.353   4
  -2   3  -9 336.374 207.323   6
  -2   3 -10 1076.07 362.413   6
   2  -3  10 980.604 307.424   4
  -2   3 -11 547.122 273.438   6
  -2   3 -12 127.704 182.129   6
   2  -2 -11 346.060 221.939   6
   2  -2 -10 696.468 278.124   6
   2  -2  -9 2277.60 465.550   6
   2  -2  -8 941.234 282.434   6
   2  -2  -7 5587.43 629.652   6
   2  -2  -6 1231.75 281.449   6
  -2   2   6 1179.84 166.224   3
  -2   2   5 12306.6 546.299   3
   2  -2  -5 14435.0 848.264   6
   2  -2  -4 3274.10 318.664   2
   2  -2  -4 3200.12 369.785   6
   2  -2  -3 30.6242 92.7803   6
   2  -2  -3 53.8125 59.8580   2
   2  -2  -3 109.612 47.0814   4
   2  -2  -2 6602.77 463.822   5
  -2   2   2 6662.09 461.000   5
   2  -2  -2 6228.89 437.951   2
   2  -2  -2 6049.06 431.965   6
   2  -2  -1 37669.9 1008.17   5
  -2   2   1 35841.3 975.556   5
   2  -2  -1 35954.3 1016.73   2
   2  -2   0 7426.61 413.856   5
  -2   2   0 8043.23 432.660   5
  -2   2  -1 68824.3 1170.34   5
   2  -2   1 70262.3 1228.69   5
   2  -2   2 17962.7 630.874   5
  -2   2  -2 17329.4 514.157   1
  -2   2  -3 6364.15 364.050   7
   2  -2   3 5823.95 337.767   1
   2  -2   3 5774.42 409.126   5
  -2   2  -4 15217.8 608.173   7
   2  -2   4 15002.5 608.982   1
   2  -2   5 24399.0 878.769   1
   2  -2   5 24302.9 829.026   7
  -2   2  -5 26215.7 872.895   7
  -2   2  -5 24987.2 1059.94   6
  -2   2  -6 2888.27 333.725   7
  -2   2  -6 3102.38 405.987   6
   2  -2   6 4025.78 475.297   4
   2  -2   7 14096.4 874.291   4
  -2   2  -7 14093.7 933.304   6
   2  -2   8 1002.19 272.600   4
  -2   2  -8 926.157 279.623   6
   2  -2   9 1959.79 359.973   4
  -2   2  -9 2722.79 476.293   6
   2  -2  10-178.392 140.413   4
  -2   2 -10-214.098 214.153   6
  -2   2 -11 37.1308 158.636   6
  -2   2 -12 111.684 196.100   6
   2  -1 -12 720.893 315.815   6
   2  -1 -11 804.372 333.013   6
   2  -1 -10 323.977 237.723   6
  -2   1   9 1717.51 272.123   2
   2  -1  -9 1591.70 380.131   6
  -2   1   8 3919.40 407.148   2
   2  -1  -8 2746.15 457.635   6
  -2   1   7 10508.6 639.716   2
   2  -1  -7 10808.7 841.779   6
   2  -1  -6 13042.2 840.186   6
  -2   1   6 12076.8 659.748   2
  -2   1   5 20958.6 827.914   2
  -2   1   5 19811.6 509.921   3
   2  -1  -5 20459.5 958.935   6
   2  -1  -4 1742.15 256.844   6
  -2   1   4 1830.69 241.746   2
   2  -1  -3 34197.1 969.894   2
  -2   1   3 34686.4 987.044   2
  -2   1   3 35178.6 1006.74   6
   2  -1  -3 35582.6 1010.33   6
   2  -1  -3 35326.9 575.251   4
  -2   1   2 7486.55 428.340   5
   2  -1  -2 7610.56 431.741   2
  -2   1   2 7490.07 443.234   2
   2  -1  -2 7553.61 313.864   4
   2  -1  -2 7768.79 426.374   6
  -2   1   2 7819.86 337.216   4
  -2   1   1 107167. 1355.34   5
  -2   1   1 102507. 1362.27   4
  -2   1   1 109385. 1631.48   2
   2  -1  -1 108250. 1590.48   2
   2  -1  -1 106639. 1334.22   4
   2  -1   0 40466.5 694.319   5
  -2   1   0 39472.9 696.927   5
   2  -1   0 38979.9 935.667   2
  -2   1   0 40745.1 946.346   2
   2  -1   0 39232.4 908.685   4
   2  -1   1 94411.0 1027.30   5
   2  -1   1 94466.8 1419.26   2
  -2   1  -1 94627.3 986.361   5
   2  -1   1 94949.2 1502.67   4
  -2   1  -1 97088.0 1304.23   1
   2  -1   2 7013.49 381.166   6
   2  -1   2 6807.41 322.267   5
  -2   1  -2 7162.38 273.936   7
   2  -1   2 7301.09 383.847   2
  -2   1  -2 7443.48 389.499   1
   2  -1   2 7105.77 451.229   4
   2  -1   2 6756.41 387.335   1
   2  -1   3 8386.69 522.608   4
   2  -1   3 7766.15 465.167   6
  -2   1  -3 7041.55 308.692   7
   2  -1   3 7543.77 446.607   1
  -2   1  -3 7111.31 437.816   6
   2  -1   4 52001.5 958.771   7
  -2   1  -4 54977.4 1029.37   7
  -2   1  -4 53404.7 1332.77   6
   2  -1   4 55145.0 1399.61   4
   2  -1   4 52652.6 1291.51   1
   2  -1   5 4334.81 314.541   7
  -2   1  -5 4499.97 443.654   6
   2  -1   5 4411.64 430.420   4
   2  -1   6 6412.30 542.120   4
  -2   1  -6 6698.80 591.833   6
   2  -1   6 5871.00 406.141   7
   2  -1   7 2171.80 342.545   4
   2  -1   7 1760.24 174.761   2
  -2   1  -7 2625.50 401.834   6
   2  -1   8 2537.92 368.910   4
  -2   1  -8 3383.14 490.073   6
   2  -1   9-33.7127 145.624   4
  -2   1  -9 396.580 211.981   6
  -2   1 -10 266.206 182.476   6
  -2   1 -11 64.7686 118.643   6
  -2   1 -12 68.9058 118.909   6
   2   0 -12 291.653 190.834   6
   2   0 -11 826.951 291.176   6
   2   0 -10 649.887 267.596   6
   2   0  -9 4408.89 601.993   6
  -2   0   9 3510.03 394.839   2
  -2   0   8 10784.9 661.096   2
   2   0  -8 11327.4 899.230   6
  -2   0   7 810.591 195.563   2
   2   0  -7 472.185 170.334   6
  -2   0   6 623.315 153.502   2
   2   0  -6 553.035 184.897   6
  -2   0   5 993.854 191.271   2
   2   0  -5 899.544 212.535   6
  -2   0   4 26345.8 888.827   2
  -2   0   4 25817.2 569.723   4
   2   0  -4 27926.2 960.267   6
   2   0  -3 3339.74 296.508   6
  -2   0   3 2921.69 268.519   6
  -2   0   3 2974.92 201.264   4
  -2   0   3 3076.99 288.950   2
  -2   0   2 581811. 3726.57   2
   2   0  -2 582856. 3145.89   6
   2   0  -2 579617. 2935.57   4
  -2   0   2 578841. 3130.69   6
  -2   0   2 577412. 2954.41   4
   2   0  -1 799351. 4154.66   2
  -2   0   1 808285. 4078.87   2
   2   0  -1 808625. 3695.16   4
   2   0  -1 815119. 2961.35   6
  -2   0   1 799397. 3703.96   4
   2   0   0 121854. 1509.55   2
  -2   0   0 118789. 1490.24   2
   2   0   0 119846. 1526.11   4
  -2   0   0 115220. 1524.99   4
   2   0   1 65737.4 1047.04   2
  -2   0  -1 63602.4 1039.07   2
  -2   0  -1 64291.4 1217.12   4
   2   0   1 64617.3 836.747   6
   2   0   1 66174.7 1223.69   4
  -2   0  -1 64366.6 1178.27   1
   2   0   1 64044.1 1205.17   1
   2   0   2 30669.9 672.268   2
   2   0   2 32221.1 921.047   4
  -2   0  -2 32810.5 689.822   2
  -2   0  -2 30932.2 900.870   4
   2   0   2 32106.7 756.064   6
   2   0   2 32265.9 930.023   1
  -2   0  -2 31422.8 717.743   6
   2   0   3 34903.6 1020.29   4
   2   0   3 33969.6 660.405   2
   2   0   3 30724.7 517.387   7
   2   0   3 35381.4 1073.09   1
   2   0   3 35637.9 941.144   6
  -2   0  -3 34853.4 1016.54   4
  -2   0  -3 34878.9 921.887   6
   2   0   4 18397.1 462.485   2
   2   0   4 20972.0 558.800   7
   2   0   4 21659.8 859.772   4
  -2   0  -4 21757.9 840.832   6
  -2   0  -5 4907.86 458.662   6
   2   0   5 5162.19 444.939   4
   2   0   5 5095.54 330.628   7
   2   0   6 970.108 217.853   4
  -2   0  -6 943.649 230.903   6
   2   0   6 543.493 127.170   7
   2   0   7 998.450 235.502   4
  -2   0  -7 854.382 219.944   6
   2   0   8 734.681 202.405   4
  -2   0  -8 265.114 166.186   6
   2   0   9 603.131 194.305   4
  -2   0  -9 724.061 267.671   6
  -2   0 -10 516.473 241.268   6
  -2   0 -11 558.663 260.469   6
  -2   0 -12 203.563 206.891   6
   2   1 -12-247.442 158.810   6
   2   1 -11 87.1314 123.774   6
  -2  -1  10 531.369 181.098   2
   2   1 -10 697.407 284.747   6
  -2  -1   9 4162.34 447.188   2
   2   1  -9 4156.99 591.109   6
  -2  -1   8 22419.6 1006.12   2
   2   1  -8 23753.8 1274.06   6
   2   1  -7 2990.13 424.398   6
   2   1  -6 10448.7 714.862   6
   2   1  -5 7069.58 534.387   6
  -2  -1   4 16421.8 708.012   6
  -2  -1   4 16526.2 496.532   3
   2   1  -4 15600.5 699.578   6
  -2  -1   3 22436.7 715.416   6
   2   1  -3 20981.0 698.454   6
  -2  -1   3 22007.9 630.090   3
  -2  -1   3 24199.7 846.518   7
   2   1  -2 44655.3 1031.24   7
  -2  -1   2 46061.0 1029.03   7
   2   1  -2 44006.9 804.783   6
  -2  -1   2 45230.2 803.284   6
  -2  -1   2 42844.1 949.819   4
  -2  -1   1 114568. 1514.99   4
  -2  -1   1 118255. 1419.81   7
   2   1  -1 118744. 1440.10   7
   2   1  -1 116326. 884.194   6
  -2  -1   1 115620. 848.622   6
   2   1   0 50044.1 739.273   7
  -2  -1   0 50973.2 658.869   5
   2   1   0 50369.1 631.008   5
   2   1   0 49433.9 1050.80   4
  -2  -1   0 52342.4 1100.13   1
  -2  -1   0 50995.9 1053.62   4
  -2  -1   0 51586.0 725.976   7
   2   1   1 10132.8 492.060   4
   2   1   1 9974.23 336.296   5
   2   1   1 9783.35 278.971   6
  -2  -1  -1 9989.49 492.438   4
  -2  -1  -1 10858.3 538.328   1
  -2  -1  -1 10562.8 293.436   6
   2   1   1 9422.69 513.149   1
   2   1   1 9531.62 253.342   7
  -2  -1  -2 54690.2 851.265   2
   2   1   2 56436.9 949.699   6
   2   1   2 57555.3 1018.14   5
   2   1   2 55435.5 1220.76   4
  -2  -1  -2 54956.7 945.255   6
  -2  -1  -2 53831.3 1200.71   4
   2   1   2 58634.0 1394.75   1
   2   1   3 114302. 1720.11   5
  -2  -1  -3 109791. 1068.70   2
   2   1   3 116001. 1868.14   4
  -2  -1  -3 114295. 1677.03   6
  -2  -1  -3 110125. 1810.23   4
   2   1   3 114604. 1664.26   6
   2   1   3 115319. 2125.18   1
   2   1   4 6335.40 465.170   4
  -2  -1  -4 6782.60 474.514   6
   2   1   5 12984.2 690.830   4
   2   1   5 11456.2 531.139   7
  -2  -1  -5 12803.7 736.359   6
   2   1   6 1882.36 249.206   7
   2   1   6 2215.61 301.350   4
  -2  -1  -6 1806.50 296.978   3
  -2  -1  -6 2120.59 333.577   6
  -2  -1  -7 5261.19 522.459   3
   2   1   7 5381.67 486.521   4
  -2  -1  -7 6284.41 628.797   6
   2   1   8 1872.91 304.779   4
  -2  -1  -8 2318.99 352.326   3
  -2  -1  -8 2069.85 391.896   6
  -2  -1  -9 1550.53 367.913   6
  -2  -1 -10 325.657 193.943   6
  -2  -1 -11 239.736 229.283   6
  -2  -1 -12 853.352 344.318   6
   2   2 -13 335.223 227.444   6
   2   2 -12 751.390 304.169   6
   2   2 -11 752.214 298.904   6
   2   2 -10 9674.82 937.806   6
   2   2  -9 849.210 277.127   6
   2   2  -8 4164.47 535.369   6
   2   2  -7 61.7349 86.2856   6
   2   2  -6 866.777 216.078   6
   2   2  -5 5286.82 465.432   6
   2   2  -5 4265.94 445.753   7
   2   2  -4 24949.3 1008.58   7
  -2  -2   4 21753.4 732.910   3
   2   2  -4 23184.1 857.193   6
  -2  -2   4 22229.6 825.789   6
   2   2  -3 14513.9 674.554   7
  -2  -2   3 13789.2 566.116   6
  -2  -2   3 14494.0 686.900   7
  -2  -2   3 15140.8 638.275   3
   2   2  -3 13886.7 576.259   6
   2   2  -2 36807.6 979.281   7
   2   2  -2 35125.9 730.304   6
  -2  -2   2 35856.3 902.777   5
  -2  -2   2 37251.5 1044.65   3
  -2  -2   2 37541.6 764.568   6
  -2  -2   2 36317.0 953.483   7
  -2  -2   1 1398.19 165.614   5
   2   2  -1 1217.80 154.947   5
  -2  -2   1 1629.72 235.092   3
   2   2  -1 1508.70 177.962   7
  -2  -2   1 1505.88 116.478   6
  -2  -2   1 1379.50 173.634   7
  -2  -2   1 1201.96 177.614   1
  -2  -2   0 90802.3 1335.07   5
  -2  -2   0 93081.9 1590.00   4
  -2  -2   0 96161.4 1839.70   3
   2   2   0 93576.6 1271.85   7
  -2  -2   0 91487.7 1593.40   1
   2   2   0 92982.5 1294.98   5
   2   2   0 95125.9 1708.91   1
  -2  -2  -1 7667.70 416.210   5
   2   2   1 8010.91 416.534   5
  -2  -2  -1 7946.08 304.047   6
  -2  -2  -1 8267.80 480.075   4
  -2  -2  -1 8368.92 572.246   3
   2   2   1 7658.46 358.634   7
   2   2   1 8595.21 552.281   1
   2   2   2 30583.5 897.669   5
  -2  -2  -2 31589.3 973.212   4
  -2  -2  -2 32389.2 1154.53   3
   2   2   2 30696.9 751.530   6
  -2  -2  -2 32199.6 786.906   6
   2   2   2 31732.0 985.037   4
   2   2   2 31706.4 1158.93   1
  -2  -2  -3 8499.54 480.399   6
   2   2   3 7011.79 478.266   5
  -2  -2  -3 7944.21 600.349   3
   2   2   3 7278.36 488.064   4
   2   2   3 8021.00 454.567   6
  -2  -2  -4 25952.1 1119.25   3
   2   2   4 25898.1 944.731   4
  -2  -2  -4 25391.8 942.957   6
   2   2   5 116.136 116.350   4
  -2  -2  -5 205.923 122.704   3
  -2  -2  -5 332.417 148.250   6
   2   2   6 1173.15 217.612   4
  -2  -2  -6 1080.53 262.150   3
  -2  -2  -6 1017.02 246.303   6
   2   2   7 4909.52 460.860   4
  -2  -2  -7 4647.15 518.467   3
  -2  -2  -7 5694.48 608.373   6
  -2  -2  -8 1399.07 287.962   3
  -2  -2  -8 2048.39 388.880   6
  -2  -2  -9 259.877 178.865   6
  -2  -2 -10 1103.13 345.243   6
  -2  -2 -11 155.472 175.689   6
   2   3 -13-502.546 273.636   6
   2   3 -12 138.689 124.828   6
   2   3 -11 188.953 152.759   6
   2   3 -10 8802.44 891.507   6
   2   3  -9 2457.74 441.568   6
   2   3  -8 631.682 224.894   6
   2   3  -7 766.993 144.017   3
   2   3  -7 695.208 211.313   7
   2   3  -7 856.988 240.432   6
   2   3  -6 6314.36 442.804   3
   2   3  -6 7715.20 673.078   7
   2   3  -6 6856.78 590.610   6
   2   3  -5 11875.0 643.480   3
   2   3  -5 13793.3 812.372   7
   2   3  -5 12915.8 738.292   6
   2   3  -4 20138.2 844.028   3
   2   3  -4 20886.0 937.055   7
   2   3  -4 20197.8 826.225   6
  -2  -3   4 20910.9 852.648   3
  -2  -3   3 2866.03 320.593   5
   2   3  -3 3124.50 339.575   7
   2   3  -3 2877.92 334.702   3
  -2  -3   3 3115.74 342.191   3
  -2  -3   3 2905.65 275.993   6
   2   3  -3 2638.29 269.226   6
  -2  -3   2 13077.2 630.096   5
  -2  -3   2 13290.2 721.829   3
   2   3  -2 11279.9 598.491   7
   2   3  -2 11290.7 675.381   3
  -2  -3   2 12431.4 500.366   6
  -2  -3   2 11654.3 576.470   1
  -2  -3   2 12555.5 630.837   7
  -2  -3   1 23320.8 823.790   5
   2   3  -1 22442.6 798.253   7
  -2  -3   1 24150.8 1012.65   3
  -2  -3   1 22892.5 825.277   1
   2   3  -1 23442.8 808.744   5
  -2  -3   0 69997.7 1754.57   3
   2   3   0 66282.0 1384.20   5
  -2  -3   0 68108.6 1422.34   5
   2   3   0 65314.2 1334.79   7
   2   3   0 69689.9 1573.66   1
   2   3   1 4625.39 389.861   5
  -2  -3  -1 4895.88 487.941   3
   2   3   1 5435.17 497.456   1
  -2  -3  -1 5232.63 311.700   6
  -2  -3  -1 5428.86 416.762   5
  -2  -3  -2 10677.4 629.476   5
  -2  -3  -2 9539.66 699.170   3
  -2  -3  -2 10187.4 497.172   6
   2   3   2 10243.2 713.093   1
  -2  -3  -3 71.4860 134.335   3
  -2  -3  -3 69.2232 75.7531   6
  -2  -3  -4 21149.4 918.562   6
  -2  -3  -4 21598.4 1110.59   3
  -2  -3  -5 897.150 235.345   3
  -2  -3  -5 1026.37 226.614   6
  -2  -3  -6 6748.85 617.672   6
  -2  -3  -6 5841.30 609.104   3
  -2  -3  -7 403.716 176.421   3
  -2  -3  -7 345.608 166.273   6
  -2  -3  -8 1075.44 291.639   6
  -2  -3  -9 505.676 203.954   6
  -2  -3 -10 385.145 205.783   6
  -2  -3 -11-23.0948 185.758   6
   2   4 -13 15.4660 131.870   6
   2   4 -12 1200.44 420.586   6
   2   4 -11 896.742 335.213   6
   2   4 -10 3703.07 598.216   6
   2   4  -9 694.106 277.672   6
   2   4  -9 491.070 221.996   7
   2   4  -8 925.616 265.819   6
   2   4  -8 878.305 286.377   7
   2   4  -7 2671.24 444.659   7
   2   4  -7 2203.57 369.827   6
   2   4  -6 20445.1 1092.60   7
   2   4  -6 18911.6 998.333   6
   2   4  -5 4481.84 489.712   7
  -2  -4   5 4351.38 482.909   5
   2   4  -5 4407.71 447.777   6
  -2  -4   4 4742.93 482.324   5
   2   4  -4 4706.52 477.812   7
  -2  -4   3 255.921 93.3204   1
  -2  -4   3 342.186 100.837   6
  -2  -4   3 412.947 155.229   5
  -2  -4   3 297.221 126.296   3
   2   4  -3 348.505 143.673   7
  -2  -4   2 19838.2 1001.15   3
  -2  -4   2 20088.7 893.662   5
   2   4  -2 20358.3 890.953   7
  -2  -4   2 19411.4 713.211   6
  -2  -4   2 19132.1 778.602   1
  -2  -4   1 3402.84 433.371   3
  -2  -4   1 3358.46 369.562   5
   2   4  -1 2998.34 344.397   7
   2   4  -1 3153.06 349.035   1
  -2  -4   0 18383.1 1008.44   3
  -2  -4   0 18743.8 875.732   5
   2   4   0 19066.0 892.603   1
   2   4   0 17246.7 800.256   7
  -2  -4  -1 1962.56 301.108   5
   2   4   1 2269.94 347.517   1
  -2  -4  -1 2027.70 358.537   3
  -2  -4  -1 2424.75 258.728   6
   2   4   2 9673.59 738.743   1
  -2  -4  -2 8536.94 647.426   5
  -2  -4  -2 9221.09 531.566   6
  -2  -4  -2 8221.84 705.181   3
  -2  -4  -3 4448.14 505.500   5
  -2  -4  -3 4166.77 523.108   3
  -2  -4  -3 4559.79 414.629   6
  -2  -4  -4 4113.78 528.707   3
  -2  -4  -4 4388.89 448.766   6
  -2  -4  -5 2229.34 406.426   3
  -2  -4  -5 1645.92 304.530   6
  -2  -4  -6 1840.13 342.758   6
  -2  -4  -6 2042.86 390.708   3
  -2  -4  -7 142.064 151.375   6
  -2  -4  -7 151.021 140.358   3
  -2  -4  -8 1882.92 406.797   6
  -2  -4  -9 240.042 193.859   6
  -2  -4 -10 951.207 323.875   6
   2   5 -12 354.344 227.773   6
   2   5 -11 427.168 227.589   6
   2   5 -10 1325.22 383.767   7
   2   5 -10 591.783 247.887   6
   2   5  -9 288.701 187.552   7
   2   5  -9 379.128 248.079   6
   2   5  -8 165.423 115.464   7
   2   5  -8 138.102 106.287   6
  -2  -5   8 340.019 218.368   5
   2   5  -7 834.964 232.893   6
  -2  -5   7 840.379 278.808   5
   2   5  -7 773.258 263.571   7
  -2  -5   6 3830.29 525.953   5
   2   5  -6 3518.13 482.864   7
   2   5  -5 179.012 107.961   7
  -2  -5   5 426.278 186.112   5
  -2  -5   4 100.983 73.5919   1
  -2  -5   4 282.606 126.811   5
   2   5  -4 90.1765 74.5261   7
  -2  -5   3 4481.12 485.440   5
   2   5  -3 4153.53 465.733   7
   2   5  -2 1872.88 310.490   7
  -2  -5   2 2339.40 359.268   5
  -2  -5   2 1966.41 354.991   3
  -2  -5   1 7121.20 615.902   5
   2   5  -1 6716.72 574.665   7
  -2  -5   1 7071.22 684.045   3
   2   5  -1 6077.22 532.418   1
  -2  -5   0 5010.96 517.438   5
   2   5   0 5437.79 512.358   7
   2   5   0 5770.70 534.946   1
  -2  -5   0 4973.73 591.338   3
   2   5   1 9173.16 728.187   1
  -2  -5  -1 9099.09 793.573   3
  -2  -5  -1 7821.50 651.866   5
  -2  -5  -1 7837.23 521.355   6
  -2  -5  -2 3792.53 538.921   3
   2   5   2 4304.67 536.029   1
  -2  -5  -2 3613.68 462.020   5
  -2  -5  -2 4081.61 399.875   6
  -2  -5  -3 27591.5 1350.14   5
  -2  -5  -3 27222.5 1106.31   6
  -2  -5  -3 28149.2 1452.74   3
   2   5   3 28208.3 1399.15   1
  -2  -5  -4 7866.56 794.143   3
  -2  -5  -4 9214.95 698.612   6
  -2  -5  -5 305.438 148.311   6
  -2  -5  -5 469.000 222.546   3
  -2  -5  -6-50.8471 93.9238   3
  -2  -5  -6 223.748 176.482   6
  -2  -5  -7 290.730 171.280   6
  -2  -5  -7 293.144 158.868   3
  -2  -5  -8 696.854 281.798   6
  -2  -5  -9 150.067 149.162   6
   2   6 -12 47.4779 133.002   6
  -2  -6  12-242.502 273.890   5
   2   6 -11 320.907 234.545   7
   2   6 -11 246.911 230.569   6
  -2  -6  11 310.866 204.371   5
   2   6 -10 210.123 181.935   7
  -2  -6  10 125.244 164.494   5
   2   6  -9 572.089 268.413   7
  -2  -6   9 360.678 196.140   5
  -2  -6   8-27.0409 117.127   5
   2   6  -8 128.346 167.416   7
  -2  -6   7 1667.59 399.355   5
   2   6  -7 1283.19 332.871   7
   2   6  -6 1821.15 360.850   7
  -2  -6   6 2052.70 419.679   5
  -2  -6   5 1626.77 353.166   5
  -2  -6   5 1240.09 207.153   1
   2   6  -5 1320.83 303.896   7
   2   6  -4 1922.01 354.998   7
  -2  -6   4 1962.19 369.550   5
   2   6  -3 3018.11 447.132   7
  -2  -6   3 3439.38 488.560   5
  -2  -6   2 2751.97 429.803   5
   2   6  -2 3019.23 436.744   7
  -2  -6   1 2014.66 413.642   3
  -2  -6   1 2289.78 388.888   5
   2   6  -1 2102.61 328.638   1
   2   6  -1 2627.09 402.297   7
   2   6   0-43.6975 121.783   1
   2   6   0 365.587 160.714   7
  -2  -6   0 197.029 161.782   3
  -2  -6   0 195.882 115.455   5
  -2  -6  -1 980.355 267.354   5
   2   6   1 866.037 271.350   1
  -2  -6  -1 658.611 170.348   6
  -2  -6  -1 829.813 266.768   3
  -2  -6  -2 1015.17 234.517   6
  -2  -6  -2 1077.79 297.987   5
   2   6   2 943.722 318.669   1
  -2  -6  -2 635.287 257.065   3
   2   6   3 1291.95 339.900   1
  -2  -6  -3 1206.41 346.915   5
  -2  -6  -3 1089.43 243.533   6
  -2  -6  -3 1053.34 309.713   3
  -2  -6  -4 1749.64 334.618   6
   2   6   4 1906.07 431.336   1
  -2  -6  -4 1347.38 369.081   3
   2   6   5 253.881 213.240   1
  -2  -6  -5 321.014 195.890   6
  -2  -6  -6 93.1543 150.837   6
  -2  -6  -7 475.831 246.066   6
   2   7 -12 166.626 130.511   7
   2   7 -11 87.9236 116.683   7
  -2  -7  11 223.098 200.345   5
   2   7 -10 118.315 123.546   7
  -2  -7  10 252.346 238.912   5
   2   7  -9 309.642 173.110   7
  -2  -7   9-54.3709 169.496   5
   2   7  -8-48.0914 165.978   7
  -2  -7   8 103.473 127.868   5
  -2  -7   7 1384.69 381.577   5
   2   7  -7 1405.92 372.477   7
  -2  -7   6 1693.24 393.827   5
   2   7  -6 1185.70 336.768   7
   2   7  -5 5880.40 676.993   7
  -2  -7   5 6474.88 736.107   5
   2   7  -4 2328.86 418.563   7
  -2  -7   4 1882.18 402.182   5
  -2  -7   3 429.125 195.787   5
   2   7  -3 157.436 136.246   7
   2   7  -2 2398.71 429.420   7
  -2  -7   2 2268.38 436.970   5
  -2  -7   1 2363.12 437.990   5
   2   7  -1 2147.20 392.909   7
   2   7  -1 1359.02 292.472   1
  -2  -7   0 251.943 174.922   5
   2   7   0 195.084 165.086   7
   2   7   0 25.2186 119.979   1
  -2  -7  -1-20.7069 72.9815   6
   2   7   1 199.746 179.633   7
  -2  -7  -1-57.2293 148.159   5
   2   7   1 220.496 200.109   1
  -2  -7  -2 349.522 181.465   5
  -2  -7  -2 362.287 177.218   6
   2   7   2 312.842 212.611   1
  -2  -7  -3 208.425 151.712   5
   2   7   3 412.125 226.274   1
  -2  -7  -3 256.839 138.951   6
   2   7   4 430.394 250.121   1
  -2  -7  -4 7.27555 92.7232   6
   2   7   5 597.305 300.927   1
  -2  -7  -5 164.577 176.122   6
   2   7   6 0.39034 166.368   1
   2   8 -11-5.94358 131.852   7
   2   8 -10-56.9264 131.220   7
  -2  -8  10-85.1858 181.276   5
   2   8  -9 43.5896 278.543   7
  -2  -8   9-16.6322 110.587   5
  -2  -8   8 211.274 203.017   5
   2   8  -8 110.777 155.081   7
  -2  -8   7 102.090 144.385   5
   2   8  -7 80.6462 193.630   7
  -2  -8   6 1232.01 371.925   5
   2   8  -6 1112.23 354.742   7
   2   8  -5 797.809 306.038   7
  -2  -8   5 619.020 254.986   5
   2   8  -4-100.175 126.632   7
  -2  -8   4 217.176 186.340   5
  -2  -8   3 529.242 242.525   5
   2   8  -3 1054.43 334.320   7
   2   8  -2 2688.33 488.946   7
  -2  -8   2 2269.68 462.447   5
  -2  -8   1 877.259 340.576   5
   2   8  -1 1194.07 324.148   7
   2   8  -1 942.206 269.368   1
  -2  -8   0 465.521 257.711   5
   2   8   0 414.149 201.640   1
   2   8   0 186.121 188.776   7
   2   8   1 650.243 270.971   1
  -2  -8  -1 714.245 222.194   6
  -2  -8  -1 472.887 238.210   5
   2   8   1 1148.50 342.830   7
  -2  -8  -2 496.834 237.567   5
   2   8   2 735.398 279.456   7
   2   8   2 533.498 261.529   1
  -2  -8  -2 889.890 270.594   6
  -2  -8  -3 506.020 234.561   5
   2   8   3 753.085 317.694   1
  -2  -8  -3 499.807 206.182   6
   2   8   4 713.315 361.801   1
   2   8   5 145.153 256.449   1
   2   9  -9 273.365 250.022   7
  -2  -9   9 241.701 223.856   5
  -2  -9   8-143.742 146.590   5
   2   9  -8 150.152 180.483   7
   2   9  -7 209.962 201.261   7
  -2  -9   7 323.972 246.541   5
   2   9  -6 339.374 236.187   7
  -2  -9   6 391.955 243.748   5
   2   9  -5 257.934 223.211   7
  -2  -9   5 331.018 229.430   5
   2   9  -4 125.402 150.450   7
  -2  -9   4-120.708 146.843   5
  -2  -9   3 502.614 248.921   5
   2   9  -3 475.562 252.505   7
   2   9  -2 579.538 266.635   7
  -2  -9   2 278.709 198.915   5
  -2  -9   1 235.844 219.627   5
   2   9  -1 34.1217 126.861   7
   2   9   0 263.196 171.434   7
   2   9   0-107.985 131.549   1
  -2  -9   0 110.424 127.440   5
  -2  -9  -1-34.3274 86.8213   6
  -2  -9  -1 33.5178 133.722   5
   2   9   1-135.761 142.211   1
   2   9   1 117.017 146.185   7
   2   9   2 130.267 179.424   1
  -2  -9  -2 238.194 208.606   5
   2   9   2 369.836 252.978   7
  -2  -9  -3 675.687 299.497   5
   2   9   3 244.327 249.028   1
   2   9   3 278.438 228.680   7
   2   9   4 0.39615 138.500   1
  -2 -10   8 77.8624 218.808   5
  -2 -10   7 98.5689 135.073   5
   2  10  -7-39.1645 138.129   7
  -2 -10   6 125.399 163.696   5
   2  10  -6 143.845 202.340   7
   2  10  -5 205.218 175.410   7
  -2 -10   5 161.891 161.536   5
  -2 -10   4-8.13325 123.929   5
   2  10  -4 306.608 224.152   7
  -2 -10   3 174.325 171.381   5
   2  10  -3-110.242 151.191   7
   2  10  -2 137.302 260.588   7
  -2 -10   2 24.7186 154.745   5
   2  10  -1-30.1071 164.612   7
  -2 -10   1 80.3946 141.058   5
  -2 -10   0 15.9101 112.278   5
   2  10   0 203.997 173.388   7
  -2 -10  -1-143.487 238.800   5
   2  10   1-168.561 182.249   7
   2  10   1 67.9864 161.413   1
   2  10   2 286.676 223.682   7
  -2 -10  -2 451.281 287.048   5
   2  10   2-349.220 218.233   1
   2  10   3 0.40098 179.722   1
   2  10   3 164.252 192.194   7
   2  11  -3 229.596 235.506   7
   2  11  -2-46.7107 139.534   7
   2  11  -1 35.7418 160.921   7
   3 -10  -2 87.5115 143.411   5
   3 -10  -1 306.498 282.297   5
   3 -10   0 52.8788 182.910   5
   3 -10   1-203.081 193.940   5
   3 -10   2 136.144 204.965   5
  -3  10  -2 76.1595 246.978   7
   3 -10   3 80.6448 113.621   5
  -3  10  -3 122.900 160.563   7
   3 -10   4 203.877 233.972   5
  -3  10  -4-107.909 148.537   7
  -3  10  -5 557.210 294.470   7
   3 -10   5 580.373 291.609   5
   3 -10   6 128.665 170.582   5
  -3  10  -6 119.622 156.067   7
  -3  10  -7 106.945 157.150   7
   3 -10   7 268.211 227.170   5
   3  -9  -4 38.8964 133.915   6
   3  -9  -3 379.687 237.999   6
   3  -9  -3 41.3412 125.310   5
   3  -9  -2-86.6015 211.442   5
   3  -9  -1 198.437 177.701   5
   3  -9   0-86.2330 120.648   5
   3  -9   1 70.7406 125.681   5
   3  -9   2 342.241 207.703   5
   3  -9   3 708.672 343.361   5
  -3   9  -3 577.529 272.217   7
  -3   9  -4 445.894 232.781   7
   3  -9   4 231.954 216.054   5
   3  -9   5 392.581 230.097   5
  -3   9  -5 109.430 185.742   7
   3  -9   6-367.320 227.986   5
  -3   9  -6-196.220 207.963   7
   3  -9   7 549.786 284.555   5
  -3   9  -7 69.2984 151.977   7
  -3   9  -8-74.4198 152.727   7
   3  -9   8 455.715 223.560   5
  -3   9  -9-55.1210 206.593   7
   3  -9   9 274.669 253.101   5
   3  -8  -6 263.565 224.479   6
   3  -8  -5 228.307 181.188   6
   3  -8  -4 120.126 188.101   6
   3  -8  -3 433.577 245.411   6
   3  -8  -3 344.902 221.874   5
   3  -8  -2-49.3786 142.748   5
   3  -8  -1-5.70990 125.813   5
   3  -8   0 401.601 252.747   5
   3  -8   1 333.867 174.045   5
   3  -8   2 341.426 254.779   5
   3  -8   3 866.039 316.687   5
  -3   8  -3 578.221 260.886   7
  -3   8  -4 95.8378 172.459   7
   3  -8   4 604.619 257.252   5
   3  -8   5 179.692 128.550   5
  -3   8  -5 192.447 206.220   7
  -3   8  -6-67.4720 112.293   7
   3  -8   6-216.664 185.109   5
   3  -8   7 147.106 181.130   5
  -3   8  -7 90.8773 111.926   7
   3  -8   8-318.409 210.353   5
  -3   8  -8-49.3464 121.559   7
   3  -8   9 93.4626 152.400   5
  -3   8  -9-304.292 190.428   7
   3  -8  10 141.964 170.321   5
   3  -7  -7 127.547 189.763   6
   3  -7  -6 18.6787 127.124   6
   3  -7  -5 211.571 229.128   6
   3  -7  -4-10.4762 129.983   6
   3  -7  -3 810.261 308.923   5
   3  -7  -3 718.789 267.046   6
   3  -7  -2 112.109 149.311   5
   3  -7  -1 1605.41 383.943   5
   3  -7   0 971.892 283.531   5
   3  -7   1 6824.65 774.207   5
   3  -7   2-1.59138 131.623   5
  -3   7  -3 753.217 285.593   7
   3  -7   3 214.639 180.557   5
  -3   7  -4 1159.50 314.132   7
   3  -7   4 997.121 317.084   5
  -3   7  -5 259.122 174.790   7
   3  -7   5 363.336 152.443   5
  -3   7  -6 84.9317 94.1229   7
   3  -7   6 171.036 153.038   5
   3  -7   7 177.198 178.540   5
  -3   7  -7 277.581 187.989   7
  -3   7  -8 31.8520 110.356   7
   3  -7   8 224.008 186.711   5
  -3   7  -9 21.0587 104.482   7
   3  -7   9-200.702 169.793   5
   3  -7  10-47.7710 155.766   5
   3  -7  11-131.815 157.416   5
   3  -6  -8-46.7189 136.433   6
   3  -6  -7-18.8556 161.570   6
   3  -6  -6 380.707 229.960   6
   3  -6  -5 1110.63 322.347   6
   3  -6  -4-104.455 114.315   6
   3  -6  -3 353.627 141.548   6
   3  -6  -3 534.041 240.258   5
   3  -6  -2 3799.79 555.851   5
   3  -6  -1 803.140 253.538   5
   3  -6   0 3030.90 479.791   5
   3  -6   1 3876.46 516.531   5
   3  -6   2 464.470 210.793   5
  -3   6  -3 423.479 206.975   7
   3  -6   3 771.187 247.323   5
   3  -6   4 405.060 183.987   5
  -3   6  -4 133.718 124.912   7
  -3   6  -5 663.044 245.615   7
   3  -6   5 546.703 211.606   5
   3  -6   6 879.330 274.409   5
  -3   6  -6 1304.76 314.498   7
  -3   6  -7 275.963 164.491   7
   3  -6   7 584.561 243.378   5
  -3   6  -8 418.194 206.832   7
   3  -6   8 185.419 177.226   5
  -3   6  -9 191.175 141.175   7
   3  -6   9-50.2172 129.745   5
   3  -6  10 49.0934 99.2199   5
   3  -6  11 1061.25 397.378   4
   3  -6  11 219.042 210.936   5
   3  -6  12 968.840 355.057   4
   3  -6  12 264.271 207.876   5
   3  -5  -9-84.1695 176.229   6
   3  -5  -8 48.5930 182.781   6
   3  -5  -7 2362.19 479.364   6
   3  -5  -6 174.027 210.819   6
   3  -5  -5 3778.88 564.250   6
   3  -5  -4 1561.72 343.242   6
   3  -5  -3 276.723 173.839   6
   3  -5  -3 638.956 218.569   5
   3  -5  -2 1543.28 336.139   5
   3  -5  -1 1894.52 354.878   5
   3  -5   0 550.338 187.639   5
   3  -5   1 912.842 239.132   5
   3  -5   2 1919.45 354.087   5
  -3   5  -3 355.226 70.6359   1
   3  -5   3 391.152 163.591   5
  -3   5  -3 574.014 208.855   7
  -3   5  -4 153.448 129.068   7
   3  -5   4 247.649 145.044   5
  -3   5  -5 111.331 108.111   7
   3  -5   5 342.521 179.020   5
   3  -5   6 362.699 181.507   5
  -3   5  -6 449.054 161.416   7
  -3   5  -7 363.307 165.072   7
   3  -5   7 539.619 220.209   5
  -3   5  -8 345.521 155.643   7
   3  -5   8 362.353 192.090   5
   3  -5   9 366.225 216.766   5
  -3   5  -9 246.968 160.346   7
   3  -5  10 779.341 337.340   4
   3  -5  10 34.3307 102.742   5
   3  -5  11 414.757 257.152   4
   3  -5  11-170.901 158.991   5
   3  -5  12 349.417 223.466   5
   3  -4 -10-40.7236 159.035   6
   3  -4  -9 126.970 149.812   6
   3  -4  -8 308.378 273.811   6
   3  -4  -7 6577.73 764.365   6
   3  -4  -6 6490.98 712.637   6
   3  -4  -5 1700.45 161.400   4
   3  -4  -5 2421.11 422.800   6
   3  -4  -4 7878.33 697.901   6
   3  -4  -4 7049.60 404.976   4
   3  -4  -3 4014.96 508.894   5
   3  -4  -3 4114.48 486.832   6
   3  -4  -2 3674.74 454.395   5
   3  -4  -1 9741.10 697.695   5
   3  -4   0 139.023 93.6912   5
   3  -4   1 900.135 215.288   5
   3  -4   2 9777.90 656.047   5
  -3   4  -3 982.878 233.544   7
  -3   4  -3 1266.05 151.885   1
   3  -4   3 863.773 200.478   5
   3  -4   4 4233.87 446.639   5
  -3   4  -4 4467.15 437.153   7
   3  -4   5 3258.16 412.938   5
  -3   4  -5 2968.59 355.729   7
  -3   4  -6 392.462 155.919   7
   3  -4   6 437.028 178.300   5
  -3   4  -7 732.479 201.941   7
   3  -4   7 584.581 225.655   5
  -3   4  -8 621.648 209.025   7
   3  -4   8 579.635 208.934   5
   3  -4   9 846.104 334.270   4
   3  -4   9 936.551 295.759   5
   3  -4  10 451.783 243.733   4
   3  -4  10 86.7094 143.977   5
   3  -4  11 138.877 164.751   5
   3  -4  11-411.368 265.401   4
   3  -4  12 474.408 266.143   5
   3  -3 -11 252.399 239.095   6
   3  -3 -10 353.635 234.591   6
   3  -3  -9 1543.94 418.498   6
   3  -3  -8 49.7060 161.033   6
   3  -3  -7 2903.61 480.452   6
   3  -3  -6 14314.6 989.200   6
   3  -3  -5 730.141 84.8423   4
   3  -3  -5 1056.16 262.967   6
   3  -3  -4 4973.38 517.663   6
   3  -3  -4 4707.63 290.526   4
   3  -3  -3 7577.76 601.530   6
   3  -3  -3 7882.54 437.219   4
   3  -3  -2 4638.14 456.206   5
   3  -3  -2 4185.77 360.159   4
   3  -3  -1 1730.96 264.670   5
   3  -3   0 4423.07 391.130   5
  -3   3   0 4412.43 397.847   5
   3  -3   1 2062.77 263.934   5
  -3   3  -1 1691.87 240.566   5
   3  -3   2 2181.32 276.219   5
  -3   3  -2 2406.76 271.578   5
  -3   3  -2 2215.31 227.106   1
  -3   3  -3 846.605 147.010   1
   3  -3   3 683.454 156.951   5
  -3   3  -3 448.458 130.985   7
   3  -3   4 7175.33 520.607   5
  -3   3  -4 7203.15 470.140   7
  -3   3  -5 572.888 148.916   7
   3  -3   5 400.866 143.935   5
   3  -3   6 1153.70 328.392   4
  -3   3  -6 670.549 160.353   7
   3  -3   6 767.073 226.863   5
   3  -3   6 499.886 137.507   1
   3  -3   7 1496.31 258.868   1
   3  -3   7 2229.71 418.219   4
  -3   3  -7 2333.31 328.494   7
   3  -3   7 2024.39 350.372   5
   3  -3   8 4916.41 512.914   1
   3  -3   8 7739.03 765.317   4
   3  -3   9 848.650 301.600   4
   3  -3   9 434.220 205.798   1
   3  -3  10-255.664 210.168   4
  -3   3 -10 85.3954 110.170   6
  -3   3 -11 16.6930 147.911   6
  -3   3 -12 470.369 235.605   6
   3  -2 -11 33.7722 141.770   6
   3  -2 -10 268.953 235.036   6
   3  -2  -9 1396.94 362.865   6
   3  -2  -8 4028.70 574.251   6
  -3   2   7 12542.7 806.310   2
   3  -2  -7 12968.5 966.100   6
   3  -2  -6 3470.81 460.531   6
  -3   2   6 3565.65 441.486   2
  -3   2   5 1424.92 290.736   2
   3  -2  -5 1132.15 250.705   6
  -3   2   4 1944.84 331.791   2
   3  -2  -4 1759.66 167.232   4
   3  -2  -4 1629.96 271.342   6
  -3   2   3 3456.84 398.532   2
   3  -2  -3 3669.20 378.964   6
   3  -2  -3 3299.39 264.852   4
  -3   2   2 24949.6 913.867   5
   3  -2  -2 24165.5 774.710   4
   3  -2  -1 36512.3 1006.80   5
  -3   2   1 35394.9 995.029   5
   3  -2  -1 33627.3 1003.19   4
   3  -2   0 21764.3 716.130   5
   3  -2   0 21367.7 826.363   4
  -3   2   0 20537.1 698.518   5
   3  -2   1 10465.2 482.412   5
  -3   2  -1 10825.7 465.285   5
   3  -2   1 10758.7 633.374   4
   3  -2   2 8616.29 448.915   5
  -3   2  -2 8344.19 458.625   1
   3  -2   2 9450.10 625.267   4
  -3   2  -3 533.926 115.036   7
   3  -2   3 400.332 109.336   5
   3  -2   3 696.248 231.007   4
   3  -2   4 1192.37 206.846   5
   3  -2   4 1596.26 306.437   4
   3  -2   4 1540.92 256.504   2
  -3   2  -4 1206.58 160.585   7
   3  -2   4 1351.17 213.410   1
   3  -2   5 3622.29 364.138   2
  -3   2  -5 3428.52 295.368   7
   3  -2   5 2966.37 346.743   1
   3  -2   5 3775.46 472.495   4
  -3   2  -6 20912.1 1072.75   6
   3  -2   6 18527.6 917.389   1
   3  -2   6 21224.4 1117.79   4
   3  -2   7-74.9310 151.044   4
   3  -2   7 459.976 190.158   1
  -3   2  -7 292.951 153.605   6
   3  -2   8 2066.13 379.938   4
   3  -2   8 2348.24 391.081   1
  -3   2  -8 2124.76 413.341   6
   3  -2   9 120.564 138.535   4
   3  -2   9 505.886 237.281   1
  -3   2  -9 405.451 191.937   6
   3  -2  10-163.645 203.096   4
   3  -2  10 400.735 205.960   1
  -3   2 -10 59.3993 176.490   6
  -3   2 -11 247.146 197.634   6
  -3   2 -12 289.735 259.140   6
   3  -1 -12 342.276 232.562   6
   3  -1 -11 241.337 180.519   6
   3  -1 -10 728.854 279.763   6
  -3   1   9 1786.78 324.311   2
   3  -1  -9 1701.71 386.620   6
  -3   1   8 4433.89 493.574   2
   3  -1  -8 4299.88 591.177   6
  -3   1   7 9195.96 683.446   2
   3  -1  -7 8935.82 768.193   6
   3  -1  -6 9293.88 716.773   6
  -3   1   6 8708.12 641.997   2
  -3   1   5 4094.68 427.231   2
   3  -1  -5 4274.54 453.401   6
  -3   1   5 4017.62 244.101   4
  -3   1   4 11177.4 678.816   2
  -3   1   4 11221.0 452.453   4
   3  -1  -4 11838.2 674.718   6
  -3   1   3 21308.5 901.546   2
   3  -1  -3 22812.0 675.002   4
   3  -1  -3 23033.7 847.224   6
  -3   1   3 21840.5 689.729   4
  -3   1   2 20908.0 735.412   5
   3  -1  -2 20203.7 685.038   4
  -3   1   2 20823.6 874.218   2
   3  -1  -2 20198.7 732.570   6
  -3   1   2 19021.8 692.620   4
  -3   1   1 49506.4 953.623   5
   3  -1  -1 48876.2 1247.78   2
  -3   1   1 51663.7 1343.21   2
   3  -1  -1 49610.3 1155.79   4
  -3   1   1 46260.1 1152.44   4
   3  -1   0 11948.0 388.244   5
  -3   1   0 12070.9 395.514   5
   3  -1   0 11645.9 593.372   2
  -3   1   0 12322.1 636.155   2
  -3   1   0 11586.4 605.978   4
   3  -1   0 11287.3 584.544   4
   3  -1   1 16636.0 429.778   5
   3  -1   1 16330.4 695.068   2
   3  -1   1 16818.8 753.869   4
  -3   1  -1 15889.5 667.288   1
   3  -1   2 13764.0 439.102   5
   3  -1   2 13804.8 628.533   2
  -3   1  -2 14502.6 652.244   1
   3  -1   2 13607.1 567.659   6
   3  -1   2 14309.4 731.874   4
  -3   1  -2 14134.7 386.142   7
  -3   1  -3 18178.5 438.549   7
   3  -1   3 20077.2 736.756   2
   3  -1   3 21610.8 950.868   4
   3  -1   3 18889.5 748.584   6
   3  -1   3 20462.7 853.921   1
   3  -1   4 4720.21 347.480   2
  -3   1  -4 4566.50 405.065   6
   3  -1   4 4582.10 438.324   1
   3  -1   4 4954.13 482.907   4
   3  -1   5 2691.48 368.867   4
   3  -1   5 3073.06 277.288   2
   3  -1   5 3174.86 402.021   1
  -3   1  -5 2988.88 364.163   6
   3  -1   6 1150.26 240.668   4
   3  -1   6 1714.64 319.143   1
  -3   1  -6 1573.23 292.283   6
   3  -1   6 1019.59 155.866   2
   3  -1   6 1639.84 195.451   7
   3  -1   7 1136.93 256.842   4
   3  -1   7 1371.92 303.784   1
  -3   1  -7 1724.20 331.850   6
   3  -1   8 243.326 156.688   4
  -3   1  -8 334.311 187.015   6
   3  -1   8 515.258 233.636   1
   3  -1   9 589.551 242.677   4
   3  -1   9 345.528 235.456   1
   3  -1  10 1012.84 361.841   1
  -3   1 -10 704.075 299.980   6
  -3   1 -11 349.666 235.321   6
   3  -1  11 343.955 269.881   1
  -3   1 -12-413.410 241.622   6
   3   0 -12 332.994 260.451   6
   3   0 -11 42.4289 163.463   6
  -3   0  10 1734.05 324.738   2
   3   0 -10 1845.19 427.324   6
  -3   0   9 3937.44 475.953   2
   3   0  -9 5652.58 669.947   6
  -3   0   8 6046.71 572.502   2
   3   0  -8 6487.11 681.030   6
  -3   0   7 1365.40 269.962   2
   3   0  -7 1550.57 319.827   6
  -3   0   7 1026.75 132.877   4
   3   0  -6 1246.68 263.018   6
  -3   0   6 1092.95 140.026   4
  -3   0   6 1181.53 248.671   2
  -3   0   5 29783.0 1115.61   2
   3   0  -5 29477.2 1125.91   6
  -3   0   5 29430.0 762.315   4
  -3   0   4 26168.9 1011.86   2
   3   0  -4 25072.1 930.025   6
  -3   0   4 25153.9 733.618   4
  -3   0   3 11323.7 637.654   2
   3   0  -3 12066.7 571.531   6
  -3   0   3 10648.1 499.497   4
  -3   0   3 11515.8 542.898   6
   3   0  -2 87941.7 1303.32   6
  -3   0   2 87635.4 1706.56   2
   3   0  -2 88551.4 1466.26   4
  -3   0   2 86058.8 1477.27   4
  -3   0   1 22477.5 830.737   2
   3   0  -1 22526.5 564.373   6
   3   0  -1 21484.7 763.379   4
  -3   0   1 21928.1 784.985   4
   3   0   0 4121.42 342.654   2
  -3   0   0 4245.27 353.833   2
   3   0   0 4108.23 354.781   4
  -3   0   0 3661.76 340.459   4
   3   0   1 76880.5 1424.52   2
   3   0   1 75830.7 999.070   6
  -3   0  -1 79064.5 1450.04   2
  -3   0  -1 76251.8 1533.50   1
   3   0   1 78286.9 1609.85   4
   3   0   2 73559.7 1340.35   2
   3   0   2 74492.9 1651.62   4
  -3   0  -2 73087.7 1346.13   2
   3   0   2 73204.1 1199.55   6
   3   0   2 75077.3 1686.70   1
   3   0   3 16353.0 603.676   2
  -3   0  -3 15451.1 627.877   6
   3   0   3 16092.8 661.341   6
   3   0   3 15413.6 790.072   1
   3   0   3 16246.4 808.728   4
   3   0   4 34001.0 1273.76   1
  -3   0  -4 33754.1 1047.49   6
   3   0   4 35134.3 1247.77   4
   3   0   5 11455.4 386.276   7
   3   0   5 12594.2 839.511   1
  -3   0  -5 12397.5 719.305   6
   3   0   5 13445.2 809.102   4
   3   0   6 2583.71 385.266   4
   3   0   6 2460.35 216.108   7
   3   0   6 3297.87 467.627   1
  -3   0  -6 2687.41 369.209   6
   3   0   7 2758.82 461.318   1
  -3   0  -7 1964.72 356.163   6
   3   0   7 2212.37 356.132   4
   3   0   8 844.803 244.047   4
  -3   0  -8 861.644 270.508   6
   3   0   9 477.333 253.893   1
  -3   0  -9 243.547 170.770   6
   3   0   9 96.4863 110.627   4
   3   0  10 661.695 326.545   1
  -3   0 -10 802.275 303.087   6
   3   0  11 347.775 313.444   1
  -3   0 -11 135.369 205.521   6
   3   0  12 238.823 278.240   1
  -3   0 -12 268.907 163.164   6
   3   1 -12 152.775 231.001   6
   3   1 -11 327.716 219.227   6
   3   1 -10 1546.51 386.182   6
  -3  -1  10 1804.27 337.968   2
  -3  -1   9 370.227 185.905   2
   3   1  -9 480.131 207.620   6
  -3  -1   8 1606.88 299.143   2
   3   1  -8 1762.65 363.269   6
  -3  -1   7 3498.68 427.414   2
   3   1  -7 3833.72 476.579   6
  -3  -1   6 1474.59 156.409   3
   3   1  -6 1711.33 304.606   6
  -3  -1   5 28327.5 862.006   4
  -3  -1   5 28975.9 803.543   3
   3   1  -5 29834.1 1104.34   6
   3   1  -4 73480.6 1552.31   6
  -3  -1   4 76379.5 1421.77   4
  -3  -1   4 75715.9 1501.82   6
  -3  -1   3 64412.8 1308.54   4
   3   1  -3 65063.2 1261.50   6
  -3  -1   3 63880.4 1189.58   6
  -3  -1   2 2666.22 272.210   4
  -3  -1   2 2928.80 292.004   7
   3   1  -2 2506.37 199.799   6
  -3  -1   2 2685.64 196.982   6
  -3  -1   1 99990.0 1450.33   7
  -3  -1   1 95770.3 1065.54   5
   3   1  -1 95512.9 866.088   6
   3   1  -1 99306.2 1724.64   4
  -3  -1   1 92368.0 1665.84   4
  -3  -1   0 2248.23 252.374   2
  -3  -1   0 2034.41 123.423   5
  -3  -1   0 2389.76 178.719   7
   3   1   0 2471.15 278.570   4
  -3  -1  -1 86761.1 1475.59   2
   3   1   1 82074.7 841.310   5
   3   1   1 80234.9 822.377   6
   3   1   1 83128.2 1684.26   4
   3   1   2 6796.05 320.982   5
  -3  -1  -2 7068.67 399.740   2
   3   1   2 7413.28 529.651   4
  -3  -1  -2 7340.56 340.781   6
   3   1   2 6788.13 548.754   1
   3   1   2 7192.20 342.368   6
   3   1   3 18866.0 668.132   5
  -3  -1  -3 20652.4 643.590   2
  -3  -1  -3 20304.7 698.949   6
   3   1   3 18874.3 962.377   1
   3   1   3 18615.3 681.306   6
   3   1   3 19153.9 889.759   4
   3   1   4 4362.18 376.074   5
   3   1   4 4956.04 537.958   1
  -3  -1  -4 4576.38 387.048   6
   3   1   4 4420.11 455.648   4
   3   1   5 5323.62 284.561   7
   3   1   5 6593.59 669.934   1
  -3  -1  -5 5909.88 500.372   6
   3   1   5 6212.35 548.927   4
   3   1   6 651.395 320.739   1
  -3  -1  -6 249.801 134.338   6
   3   1   6 290.650 151.316   4
   3   1   7 918.643 337.462   1
  -3  -1  -7 414.618 187.004   3
  -3  -1  -7 640.483 204.722   6
   3   1   7 742.757 200.684   4
  -3  -1  -8 2969.15 467.076   6
   3   1   8 2480.99 392.037   4
   3   1   8 3251.55 558.749   1
  -3  -1  -8 2446.12 422.162   3
   3   1   9 3069.84 605.085   1
  -3  -1  -9 3685.52 556.887   6
   3   1  10 164.570 235.287   1
  -3  -1 -10-147.377 183.194   6
   3   1  11 592.504 376.827   1
  -3  -1 -11 384.322 220.050   6
   3   2 -13 343.727 279.457   6
   3   2 -12 76.5967 114.299   6
   3   2 -11 557.898 248.083   6
  -3  -2  11 595.463 236.920   2
  -3  -2  10 6273.38 650.191   2
   3   2 -10 6892.74 784.471   6
   3   2  -9 431.304 237.444   6
   3   2  -8 2086.20 386.485   6
   3   2  -7 1620.47 322.367   6
  -3  -2   6 8390.62 470.518   3
   3   2  -6 8273.40 640.105   6
   3   2  -5 22058.7 942.092   6
  -3  -2   5 22290.6 819.607   3
   3   2  -4 35546.9 1060.53   6
  -3  -2   4 35291.0 1036.55   6
  -3  -2   4 34094.5 1078.99   3
   3   2  -4 36982.2 1264.60   7
   3   2  -3 1293.28 232.919   7
  -3  -2   3 1408.31 231.611   3
   3   2  -3 1221.39 176.095   6
  -3  -2   3 1202.18 163.432   6
  -3  -2   2 26115.5 778.222   5
  -3  -2   2 26126.2 1012.63   3
   3   2  -2 24430.8 858.694   7
  -3  -2   2 25820.9 588.329   6
   3   2  -2 24588.7 570.717   6
  -3  -2   2 26721.8 879.137   7
  -3  -2   1 21025.1 627.442   5
  -3  -2   1 20449.8 933.136   3
  -3  -2   1 21207.4 697.900   7
   3   2  -1 19954.2 690.586   7
  -3  -2   0 64060.9 1075.10   5
   3   2   0 63635.0 1026.80   5
   3   2   0 64171.3 1115.59   7
  -3  -2   0 64338.3 1089.97   7
  -3  -2  -1 55564.1 1085.45   5
   3   2   1 57788.4 1057.13   5
  -3  -2  -1 55578.9 675.967   6
   3   2   1 62104.3 1540.52   4
   3   2   1 61909.0 1649.21   1
   3   2   1 57488.3 918.820   7
   3   2   2 3406.92 287.829   5
  -3  -2  -2 3298.28 419.584   3
   3   2   2 3358.03 216.117   7
  -3  -2  -2 3174.04 231.089   6
   3   2   2 2994.79 355.160   4
   3   2   2 3288.02 409.710   1
   3   2   2 3412.83 234.168   6
  -3  -2  -3 5982.83 350.201   2
   3   2   3 5544.82 418.651   5
  -3  -2  -3 6395.29 606.955   3
   3   2   3 6932.13 631.698   1
  -3  -2  -3 5790.27 382.340   6
   3   2   3 5477.26 493.577   4
   3   2   3 5435.83 366.346   6
  -3  -2  -4 5316.52 285.177   2
  -3  -2  -4 5269.38 572.154   3
   3   2   4 6462.49 649.401   1
  -3  -2  -4 5294.84 432.281   6
   3   2   4 6055.72 528.076   4
   3   2   5 8447.04 794.539   1
  -3  -2  -5 8722.14 757.050   3
  -3  -2  -5 8368.81 603.034   6
   3   2   5 7604.85 612.622   4
   3   2   6 8605.61 675.266   4
  -3  -2  -6 8827.09 780.835   3
  -3  -2  -6 9083.18 699.033   6
   3   2   6 9622.94 880.740   1
   3   2   7 2858.32 526.500   1
  -3  -2  -7 2257.96 411.961   3
  -3  -2  -7 2684.58 418.539   6
   3   2   7 1983.99 338.398   4
  -3  -2  -8 349.915 180.367   3
  -3  -2  -8 448.376 199.728   6
   3   2   9 1481.87 459.513   1
  -3  -2  -9 1828.63 404.811   6
   3   2  10 747.479 353.062   1
  -3  -2 -10 264.200 198.618   6
   3   3 -13-17.0390 136.825   6
   3   3 -12 97.1368 125.546   6
   3   3 -11 621.853 261.078   6
   3   3 -10 803.152 274.408   6
   3   3  -9 2520.64 458.668   6
   3   3  -8 2365.28 412.123   6
   3   3  -7 445.659 170.160   6
   3   3  -6 9836.94 691.936   6
  -3  -3   6 9584.90 597.462   3
   3   3  -6 9525.32 758.228   7
   3   3  -5 866.386 247.218   7
   3   3  -5 747.243 182.477   6
  -3  -3   5 743.322 179.887   3
  -3  -3   4 1775.62 281.438   3
   3   3  -4 1616.61 283.751   7
   3   3  -4 1389.12 220.712   6
  -3  -3   4 1731.32 237.656   6
  -3  -3   3 177.646 77.8023   5
   3   3  -3 301.460 95.2761   6
  -3  -3   3 296.008 126.115   3
  -3  -3   3 244.088 84.2433   6
   3   3  -3 281.292 123.274   7
  -3  -3   2 32744.7 995.754   5
  -3  -3   2 32990.5 1257.19   3
  -3  -3   2 33112.2 739.145   6
   3   3  -2 35131.0 1104.75   7
  -3  -3   1 5972.95 410.471   5
   3   3  -1 6445.02 417.445   5
  -3  -3   1 6615.94 444.685   7
   3   3  -1 6796.66 452.328   7
  -3  -3   1 6311.80 260.809   6
  -3  -3   1 6905.82 596.708   3
  -3  -3   0 8056.04 481.821   5
   3   3   0 7487.50 449.550   5
  -3  -3   0 7367.89 262.906   6
  -3  -3   0 7931.86 664.370   3
   3   3   0 7817.92 449.827   7
  -3  -3  -1 108.040 68.2860   5
   3   3   1 39.1157 63.1363   5
  -3  -3  -1 68.2316 126.322   3
  -3  -3  -1 57.4192 35.7000   6
   3   3   1-186.523 161.341   1
   3   3   1 142.983 78.8018   7
  -3  -3  -2 22589.1 894.426   5
   3   3   2 21653.8 870.572   5
  -3  -3  -2 23266.9 1188.47   3
   3   3   2 20902.8 720.103   7
   3   3   2 21674.6 1124.83   1
  -3  -3  -2 22869.6 694.471   6
   3   3   3 1811.65 354.570   1
  -3  -3  -3 1272.42 298.279   3
  -3  -3  -3 1153.16 185.016   6
  -3  -3  -4 4594.22 301.245   2
  -3  -3  -4 4861.07 596.863   3
   3   3   4 5918.73 664.893   1
  -3  -3  -4 5305.69 446.681   6
   3   3   5 725.152 298.903   1
  -3  -3  -5 576.520 235.624   3
  -3  -3  -5 487.525 156.839   6
  -3  -3  -6 388.506 155.883   3
  -3  -3  -6 611.160 208.444   6
   3   3   7 1070.74 390.495   1
  -3  -3  -7 647.784 225.553   3
  -3  -3  -7 750.051 219.308   6
   3   3   8 1633.99 457.256   1
  -3  -3  -8 1581.13 357.527   6
   3   3   9 1261.60 431.311   1
  -3  -3  -9 442.358 212.160   6
   3   4 -13 309.705 267.806   6
   3   4 -12 566.680 296.603   6
   3   4 -11 247.348 167.204   6
   3   4 -10 1995.09 435.786   6
   3   4  -9 342.127 179.989   6
   3   4  -8 2882.13 454.904   6
   3   4  -8 2924.51 499.939   7
   3   4  -7 1733.53 363.989   7
   3   4  -7 1467.90 304.094   6
   3   4  -6 5673.78 622.645   7
   3   4  -6 4711.79 500.497   6
  -3  -4   5 6701.78 610.343   5
   3   4  -5 6272.79 606.484   7
  -3  -4   5 6041.85 554.005   3
   3   4  -5 5596.58 501.057   6
  -3  -4   4 3320.15 402.230   5
   3   4  -4 3206.28 410.205   7
  -3  -4   4 3316.90 426.611   3
  -3  -4   3 10528.3 669.644   5
   3   4  -3 10449.9 699.954   7
  -3  -4   3 10599.9 767.580   3
  -3  -4   3 10766.4 554.930   6
  -3  -4   2 35300.1 1430.10   3
  -3  -4   2 34861.6 1187.61   5
  -3  -4   2 34412.6 880.895   6
   3   4  -2 35521.8 1220.59   7
  -3  -4   1 3395.70 465.016   3
  -3  -4   1 2789.16 333.466   5
   3   4  -1 2987.95 337.506   7
  -3  -4   1 3082.47 237.990   6
  -3  -4   0 13042.9 717.845   5
   3   4   0 13552.9 700.084   7
  -3  -4   0 13223.5 919.688   3
   3   4   0 13984.4 857.417   1
  -3  -4  -1 2748.14 439.537   3
   3   4   1 2701.73 406.426   1
  -3  -4  -1 2726.36 344.058   5
  -3  -4  -1 2603.95 236.111   6
   3   4   1 2429.62 295.939   7
  -3  -4  -2 16075.1 864.124   5
  -3  -4  -2 15116.5 1031.57   3
   3   4   2 15276.0 728.663   7
   3   4   2 17775.6 1062.77   1
  -3  -4  -2 15226.2 640.232   6
   3   4   3 1831.78 408.064   1
  -3  -4  -3 1080.12 266.605   3
  -3  -4  -3 1222.56 210.996   6
   3   4   4 31934.6 1584.55   1
  -3  -4  -4 33203.8 1183.52   6
  -3  -4  -4 32231.0 1588.52   3
  -3  -4  -5 184.665 115.260   3
  -3  -4  -5 296.407 122.207   6
   3   4   6 1841.00 446.092   1
  -3  -4  -6 1482.96 365.366   3
  -3  -4  -6 1433.59 291.866   6
   3   4   7 360.423 263.623   1
  -3  -4  -7 82.7248 157.466   3
  -3  -4  -7 83.9674 124.420   6
   3   4   8 938.522 406.285   1
  -3  -4  -8 1133.76 311.290   6
   3   4   9 515.586 322.621   1
   3   5 -12 225.824 223.972   6
   3   5 -11 307.577 222.669   6
   3   5 -10 2200.55 472.907   6
   3   5  -9 525.862 245.593   7
   3   5  -9 79.5094 131.113   6
   3   5  -8 799.957 292.458   7
  -3  -5   8 601.813 249.408   5
   3   5  -8 780.260 242.771   6
   3   5  -7 1034.58 265.073   6
   3   5  -7 1068.95 294.831   7
  -3  -5   7 951.119 284.601   5
   3   5  -6 1533.26 334.378   7
  -3  -5   6 1599.24 350.075   5
  -3  -5   5 1458.79 301.930   3
   3   5  -5 1653.02 340.507   7
  -3  -5   5 1434.53 302.127   5
   3   5  -4-166.667 149.243   7
  -3  -5   4 54.5985 91.5710   5
  -3  -5   4 56.3286 131.438   3
   3   5  -3 1389.99 274.388   7
  -3  -5   3 1140.74 250.868   5
  -3  -5   3 1066.19 278.720   3
  -3  -5   2 3192.83 408.652   5
   3   5  -2 3221.66 399.910   7
  -3  -5   2 3173.77 304.324   6
  -3  -5   2 2967.08 467.289   3
   3   5  -1 619.860 195.545   7
  -3  -5   1 410.918 165.044   5
  -3  -5   1 577.582 209.088   3
  -3  -5   0 6354.12 576.458   5
   3   5   0 5287.03 505.325   7
   3   5   0 5936.19 589.675   1
  -3  -5   0 5770.97 670.065   3
  -3  -5  -1 395.008 125.454   6
  -3  -5  -1 332.064 183.641   5
   3   5   1 289.001 127.591   1
   3   5   1 254.415 134.948   7
  -3  -5  -1 408.306 195.474   3
  -3  -5  -2 2124.69 368.638   5
  -3  -5  -2 2256.83 450.226   3
   3   5   2 1794.12 312.479   7
   3   5   2 2520.28 443.679   1
  -3  -5  -2 1648.64 242.603   6
  -3  -5  -3 2356.80 408.939   5
   3   5   3 1958.34 417.277   1
  -3  -5  -3 2803.91 519.000   3
  -3  -5  -3 2099.05 305.076   6
   3   5   4 3230.61 563.856   1
  -3  -5  -4 3440.45 416.885   6
  -3  -5  -4 3318.23 554.682   3
   3   5   5 186.981 203.695   1
  -3  -5  -5 278.065 223.633   3
  -3  -5  -5 201.961 106.430   6
   3   5   6 861.648 319.859   1
  -3  -5  -6 440.060 235.859   3
  -3  -5  -6 565.286 197.125   6
   3   5   7 812.488 362.548   1
  -3  -5  -7 297.896 198.340   3
   3   5   8 937.202 409.137   1
  -3  -6  12 256.638 214.457   5
   3   6 -12-672.528 297.868   6
  -3  -6  11 428.791 268.337   5
   3   6 -11 142.512 222.730   6
   3   6 -10 658.276 266.565   7
   3   6 -10 562.799 260.343   6
  -3  -6  10 980.099 359.042   5
   3   6  -9-21.3590 172.352   7
  -3  -6   9-61.1687 156.367   5
   3   6  -8-286.784 181.276   7
  -3  -6   8 208.214 187.963   5
   3   6  -7 372.202 227.749   7
  -3  -6   7 235.339 183.107   5
   3   6  -6 80.4536 147.524   7
  -3  -6   6 133.405 147.275   5
   3   6  -5-23.3727 103.715   7
  -3  -6   5-16.2661 111.396   5
  -3  -6   4 599.458 236.954   3
   3   6  -4 767.829 252.345   7
  -3  -6   4 660.972 235.432   5
  -3  -6   3 285.820 145.228   5
   3   6  -3 308.309 140.101   7
  -3  -6   3 619.911 232.850   3
  -3  -6   2 1876.89 346.874   5
   3   6  -2 1475.52 293.618   7
  -3  -6   2 1904.06 415.969   3
  -3  -6   1 2532.26 399.080   5
   3   6  -1 3411.14 447.702   7
  -3  -6   1 2660.55 493.461   3
  -3  -6   0 3066.23 442.388   5
   3   6   0 2113.12 364.553   7
   3   6   0 2357.00 413.562   1
  -3  -6   0 3047.07 535.332   3
  -3  -6  -1 4766.65 567.045   5
  -3  -6  -1 4285.20 410.206   6
   3   6   1 4499.29 512.547   7
  -3  -6  -1 4746.89 670.163   3
   3   6   1 4945.27 613.112   1
  -3  -6  -2 7445.17 726.162   5
  -3  -6  -2 7013.16 823.165   3
  -3  -6  -2 7873.58 579.791   6
   3   6   2 6274.03 610.749   7
   3   6   2 7106.59 761.672   1
  -3  -6  -3 2962.32 474.691   5
   3   6   3 3098.39 433.043   7
  -3  -6  -3 2442.32 355.804   6
   3   6   3 3196.77 536.263   1
  -3  -6  -3 3197.29 551.825   3
   3   6   4 1240.34 383.143   1
  -3  -6  -4 937.857 316.594   3
  -3  -6  -4 1438.78 297.410   6
   3   6   5 886.055 339.365   1
  -3  -6  -5 616.006 261.963   3
   3   6   6 82.9724 162.962   1
  -3  -6  -6 44.0649 162.543   3
   3   6   7 417.531 290.087   1
  -3  -6  -7 258.506 229.038   3
   3   7 -11-101.233 158.605   7
  -3  -7  11 5.19490 198.466   5
  -3  -7  10 324.981 226.419   5
   3   7 -10 430.752 171.930   7
   3   7  -9 23.2803 123.486   7
  -3  -7   9 245.986 201.960   5
   3   7  -8 677.607 274.358   7
  -3  -7   8 699.867 329.856   5
   3   7  -7 678.260 273.665   7
  -3  -7   7 468.615 237.619   5
  -3  -7   6 920.737 300.078   5
   3   7  -6 1104.34 343.403   7
   3   7  -5 1195.49 347.333   7
  -3  -7   5 892.495 277.020   5
  -3  -7   4 775.524 226.496   5
   3   7  -4 665.998 224.618   7
   3   7  -3 165.922 157.556   7
  -3  -7   3 133.008 153.824   5
  -3  -7   2 682.449 285.724   3
  -3  -7   2 491.456 214.928   5
   3   7  -2 731.616 245.311   7
  -3  -7   1 174.035 126.614   5
   3   7  -1 417.684 182.719   7
  -3  -7   1 354.709 244.873   3
  -3  -7   0 436.121 198.029   5
   3   7   0 723.755 244.057   7
   3   7   0 635.369 258.041   1
  -3  -7   0 620.927 279.888   3
  -3  -7  -1 1105.30 245.715   6
  -3  -7  -1 1166.47 323.939   5
   3   7   1 1567.00 336.139   7
   3   7   1 966.190 292.230   1
  -3  -7  -1 1130.69 366.488   3
   3   7   2 570.584 234.248   1
  -3  -7  -2 796.335 280.216   5
   3   7   2 832.514 285.861   7
  -3  -7  -2 1099.65 384.161   3
  -3  -7  -2 350.709 141.092   6
   3   7   3 941.401 280.931   7
  -3  -7  -3 915.993 306.886   5
   3   7   3 747.427 338.871   1
  -3  -7  -3 916.122 339.089   3
   3   7   4 233.394 237.849   1
  -3  -7  -4 435.288 229.012   3
  -3  -7  -5-34.8986 151.778   3
   3   7   5 182.393 251.326   1
   3   7   6 302.446 271.546   1
   3   8 -10 246.274 150.867   7
  -3  -8  10-16.9348 185.044   5
  -3  -8   9-81.8755 123.586   5
   3   8  -9 67.7229 186.750   7
   3   8  -8 188.450 206.937   7
  -3  -8   8 279.798 241.211   5
  -3  -8   7 616.563 315.654   5
   3   8  -7 679.693 293.083   7
   3   8  -6-27.0712 125.344   7
  -3  -8   6 395.515 289.657   5
  -3  -8   5 501.253 245.864   5
   3   8  -5 811.162 292.589   7
   3   8  -4 2030.35 450.135   7
  -3  -8   4 1924.72 445.869   5
  -3  -8   3 851.562 316.252   5
   3   8  -3 767.029 280.420   7
  -3  -8   2 237.850 161.273   5
   3   8  -2 424.804 216.759   7
  -3  -8   1 154.494 154.447   5
   3   8  -1 141.888 176.665   7
   3   8   0 363.637 230.145   7
  -3  -8   0 252.766 167.433   5
   3   8   0 14.3625 175.766   1
  -3  -8  -1 3.08252 128.468   5
   3   8   1-337.662 202.216   1
  -3  -8  -2 802.605 293.514   5
   3   8   2 177.779 174.127   1
   3   8   2 586.450 251.187   7
   3   8   3 108.083 174.321   1
  -3  -8  -3 550.135 257.020   5
   3   8   3 357.427 224.813   7
   3   8   4 0.39255 132.598   1
  -3  -9   9 395.971 250.822   5
   3   9  -9 486.516 344.711   7
  -3  -9   8 369.464 280.074   5
   3   9  -8-108.754 191.357   7
  -3  -9   7 377.063 239.739   5
   3   9  -7 71.3693 170.989   7
  -3  -9   6-26.8093 173.766   5
   3   9  -6 360.361 261.975   7
  -3  -9   5 306.241 188.502   5
   3   9  -5 402.186 269.516   7
  -3  -9   4 285.701 229.754   5
   3   9  -4 124.694 162.738   7
  -3  -9   3 227.723 187.381   5
   3   9  -3 479.936 222.441   7
  -3  -9   2 90.9900 114.780   5
   3   9  -2-100.689 138.055   7
  -3  -9   1 84.4129 105.478   5
   3   9  -1 128.104 114.614   7
   3   9   0 202.015 185.240   7
  -3  -9   0 359.463 229.255   5
  -3  -9  -1 348.605 210.590   5
   3   9   1 402.683 240.344   7
   3   9   1 0.34123 146.252   1
  -3  -9  -2 21.8759 102.834   5
   3   9   2 88.4882 146.245   7
  -3  -9  -3 223.372 190.224   5
   3   9   3-102.956 159.722   1
  -3 -10   7 193.470 224.293   5
   3  10  -7 77.6661 154.536   7
  -3 -10   6 124.716 173.128   5
   3  10  -6 227.972 150.734   7
  -3 -10   5 339.581 209.754   5
   3  10  -5 86.6907 120.929   7
  -3 -10   4-181.424 222.449   5
   3  10  -4-32.6539 134.114   7
   3  10  -3-224.090 181.070   7
  -3 -10   3 82.7036 214.655   5
  -3 -10   2 69.6016 171.049   5
   3  10  -2 334.183 244.266   7
   3  10  -1-56.8758 164.530   7
  -3 -10   1-5.47578 131.173   5
  -3 -10   0 14.7231 103.747   5
   3  10   0 202.975 191.515   7
  -3 -10  -1 93.6490 116.982   5
   3  10   1 177.091 168.299   7
  -3 -10  -2-223.690 192.603   5
   3  10   2-206.701 190.988   1
   4 -10  -1 86.4217 144.020   5
   4 -10   0 257.842 208.507   5
   4 -10   1 163.687 112.569   5
   4 -10   2-292.546 215.935   5
  -4  10  -2 244.089 249.246   7
   4 -10   3 39.4920 143.906   5
  -4  10  -3 126.082 147.688   7
  -4  10  -4-62.2340 148.858   7
   4 -10   4 313.374 208.526   5
   4 -10   5-428.238 254.872   5
  -4  10  -5-287.173 222.076   7
   4 -10   6 136.926 140.620   5
  -4  10  -6 137.449 168.449   7
   4 -10   7-80.7580 155.101   5
  -4  10  -7-97.1029 149.363   7
   4  -9  -4-116.158 160.633   6
   4  -9  -3-41.0901 185.367   6
   4  -9  -3 16.6960 176.225   5
   4  -9  -2 158.788 200.266   5
   4  -9  -1 235.131 217.697   5
   4  -9   0-151.367 162.124   5
   4  -9   1 137.159 153.586   5
   4  -9   2 7.76478 191.524   5
   4  -9   3 358.245 254.272   5
  -4   9  -3 156.532 199.418   7
   4  -9   4 454.819 267.689   5
  -4   9  -4 255.377 222.358   7
   4  -9   5 153.030 119.950   5
  -4   9  -5 58.2997 120.725   7
  -4   9  -6-33.1010 155.654   7
   4  -9   6 175.113 144.459   5
   4  -9   7-65.7507 116.187   5
  -4   9  -7 210.503 185.175   7
   4  -9   8-255.974 207.240   5
  -4   9  -8-562.324 262.117   7
   4  -9   9 7.96247 192.320   5
   4  -8  -5 698.037 341.143   6
   4  -8  -4 395.023 254.163   6
   4  -8  -3-46.2151 151.213   6
   4  -8  -3 484.665 259.271   5
   4  -8  -2-52.0556 122.375   5
   4  -8  -1 3.82013 117.317   5
   4  -8   0 276.837 216.353   5
   4  -8   1 125.503 143.779   5
   4  -8   2 499.770 246.821   5
   4  -8   3 418.550 242.535   5
  -4   8  -3 613.314 308.339   7
   4  -8   4 303.277 178.859   5
  -4   8  -4-78.0248 164.972   7
   4  -8   5 5.34699 98.8992   5
  -4   8  -5 274.028 171.571   7
   4  -8   6 297.479 201.830   5
  -4   8  -6-29.7625 96.1753   7
   4  -8   7 88.8128 114.492   5
  -4   8  -7-92.0527 125.055   7
   4  -8   8 299.864 219.661   5
  -4   8  -8-422.944 217.273   7
   4  -8   9 230.077 252.802   5
   4  -7  -7 496.197 256.939   6
   4  -7  -6 412.875 195.320   6
   4  -7  -5 830.464 328.867   6
   4  -7  -4-106.048 186.094   6
   4  -7  -3 15.7709 169.416   6
   4  -7  -3 68.0411 146.074   5
   4  -7  -2-65.8733 100.205   5
   4  -7  -1 831.267 298.497   5
   4  -7   0 233.944 175.804   5
   4  -7   1 3656.54 559.766   5
   4  -7   2 1520.27 372.661   5
  -4   7  -3 400.181 219.528   7
   4  -7   3-41.8903 139.336   5
   4  -7   4 276.975 166.938   5
  -4   7  -4 57.3105 129.277   7
   4  -7   5 235.630 184.776   5
  -4   7  -5 191.430 166.962   7
   4  -7   6 107.207 171.760   5
  -4   7  -6 181.977 169.054   7
  -4   7  -7 63.9723 84.5685   7
   4  -7   7 63.2336 162.373   5
   4  -7   8 449.139 238.557   5
  -4   7  -8 8.33388 100.343   7
   4  -7   9 51.3328 144.543   5
   4  -7  10 254.854 208.723   5
   4  -6  -8-27.8225 151.575   6
   4  -6  -7 499.775 272.563   6
   4  -6  -6 1175.85 363.717   6
   4  -6  -5 997.276 352.269   6
   4  -6  -4 268.133 164.060   6
   4  -6  -4 370.199 174.827   4
   4  -6  -3 570.837 228.374   6
   4  -6  -3 709.009 273.871   5
   4  -6  -2 210.169 156.959   5
   4  -6  -1 3187.31 509.794   5
   4  -6   0 206.953 142.845   5
   4  -6   1-81.1756 114.491   5
   4  -6   2 271.015 151.997   5
   4  -6   3 222.467 148.606   5
   4  -6   4 3.29668 103.696   5
  -4   6  -4 105.533 163.516   7
  -4   6  -5 544.563 208.048   7
   4  -6   5 530.137 228.991   5
   4  -6   6 608.126 226.207   5
  -4   6  -6 628.315 223.678   7
   4  -6   7 368.950 204.855   5
  -4   6  -7 203.728 123.167   7
   4  -6   8 5.81843 131.830   5
   4  -6   9 403.047 216.446   5
   4  -6   9 158.818 238.971   4
   4  -6  10 641.433 355.998   4
   4  -6  10 351.040 215.108   5
   4  -5  -9-16.1168 143.586   6
   4  -5  -8 1158.17 416.929   6
   4  -5  -7 2287.43 484.228   6
   4  -5  -6 564.659 250.445   6
   4  -5  -5 313.596 105.966   6
   4  -5  -4 1192.96 301.028   6
   4  -5  -4 1021.59 211.623   4
   4  -5  -3 937.194 288.097   6
   4  -5  -3 1142.43 282.548   5
   4  -5  -3 1142.78 258.507   4
   4  -5  -2 2785.69 442.201   5
   4  -5  -1 1611.91 321.518   5
   4  -5   0 305.014 152.103   5
   4  -5   1 236.455 153.277   5
   4  -5   2 373.350 175.015   5
   4  -5   3 1626.84 308.229   5
  -4   5  -3 1471.34 191.800   1
  -4   5  -4 279.909 142.730   7
   4  -5   4 197.641 119.693   5
  -4   5  -5 76.1397 102.784   7
   4  -5   5 26.7415 114.265   5
  -4   5  -6-64.4821 75.3281   7
   4  -5   6 304.865 141.946   5
  -4   5  -7 494.064 184.595   7
   4  -5   7 906.516 271.734   5
   4  -5   8 271.093 208.169   4
   4  -5   8 61.6540 147.669   5
   4  -5   9 50.8838 213.459   4
   4  -5   9 109.540 124.122   5
   4  -5  10 719.866 379.806   4
   4  -5  11 455.916 241.917   4
   4  -4 -10 118.074 223.692   6
   4  -4  -9 272.822 204.916   6
   4  -4  -8 247.229 151.650   6
   4  -4  -7 4153.61 624.491   6
   4  -4  -6 968.756 295.721   6
   4  -4  -5 257.160 98.6875   4
   4  -4  -5 250.237 171.559   6
   4  -4  -4 284.998 181.642   6
   4  -4  -4 170.567 87.8230   4
   4  -4  -3 8565.92 726.873   6
   4  -4  -3 7377.51 533.262   4
   4  -4  -2 2276.98 367.592   5
   4  -4  -2 2079.45 313.673   4
   4  -4  -1 2799.75 380.841   5
   4  -4  -1 2809.79 403.560   4
   4  -4   0 566.357 153.880   5
   4  -4   1 195.250 121.121   5
   4  -4   2 2458.23 344.281   5
   4  -4   3 4777.65 470.193   5
  -4   4  -3 3700.38 324.992   1
  -4   4  -3 4231.61 432.779   7
   4  -4   4 2119.94 323.241   5
   4  -4   4 2567.62 467.989   4
  -4   4  -4 2012.90 291.242   7
  -4   4  -5 46.9476 69.0680   7
   4  -4   5 121.705 91.2927   5
   4  -4   6 384.902 153.320   5
  -4   4  -6 689.533 185.372   7
   4  -4   7 260.410 217.221   4
  -4   4  -7 64.5520 58.1518   7
   4  -4   7 170.074 130.858   5
   4  -4   8 197.122 166.143   5
   4  -4   8-85.8947 137.565   4
   4  -4   9 268.575 252.821   4
   4  -4   9 482.773 225.778   5
   4  -4  10 5.43613 141.565   4
   4  -4  11 53.0413 190.925   4
   4  -3 -11 183.894 204.516   6
   4  -3 -10 251.037 142.420   6
   4  -3  -9 185.519 184.497   6
   4  -3  -8 3475.73 563.666   6
   4  -3  -7 2091.97 441.778   6
   4  -3  -6 2103.47 407.214   6
   4  -3  -5 4954.45 567.593   6
   4  -3  -5 4654.20 310.769   4
   4  -3  -4 10218.5 761.812   6
   4  -3  -4 9455.56 517.338   4
   4  -3  -3 8745.92 676.509   6
   4  -3  -3 7778.38 505.203   4
   4  -3  -2 1708.03 251.724   4
   4  -3  -1 795.480 197.669   4
   4  -3  -1 613.393 156.662   5
   4  -3   0 337.882 145.268   4
   4  -3   0 313.587 109.769   5
  -4   3   0 482.534 134.331   5
   4  -3   1 13918.4 686.144   5
  -4   3  -1 13443.0 647.927   5
   4  -3   1 13913.3 838.277   4
   4  -3   2 5295.35 426.955   5
  -4   3  -2 4741.03 377.101   5
   4  -3   2 6246.30 602.028   4
   4  -3   3 1566.12 241.007   5
  -4   3  -3 1255.51 208.824   7
   4  -3   4 2923.86 338.076   5
  -4   3  -4 2721.09 285.755   7
   4  -3   4 3257.92 485.715   4
   4  -3   5 1964.33 414.088   4
  -4   3  -5 1427.37 213.844   7
   4  -3   5 1685.65 273.715   5
   4  -3   6 6053.87 551.106   5
  -4   3  -6 5614.96 432.810   7
   4  -3   6 6186.87 701.339   4
   4  -3   7 2561.31 469.761   4
   4  -3   7 2639.96 395.607   5
   4  -3   8 479.013 265.115   4
   4  -3   8 362.738 170.053   5
   4  -3   8 58.1592 96.1587   1
   4  -3   9-68.0808 147.872   4
   4  -3   9 294.315 150.379   5
   4  -3  10-396.040 287.411   4
   4  -2 -11-102.242 241.723   6
   4  -2 -10-57.0415 172.430   6
   4  -2  -9 287.389 167.215   6
   4  -2  -8 3471.60 555.455   6
  -4   2   8 4094.52 540.112   2
  -4   2   7 857.393 290.120   2
   4  -2  -7 165.910 149.820   6
  -4   2   6 1868.61 385.061   2
   4  -2  -6 1630.81 326.691   6
  -4   2   5 1201.98 306.203   2
   4  -2  -5 698.071 126.714   4
   4  -2  -5 660.085 177.080   6
  -4   2   4 5004.67 541.157   2
   4  -2  -4 4552.37 469.349   6
   4  -2  -4 4772.76 357.405   4
  -4   2   3 5579.61 555.610   2
   4  -2  -3 6196.08 514.090   6
   4  -2  -3 5177.84 405.622   4
  -4   2   2 14906.0 867.926   2
   4  -2  -2 13719.7 702.938   4
  -4   2   1 4251.67 358.648   5
   4  -2  -1 4174.75 414.626   4
   4  -2   0 8807.76 459.414   5
  -4   2   0 8169.71 442.869   5
   4  -2   0 8729.85 614.981   4
   4  -2   1 14399.6 557.929   5
  -4   2  -1 13316.5 516.063   5
   4  -2   1 13893.7 803.874   4
   4  -2   2 12108.4 523.090   5
   4  -2   2 11383.5 769.962   4
   4  -2   3 7893.13 448.654   5
  -4   2  -3 7923.06 393.573   7
   4  -2   3 8398.50 690.937   4
   4  -2   4 6454.29 446.913   5
   4  -2   4 6738.80 637.588   4
  -4   2  -4 7040.19 363.791   7
   4  -2   5 6873.10 509.691   5
  -4   2  -5 8084.10 421.312   7
   4  -2   5 8145.95 725.634   4
   4  -2   6 5304.64 485.989   5
   4  -2   6 5802.37 632.655   4
   4  -2   6 5476.09 558.946   1
   4  -2   7 3528.54 512.304   4
   4  -2   7 2915.45 426.051   1
   4  -2   8 99.1053 136.279   4
   4  -2   8 117.981 140.619   1
   4  -2   9-265.025 253.206   4
   4  -2   9 43.0947 124.178   1
   4  -2  10 41.3270 166.533   4
   4  -1 -12 333.968 217.788   6
   4  -1 -11 37.7621 149.938   6
  -4   1  10 162.797 167.606   2
   4  -1 -10 118.095 197.892   6
  -4   1   9 164.803 113.095   2
   4  -1  -9 384.496 219.023   6
   4  -1  -8 1772.26 397.707   6
  -4   1   8 1678.09 357.644   2
  -4   1   7 1249.85 298.173   2
   4  -1  -7 1038.24 255.930   6
  -4   1   6 3411.67 451.188   2
   4  -1  -6 4004.36 478.112   6
  -4   1   6 3847.54 292.517   4
  -4   1   5 6185.11 583.065   2
   4  -1  -5 5642.67 532.998   6
  -4   1   5 5222.99 372.761   4
  -4   1   4 5232.73 522.818   2
   4  -1  -4 5130.39 376.803   4
   4  -1  -4 5097.93 459.412   6
  -4   1   4 4474.72 374.052   4
  -4   1   3 31592.3 1238.34   2
   4  -1  -3 33040.4 1074.13   6
   4  -1  -3 31146.1 984.785   4
  -4   1   3 30829.2 1013.52   4
  -4   1   2 21039.0 757.683   5
  -4   1   2 21959.1 1015.47   2
   4  -1  -2 21762.3 807.792   6
   4  -1  -2 21180.8 845.881   4
  -4   1   1 28818.8 758.709   5
  -4   1   1 29622.7 1158.76   2
   4  -1  -1 27958.6 1030.90   4
  -4   1   0 18961.5 491.786   5
  -4   1   0 20068.2 927.965   2
   4  -1   0 20124.1 901.455   4
   4  -1   1 5951.13 239.864   5
  -4   1  -1 7071.77 536.451   2
   4  -1   1 6303.97 537.442   4
   4  -1   2 5308.76 251.343   5
   4  -1   2 5253.88 374.922   6
   4  -1   2 5440.61 503.602   4
   4  -1   3 8543.95 388.746   5
   4  -1   3 8249.19 667.726   4
   4  -1   4 3198.15 282.888   5
   4  -1   4 3306.90 450.094   4
   4  -1   5 519.412 197.958   4
   4  -1   5 1112.75 243.340   1
   4  -1   5 784.123 167.678   2
   4  -1   6 6401.93 635.149   1
   4  -1   6 6796.68 667.888   4
   4  -1   7 676.035 261.909   4
   4  -1   7 221.877 162.995   1
  -4   1  -7 457.784 186.642   6
   4  -1   8 483.962 254.445   4
  -4   1  -8 489.534 187.217   6
   4  -1   8 316.214 184.437   1
   4  -1   9 290.364 207.830   4
  -4   1  -9 72.0479 113.418   6
   4  -1   9 189.634 161.280   1
  -4   1 -10 498.570 291.656   6
   4  -1  10 327.536 219.199   1
  -4   1 -11 101.191 146.414   6
   4  -1  11 0.36973 111.440   1
   4   0 -12-101.991 176.096   6
   4   0 -11 19.9844 165.909   6
  -4   0  10 261.971 144.370   2
   4   0 -10 81.6396 121.936   6
  -4   0   9 385.129 141.524   2
   4   0  -9 503.695 214.077   6
  -4   0   8 279.177 179.945   2
   4   0  -8 262.143 179.669   6
  -4   0   7 803.986 154.010   4
  -4   0   7 714.406 226.391   2
   4   0  -7 671.672 213.630   6
  -4   0   6 2466.50 377.131   2
   4   0  -6 2551.28 379.859   6
  -4   0   6 1890.53 237.347   4
  -4   0   5 10267.1 737.087   2
   4   0  -5 11478.5 724.060   6
  -4   0   5 9963.33 540.740   4
  -4   0   4 1402.16 218.385   4
  -4   0   4 1902.15 301.630   2
   4   0  -4 1613.97 251.822   6
  -4   0   3 91936.2 2056.38   2
   4   0  -3 95429.3 1771.42   4
   4   0  -3 93616.6 1636.57   6
  -4   0   2 86522.5 1928.32   2
   4   0  -2 82348.1 1347.72   6
   4   0  -2 80722.3 1685.63   4
  -4   0   1 10022.5 359.638   5
  -4   0   1 9500.38 624.861   2
   4   0  -1 10277.4 421.758   6
   4   0  -1 10528.9 630.723   4
  -4   0   0 45537.9 1335.02   2
  -4   0   0 48446.0 971.138   7
   4   0   0 49327.4 1423.72   4
  -4   0  -1 8053.13 564.161   2
   4   0   1 7572.72 354.485   6
  -4   0  -1 7792.36 287.252   7
   4   0   1 8600.75 621.761   4
  -4   0  -2 3229.12 349.678   2
   4   0   2 3116.77 262.458   6
   4   0   2 3010.55 381.973   4
   4   0   3 8207.70 370.566   5
   4   0   3 8623.10 502.416   6
   4   0   3 9734.59 706.809   4
   4   0   3 8978.61 682.555   1
   4   0   4 3925.08 475.461   4
   4   0   4 3971.40 477.553   1
   4   0   5 6806.15 652.432   1
  -4   0  -5 6935.28 547.903   6
   4   0   5 6809.34 640.216   4
   4   0   6 2995.37 445.678   4
   4   0   6 2392.19 429.367   1
  -4   0  -6 3229.63 412.568   6
   4   0   7 242.998 149.501   4
  -4   0  -7 444.731 186.977   6
   4   0   7 198.318 164.945   1
  -4   0  -8 399.861 188.043   6
   4   0   8 197.143 221.568   1
   4   0   8 802.993 269.805   4
   4   0   9 364.852 237.607   1
  -4   0  -9 401.160 223.995   6
   4   0   9 201.413 173.805   4
   4   0  10 189.230 177.823   1
  -4   0 -10 205.341 159.121   6
   4   0  11 2.82351 126.756   1
   4   1 -12 67.6678 158.504   6
  -4  -1  11 362.918 156.021   2
   4   1 -11 155.598 120.513   6
  -4  -1  10 752.495 249.789   2
   4   1 -10 617.689 254.525   6
  -4  -1   9 1858.27 372.252   2
   4   1  -9 2141.76 415.900   6
  -4  -1   8 519.669 218.957   2
   4   1  -8 441.219 176.161   6
  -4  -1   7 4459.87 527.857   2
  -4  -1   7 3850.19 306.338   3
   4   1  -7 3692.67 482.751   6
  -4  -1   6 448.732 198.366   2
  -4  -1   6 230.858 86.8888   3
   4   1  -6 317.190 164.111   6
  -4  -1   5 9751.26 718.520   2
   4   1  -5 9894.67 641.734   6
  -4  -1   4 27459.3 1165.68   2
   4   1  -4 27253.1 975.053   6
  -4  -1   3 5187.86 484.305   2
   4   1  -3 5122.28 361.189   6
  -4  -1   3 5410.46 362.042   6
  -4  -1   2 5692.35 498.341   2
  -4  -1   2 6382.10 465.037   7
   4   1  -2 6270.84 323.615   6
   4   1  -2 6429.75 507.182   4
  -4  -1   1 13638.0 748.647   2
  -4  -1   1 13223.0 389.458   5
  -4  -1   1 14219.6 605.390   7
   4   1  -1 13361.7 351.173   6
   4   1  -1 14214.4 756.744   4
  -4  -1   0 52620.7 1420.61   2
  -4  -1   0 54484.3 953.626   7
   4   1   0 54603.2 1511.53   4
  -4  -1  -1 54745.3 1386.13   2
   4   1   1 58703.4 1618.68   4
   4   1   2 22868.8 496.329   5
  -4  -1  -2 24622.8 904.424   2
   4   1   2 25029.2 645.694   6
   4   1   2 26323.5 1125.36   4
   4   1   3 1741.65 184.647   5
  -4  -1  -3 2370.56 280.398   2
   4   1   3 1624.20 297.944   1
   4   1   3 1702.70 205.296   6
  -4  -1  -3 2239.10 234.941   6
   4   1   3 1578.06 295.548   4
   4   1   4 6553.48 424.564   5
  -4  -1  -4 6315.10 453.437   6
   4   1   4 6894.53 622.823   4
   4   1   4 7450.03 692.665   1
  -4  -1  -5 14518.7 770.670   6
   4   1   5 14466.0 1027.07   1
   4   1   5 15222.4 954.481   4
  -4  -1  -6 3848.50 447.651   6
   4   1   6 4702.16 561.627   4
   4   1   6 3492.26 545.799   1
   4   1   7 565.002 243.164   1
  -4  -1  -7 1183.73 283.943   6
   4   1   7 631.457 213.512   4
  -4  -1  -8 294.109 176.991   3
   4   1   8 301.863 215.364   1
  -4  -1  -8 744.178 253.193   6
   4   1   8 704.714 254.584   4
   4   1   9-174.970 179.974   1
  -4  -1  -9 178.399 155.316   6
   4   1  10 160.468 225.052   1
   4   2 -12 244.229 219.577   6
  -4  -2  11 416.264 220.472   2
   4   2 -11 43.7858 118.651   6
  -4  -2  10 165.952 125.483   2
   4   2 -10 276.052 215.348   6
  -4  -2   9 1431.65 320.052   2
   4   2  -9 1199.77 330.248   6
   4   2  -8 1037.46 292.384   6
  -4  -2   7 2867.99 298.069   3
   4   2  -7 3278.33 442.977   6
  -4  -2   6 2168.89 292.095   3
   4   2  -6 2055.09 326.443   6
  -4  -2   5 4399.24 425.138   3
   4   2  -5 4272.46 431.093   6
  -4  -2   4 2293.55 325.011   3
   4   2  -4 2694.68 303.245   6
  -4  -2   4 2609.10 282.114   6
  -4  -2   3 14356.8 824.892   3
   4   2  -3 13917.7 559.449   6
  -4  -2   3 13419.3 522.261   6
  -4  -2   2 1524.82 186.281   5
   4   2  -2 1640.41 244.827   7
   4   2  -2 1650.49 139.523   6
  -4  -2   2 1331.87 126.087   6
  -4  -2   1 20911.4 619.496   5
  -4  -2   1 21166.8 749.140   7
   4   2  -1 20259.4 765.297   7
  -4  -2   0 1433.21 151.894   5
   4   2   0 1549.72 185.992   7
   4   2   0 1024.05 256.044   4
  -4  -2   0 1494.11 177.307   7
  -4  -2  -1 8377.67 563.279   2
   4   2   1 8292.57 356.695   5
   4   2   1 7842.08 357.770   7
   4   2   1 9062.29 677.157   4
   4   2   2 507.957 82.7085   6
   4   2   2 476.193 181.006   1
   4   2   2 406.192 88.6921   5
  -4  -2  -2 578.608 151.737   2
   4   2   2 286.300 61.5029   7
  -4  -2  -2 417.799 80.0458   6
   4   2   2 480.942 197.905   4
   4   2   3 11458.8 556.592   5
  -4  -2  -3 12894.4 619.408   2
  -4  -2  -3 10672.6 500.611   6
   4   2   3 12381.6 824.279   4
   4   2   3 11881.3 511.650   6
   4   2   3 12927.3 915.569   1
   4   2   4 7014.76 498.188   5
   4   2   4 8761.70 715.476   4
  -4  -2  -4 8989.27 476.769   2
  -4  -2  -4 8865.84 814.901   3
  -4  -2  -4 8805.72 534.563   6
   4   2   4 8021.55 769.286   1
  -4  -2  -5 3972.74 583.294   3
  -4  -2  -5 4780.19 447.469   6
   4   2   5 4791.84 622.192   1
   4   2   5 4412.95 526.153   4
  -4  -2  -6 4873.94 657.562   3
   4   2   6 4822.87 661.776   1
  -4  -2  -6 5421.53 531.759   6
   4   2   6 5726.45 617.220   4
  -4  -2  -7 1468.41 380.790   3
   4   2   7 1536.46 411.206   1
  -4  -2  -7 1532.12 312.594   6
   4   2   7 1690.49 357.277   4
  -4  -2  -8 16.7450 94.4233   3
  -4  -2  -8 262.730 172.176   6
   4   2   8 215.077 139.901   4
   4   2   8 424.308 268.326   1
   4   2   9 428.881 274.876   1
   4   2  10 244.258 265.562   1
   4   3 -13-165.115 213.097   6
  -4  -3  12 476.927 239.159   2
   4   3 -12 774.403 275.939   6
   4   3 -11 536.461 240.193   6
   4   3 -10 284.617 204.548   6
   4   3  -9 624.787 248.567   6
   4   3  -8 1767.77 373.746   6
  -4  -3   7 1996.15 293.777   3
   4   3  -7 2068.18 373.626   6
  -4  -3   6 9450.32 664.401   3
   4   3  -6 10450.4 712.908   6
   4   3  -5 1039.24 256.228   7
  -4  -3   5 560.972 189.747   3
   4   3  -5 787.643 182.700   6
  -4  -3   4 4241.93 427.904   5
  -4  -3   4 4246.49 473.583   3
   4   3  -4 4644.31 497.462   7
   4   3  -4 4172.41 360.981   6
  -4  -3   4 4031.75 347.661   6
   4   3  -3 1258.83 244.694   7
   4   3  -3 1077.90 149.074   6
  -4  -3   3 1426.20 286.489   3
  -4  -3   3 953.291 184.765   5
  -4  -3   3 1266.85 161.054   6
  -4  -3   2 11899.1 594.517   5
  -4  -3   2 11588.7 828.217   3
   4   3  -2 11534.1 663.477   7
  -4  -3   2 10366.7 347.982   6
  -4  -3   1 2573.86 271.199   5
  -4  -3   1 2276.26 378.233   3
   4   3  -1 2308.18 280.680   7
  -4  -3   0 4642.31 355.440   5
   4   3   0 4714.77 345.739   5
  -4  -3   0 5187.12 594.637   3
   4   3   0 4634.69 361.531   7
  -4  -3  -1 3670.87 332.069   5
   4   3   1 3382.74 303.566   5
  -4  -3  -1 4445.87 561.966   3
   4   3   1 3506.93 292.409   7
   4   3   2 782.412 249.402   1
   4   3   2 870.714 168.653   5
   4   3   2 903.192 139.659   7
  -4  -3  -2 909.288 122.424   6
  -4  -3  -2 982.123 285.224   3
  -4  -3  -3 13668.8 672.685   2
  -4  -3  -3 14766.8 1093.01   3
   4   3   3 12118.2 476.227   7
  -4  -3  -3 14695.3 605.554   6
   4   3   3 15543.4 1064.26   1
  -4  -3  -4 18119.4 686.472   2
  -4  -3  -4 18542.4 1261.01   3
   4   3   4 14382.1 521.356   7
  -4  -3  -4 16771.4 760.658   6
   4   3   4 16999.8 1183.70   1
  -4  -3  -5 1386.41 358.518   3
  -4  -3  -5 2069.12 313.248   6
   4   3   5 2146.83 460.131   1
  -4  -3  -6 597.467 246.371   3
   4   3   6 343.712 235.884   1
  -4  -3  -6 618.845 195.897   6
   4   3   7 803.888 329.180   1
  -4  -3  -7 1013.36 342.185   3
   4   3   8 420.762 254.672   1
   4   3   9 683.142 393.305   1
   4   4 -13 17.5979 139.370   6
   4   4 -12 372.650 249.231   6
   4   4 -11 680.544 298.261   6
   4   4 -10 106.115 120.753   6
   4   4  -9 291.664 160.655   6
   4   4  -8 342.396 190.719   6
   4   4  -7 3902.79 548.956   7
  -4  -4   7 2968.18 410.126   3
   4   4  -7 3611.43 471.023   6
   4   4  -6 192.530 143.589   7
  -4  -4   6 132.662 81.3857   5
   4   4  -6 267.212 130.712   6
  -4  -4   6 76.4144 90.9730   3
  -4  -4   5 2642.31 381.061   5
  -4  -4   5 2213.50 369.387   3
   4   4  -5 2301.42 387.288   7
   4   4  -5 2121.73 301.619   6
   4   4  -4 1171.81 259.952   7
  -4  -4   4 917.650 216.858   5
  -4  -4   4 792.079 223.856   3
  -4  -4   4 798.775 166.055   6
   4   4  -3 453.335 151.058   7
  -4  -4   3 306.035 130.905   3
  -4  -4   3 371.702 89.6563   6
  -4  -4   3 373.002 124.666   5
   4   4  -2 1851.94 297.201   7
  -4  -4   2 1531.64 246.300   5
  -4  -4   2 1848.13 173.527   6
  -4  -4   2 1884.38 365.648   3
  -4  -4   1 4441.62 416.108   5
  -4  -4   1 4436.12 572.797   3
   4   4  -1 4336.29 421.047   7
  -4  -4   1 3966.31 204.256   6
  -4  -4   0 3705.71 376.852   5
  -4  -4   0 3502.48 516.205   3
   4   4   0 3188.76 342.584   7
  -4  -4   0 3008.49 159.394   6
  -4  -4  -1 851.357 198.872   5
   4   4   1 782.939 216.619   1
  -4  -4  -1 1350.32 351.907   3
  -4  -4  -1 838.436 108.166   6
   4   4   1 1098.14 188.098   7
  -4  -4  -2 5567.81 497.078   5
  -4  -4  -2 5696.78 700.402   3
   4   4   2 5436.67 416.013   7
  -4  -4  -2 5326.85 332.900   6
   4   4   2 5576.03 638.869   1
   4   4   3 631.209 286.614   1
   4   4   3 679.918 153.426   7
  -4  -4  -3 1192.78 356.381   3
  -4  -4  -3 737.512 150.588   6
   4   4   4 557.379 233.029   1
  -4  -4  -4 733.843 274.018   3
  -4  -4  -4 534.288 155.217   6
  -4  -4  -5 960.367 328.764   3
   4   4   5 999.643 350.995   1
  -4  -4  -6 1079.17 354.058   3
   4   4   6 1178.12 412.053   1
   4   4   7 815.548 332.791   1
  -4  -4  -7 739.327 302.480   3
   4   4   8 656.573 341.885   1
   4   5 -12 367.446 277.095   6
   4   5 -11-230.776 123.769   6
   4   5 -10 905.096 304.249   6
   4   5  -9 148.600 169.752   7
   4   5  -9-245.111 192.783   6
   4   5  -8 1226.98 343.607   7
  -4  -5   8 1431.82 359.519   5
   4   5  -8 1282.53 316.324   6
   4   5  -7 396.921 200.146   7
  -4  -5   7 756.452 271.604   5
   4   5  -7 669.851 214.060   6
   4   5  -6 1118.59 309.312   7
  -4  -5   6 790.766 245.023   5
  -4  -5   6 762.778 216.489   3
   4   5  -5 1496.29 319.803   7
  -4  -5   5 1613.60 338.036   5
  -4  -5   5 1380.39 315.511   3
  -4  -5   4 4034.07 472.414   5
  -4  -5   4 4025.43 549.908   3
   4   5  -4 4362.72 522.609   7
  -4  -5   3 253.590 140.118   5
   4   5  -3 140.282 113.448   7
  -4  -5   3 214.499 136.009   3
  -4  -5   3 95.1007 57.0987   6
  -4  -5   2 251.193 136.388   5
   4   5  -2 219.428 115.489   7
  -4  -5   2 165.243 182.057   3
  -4  -5   2 231.678 75.0969   6
  -4  -5   1 1020.43 238.332   5
   4   5  -1 829.522 208.333   7
  -4  -5   1 686.547 251.575   3
  -4  -5   1 624.631 106.550   6
  -4  -5   0 9933.66 712.153   5
   4   5   0 9464.04 653.718   7
  -4  -5   0 9571.01 917.123   3
  -4  -5   0 8477.06 391.401   6
  -4  -5  -1 3593.74 447.532   5
   4   5   1 3856.22 416.418   7
  -4  -5  -1 4187.24 649.637   3
   4   5   1 3828.63 537.876   1
  -4  -5  -1 3747.96 283.536   6
  -4  -5  -2 21598.5 1097.38   5
   4   5   2 20474.9 942.034   7
  -4  -5  -2 22631.6 1463.84   3
  -4  -5  -2 21274.1 768.931   6
   4   5   2 21045.5 1313.72   1
   4   5   3 977.986 322.602   1
   4   5   3 986.063 216.724   7
  -4  -5  -3 796.928 316.868   3
   4   5   4 1265.90 381.115   1
  -4  -5  -4 985.417 326.470   3
  -4  -5  -5 14.7512 129.230   3
   4   5   5 208.138 211.745   1
  -4  -5  -6 448.171 227.456   3
   4   5   6 519.524 287.035   1
   4   5   7 206.325 218.692   1
  -4  -5  -7 232.639 195.847   3
   4   6 -12 212.806 180.568   6
  -4  -6  11-158.591 208.933   5
   4   6 -11 219.825 291.882   6
   4   6 -10 396.624 199.674   6
   4   6 -10 331.033 206.089   7
  -4  -6  10 414.783 228.229   5
  -4  -6   9 93.0773 136.912   5
   4   6  -9 185.133 162.986   7
   4   6  -8 806.451 319.003   7
  -4  -6   8 841.953 309.629   5
   4   6  -7 191.035 168.983   7
  -4  -6   7 617.431 255.554   5
   4   6  -6 62.9580 170.238   7
  -4  -6   6 97.8286 123.276   5
   4   6  -5 1699.91 375.263   7
  -4  -6   5 1877.97 372.834   5
  -4  -6   5 1794.44 393.951   3
   4   6  -4 225.884 168.206   7
  -4  -6   4 140.222 102.838   5
  -4  -6   4 199.371 132.915   3
  -4  -6   3 367.285 170.352   5
   4   6  -3 89.3196 128.841   7
  -4  -6   3 511.009 260.556   3
  -4  -6   2 52.7417 81.6054   5
   4   6  -2-9.38575 84.5222   7
  -4  -6   2 73.2968 186.366   3
  -4  -6   1 128.103 136.012   5
   4   6  -1 47.0457 79.8802   7
  -4  -6   1 232.419 187.832   3
  -4  -6   0 754.923 151.667   6
  -4  -6   0 926.470 241.447   5
   4   6   0 790.601 210.713   7
  -4  -6   0 771.438 293.609   3
  -4  -6  -1 207.346 145.413   5
   4   6   1 415.365 236.471   1
   4   6   1 307.659 198.835   7
  -4  -6  -1 384.137 218.941   3
   4   6   2-41.8529 139.399   1
  -4  -6  -2 68.2739 109.236   5
   4   6   2-59.6768 122.623   7
  -4  -6  -2 136.023 140.046   3
   4   6   3 157.923 185.338   1
  -4  -6  -3 364.539 216.266   3
   4   6   4 347.932 201.037   1
  -4  -6  -4-146.050 179.318   3
   4   6   5-140.807 188.740   1
  -4  -6  -5 75.7753 111.449   3
  -4  -6  -6 1070.48 368.330   3
   4   6   6 667.860 361.662   1
   4   7 -11 128.252 161.810   7
  -4  -7  11 244.274 173.164   5
   4   7 -10 378.086 259.153   7
  -4  -7  10 1037.77 325.224   5
   4   7  -9 500.605 299.133   7
  -4  -7   9 146.270 147.701   5
   4   7  -8 477.291 253.593   7
  -4  -7   8 594.103 268.814   5
   4   7  -7 587.826 267.566   7
  -4  -7   7 565.307 253.504   5
   4   7  -6 2050.96 440.118   7
  -4  -7   6 2274.09 466.396   5
  -4  -7   5 49.6607 116.881   5
   4   7  -5-24.8143 145.606   7
  -4  -7   4 944.394 278.665   5
   4   7  -4 610.135 242.873   7
  -4  -7   4 1048.22 349.058   3
  -4  -7   3-13.9497 108.502   5
   4   7  -3 79.2211 105.714   7
  -4  -7   3-65.0210 138.242   3
  -4  -7   2 658.154 236.889   5
   4   7  -2 834.341 286.729   7
  -4  -7   2 612.678 270.735   3
  -4  -7   1 1021.77 285.350   5
   4   7  -1 753.090 224.461   7
  -4  -7   1 415.911 232.420   3
  -4  -7   0 49.2884 131.330   5
   4   7   0 553.687 231.568   7
  -4  -7   0 486.204 249.364   3
   4   7   1 685.343 268.578   1
  -4  -7  -1 534.460 217.709   5
   4   7   1 896.975 260.090   7
  -4  -7  -1 706.274 317.137   3
  -4  -7  -2 3.83232 101.799   5
   4   7   2 164.313 124.962   7
  -4  -7  -2 342.838 184.320   3
   4   7   3-222.588 197.743   1
  -4  -7  -3-90.3453 143.095   3
   4   7   4-407.700 249.744   1
  -4  -7  -4 410.162 259.607   3
   4   7   5 69.2251 175.809   1
  -4  -7  -5 398.847 269.478   3
  -4  -7  -6 103.443 246.378   3
   4   8 -10 350.951 256.287   7
  -4  -8  10 273.954 243.764   5
   4   8  -9 352.472 226.772   7
  -4  -8   9 58.6513 134.792   5
   4   8  -8 674.884 296.218   7
  -4  -8   8 702.648 336.439   5
  -4  -8   7 607.952 293.956   5
   4   8  -7 808.148 349.416   7
  -4  -8   6 614.372 261.908   5
   4   8  -6 184.414 228.774   7
  -4  -8   5 327.027 181.202   5
   4   8  -5 387.222 214.217   7
  -4  -8   4 907.265 305.292   5
   4   8  -4 1135.52 361.635   7
  -4  -8   3 371.284 235.777   5
   4   8  -3 228.252 164.397   7
  -4  -8   2 520.158 298.145   3
  -4  -8   2 262.198 164.637   5
   4   8  -2 317.843 168.123   7
  -4  -8   1 230.681 162.208   5
   4   8  -1 99.5138 102.215   7
  -4  -8   1 530.692 296.802   3
  -4  -8   0 144.123 123.590   5
   4   8   0 61.5336 94.6631   7
  -4  -8   0-80.0499 117.860   3
  -4  -8  -1 31.6576 98.8863   5
   4   8   1-139.281 150.027   7
   4   8   1-237.899 192.917   1
  -4  -8  -1-205.405 149.205   3
  -4  -8  -2 112.507 98.4212   5
   4   8   2 61.4400 124.209   1
   4   8   3 33.7790 140.325   1
  -4  -8  -3-53.6517 178.888   3
  -4  -8  -4-102.521 172.274   3
   4   8   4 13.8233 134.752   1
  -4  -9   9 90.2108 138.745   5
  -4  -9   8 322.254 213.307   5
   4   9  -8-240.524 206.744   7
  -4  -9   7 66.1755 124.477   5
   4   9  -7-25.9857 170.720   7
  -4  -9   6 373.856 276.474   5
   4   9  -6 561.996 275.616   7
  -4  -9   5 428.788 234.194   5
   4   9  -5 542.630 280.926   7
  -4  -9   4-56.2910 113.916   5
   4   9  -4 216.900 203.859   7
  -4  -9   3 222.131 188.965   5
   4   9  -3 233.342 167.194   7
  -4  -9   2 65.0930 114.547   5
   4   9  -2 866.395 316.832   7
  -4  -9   1 52.5586 115.693   5
   4   9  -1-141.459 121.737   7
  -4  -9   0-120.149 134.831   5
   4   9   0 268.025 209.417   7
  -4  -9  -1 187.425 176.794   5
   4   9   2-597.497 292.695   1
  -4  -9  -2 332.164 260.215   5
  -4 -10   7 37.5539 132.119   5
  -4 -10   6-220.850 201.573   5
   4  10  -6-384.215 275.037   7
  -4 -10   5 11.7649 127.161   5
   4  10  -5 205.340 212.967   7
  -4 -10   4-21.4527 109.151   5
   4  10  -4 37.9249 147.610   7
  -4 -10   3 130.299 171.709   5
   4  10  -3 13.0834 121.663   7
  -4 -10   2-51.3643 123.795   5
   4  10  -2 155.045 130.683   7
  -4 -10   1 85.6370 120.200   5
   4  10  -1 385.090 223.057   7
  -4 -10   0 89.7598 147.422   5
  -4 -10  -1 206.236 182.715   5
   5 -10   0 73.5582 149.581   5
   5 -10   1 340.488 175.055   5
   5 -10   2 145.057 127.507   5
   5 -10   3-116.614 160.192   5
  -5  10  -3-271.214 217.896   7
   5 -10   4-261.038 211.298   5
  -5  10  -4 155.463 219.394   7
   5 -10   5 104.321 138.136   5
  -5  10  -5-459.711 263.776   7
   5 -10   6 252.985 243.516   5
   5  -9  -3-119.635 163.361   5
   5  -9  -2 58.0436 123.328   5
   5  -9  -1-192.507 182.442   5
   5  -9   0 262.278 235.240   5
   5  -9   1-4.56621 126.148   5
   5  -9   2-16.1358 112.218   5
   5  -9   3-100.426 200.830   5
  -5   9  -3 250.956 268.016   7
   5  -9   4-44.2315 194.039   5
  -5   9  -4-61.1159 136.090   7
   5  -9   5 86.0611 109.410   5
  -5   9  -5-22.4166 135.005   7
   5  -9   6 882.131 366.787   5
  -5   9  -6-76.5016 114.624   7
   5  -9   7-73.6286 148.933   5
   5  -8  -5 214.771 250.951   6
   5  -8  -4-83.1565 110.736   6
   5  -8  -3 159.763 151.079   6
   5  -8  -3 147.327 210.548   5
   5  -8  -2-42.3496 133.268   5
   5  -8  -1 44.9089 177.621   5
   5  -8   0 269.657 172.999   5
   5  -8   1 73.6107 139.195   5
   5  -8   2 90.4372 169.375   5
   5  -8   3 310.411 213.126   5
  -5   8  -3 781.407 316.706   7
   5  -8   4 87.2546 171.872   5
  -5   8  -4 137.673 141.018   7
   5  -8   5 17.9249 94.9774   5
  -5   8  -5 243.818 210.722   7
   5  -8   6 262.543 177.525   5
  -5   8  -6 158.845 169.843   7
   5  -8   7 328.142 190.243   5
   5  -7  -6-114.180 180.039   6
   5  -7  -5 139.610 123.774   6
   5  -7  -4 184.120 186.278   6
   5  -7  -3-43.7984 124.907   6
   5  -7  -3-13.7464 123.070   5
   5  -7  -3 343.199 228.685   4
   5  -7  -2 581.951 265.956   5
   5  -7  -2 919.280 327.904   4
   5  -7  -1 176.245 107.439   5
   5  -7   0 556.332 237.999   5
   5  -7   1 494.861 240.764   5
   5  -7   2 752.492 265.437   5
   5  -7   3 503.892 228.440   5
   5  -7   4 682.001 262.275   5
  -5   7  -4 460.061 223.440   7
   5  -7   5 95.5321 153.434   5
  -5   7  -5-47.1841 96.4316   7
   5  -7   6-39.0317 120.071   5
  -5   7  -6 105.224 143.765   7
   5  -7   7 747.258 371.151   4
   5  -7   7 142.038 146.172   5
   5  -7   8 576.767 370.114   4
   5  -6  -8 150.699 238.892   6
   5  -6  -7-64.8269 167.333   6
   5  -6  -6 57.8968 136.985   6
   5  -6  -5 261.839 208.801   6
   5  -6  -4-58.6741 94.8679   6
   5  -6  -3 693.957 250.491   6
   5  -6  -3 872.017 273.761   4
   5  -6  -2 811.420 290.993   5
   5  -6  -2 488.715 252.046   4
   5  -6  -1 1107.91 321.021   5
   5  -6  -1 1467.25 359.134   4
   5  -6   0 1364.31 327.353   5
   5  -6   0 1624.33 408.781   4
   5  -6   1 326.715 163.331   5
   5  -6   2 144.668 126.843   5
   5  -6   3 686.635 243.813   5
   5  -6   4 1284.30 328.219   5
  -5   6  -4 697.635 266.118   7
   5  -6   5 94.8679 121.308   5
  -5   6  -5 250.681 157.137   7
   5  -6   6-16.8794 81.0579   5
  -5   6  -6 92.8706 111.835   7
   5  -6   7 254.324 287.872   4
   5  -6   7-125.011 162.765   5
   5  -6   8 155.784 251.689   4
   5  -6   9 70.2234 175.556   4
   5  -5  -9-80.0219 159.437   6
   5  -5  -8 348.854 211.715   6
   5  -5  -7 653.433 294.046   6
   5  -5  -6 39.4539 126.115   6
   5  -5  -5 1033.77 338.307   6
   5  -5  -4 561.706 260.166   6
   5  -5  -4-15.0561 110.667   4
   5  -5  -3 1227.55 318.147   6
   5  -5  -3 1053.77 246.316   4
   5  -5  -2 729.438 262.502   4
   5  -5  -2 515.059 200.439   5
   5  -5  -1 464.921 230.577   4
   5  -5  -1 336.973 133.491   5
   5  -5   0 750.744 296.616   4
   5  -5   0 183.190 160.600   5
   5  -5   1 893.683 315.309   4
   5  -5   1 467.895 182.573   5
   5  -5   2 1239.14 397.594   4
   5  -5   2 693.859 201.680   5
   5  -5   3 2343.68 485.753   4
   5  -5   3 1508.59 309.191   5
   5  -5   4 30.6282 106.969   5
  -5   5  -4 211.174 123.093   7
   5  -5   5 376.519 283.973   4
   5  -5   5 407.233 195.973   5
  -5   5  -5 245.127 143.432   7
   5  -5   6 594.734 331.034   4
   5  -5   6 194.230 131.473   5
   5  -5   7-154.573 148.045   4
   5  -5   7 66.3269 115.068   5
   5  -5   8 457.400 277.432   4
   5  -5   9 338.707 310.980   4
   5  -5  10-130.091 227.621   4
   5  -4 -10 280.523 267.058   6
   5  -4  -9 910.165 334.530   6
   5  -4  -8 75.9001 145.016   6
   5  -4  -7 113.524 156.195   6
   5  -4  -6 533.367 248.871   6
   5  -4  -5 135.499 93.6610   4
   5  -4  -5-3.27254 94.1768   6
   5  -4  -4 976.185 266.369   6
   5  -4  -4 1239.56 262.499   4
   5  -4  -3 2075.51 322.299   4
   5  -4  -3 2845.24 438.965   6
   5  -4  -2 1494.13 275.307   4
   5  -4  -1 115.000 126.432   4
   5  -4  -1 231.539 132.936   5
   5  -4   0 651.034 239.150   4
   5  -4   0 548.817 178.009   5
   5  -4   1 1273.07 319.329   4
   5  -4   1 841.048 197.786   5
   5  -4   2 4620.55 457.100   5
   5  -4   2 5136.22 611.264   4
   5  -4   3 788.912 316.673   4
   5  -4   3 784.112 205.224   5
   5  -4   4 543.533 247.576   4
   5  -4   4 550.997 175.723   5
  -5   4  -4 454.178 154.409   7
   5  -4   5 473.194 248.828   4
   5  -4   5 213.973 112.141   5
  -5   4  -5 397.170 139.589   7
   5  -4   6-18.6139 165.108   4
   5  -4   6 202.490 140.329   5
   5  -4   7 666.648 297.670   4
   5  -4   8 953.155 331.541   4
   5  -4   9 92.2775 159.987   4
   5  -4  10-332.097 305.496   4
   5  -4  11-297.630 345.226   4
   5  -3 -10 399.732 265.303   6
   5  -3  -9 1084.20 365.227   6
   5  -3  -8 395.428 251.125   6
   5  -3  -7 1706.14 388.582   6
   5  -3  -6 234.828 115.448   6
   5  -3  -5 1330.18 218.452   4
   5  -3  -5 1634.09 334.967   6
   5  -3  -4 392.028 156.960   4
   5  -3  -4 431.842 200.217   6
   5  -3  -3 726.956 214.696   6
   5  -3  -3 1101.02 245.144   4
   5  -3  -2 2636.17 353.659   4
   5  -3  -1 2229.00 301.495   5
   5  -3  -1 2783.70 388.365   4
   5  -3   0 2122.02 279.443   5
   5  -3   0 1700.30 308.570   4
   5  -3   1 3306.52 325.754   5
   5  -3   1 2763.62 415.365   4
  -5   3  -1 3145.98 312.858   5
   5  -3   2 2700.58 298.629   5
   5  -3   2 2293.58 402.689   4
   5  -3   3 3431.70 346.845   5
   5  -3   3 3489.71 499.639   4
  -5   3  -3 3311.53 330.542   7
   5  -3   4 483.405 190.751   4
   5  -3   4 357.012 133.161   5
  -5   3  -4 401.860 114.316   7
   5  -3   5-98.1340 172.401   4
  -5   3  -5 160.603 82.9769   7
   5  -3   5 292.779 141.736   5
   5  -3   6 4447.92 462.078   5
   5  -3   6 5239.07 677.805   4
   5  -3   7 1566.86 389.291   4
   5  -3   8 168.756 173.063   4
   5  -3   9-243.812 306.540   4
   5  -3  10-589.794 313.814   4
   5  -2 -11-26.3720 176.766   6
   5  -2 -10 22.0719 135.415   6
  -5   2   9 1553.53 406.279   2
   5  -2  -9 401.640 192.968   6
  -5   2   8 2439.90 480.230   2
   5  -2  -8 1623.40 383.416   6
  -5   2   7 1232.48 351.429   2
   5  -2  -7 825.577 255.837   6
  -5   2   6 851.411 336.304   2
   5  -2  -6 436.354 209.527   6
   5  -2  -5 193.843 73.6578   4
   5  -2  -5 269.164 126.504   6
  -5   2   4 2278.73 437.805   2
   5  -2  -4 2179.84 337.133   6
   5  -2  -4 2253.94 294.734   4
   5  -2  -3 1783.74 285.434   6
  -5   2   3 1667.40 386.909   2
   5  -2  -3 1430.90 260.148   4
   5  -2  -2 571.126 202.493   4
  -5   2   2 553.969 256.963   2
   5  -2  -1 1683.19 294.486   4
  -5   2   1 1658.05 369.250   2
  -5   2   1 1190.92 194.422   5
   5  -2   0-99.8813 187.787   4
  -5   2   0 43.2102 48.8327   5
   5  -2   1 1474.63 170.250   5
   5  -2   1 1086.01 261.100   4
  -5   2  -1 1499.66 167.498   5
   5  -2   2 2276.72 209.046   5
   5  -2   2 1615.01 305.009   4
   5  -2   3 526.891 196.608   4
   5  -2   3 860.871 141.589   5
  -5   2  -3 946.816 134.980   7
   5  -2   4 3376.37 489.360   4
   5  -2   4 3459.12 307.886   5
  -5   2  -4 2436.28 191.840   7
   5  -2   5 7367.06 497.146   5
   5  -2   5 7729.00 781.338   4
   5  -2   6 1780.92 391.120   4
   5  -2   6 1968.33 292.031   5
   5  -2   7 1059.27 338.101   4
   5  -2   8 677.114 293.890   4
   5  -2   9 630.403 271.376   4
   5  -2  10 179.401 214.347   4
   5  -1 -11 215.367 242.584   6
  -5   1  10 409.465 225.083   2
   5  -1 -10 142.096 116.293   6
  -5   1   9 174.742 169.646   2
   5  -1  -9 179.265 182.680   6
   5  -1  -8 2089.26 411.764   6
  -5   1   8 2619.34 462.171   2
  -5   1   7 1098.72 293.692   2
   5  -1  -7 1254.93 288.935   6
  -5   1   6 647.456 207.550   2
   5  -1  -6 1239.35 274.081   6
  -5   1   5 449.425 168.432   2
   5  -1  -5 549.824 165.571   6
   5  -1  -4 247.030 155.918   4
  -5   1   4 44.5218 108.694   2
   5  -1  -4-50.4327 90.7473   6
  -5   1   3 736.536 237.083   2
   5  -1  -3 643.065 187.519   4
   5  -1  -3 756.505 168.127   6
  -5   1   2 13760.4 623.093   5
  -5   1   2 15085.9 939.577   2
   5  -1  -2 13938.8 680.335   6
   5  -1  -2 15155.9 832.064   4
  -5   1   1 2964.32 241.427   5
  -5   1   1 3103.17 451.514   2
   5  -1  -1 3004.53 378.844   4
  -5   1   0 3082.79 181.463   5
  -5   1   0 3827.49 474.086   2
   5  -1   0 3363.81 428.999   4
  -5   1  -1 3770.63 451.527   2
   5  -1   1 3371.82 446.714   4
   5  -1   2 7673.22 482.880   6
   5  -1   2 8225.52 708.209   4
   5  -1   3 3247.45 199.139   5
   5  -1   3 3910.14 514.113   4
   5  -1   4 1408.33 328.289   4
   5  -1   4 750.785 127.367   5
   5  -1   5 10055.9 532.068   5
   5  -1   5 10938.5 901.695   4
   5  -1   6 1485.22 370.991   4
   5  -1   7 268.742 189.192   4
   5  -1   7 181.894 154.203   1
   5  -1   8 172.107 194.825   4
   5  -1   8-98.8860 137.001   1
   5  -1   9 431.268 243.773   4
   5  -1   9 9.23675 110.041   1
   5  -1  10 0.36350 140.224   1
   5   0 -12 277.517 209.555   6
   5   0 -11 88.1119 152.445   6
  -5   0  11-160.779 163.086   2
  -5   0  10-116.466 193.060   2
   5   0 -10-90.0249 147.551   6
  -5   0   9 753.560 199.980   2
   5   0  -9 1174.40 328.010   6
  -5   0   8-153.952 189.251   2
   5   0  -8-16.1075 105.622   6
  -5   0   7 841.783 246.029   2
   5   0  -7 1454.64 312.844   6
  -5   0   6 3546.60 503.803   2
   5   0  -6 3962.70 472.942   6
  -5   0   5 2878.57 438.100   2
   5   0  -5 3093.84 390.533   6
  -5   0   4 16561.7 1007.24   2
   5   0  -4 16547.4 806.334   6
  -5   0   3 6548.78 621.034   2
   5   0  -3 6407.52 450.381   6
   5   0  -3 6552.35 541.776   4
  -5   0   2 6065.53 368.222   5
  -5   0   2 5781.66 567.833   2
   5   0  -2 6051.82 394.330   6
   5   0  -2 6139.07 534.882   4
  -5   0   1 7413.15 294.428   5
  -5   0   1 8493.67 669.324   2
  -5   0   1 7653.11 504.071   7
   5   0  -1 7732.44 395.641   6
   5   0  -1 8498.82 650.118   4
  -5   0   0 4410.48 470.601   2
  -5   0   0 4875.16 359.919   7
   5   0   0 4701.56 510.618   4
  -5   0  -1 599.111 95.2939   7
   5   0   1 484.912 107.182   6
   5   0   1 540.805 215.008   4
  -5   0  -1 934.335 245.739   2
  -5   0  -2 2976.06 383.055   2
   5   0   2 2309.16 238.546   6
   5   0   2 2901.49 426.153   4
   5   0   3 801.019 154.811   6
   5   0   3 987.518 270.704   4
   5   0   4 5860.41 321.399   5
   5   0   4 7197.06 712.088   4
   5   0   5 2470.52 445.216   1
   5   0   5 2297.88 431.508   4
   5   0   6 1330.37 334.627   1
   5   0   6 1555.37 369.608   4
   5   0   7 424.093 206.375   1
   5   0   7 838.032 297.055   4
   5   0   8-126.815 157.756   1
   5   0   8 379.942 248.361   4
   5   0   9 17.8081 134.852   1
   5   0   9 206.940 161.794   4
   5   0  10-221.666 193.946   1
   5   1 -12 356.062 250.702   6
  -5  -1  11 11.0219 169.084   2
   5   1 -11 51.6692 127.609   6
  -5  -1  10-32.2839 111.689   2
   5   1 -10 60.1164 136.494   6
  -5  -1   9 927.381 290.610   2
   5   1  -9 1385.75 353.738   6
  -5  -1   8 427.163 188.301   2
   5   1  -8 401.584 187.763   6
  -5  -1   7 315.511 199.231   2
  -5  -1   7 336.475 128.438   3
   5   1  -7 252.591 122.801   6
  -5  -1   6 1158.43 300.374   2
   5   1  -6 1329.42 261.650   6
  -5  -1   5 8350.57 735.507   2
   5   1  -5 9140.59 632.466   6
  -5  -1   4 13544.6 910.833   2
   5   1  -4 13087.6 683.713   6
  -5  -1   3 7107.51 637.644   2
   5   1  -3 6811.44 433.346   6
  -5  -1   2 18461.9 1001.32   2
   5   1  -2 20108.3 596.228   6
   5   1  -2 20098.6 989.693   4
  -5  -1   1 4050.72 453.898   2
  -5  -1   1 3674.79 182.747   5
  -5  -1   1 4203.55 356.620   7
   5   1  -1 3522.07 195.683   6
   5   1  -1 4137.56 460.849   4
  -5  -1   0 4175.77 455.174   2
  -5  -1   0 4282.50 292.592   7
   5   1   0 4074.93 481.633   4
  -5  -1  -1 332.935 60.9172   7
  -5  -1  -1 347.562 122.400   2
   5   1   1 178.189 41.3937   6
   5   1   1 210.278 152.774   4
  -5  -1  -2 7225.17 566.053   2
   5   1   2 6223.17 316.360   6
   5   1   2 6981.45 651.681   4
   5   1   3 4058.68 206.646   5
  -5  -1  -3 5375.78 475.777   2
   5   1   3 4488.62 333.497   6
   5   1   3 4863.44 566.837   4
   5   1   4 7775.08 734.614   4
   5   1   4 7179.37 746.033   1
   5   1   5 930.606 284.448   1
   5   1   5 939.799 287.799   4
  -5  -1  -6 792.062 206.694   6
   5   1   6 318.533 192.778   1
   5   1   6 497.117 204.459   4
   5   1   7 181.429 172.300   1
   5   1   7 706.903 264.617   4
   5   1   8 98.3339 166.218   1
  -5  -1  -8 398.443 230.231   3
   5   1   9 161.168 195.489   1
   5   1  10-185.552 199.451   1
  -5  -2  12 804.152 299.154   2
   5   2 -12 615.230 287.560   6
  -5  -2  11 714.076 281.496   2
   5   2 -11 836.998 330.140   6
  -5  -2  10 37.8758 155.473   2
   5   2 -10 85.6350 167.503   6
  -5  -2   9 1715.04 396.819   2
   5   2  -9 2275.21 433.670   6
  -5  -2   8 1471.10 351.194   2
  -5  -2   8 1564.29 242.637   3
   5   2  -8 1691.47 354.473   6
  -5  -2   7 2201.85 422.794   2
  -5  -2   7 2010.31 310.072   3
   5   2  -7 1769.49 334.812   6
  -5  -2   6 1258.16 301.966   2
  -5  -2   6 1044.40 240.151   3
   5   2  -6 1081.60 246.807   6
  -5  -2   5 1686.16 311.600   3
   5   2  -5 1739.49 274.854   6
  -5  -2   4 1641.23 220.041   6
   5   2  -4 1397.85 209.531   6
  -5  -2   3 233.280 89.9128   5
   5   2  -3 84.7207 38.6069   6
  -5  -2   2 9777.37 736.770   2
  -5  -2   2 9623.25 465.390   5
   5   2  -2 9330.97 282.930   6
  -5  -2   1 17500.2 955.395   2
  -5  -2   1 16177.9 518.748   5
  -5  -2   1 17311.6 717.282   7
  -5  -2   0 2466.97 173.609   5
  -5  -2   0 3491.60 415.304   2
  -5  -2   0 3765.36 287.623   7
   5   2   0 3763.80 481.360   4
  -5  -2  -1 2007.61 314.424   2
   5   2   1 1732.09 327.911   4
   5   2   2 81.0682 39.7453   5
  -5  -2  -2 45.0828 94.9262   2
   5   2   2 47.9231 122.590   4
  -5  -2  -3 7695.65 554.079   2
   5   2   3 6534.99 674.465   4
   5   2   3 6801.70 726.883   1
  -5  -2  -4 984.578 198.588   2
  -5  -2  -4 849.668 163.256   6
   5   2   4 1078.95 303.107   4
   5   2   5 955.327 315.120   1
  -5  -2  -5 1230.81 348.491   3
   5   2   5 1146.24 321.158   4
  -5  -2  -6 836.386 328.916   3
   5   2   6 974.051 310.455   1
   5   2   6 1002.93 308.713   4
   5   2   7-324.168 219.793   1
  -5  -2  -7-9.82438 116.111   3
   5   2   7 157.339 152.989   4
   5   2   8 788.495 324.880   1
  -5  -2  -8 913.384 336.820   3
   5   2   9 278.102 257.963   1
  -5  -3  12 321.681 192.165   2
   5   3 -12 413.243 258.181   6
  -5  -3  11 177.397 159.314   2
   5   3 -11 73.3570 145.250   6
  -5  -3  10 477.244 255.434   2
   5   3 -10 271.590 196.021   6
   5   3  -9 1346.03 355.977   6
   5   3  -8 144.965 114.915   6
  -5  -3   8 321.214 132.748   3
  -5  -3   7 3413.09 432.336   3
   5   3  -7 3565.08 478.525   6
  -5  -3   6 268.017 135.313   3
   5   3  -6 435.606 168.455   6
  -5  -3   5 46.4722 124.106   3
   5   3  -5 88.8434 94.8494   6
  -5  -3   4 2275.75 313.176   5
  -5  -3   4 2440.98 411.074   3
   5   3  -4 2120.18 249.497   6
  -5  -3   4 2187.40 246.845   6
  -5  -3   3 3257.81 339.871   5
  -5  -3   3 3787.50 520.581   3
   5   3  -3 3174.10 405.093   7
  -5  -3   3 2923.44 217.320   6
  -5  -3   2 2308.18 270.192   5
  -5  -3   2 2628.83 441.973   3
   5   3  -2 2433.49 334.311   7
  -5  -3   1 624.289 135.700   5
  -5  -3   1 788.208 277.777   3
   5   3  -1 453.149 140.547   7
  -5  -3   0 331.308 94.9703   5
  -5  -3   0 324.573 197.684   3
   5   3   0 341.144 122.937   7
  -5  -3  -1 5656.46 533.701   2
   5   3   1 5044.79 334.482   5
  -5  -3  -1 6075.84 722.326   3
   5   3   1 5942.31 383.070   7
  -5  -3  -2 558.217 167.134   2
  -5  -3  -2 410.692 211.282   3
   5   3   2 415.709 90.0387   7
  -5  -3  -3 4166.51 412.076   2
  -5  -3  -3 4802.73 691.521   3
   5   3   3 4625.75 635.513   1
   5   3   4 285.360 191.306   1
  -5  -3  -4 583.641 241.461   3
  -5  -3  -5 136.496 173.795   3
   5   3   5 40.7760 144.972   1
   5   3   6-144.603 146.173   1
  -5  -3  -6 100.958 118.817   3
   5   3   7 191.143 205.673   1
  -5  -3  -7 804.309 303.492   3
   5   3   8 380.506 272.889   1
   5   4 -13-250.430 293.748   6
  -5  -4  12 169.717 149.356   2
   5   4 -12 221.413 230.511   6
   5   4 -11 53.8882 104.981   6
   5   4 -10 236.347 218.596   6
   5   4  -9 2307.23 434.382   6
   5   4  -8-49.1947 117.898   6
  -5  -4   8-8.59508 84.1577   3
   5   4  -7 337.026 151.671   6
  -5  -4   7 225.460 161.498   3
   5   4  -6 192.336 96.6482   7
  -5  -4   6 343.666 170.767   5
   5   4  -6 332.654 138.699   6
  -5  -4   6 494.362 194.233   3
  -5  -4   5 3812.91 460.908   5
  -5  -4   5 3251.91 480.438   3
   5   4  -5 3249.16 479.271   7
   5   4  -5 3000.89 338.941   6
  -5  -4   4 6528.46 563.903   5
  -5  -4   4 6468.09 693.362   3
   5   4  -4 6649.42 651.388   7
  -5  -4   4 6176.62 400.072   6
  -5  -4   3 430.061 143.337   5
   5   4  -3 812.390 218.532   7
  -5  -4   3 464.651 220.737   3
  -5  -4   3 640.320 105.872   6
  -5  -4   2 3104.10 354.620   5
  -5  -4   2 3068.78 499.839   3
   5   4  -2 2830.14 370.043   7
  -5  -4   1 2198.67 288.536   5
   5   4  -1 2300.36 322.084   7
  -5  -4   1 2768.32 492.424   3
  -5  -4   0 4204.22 392.877   5
  -5  -4   0 5513.63 710.258   3
   5   4   0 4067.92 396.447   7
  -5  -4  -1 1475.90 242.979   5
   5   4   1 1657.65 239.549   7
  -5  -4  -1 1506.86 377.536   3
  -5  -4  -2 1441.86 392.320   3
   5   4   3 1025.31 307.929   1
  -5  -4  -3 1522.25 269.387   2
  -5  -4  -3 1184.17 349.411   3
   5   4   4-81.6813 160.354   1
  -5  -4  -4 388.780 249.433   3
  -5  -4  -5 894.181 358.014   3
   5   4   5 379.531 234.626   1
   5   4   6 363.969 263.290   1
  -5  -4  -6 661.539 327.674   3
   5   4   7 0.42930 190.338   1
  -5  -4  -7 705.189 304.288   3
   5   5 -12 306.892 240.601   6
   5   5 -11 145.326 186.412   6
   5   5 -10 292.646 244.748   6
  -5  -5   9 1333.38 381.525   5
   5   5  -9 1081.30 326.572   6
   5   5  -8 1668.77 411.517   7
  -5  -5   8 1589.20 397.776   5
   5   5  -8 1344.06 338.761   6
   5   5  -7 250.580 162.650   7
   5   5  -7 306.312 160.220   6
  -5  -5   7 501.678 220.729   5
  -5  -5   7 405.482 180.339   3
   5   5  -6 666.480 238.941   7
  -5  -5   6 329.936 156.045   5
  -5  -5   6 551.483 211.905   3
   5   5  -5 1751.86 377.723   7
  -5  -5   5 1916.30 345.484   5
  -5  -5   5 1627.32 373.418   3
  -5  -5   4 4283.86 499.757   5
   5   5  -4 4599.55 552.600   7
  -5  -5   4 4668.46 630.166   3
  -5  -5   3 510.630 173.807   5
   5   5  -3 655.468 207.726   7
  -5  -5   3 300.330 182.669   3
  -5  -5   2 1199.13 252.822   5
   5   5  -2 1352.21 275.636   7
  -5  -5   2 1369.58 383.636   3
  -5  -5   1 801.981 206.153   5
   5   5  -1 834.502 220.885   7
  -5  -5   1 689.258 297.173   3
  -5  -5   0 449.083 172.434   5
   5   5   0 104.691 85.4446   7
  -5  -5   0 471.424 260.441   3
  -5  -5  -1 426.717 173.353   5
   5   5   1 427.712 135.184   7
  -5  -5  -1 814.083 321.235   3
  -5  -5  -2-93.0388 172.010   3
   5   5   2-202.698 209.837   1
   5   5   3 303.971 150.283   1
  -5  -5  -3 243.391 199.472   3
   5   5   4-99.2021 191.598   1
  -5  -5  -4 141.011 145.987   3
  -5  -5  -5 270.936 201.273   3
   5   5   5 25.6675 185.849   1
   5   5   6 118.442 214.281   1
  -5  -5  -6 199.125 230.956   3
  -5  -5  -7 105.040 192.308   3
   5   6 -12 328.380 263.663   6
  -5  -6  11-29.4493 119.671   5
   5   6 -11 26.3974 143.175   6
   5   6 -10 88.7195 125.307   6
  -5  -6  10 440.886 248.750   5
   5   6  -9-8.11258 124.136   7
  -5  -6   9-64.6708 165.469   5
   5   6  -8 505.830 233.262   7
  -5  -6   8 279.951 172.768   5
   5   6  -7 352.460 225.197   7
  -5  -6   7 361.656 198.778   5
  -5  -6   7-74.1495 111.937   3
  -5  -6   6 3179.59 500.099   5
   5   6  -6 2662.95 477.671   7
  -5  -6   6 2242.03 460.096   3
  -5  -6   5 846.052 257.811   5
   5   6  -5 615.870 278.529   7
  -5  -6   5 480.235 217.577   3
  -5  -6   4 2148.66 387.718   5
   5   6  -4 2129.03 402.111   7
  -5  -6   4 2178.68 463.785   3
  -5  -6   3 582.305 188.753   5
   5   6  -3 528.687 206.927   7
  -5  -6   3 710.632 281.034   3
  -5  -6   2 2851.29 418.313   5
   5   6  -2 2666.27 428.181   7
  -5  -6   2 3366.96 597.790   3
  -5  -6   1 964.239 269.625   5
   5   6  -1 949.084 237.916   7
  -5  -6   1 647.991 288.776   3
  -5  -6   0 2189.76 378.105   5
   5   6   0 2084.13 357.744   7
  -5  -6   0 1610.55 420.263   3
  -5  -6  -1 33.4148 75.1922   5
  -5  -6  -1 41.9613 157.864   3
   5   6   2-428.311 244.257   1
  -5  -6  -2 484.078 310.868   3
   5   6   3-397.919 244.492   1
  -5  -6  -3 99.0011 137.488   3
   5   6   4 66.2718 184.145   1
  -5  -6  -4 519.792 277.636   3
  -5  -6  -5 135.274 182.682   3
   5   6   5-223.216 219.171   1
  -5  -6  -6 266.703 171.470   3
  -5  -7  11 38.6048 158.888   5
   5   7 -10 110.301 139.094   7
  -5  -7  10 386.227 239.867   5
   5   7  -9 509.891 256.421   7
  -5  -7   9 194.429 219.006   5
   5   7  -8 666.338 316.030   7
  -5  -7   8 477.753 220.452   5
  -5  -7   7 255.191 229.919   5
   5   7  -7-62.5252 196.911   7
  -5  -7   6 2945.30 566.077   3
  -5  -7   6 3346.94 572.255   5
   5   7  -6 2853.34 525.315   7
  -5  -7   5 430.546 201.493   5
   5   7  -5 192.851 158.364   7
  -5  -7   5 314.893 204.770   3
  -5  -7   4 647.582 245.435   5
   5   7  -4 516.663 217.126   7
  -5  -7   4 571.118 274.363   3
  -5  -7   3 386.430 198.069   5
   5   7  -3 324.900 200.192   7
  -5  -7   3 281.603 195.727   3
  -5  -7   2 144.701 127.186   5
   5   7  -2-40.7702 123.402   7
  -5  -7   2-58.5142 183.451   3
  -5  -7   1 217.677 155.609   5
   5   7  -1 62.6812 171.878   7
  -5  -7   1 350.118 234.935   3
  -5  -7   0 323.070 262.020   5
   5   7   0 28.3497 107.512   7
  -5  -7   0 37.5815 153.627   3
  -5  -7  -1-154.116 226.369   3
  -5  -7  -2-30.0404 226.360   3
  -5  -7  -3 131.210 146.399   3
   5   7   3-399.075 254.514   1
   5   7   4-303.182 233.960   1
  -5  -7  -4-237.475 217.035   3
  -5  -7  -5-176.681 165.362   3
  -5  -8  10 145.329 184.086   5
  -5  -8   9-35.0467 140.177   5
   5   8  -9 228.472 230.461   7
  -5  -8   8 948.153 362.577   5
   5   8  -8 578.241 309.947   7
  -5  -8   7 619.094 283.814   5
   5   8  -7 517.168 251.686   7
  -5  -8   6 1909.96 448.919   5
   5   8  -6 2243.85 503.144   7
  -5  -8   5 19.5576 124.802   5
   5   8  -5-47.3440 198.381   7
  -5  -8   4-114.226 139.258   5
   5   8  -4 38.3687 134.730   7
  -5  -8   4 94.3188 128.320   3
  -5  -8   3-98.4115 85.9235   5
   5   8  -3-178.039 143.650   7
  -5  -8   3-5.37587 135.759   3
  -5  -8   2 232.685 154.803   5
   5   8  -2-20.3514 115.237   7
  -5  -8   2 253.640 208.812   3
  -5  -8   1 48.6727 142.679   5
   5   8  -1-112.013 138.829   7
  -5  -8   1-28.3974 180.716   3
  -5  -8   0-9.88758 91.2573   5
  -5  -8   0 157.777 221.767   3
  -5  -8  -1-13.6208 170.713   3
  -5  -8  -2 136.360 136.540   3
  -5  -9   8-150.494 198.944   5
   5   9  -8-371.737 248.757   7
  -5  -9   7 401.949 255.022   5
   5   9  -7 323.655 227.968   7
  -5  -9   6 731.716 320.916   5
   5   9  -6 329.372 222.265   7
  -5  -9   5-27.9707 165.467   5
   5   9  -5 307.234 206.101   7
  -5  -9   4 61.3362 146.825   5
   5   9  -4-65.5549 183.156   7
  -5  -9   3-88.5471 144.762   5
   5   9  -3 276.365 192.534   7
  -5  -9   2 457.220 303.326   3
  -5  -9   2 101.198 130.023   5
  -5  -9   1 224.558 195.099   3
  -5 -10   6 256.406 191.182   5
  -5 -10   5 97.1357 200.809   5
   5  10  -5-108.336 166.801   7
  -5 -10   4-110.601 139.170   5
   5  10  -4-216.855 196.350   7
  -5 -10   3-132.488 153.867   5
   5  10  -3-186.312 169.355   7
   6 -10   1 11.7194 134.917   5
   6 -10   2 206.546 167.572   5
   6 -10   3-54.2779 113.643   5
   6  -9  -2-110.938 117.267   5
   6  -9  -1 222.659 217.174   5
   6  -9   0 114.307 155.850   5
   6  -9   0 462.852 293.278   4
   6  -9   1 148.744 162.408   5
   6  -9   1 467.332 347.123   4
   6  -9   2 1365.26 488.875   4
   6  -9   2-46.1969 122.288   5
   6  -9   3 16.3140 122.746   5
  -6   9  -3-391.723 236.532   7
  -6   9  -4 132.671 135.610   7
   6  -8  -4 82.6121 215.434   6
   6  -8  -3 165.298 227.626   6
   6  -8  -2 51.3386 147.634   5
   6  -8  -1 87.8978 118.783   5
   6  -8  -1 83.3283 157.432   4
   6  -8   0 437.551 242.316   5
   6  -8   0 514.099 271.344   4
   6  -8   1 203.376 313.307   4
   6  -8   1-28.7298 130.381   5
   6  -8   2 1039.23 423.272   4
   6  -8   2-107.161 130.522   5
   6  -8   3 563.143 347.360   4
   6  -8   3-28.0555 116.181   5
  -6   8  -3 274.942 191.478   7
   6  -8   4 753.340 378.964   4
   6  -8   4 428.677 220.017   5
  -6   8  -4-61.2500 108.593   7
   6  -8   5 949.319 417.442   4
   6  -7  -6 373.235 214.938   6
   6  -7  -5-43.7625 148.498   6
   6  -7  -4-67.5999 140.887   6
   6  -7  -3 6.24960 140.348   6
   6  -7  -2-140.616 147.433   5
   6  -7  -2-30.9070 169.500   4
   6  -7  -1 96.2658 175.930   4
   6  -7  -1 282.451 191.997   5
   6  -7   0 1010.22 373.335   4
   6  -7   0 589.298 250.886   5
   6  -7   1 723.910 357.645   4
   6  -7   1 770.677 271.213   5
   6  -7   2 267.192 255.467   4
   6  -7   2 71.6821 132.525   5
   6  -7   3 726.350 376.375   4
   6  -7   3 418.985 227.875   5
   6  -7   4 151.964 197.541   5
  -6   7  -4 84.9650 157.031   7
   6  -7   5 706.701 318.263   4
   6  -7   6-6.89780 186.169   4
   6  -6  -7 106.181 154.805   6
   6  -6  -6 98.8708 127.269   6
   6  -6  -5 216.034 160.778   6
   6  -6  -4 91.3770 98.7019   6
   6  -6  -3-40.2965 162.924   6
   6  -6  -3 1.29930 118.526   4
   6  -6  -2 115.866 137.795   4
   6  -6  -1 13.2514 197.741   4
   6  -6  -1 209.939 137.049   5
   6  -6   0 675.926 293.202   4
   6  -6   0 421.139 214.931   5
   6  -6   1 635.811 292.618   4
   6  -6   1 2.14630 111.993   5
   6  -6   2 1286.89 400.809   4
   6  -6   2 1215.68 300.561   5
   6  -6   3 761.743 371.714   4
   6  -6   3 435.260 174.167   5
   6  -6   4 529.510 280.185   4
   6  -6   4 279.262 160.698   5
  -6   6  -4 367.462 186.981   7
   6  -6   5 642.804 352.933   4
   6  -6   6 654.248 339.041   4
   6  -6   7 929.586 348.168   4
   6  -5  -8 343.787 218.821   6
   6  -5  -7 203.005 182.089   6
   6  -5  -6-170.274 203.947   6
   6  -5  -5-46.3818 143.680   6
   6  -5  -4 280.163 205.170   6
   6  -5  -4 350.369 196.452   4
   6  -5  -3 438.976 206.769   6
   6  -5  -3 254.245 133.147   4
   6  -5  -2 220.525 174.488   4
   6  -5  -1 204.469 136.860   4
   6  -5  -1 49.3500 99.6034   5
   6  -5   0 999.404 300.014   4
   6  -5   0 684.849 228.046   5
   6  -5   1 91.4625 182.724   4
   6  -5   1-75.1924 71.3968   5
   6  -5   2 599.856 296.827   4
   6  -5   2 563.230 184.748   5
   6  -5   3 44.8542 164.864   4
   6  -5   3 122.561 129.452   5
   6  -5   4 50.8363 158.723   4
  -6   5  -4 118.316 119.726   7
   6  -5   5-20.3894 166.530   4
   6  -5   6-312.646 227.932   4
   6  -5   7 1627.46 462.501   4
   6  -5   8-111.215 161.826   4
   6  -4  -9 516.565 285.417   6
   6  -4  -8-64.7902 201.240   6
   6  -4  -7 49.9852 154.915   6
   6  -4  -6 137.502 171.664   6
   6  -4  -5 471.634 145.050   4
   6  -4  -5 587.069 229.343   6
   6  -4  -4 530.574 216.288   6
   6  -4  -4 660.737 191.523   4
   6  -4  -3 1062.84 288.149   6
   6  -4  -3 1736.13 345.913   4
   6  -4  -2 107.914 152.008   4
   6  -4  -1-144.703 213.784   4
   6  -4   0 901.799 256.533   4
   6  -4   0 1364.68 263.020   5
   6  -4   1 118.451 130.775   4
   6  -4   1 143.217 92.1925   5
   6  -4   2 31.5903 196.767   4
   6  -4   2-43.1610 50.6276   5
   6  -4   3 534.507 201.126   4
   6  -4   3 516.623 157.341   5
  -6   4  -3 304.175 145.132   7
   6  -4   4 249.489 150.175   4
   6  -4   5 294.703 216.959   4
   6  -4   6 482.727 258.440   4
   6  -4   7 961.632 358.830   4
   6  -4   8-272.302 291.649   4
   6  -4   9-215.447 332.887   4
   6  -3 -10 493.210 318.108   6
   6  -3  -9-66.6364 169.215   6
   6  -3  -8 368.266 205.270   6
   6  -3  -7 198.283 197.995   6
   6  -3  -6 352.352 188.477   6
   6  -3  -5 1229.77 245.621   4
   6  -3  -5 1109.70 289.846   6
   6  -3  -4 959.178 255.254   6
   6  -3  -4 925.238 244.652   4
   6  -3  -3 557.148 170.895   4
   6  -3  -3 899.735 247.547   6
   6  -3  -2 707.777 226.958   4
   6  -3  -1 746.767 256.701   4
   6  -3   0-218.719 208.498   4
   6  -3   1 152.237 169.387   4
   6  -3   1 366.535 108.599   5
   6  -3   2 282.857 172.523   4
   6  -3   2 136.823 61.1630   5
   6  -3   3 2864.67 494.406   4
  -6   3  -3 2082.14 264.156   7
   6  -3   4 805.459 290.413   4
   6  -3   5 2046.24 450.568   4
   6  -3   6 1429.38 364.204   4
   6  -3   7 46.3089 176.092   4
   6  -3   8 208.179 243.109   4
   6  -3   9 397.881 331.287   4
   6  -3  10-44.5823 153.708   4
   6  -2 -11 180.808 152.370   6
   6  -2 -10-108.125 180.680   6
  -6   2   9 465.862 280.843   2
   6  -2  -9 17.0095 108.692   6
  -6   2   8 867.205 344.465   2
   6  -2  -8 686.822 275.453   6
  -6   2   7 950.392 349.507   2
   6  -2  -7 573.493 222.197   6
  -6   2   6 1327.64 407.999   2
   6  -2  -6 1124.92 286.003   6
  -6   2   5 1009.55 380.457   2
   6  -2  -5 811.538 200.620   4
   6  -2  -5 594.396 213.917   6
  -6   2   4 1399.38 383.035   2
   6  -2  -4 1131.47 234.326   4
   6  -2  -4 1195.61 270.124   6
   6  -2  -3 805.379 207.960   6
  -6   2   3 878.421 299.663   2
   6  -2  -3 575.279 204.313   4
   6  -2  -2 721.258 215.401   4
   6  -2  -2 935.149 214.098   6
  -6   2   2 1473.99 394.060   2
  -6   2   1 2445.12 270.389   5
  -6   2   1 2837.61 493.273   2
   6  -2  -1 2940.57 436.147   4
   6  -2   0 709.120 259.158   4
  -6   2   0 425.691 97.2709   5
   6  -2   1 3063.34 473.953   4
   6  -2   2 2553.82 466.639   4
   6  -2   3 2926.32 502.557   4
   6  -2   4 4620.45 634.248   4
   6  -2   5 816.743 323.514   4
   6  -2   6 1316.95 386.310   4
   6  -2   7 446.399 232.356   4
   6  -2   8 193.685 187.414   4
   6  -2   9 773.712 316.413   4
   6  -2  10 231.401 215.755   4
   6  -1 -11 69.1858 176.529   6
  -6   1  10 136.344 189.264   2
   6  -1 -10 140.411 179.811   6
  -6   1   9 846.344 292.517   2
   6  -1  -9 588.426 283.706   6
   6  -1  -8 218.874 170.310   6
  -6   1   8-50.8183 141.713   2
   6  -1  -7 1064.20 276.401   6
  -6   1   7 939.763 314.398   2
  -6   1   6 788.996 278.619   2
   6  -1  -6 606.746 208.939   6
   6  -1  -5 193.607 138.187   4
  -6   1   5 197.127 191.829   2
   6  -1  -5 41.9037 89.9976   6
   6  -1  -4 2113.66 324.154   6
   6  -1  -4 2000.07 323.365   4
  -6   1   4 1480.06 352.441   2
   6  -1  -3 2821.04 339.716   6
   6  -1  -3 2572.64 383.679   4
  -6   1   3 3230.32 497.014   2
   6  -1  -2 199.140 108.744   6
  -6   1   2 189.404 175.894   2
  -6   1   2 137.458 83.0230   5
   6  -1  -2 15.6500 111.874   4
  -6   1   1 1910.44 395.144   2
  -6   1   1 1375.21 159.285   5
   6  -1  -1 1589.34 326.343   4
   6  -1   0 964.275 275.661   4
  -6   1   0 913.187 265.285   2
   6  -1   1 869.697 280.534   4
  -6   1  -1 1085.81 308.244   2
   6  -1   2 7657.29 746.875   4
   6  -1   3 1828.38 393.996   4
   6  -1   4 202.313 146.606   4
   6  -1   5 278.136 208.636   4
   6  -1   6 245.942 215.784   4
   6  -1   7-0.32273 169.459   4
   6  -1   8-15.2571 173.116   4
   6  -1   9 68.0728 143.290   4
   6   0 -12 20.9908 148.854   6
   6   0 -11 21.2529 168.631   6
  -6   0  11 44.7112 186.216   2
  -6   0  10 97.9899 153.755   2
   6   0 -10 101.058 124.162   6
  -6   0   9 592.075 251.590   2
   6   0  -9 783.462 275.869   6
  -6   0   8 1159.12 332.310   2
   6   0  -8 954.232 286.717   6
  -6   0   7 346.548 227.113   2
   6   0  -7 449.665 196.437   6
  -6   0   6 472.661 187.618   2
   6   0  -6 690.878 233.413   6
   6   0  -5 3099.93 404.317   6
  -6   0   5 2770.02 461.034   2
  -6   0   4 5610.60 648.330   2
   6   0  -4 6428.80 593.231   4
   6   0  -4 5952.18 495.835   6
  -6   0   3 10341.0 575.930   5
  -6   0   3 10360.5 857.190   2
   6   0  -3 10670.8 610.809   6
   6   0  -3 10752.4 776.962   4
  -6   0   2 2776.13 241.402   5
   6   0  -2 3081.16 292.061   6
  -6   0   2 3038.57 442.768   2
   6   0  -2 2649.75 395.265   4
   6   0  -1 2545.91 242.458   6
  -6   0   1 2476.80 412.476   2
   6   0  -1 2655.45 397.251   4
  -6   0   0 2865.44 438.721   2
  -6   0   0 2616.64 272.482   7
   6   0   0 2874.98 429.625   4
  -6   0  -1 1335.41 332.458   2
  -6   0  -1 930.897 120.180   7
   6   0   1 831.102 142.513   6
   6   0   1 1092.66 281.106   4
  -6   0  -2 5394.53 572.138   2
   6   0   2 5006.57 607.205   4
   6   0   3 689.284 258.247   4
   6   0   4 822.316 291.576   4
   6   0   5 103.527 134.574   4
   6   0   6-43.7932 113.192   4
   6   0   7 334.960 248.879   4
   6   0   8 7.47134 151.157   4
   6   0   9-255.324 208.281   1
   6   0   9 55.8175 162.658   4
   6   1 -12-134.811 177.703   6
  -6  -1  11-401.607 239.395   2
   6   1 -11 200.487 205.405   6
  -6  -1  10 10.1106 130.475   2
   6   1 -10 63.1677 126.723   6
  -6  -1   9 616.615 260.439   2
   6   1  -9 1117.93 324.867   6
  -6  -1   8 1124.05 336.994   2
   6   1  -8 1269.21 316.749   6
  -6  -1   7 336.516 199.000   2
   6   1  -7 101.257 90.4336   6
  -6  -1   6 829.026 274.466   2
   6   1  -6 891.611 225.588   6
  -6  -1   5 4956.41 607.496   2
   6   1  -5 4198.04 431.815   6
  -6  -1   4 553.323 240.566   2
   6   1  -4 299.577 85.5566   6
  -6  -1   3 17073.5 1074.52   2
   6   1  -3 16558.7 683.226   6
  -6  -1   2 4083.88 524.984   2
  -6  -1   2 3915.47 262.075   5
   6   1  -2 4351.78 286.409   6
   6   1  -2 4088.11 496.591   4
  -6  -1   1 4005.55 502.545   2
   6   1  -1 3270.79 196.680   6
   6   1  -1 3905.82 512.356   4
  -6  -1   0 4742.93 547.453   2
  -6  -1   0 5277.90 342.237   7
   6   1   0 6116.20 630.822   4
  -6  -1  -1 1174.60 258.517   2
   6   1   1 1490.50 337.975   4
   6   1   2 212.607 119.560   4
  -6  -1  -2 382.290 186.249   2
  -6  -1  -3 597.325 215.850   2
   6   1   3 123.796 160.406   4
   6   1   4 1513.67 358.501   4
   6   1   5 952.092 290.836   4
   6   1   6-87.2051 131.711   4
   6   1   7-551.391 274.805   1
   6   1   7 41.8043 120.242   4
  -6  -1  -8 459.948 253.685   3
   6   1   8 210.225 163.204   4
   6   1   9-409.251 266.229   1
  -6  -2  12 88.7276 164.729   2
   6   2 -12 227.040 196.044   6
  -6  -2  11 407.002 218.832   2
   6   2 -11 234.008 142.911   6
  -6  -2  10 198.108 192.583   2
   6   2 -10 122.313 111.291   6
  -6  -2   9 89.5811 140.697   2
   6   2  -9 483.078 197.945   6
  -6  -2   8 975.187 309.189   2
   6   2  -8 902.705 262.189   6
  -6  -2   7 1221.58 349.777   2
  -6  -2   7 1032.31 260.627   3
   6   2  -7 1130.88 272.748   6
  -6  -2   6 1522.84 366.225   2
  -6  -2   6 1178.97 279.641   3
   6   2  -6 820.848 212.322   6
  -6  -2   5 97.7415 109.591   3
  -6  -2   5 213.626 179.612   2
   6   2  -5 271.759 125.836   6
  -6  -2   4 10511.6 883.658   2
   6   2  -4 9703.77 550.768   6
  -6  -2   3 7348.67 725.308   2
  -6  -2   3 7285.76 465.377   5
   6   2  -3 7282.97 372.028   6
  -6  -2   2 2972.74 463.034   2
  -6  -2   2 3104.28 254.134   5
  -6  -2   1 470.457 68.7325   5
  -6  -2   1 721.314 222.603   2
  -6  -2   0 3239.95 453.408   2
   6   2   0 4108.75 544.481   4
  -6  -2  -1 1101.82 265.342   2
   6   2   1 1730.73 380.309   4
  -6  -2  -2 688.856 196.763   2
   6   2   2 690.410 265.893   4
   6   2   3 761.459 274.586   4
  -6  -2  -3 57.5788 126.937   2
   6   2   4 635.521 268.332   4
  -6  -2  -5 196.488 106.240   3
   6   2   5-112.687 154.386   4
   6   2   6 603.396 286.240   1
  -6  -2  -6 898.333 364.378   3
   6   2   6 490.207 245.326   4
  -6  -2  -7-248.604 206.414   3
   6   2   7-489.346 276.480   1
   6   2   7 102.445 127.001   4
  -6  -2  -8 531.946 281.159   3
   6   2   8-271.512 233.488   1
  -6  -3  12 23.7464 196.321   2
   6   3 -12-102.391 180.492   6
  -6  -3  11 725.593 333.920   2
   6   3 -11 489.779 243.138   6
  -6  -3  10 265.869 210.768   2
   6   3 -10 424.637 210.124   6
  -6  -3   9 116.751 151.606   2
   6   3  -9 168.637 144.733   6
  -6  -3   8-18.3931 120.017   2
  -6  -3   8 192.092 109.121   3
   6   3  -8 142.922 120.213   6
  -6  -3   7 2302.84 406.410   3
   6   3  -7 2078.25 361.218   6
  -6  -3   6 699.803 223.101   3
   6   3  -6 862.715 205.400   6
  -6  -3   5 3335.56 424.718   5
  -6  -3   5 3414.73 501.819   3
   6   3  -5 3378.30 361.402   6
  -6  -3   4 13529.6 757.884   5
  -6  -3   4 12739.3 1007.34   3
   6   3  -4 12729.6 552.917   6
  -6  -3   3 1219.70 327.390   3
  -6  -3   3 833.351 172.657   5
  -6  -3   2 386.647 151.325   2
  -6  -3   2 242.623 72.3466   5
  -6  -3   2 160.959 145.039   3
  -6  -3   1 882.416 142.058   5
  -6  -3   1 799.647 230.344   2
  -6  -3   1 907.753 295.529   3
  -6  -3   0 335.703 177.145   2
  -6  -3   0 136.857 114.021   3
  -6  -3  -1 841.071 244.565   2
  -6  -3  -1 769.752 294.274   3
  -6  -3  -2 203.721 204.645   3
  -6  -3  -2 160.916 120.802   2
  -6  -3  -3 3049.56 393.364   2
  -6  -3  -3 3680.60 648.741   3
  -6  -3  -4 148.852 155.386   3
   6   3   5 304.533 216.862   1
  -6  -3  -5 1022.54 391.557   3
  -6  -3  -6 275.604 227.521   3
   6   3   6-341.608 243.713   1
   6   3   7-282.926 242.048   1
  -6  -3  -7-18.0752 154.388   3
  -6  -4  13 33.7732 178.212   2
  -6  -4  12-275.628 215.736   2
   6   4 -12 158.106 200.068   6
  -6  -4  11-204.360 189.471   2
   6   4 -11 197.398 179.637   6
   6   4 -10 314.948 177.479   6
   6   4  -9 815.157 292.154   6
   6   4  -8 17.7866 96.0231   6
  -6  -4   8 11.6287 111.136   3
  -6  -4   7 1457.02 324.808   5
   6   4  -7 1341.09 291.253   6
  -6  -4   7 1070.78 277.224   3
  -6  -4   6 687.232 227.506   5
  -6  -4   6 753.020 262.072   3
   6   4  -6 513.927 168.742   6
  -6  -4   5 3032.33 415.410   5
  -6  -4   5 2201.96 445.624   3
  -6  -4   4 5510.71 520.205   5
  -6  -4   4 5966.84 723.173   3
  -6  -4   3 1198.03 222.697   5
   6   4  -3 946.280 252.592   7
  -6  -4   3 1243.02 335.087   3
  -6  -4   2 682.950 168.210   5
   6   4  -2 546.377 185.068   7
  -6  -4   2 278.799 168.083   3
  -6  -4   1 968.983 184.170   5
   6   4  -1 736.601 202.140   7
  -6  -4   1 1020.23 346.476   3
   6   4   0 1196.48 222.473   7
  -6  -4   0 1262.36 371.589   3
  -6  -4  -1 558.080 208.121   2
  -6  -4  -1 909.269 356.194   3
  -6  -4  -2 622.763 207.663   2
  -6  -4  -2 467.459 262.950   3
  -6  -4  -3-65.2536 190.875   3
  -6  -4  -4-3.75860 145.680   3
  -6  -4  -5 673.338 315.358   3
   6   4   5 221.812 207.826   1
   6   4   6-652.314 326.695   1
  -6  -4  -6 253.391 228.347   3
  -6  -4  -7 471.411 252.327   3
   6   5 -12 177.991 242.063   6
   6   5 -11 434.271 272.496   6
  -6  -5  10-209.528 176.164   5
   6   5 -10 244.845 141.036   6
  -6  -5   9 268.316 174.179   5
   6   5  -9 443.111 230.512   6
  -6  -5   8 410.026 231.809   5
   6   5  -8 82.7825 126.329   6
  -6  -5   8 292.102 152.474   3
  -6  -5   7 945.444 281.006   5
  -6  -5   7 929.356 300.126   3
  -6  -5   6 4449.51 568.305   5
  -6  -5   6 4028.07 610.556   3
   6   5  -6 4630.17 629.138   7
  -6  -5   5 582.701 211.716   5
   6   5  -5 973.413 268.556   7
  -6  -5   5 1135.04 327.505   3
  -6  -5   4 1291.55 278.007   5
   6   5  -4 1004.79 281.352   7
  -6  -5   4 966.896 310.104   3
  -6  -5   3 36.3591 85.0231   5
   6   5  -3 26.3796 102.945   7
  -6  -5   3 294.154 152.387   3
  -6  -5   2 57.7326 60.8584   5
   6   5  -2 134.065 142.014   7
  -6  -5   2 80.0723 130.292   3
   6   5  -1 2371.20 355.219   7
  -6  -5   1 2036.33 472.701   3
  -6  -5   0 1588.37 449.550   3
  -6  -5  -1 554.880 292.554   3
  -6  -5  -2 717.638 343.534   3
  -6  -5  -3 972.366 394.017   3
  -6  -5  -4 493.768 313.963   3
   6   5   5-724.774 343.382   1
  -6  -5  -5 385.504 267.947   3
  -6  -5  -6-132.373 184.331   3
  -6  -6  11 141.505 168.090   5
  -6  -6  10 51.7786 154.833   5
  -6  -6   9 25.9341 120.752   5
   6   6  -8-97.5544 125.691   7
  -6  -6   8 51.6359 106.836   5
  -6  -6   8 21.6621 119.495   3
  -6  -6   7 251.977 175.599   5
   6   6  -7 302.010 164.432   7
  -6  -6   7 38.7062 91.6253   3
  -6  -6   6 2362.52 433.993   5
   6   6  -6 2747.19 519.466   7
  -6  -6   6 2360.15 494.629   3
  -6  -6   5 708.830 243.395   5
   6   6  -5 760.130 289.873   7
  -6  -6   5 647.540 278.135   3
  -6  -6   4 324.316 169.128   5
   6   6  -4 414.302 212.505   7
  -6  -6   4 410.892 192.879   3
  -6  -6   3 177.815 107.116   5
   6   6  -3 13.2967 86.3895   7
  -6  -6   3 175.461 170.436   3
  -6  -6   2 139.280 85.3908   5
   6   6  -2-46.5663 119.631   7
  -6  -6   2 231.374 204.437   3
   6   6  -1-16.3391 83.0711   7
  -6  -6   1 76.7026 179.383   3
  -6  -6   0 522.179 283.989   3
  -6  -6  -1 215.643 238.462   3
  -6  -6  -2-2.69557 140.519   3
  -6  -6  -3 12.1952 178.227   3
  -6  -6  -4 920.417 395.346   3
  -6  -6  -5 509.413 294.194   3
  -6  -7  10 138.827 147.321   5
  -6  -7   9 72.4329 162.066   5
   6   7  -9 231.457 177.465   7
  -6  -7   8 269.251 182.525   5
   6   7  -8 193.067 217.301   7
  -6  -7   7-65.7773 96.2345   5
   6   7  -7 263.630 228.230   7
  -6  -7   7-95.6004 161.782   3
  -6  -7   6 850.735 307.715   5
   6   7  -6 651.877 266.253   7
  -6  -7   6 385.182 241.585   3
  -6  -7   5 1.95498 107.670   5
   6   7  -5 130.913 112.562   7
  -6  -7   5-91.6674 102.931   3
  -6  -7   4 97.1136 86.9053   5
   6   7  -4 255.099 174.932   7
  -6  -7   4 21.5127 142.798   3
  -6  -7   3 224.767 166.496   5
   6   7  -3 131.382 129.724   7
  -6  -7   3-116.269 159.437   3
   6   7  -2 1045.88 301.021   7
  -6  -7   2 170.123 203.385   3
  -6  -7   1 221.558 166.111   3
  -6  -7   0 66.6711 158.569   3
  -6  -7  -1 71.7307 262.891   3
  -6  -7  -2 76.7721 148.787   3
  -6  -8   9 338.142 215.949   5
  -6  -8   8 499.732 249.316   5
   6   8  -8 1491.81 466.624   7
  -6  -8   7 193.818 197.570   5
   6   8  -7 317.657 227.099   7
  -6  -8   6 308.600 207.445   3
  -6  -8   6 123.662 157.180   5
   6   8  -6-173.053 169.469   7
  -6  -8   5-52.4297 122.519   5
   6   8  -5 308.746 235.773   7
  -6  -8   5 614.117 343.436   3
  -6  -8   4-150.725 139.452   5
   6   8  -4-110.945 130.425   7
  -6  -8   4 129.579 149.619   3
   6   8  -3 74.1408 213.725   7
  -6  -8   3-253.151 213.689   3
  -6  -8   2 772.650 357.284   3
  -6  -8   1 127.686 292.592   3
  -6  -8   0-166.220 237.256   3
  -6  -9   8 65.2200 142.043   5
  -6  -9   7 404.580 240.927   5
   6   9  -7-153.088 228.468   7
  -6  -9   6-370.367 227.226   5
   6   9  -6 77.7581 142.994   7
   6   9  -5-159.122 246.072   7
   6   9  -4-273.824 228.026   7
   7  -9  -1-71.8005 137.573   5
   7  -9   0-96.4955 194.907   4
   7  -9   1 735.868 297.439   4
   7  -8  -1-154.773 140.343   4
   7  -8  -1 38.5934 165.753   5
   7  -8   0 206.575 186.153   4
   7  -8   0 31.0326 150.846   5
   7  -8   1 175.459 263.942   4
   7  -8   2 138.200 154.961   4
   7  -8   3 282.583 207.936   4
   7  -7  -5 77.9618 135.451   6
   7  -7  -4-75.8257 165.725   6
   7  -7  -3 142.574 196.130   6
   7  -7  -2-47.6154 158.494   4
   7  -7  -1 164.383 148.071   5
   7  -7  -1-98.0075 141.280   4
   7  -7   0 73.7446 218.600   4
   7  -7   0 51.4509 145.688   5
   7  -7   1 290.767 186.529   4
   7  -7   2-89.7431 240.681   4
   7  -7   3 92.4421 155.197   4
   7  -7   4 328.749 328.108   4
   7  -6  -6 57.2027 97.3379   6
   7  -6  -5-121.226 185.995   6
   7  -6  -4-108.397 120.170   6
   7  -6  -3 60.0435 149.384   6
   7  -6  -3 85.2550 123.171   4
   7  -6  -2 293.733 140.908   4
   7  -6  -1-48.9677 153.800   4
   7  -6   0-142.282 216.994   4
   7  -6   0-16.1001 106.800   5
   7  -6   1 368.265 261.202   4
   7  -6   2 316.851 193.134   4
   7  -6   3 132.358 213.354   4
   7  -6   4-208.459 176.203   4
   7  -6   5 427.715 197.909   4
   7  -6   6 493.978 330.971   4
   7  -5  -8 266.265 291.003   6
   7  -5  -7 544.028 310.352   6
   7  -5  -6-52.4234 118.815   6
   7  -5  -5 51.9124 175.527   6
   7  -5  -4 231.634 207.699   6
   7  -5  -4 62.2282 110.009   4
   7  -5  -3 68.2572 125.017   6
   7  -5  -3 87.5531 163.563   4
   7  -5  -2-24.5850 130.260   4
   7  -5  -1-203.562 220.373   4
   7  -5   0 678.073 220.459   5
   7  -5   0 252.427 137.813   4
   7  -5   1 100.236 183.023   4
   7  -5   2 118.091 160.681   4
   7  -5   3 44.6786 208.626   4
   7  -5   4-351.401 288.136   4
   7  -5   5-10.7816 229.692   4
   7  -5   6-131.094 154.582   4
   7  -4  -9 39.3505 127.790   6
   7  -4  -8 293.956 157.967   6
   7  -4  -7 353.749 231.829   6
   7  -4  -6 476.491 227.459   6
   7  -4  -5 464.396 215.045   6
   7  -4  -4 265.457 169.876   6
   7  -4  -4 154.039 158.306   4
   7  -4  -3 484.083 201.299   4
   7  -4  -3 271.551 198.820   6
   7  -4  -2 311.187 202.732   4
   7  -4  -1 459.273 220.454   4
   7  -4   0 1113.04 330.920   4
   7  -4   1-58.6386 208.208   4
   7  -4   2 136.598 149.463   4
   7  -4   3 131.743 187.737   4
   7  -4   4-93.0151 195.863   4
   7  -4   5 12.5596 177.956   4
   7  -4   6-13.3265 199.383   4
   7  -4   7 72.5134 242.015   4
   7  -3  -9 14.3086 113.521   6
   7  -3  -8-43.7320 114.711   6
   7  -3  -7 746.715 278.813   6
   7  -3  -6 1422.94 357.487   6
   7  -3  -5 46.6521 93.5162   4
   7  -3  -5 66.4523 101.991   6
   7  -3  -4-47.4606 149.669   6
   7  -3  -4 235.128 145.924   4
   7  -3  -3 1296.68 300.418   6
   7  -3  -3 1265.50 308.422   4
   7  -3  -2 1828.05 366.820   4
   7  -3  -2 1661.52 331.268   6
   7  -3  -1 1113.65 322.183   4
   7  -3   0 237.599 216.869   4
   7  -3   1 1608.03 382.512   4
   7  -3   2 760.656 301.328   4
   7  -3   3 95.5116 157.620   4
   7  -3   4 289.590 191.817   4
   7  -3   5 1102.38 382.367   4
   7  -3   6 428.868 247.892   4
   7  -3   7 309.220 254.453   4
   7  -3   8-207.900 187.895   4
   7  -2 -10-20.6937 255.969   6
  -7   2   9 595.567 321.272   2
   7  -2  -9 98.4106 150.894   6
  -7   2   8 285.725 259.574   2
   7  -2  -8 308.729 211.317   6
  -7   2   7 1244.72 424.322   2
   7  -2  -7 505.358 220.442   6
  -7   2   6 1272.55 416.858   2
   7  -2  -6 1073.02 308.879   6
  -7   2   5 570.981 343.563   2
   7  -2  -5 325.859 144.424   4
   7  -2  -5 243.882 153.537   6
  -7   2   4 220.106 216.791   2
   7  -2  -4 55.4916 113.661   4
   7  -2  -4 103.493 127.092   6
   7  -2  -3 1910.95 330.145   6
  -7   2   3 2428.07 488.902   2
   7  -2  -3 2197.76 389.710   4
   7  -2  -2 1403.87 266.679   6
  -7   2   2 1498.03 418.381   2
   7  -2  -2 932.981 275.834   4
   7  -2  -1 3554.77 504.230   4
   7  -2   0 300.802 232.722   4
   7  -2   1 1744.91 401.744   4
   7  -2   2 29.8754 153.429   4
   7  -2   3 1391.02 359.674   4
   7  -2   4 693.981 289.791   4
   7  -2   5 947.180 350.847   4
   7  -2   6 155.090 232.805   4
   7  -2   7 9.32482 151.508   4
   7  -2   8-27.4480 204.692   4
  -7   1  11 134.939 225.364   2
   7  -1 -11 503.280 271.856   6
  -7   1  10 104.152 186.166   2
   7  -1 -10-219.824 217.906   6
  -7   1   9 63.0887 192.094   2
   7  -1  -9 411.762 222.028   6
  -7   1   8 325.366 225.666   2
   7  -1  -8 227.648 191.972   6
  -7   1   7 408.106 300.508   2
   7  -1  -7 283.964 117.906   6
   7  -1  -6 648.285 220.511   6
  -7   1   6 519.775 239.152   2
   7  -1  -5 141.021 121.519   4
   7  -1  -5-0.19719 77.6562   6
  -7   1   5 186.227 194.719   2
  -7   1   4 2893.19 521.053   2
   7  -1  -4 2778.98 434.575   4
   7  -1  -4 2763.09 391.400   6
  -7   1   3 5324.26 705.978   2
   7  -1  -3 5805.42 519.071   6
   7  -1  -3 6187.79 649.938   4
  -7   1   2 1953.44 432.429   2
   7  -1  -2 2233.51 304.080   6
   7  -1  -2 2651.42 433.190   4
  -7   1   1 3181.29 519.163   2
   7  -1  -1 3093.20 336.371   6
   7  -1  -1 3270.07 498.971   4
  -7   1   0 2047.26 450.098   2
   7  -1   0 1531.99 351.626   4
   7  -1   1 1742.61 399.612   4
   7  -1   2 521.881 245.852   4
   7  -1   3 330.272 200.063   4
   7  -1   4 38.6388 135.782   4
   7  -1   5 552.050 269.855   4
   7  -1   6-185.392 168.013   4
   7  -1   7 59.4568 185.949   4
   7  -1   8-375.213 218.984   4
   7   0 -11-136.748 179.311   6
  -7   0  11 23.5946 172.215   2
   7   0 -10 191.059 175.078   6
  -7   0  10-46.2796 151.955   2
  -7   0   9-266.920 252.109   2
   7   0  -9 132.140 160.080   6
  -7   0   8-134.093 149.164   2
   7   0  -8 325.802 196.707   6
  -7   0   7 29.9957 158.367   2
   7   0  -7 79.5291 146.273   6
  -7   0   6 1399.97 374.582   2
   7   0  -6 1214.35 283.203   6
  -7   0   5 2236.29 464.759   2
   7   0  -5 1937.19 320.177   6
   7   0  -4 3488.56 495.467   4
   7   0  -4 3290.17 383.455   6
  -7   0   4 2606.51 486.395   2
  -7   0   3 6697.38 741.825   2
   7   0  -3 6022.62 476.255   6
   7   0  -3 6532.83 662.353   4
  -7   0   2 4729.59 626.615   2
   7   0  -2 5139.15 398.101   6
   7   0  -2 5859.67 640.397   4
   7   0  -1 73.0548 127.391   4
  -7   0   1-57.7406 165.360   2
   7   0  -1 178.275 71.7082   6
  -7   0   0 564.129 266.087   2
   7   0   0 536.005 222.913   4
  -7   0  -1 1124.37 330.733   2
   7   0   1 1104.87 308.230   4
  -7   0  -2 364.419 238.406   2
   7   0   2-113.341 169.978   4
   7   0   3-118.323 137.371   4
   7   0   4 709.159 267.261   4
   7   0   5 668.924 319.671   4
   7   0   6 190.728 169.485   4
   7   0   7 230.626 212.675   4
   7   0   8-401.038 251.018   4
   7   1 -12 333.961 222.537   6
  -7  -1  12-540.161 289.306   2
  -7  -1  11-488.535 274.519   2
   7   1 -11 31.5376 135.776   6
  -7  -1  10-543.743 279.435   2
   7   1 -10 101.380 192.892   6
  -7  -1   9-223.758 192.840   2
   7   1  -9-27.8418 150.279   6
  -7  -1   8 189.438 176.853   2
   7   1  -8-47.0612 144.074   6
  -7  -1   7 518.144 198.745   2
   7   1  -7 439.900 168.813   6
  -7  -1   6 699.166 296.568   2
   7   1  -6 546.955 182.411   6
  -7  -1   5 4368.25 636.452   2
   7   1  -5 5388.13 505.204   6
  -7  -1   4 7132.81 795.907   2
   7   1  -4 7619.50 536.450   6
  -7  -1   3 1113.38 322.764   2
   7   1  -3 1160.16 180.731   6
  -7  -1   2 1942.71 391.607   2
   7   1  -2 2565.64 446.205   4
  -7  -1   1 69.9600 188.790   2
   7   1  -1 682.656 237.597   4
  -7  -1   0 1491.79 322.675   2
   7   1   0 1388.71 350.602   4
   7   1   1 1159.52 333.848   4
  -7  -1  -1 921.105 296.820   2
  -7  -1  -2 647.899 239.439   2
   7   1   2 411.532 230.316   4
  -7  -1  -3 776.700 264.188   2
   7   1   3 672.025 362.919   4
   7   1   4 21.0854 129.729   4
   7   1   5-47.9739 138.280   4
   7   1   6 196.510 228.437   4
   7   1   7-289.382 254.669   4
  -7  -1  -8-302.850 235.658   3
   7   1   8 215.218 264.188   4
  -7  -2  12-279.069 233.166   2
   7   2 -12 299.034 194.356   6
  -7  -2  11 1.94702 126.236   2
   7   2 -11 490.383 254.828   6
  -7  -2  10 121.955 143.204   2
   7   2 -10 178.241 192.357   6
  -7  -2   9 168.734 170.145   2
   7   2  -9 49.6368 102.887   6
  -7  -2   8 45.2279 139.451   2
   7   2  -8-56.3276 79.6645   6
  -7  -2   7 155.819 165.267   2
  -7  -2   7 303.090 163.526   3
   7   2  -7 299.112 150.687   6
  -7  -2   6 113.462 97.5390   3
  -7  -2   6 333.686 210.801   2
   7   2  -6 209.061 142.828   6
  -7  -2   5 4181.15 627.670   2
   7   2  -5 4719.96 441.804   6
  -7  -2   4 5931.06 715.556   2
  -7  -2   4 5864.77 471.136   5
  -7  -2   3 437.837 203.533   2
  -7  -2   2 387.780 218.202   2
  -7  -2   1 215.474 163.669   2
   7   2   0 2180.00 433.158   4
  -7  -2   0 1945.49 387.279   2
  -7  -2  -1 198.385 136.108   2
   7   2   1 413.559 209.021   4
   7   2   2 554.881 234.207   4
  -7  -2  -2 451.271 204.077   2
   7   2   3-46.8100 157.329   4
   7   2   4 102.182 156.103   4
  -7  -2  -5 144.638 130.754   3
   7   2   5 411.926 272.269   4
  -7  -2  -6 187.157 220.166   3
   7   2   6-136.443 196.985   4
  -7  -2  -7 385.968 296.561   3
   7   2   7-198.922 205.753   4
  -7  -3  12 89.7389 269.164   2
   7   3 -12 285.587 216.514   6
  -7  -3  11 286.458 227.265   2
   7   3 -11-129.954 193.889   6
  -7  -3  10 63.5774 133.330   2
   7   3 -10 396.019 201.353   6
  -7  -3   9 164.011 179.319   2
   7   3  -9 228.596 172.809   6
  -7  -3   8 294.576 262.790   2
   7   3  -8 176.548 178.862   6
  -7  -3   7 166.264 138.703   2
  -7  -3   7 74.4783 126.314   3
  -7  -3   6 1999.78 451.387   2
  -7  -3   6 1827.77 392.957   3
  -7  -3   6 1532.10 315.603   5
  -7  -3   5 2861.31 384.093   5
  -7  -3   5 2625.77 512.166   2
  -7  -3   5 3293.06 539.958   3
  -7  -3   4 992.606 315.647   2
  -7  -3   4 1381.53 382.611   3
  -7  -3   4 1506.90 246.668   5
  -7  -3   3-49.3930 98.8820   2
  -7  -3   3 261.754 177.436   3
  -7  -3   2 72.8814 141.060   2
  -7  -3   2 258.674 212.048   3
  -7  -3   1 544.310 274.466   3
  -7  -3   1 284.251 215.638   2
  -7  -3   0 459.904 274.395   3
  -7  -3   0 594.899 241.023   2
  -7  -3  -1 214.726 153.236   3
  -7  -3  -1 394.599 197.302   2
  -7  -3  -2 656.799 289.035   3
  -7  -3  -2 495.745 203.145   2
  -7  -3  -3 291.733 235.228   3
  -7  -3  -4 155.520 218.402   3
  -7  -3  -5 84.3317 165.516   3
  -7  -3  -6 732.252 389.436   3
  -7  -4  11 239.441 298.313   2
  -7  -4  10-30.0602 134.516   2
  -7  -4   9-122.538 150.319   2
  -7  -4   8-152.142 177.676   2
  -7  -4   8 103.219 156.568   5
  -7  -4   7 146.734 100.469   5
  -7  -4   7 119.712 146.751   3
  -7  -4   6 381.611 176.104   5
  -7  -4   6 579.293 254.718   3
  -7  -4   5 1028.93 243.967   5
  -7  -4   5 875.036 321.233   3
  -7  -4   4 60.5542 142.135   3
  -7  -4   3 581.147 248.068   2
  -7  -4   3-74.4740 159.929   3
  -7  -4   2 709.659 265.663   2
  -7  -4   2 796.731 291.371   3
  -7  -4   1 1561.10 380.199   2
  -7  -4   1 1325.23 438.731   3
  -7  -4   0 376.408 225.808   2
  -7  -4   0 309.083 217.545   3
  -7  -4  -1 516.959 221.355   2
  -7  -4  -1 647.148 330.889   3
  -7  -4  -2 204.517 177.231   3
  -7  -4  -3 833.602 384.149   3
  -7  -4  -4 85.0921 162.008   3
  -7  -4  -5 53.0284 157.977   3
  -7  -5  11 364.458 230.587   5
  -7  -5  10 363.132 210.001   5
  -7  -5   9 136.634 131.297   5
  -7  -5   8 84.0873 161.721   5
  -7  -5   8 246.882 197.398   3
  -7  -5   7 103.321 129.019   5
  -7  -5   7-115.371 104.297   3
  -7  -5   6 277.992 164.950   5
  -7  -5   6 311.500 186.918   3
  -7  -5   5-8.13327 111.750   3
  -7  -5   4 113.319 124.022   3
  -7  -5   3 273.561 212.940   3
  -7  -5   2 564.018 299.644   3
  -7  -5   1 868.193 345.728   3
  -7  -5   0-70.0208 141.304   2
  -7  -5   0 340.595 253.241   3
  -7  -5  -1 96.3232 179.741   2
  -7  -5  -1 985.758 396.547   3
  -7  -5  -2 35.9501 154.830   3
  -7  -5  -3 147.901 136.165   3
  -7  -5  -4 239.552 216.212   3
  -7  -6  10 449.744 235.770   5
  -7  -6   9 293.198 217.167   5
  -7  -6   8 201.609 167.195   5
  -7  -6   8 94.6272 198.107   3
  -7  -6   7 37.2586 95.2580   5
  -7  -6   7 32.5331 91.9127   3
  -7  -6   6-10.1429 112.135   3
   7   6  -5 801.253 309.613   7
  -7  -6   5 888.255 354.869   3
   7   6  -4-202.272 135.409   7
  -7  -6   4-200.339 182.636   3
   7   6  -3 819.350 259.852   7
  -7  -6   3 287.159 275.728   3
  -7  -6   2 253.068 225.798   3
  -7  -6   1 309.271 256.559   3
  -7  -6   0-229.725 212.682   3
  -7  -6  -1 526.852 314.195   3
  -7  -6  -2-15.4688 153.325   3
  -7  -7  10-172.502 173.225   5
  -7  -7   9 219.930 209.023   5
  -7  -7   8 403.190 249.295   5
  -7  -7   8-76.0088 123.699   3
   7   7  -7-95.0098 148.096   7
  -7  -7   7 53.2808 136.455   3
   7   7  -6 38.1734 141.528   7
  -7  -7   6-94.1081 179.285   3
   7   7  -5-66.1680 122.546   7
  -7  -7   5 401.282 261.317   3
   7   7  -4 307.141 236.071   7
  -7  -7   4 50.5715 228.135   3
  -7  -7   3 21.1743 148.848   3
  -7  -7   2-82.2036 131.490   3
  -7  -7   1-42.1537 137.323   3
  -7  -7   0 106.693 191.332   3
   7   8  -7 476.187 235.921   7
  -7  -8   7-145.710 168.832   3
   7   8  -6 318.939 217.818   7
  -7  -8   6-66.4591 143.631   3
   7   8  -5 280.039 220.744   7
  -7  -8   5-92.3280 167.620   3
  -7  -8   4-274.939 229.024   3
   8  -8   0-274.622 243.524   4
   8  -7  -3 201.509 174.608   6
   8  -7  -2 249.270 195.499   6
   8  -7  -1 235.333 205.796   4
   8  -7   0 251.603 174.814   4
   8  -7   1-154.885 212.048   4
   8  -7   2-431.442 299.070   4
   8  -6  -5 215.904 184.960   6
   8  -6  -4 236.356 214.069   6
   8  -6  -3-36.9443 143.809   6
   8  -6  -2-61.8100 184.962   6
   8  -6  -2 183.734 206.955   4
   8  -6  -1 611.945 297.930   4
   8  -6   0-156.982 223.109   4
   8  -6   1-250.760 268.239   4
   8  -6   2-183.435 209.804   4
   8  -6   3-235.191 286.911   4
   8  -5  -7 129.721 170.402   6
   8  -5  -6-77.7923 136.348   6
   8  -5  -5 74.1164 161.523   6
   8  -5  -4 210.970 213.941   6
   8  -5  -3-182.266 176.259   4
   8  -5  -3-125.395 150.019   6
   8  -5  -2 457.553 254.666   4
   8  -5  -2 260.414 205.925   6
   8  -5  -1 1327.76 403.652   4
   8  -5   0 308.288 263.930   4
   8  -5   1 56.8302 205.206   4
   8  -5   2-345.071 299.776   4
   8  -5   3-256.911 268.881   4
   8  -5   4-327.442 271.434   4
   8  -4  -8-127.993 168.075   6
   8  -4  -7 125.148 115.821   6
   8  -4  -6 9.90135 230.698   6
   8  -4  -5 330.869 215.462   6
   8  -4  -4 114.367 150.604   6
   8  -4  -4 26.0399 118.894   4
   8  -4  -3 153.437 150.354   6
   8  -4  -3-74.6871 126.193   4
   8  -4  -2 614.539 264.943   4
   8  -4  -2 678.651 264.162   6
   8  -4  -1 463.147 250.924   4
   8  -4   0 47.2658 163.307   4
   8  -4   1 39.9417 148.017   4
   8  -4   2 95.2844 167.718   4
   8  -4   3 60.6959 134.383   4
   8  -4   4 167.578 241.128   4
   8  -4   5 363.576 260.079   4
   8  -3  -9-129.721 159.579   6
   8  -3  -8 208.158 208.754   6
   8  -3  -7 175.973 198.432   6
   8  -3  -6 120.208 120.098   6
   8  -3  -5 76.5024 119.473   4
   8  -3  -5 167.732 136.970   6
   8  -3  -4 316.651 162.076   4
   8  -3  -4 297.817 177.033   6
   8  -3  -3 93.5286 109.883   6
   8  -3  -3 510.622 213.771   4
   8  -3  -2 1225.04 300.982   6
   8  -3  -2 1041.75 314.408   4
   8  -3  -1 110.844 188.905   4
   8  -3   0 61.6751 122.678   4
   8  -3   1 279.180 252.817   4
   8  -3   2 223.044 179.201   4
   8  -3   3 180.070 188.425   4
   8  -3   4-59.3976 157.412   4
   8  -3   5 298.934 294.814   4
   8  -2 -10 29.9567 155.221   6
  -8   2   9 331.968 324.438   2
   8  -2  -9 40.7289 177.254   6
  -8   2   8 838.195 397.311   2
   8  -2  -8 228.951 213.449   6
  -8   2   7 980.191 385.080   2
   8  -2  -7 462.677 201.689   6
  -8   2   6 784.536 372.892   2
   8  -2  -6 464.325 231.744   6
  -8   2   5 629.862 311.545   2
   8  -2  -5 211.441 144.208   4
   8  -2  -5 281.761 127.898   6
  -8   2   4 568.196 392.569   2
   8  -2  -4 235.734 185.760   4
   8  -2  -4 441.538 168.237   6
  -8   2   3 1574.32 478.220   2
   8  -2  -3 1036.65 295.037   4
   8  -2  -3 1387.55 299.224   6
   8  -2  -2 545.799 185.019   6
   8  -2  -2 1030.93 307.215   4
   8  -2  -1 206.355 86.5657   6
   8  -2  -1 298.604 178.893   4
   8  -2   0 275.654 186.256   4
   8  -2   1 176.944 202.744   4
   8  -2   2 663.865 287.375   4
   8  -2   3 306.151 200.574   4
   8  -2   4 384.368 275.300   4
   8  -2   5 135.358 251.226   4
   8  -2   6 129.697 190.966   4
  -8   1  10 464.081 317.897   2
   8  -1 -10-218.328 251.669   6
  -8   1   9 69.4181 267.185   2
   8  -1  -9-37.6956 178.428   6
  -8   1   8 108.120 210.837   2
   8  -1  -8 60.1836 97.9119   6
  -8   1   7 778.771 372.712   2
   8  -1  -7 220.940 179.646   6
  -8   1   6-32.7467 202.287   2
   8  -1  -6 46.9547 124.603   6
  -8   1   5 338.285 256.844   2
   8  -1  -5-101.010 133.023   6
  -8   1   4 1208.60 386.174   2
   8  -1  -4 1041.23 302.550   4
   8  -1  -4 1000.60 250.955   6
  -8   1   3 1187.26 383.049   2
   8  -1  -3 837.145 275.752   4
   8  -1  -3 1176.23 254.878   6
  -8   1   2 496.143 258.615   2
   8  -1  -2 92.2671 168.984   4
  -8   1   1 424.893 308.649   2
   8  -1  -1-94.5618 123.668   4
  -8   1   0 995.104 362.718   2
   8  -1   0 215.452 123.586   4
   8  -1   1 635.745 265.610   4
   8  -1   2 139.992 220.323   4
   8  -1   3 49.3961 144.823   4
   8  -1   4 14.2146 175.827   4
   8  -1   5 62.4398 161.972   4
   8  -1   6 226.530 201.643   4
  -8   0  11 0.45597 195.293   2
   8   0 -11 170.464 182.828   6
   8   0 -10 402.150 235.130   6
  -8   0  10 396.685 317.022   2
   8   0  -9 19.6113 131.061   6
  -8   0   9-22.4630 149.372   2
   8   0  -8 104.390 114.493   6
  -8   0   8 107.931 204.218   2
  -8   0   7 822.381 332.788   2
   8   0  -7 824.536 251.010   6
  -8   0   6 816.947 323.724   2
   8   0  -6 861.442 263.889   6
  -8   0   5 1312.22 374.016   2
  -8   0   4 1193.99 387.590   2
   8   0  -3 288.151 185.047   4
  -8   0   3 67.1925 160.682   2
   8   0  -2 474.417 241.482   4
  -8   0   2 650.661 291.898   2
  -8   0   1 355.868 236.511   2
   8   0  -1 395.489 217.982   4
  -8   0   0 825.660 324.793   2
   8   0   0 709.159 261.220   4
  -8   0  -1 1131.47 363.537   2
   8   0   1 732.076 278.252   4
   8   0   2 119.685 151.763   4
   8   0   3-178.504 234.929   4
   8   0   4 81.9100 147.867   4
   8   0   5 66.4211 195.605   4
   8   0   6 74.1140 175.685   4
   8   1 -11 259.536 180.074   6
  -8  -1  11 275.330 246.804   2
  -8  -1  10-663.868 319.452   2
   8   1 -10-302.383 198.222   6
  -8  -1   9-15.8977 168.288   2
  -8  -1   8-157.075 196.088   2
  -8  -1   7 96.1011 158.408   2
  -8  -1   6 653.311 296.269   2
  -8  -1   5 615.245 280.579   2
  -8  -1   4-87.3446 262.648   2
  -8  -1   3-30.7555 134.441   2
  -8  -1   2 95.8450 188.702   2
   8   1  -2 123.082 147.571   4
   8   1  -1 476.033 230.355   4
  -8  -1   1 581.206 232.390   2
   8   1   0 230.340 184.207   4
  -8  -1   0 96.5191 148.868   2
  -8  -1  -1 265.818 247.736   2
   8   1   1 260.388 155.734   4
  -8  -1  -2 355.871 243.149   2
   8   1   2 63.3734 124.451   4
   8   1   3 57.7874 152.623   4
   8   1   4-36.4755 163.219   4
   8   1   5-148.956 182.740   4
   8   1   6 416.661 265.398   4
  -8  -2  10-35.4677 155.558   2
  -8  -2   9 7.21701 140.515   2
  -8  -2   8 1030.03 383.946   2
  -8  -2   7 292.076 191.903   3
  -8  -2   7-129.435 142.196   2
  -8  -2   6 203.042 180.357   3
  -8  -2   6 823.420 339.177   2
  -8  -2   5 495.274 275.267   2
  -8  -2   4 289.195 202.745   2
  -8  -2   3 268.349 159.227   2
  -8  -2   2 260.108 200.069   2
  -8  -2   1 23.7395 155.692   2
  -8  -2   0 501.010 232.851   2
   8   2   1 310.623 236.465   4
  -8  -2  -1 9.51001 182.784   2
  -8  -2  -2 4.64074 103.420   2
   8   2   2 38.9214 163.984   4
   8   2   3 162.690 167.420   4
   8   2   4 292.826 180.873   4
  -8  -2  -5-196.937 215.278   3
   8   2   5-34.3741 161.960   4
  -8  -3  10-14.5643 144.451   2
  -8  -3   9 68.2626 158.437   2
  -8  -3   8 593.233 269.887   2
  -8  -3   7 230.467 185.498   2
  -8  -3   7-9.29142 135.178   3
  -8  -3   6 132.443 189.215   2
  -8  -3   6-71.2662 134.843   3
  -8  -3   5-30.8402 168.879   2
  -8  -3   5 220.207 197.095   3
  -8  -3   4 578.979 250.886   2
  -8  -3   4 204.906 189.130   3
  -8  -3   3 111.396 150.289   3
  -8  -3   3 4.81439 171.986   2
  -8  -3   2 414.948 258.904   3
  -8  -3   2 614.509 269.761   2
  -8  -3   1-58.1839 141.754   3
  -8  -3   1 163.353 137.207   2
  -8  -3   0 85.7691 126.228   3
  -8  -3   0 31.8034 125.088   2
  -8  -3  -1 23.7997 158.500   3
  -8  -3  -1-3.11239 145.717   2
  -8  -3  -2 99.0703 201.037   3
  -8  -3  -3 580.398 329.707   3
  -8  -3  -4-4.69253 154.593   3
  -8  -4   9 301.189 248.308   2
  -8  -4   8 75.2426 140.058   2
  -8  -4   7 117.234 194.124   2
  -8  -4   7-57.6007 136.378   3
  -8  -4   6 437.577 230.361   2
  -8  -4   6 280.462 219.553   3
  -8  -4   5 89.4917 170.570   2
  -8  -4   5 174.337 116.101   3
  -8  -4   4 86.5102 171.263   2
  -8  -4   4 275.136 199.670   3
  -8  -4   3 269.285 183.260   2
  -8  -4   3-49.5918 124.929   3
  -8  -4   2-16.3665 143.710   2
  -8  -4   2 202.393 237.629   3
  -8  -4   1 157.267 161.637   2
  -8  -4   1 109.635 134.250   3
  -8  -4   0 246.044 228.968   3
  -8  -4   0 340.046 207.000   2
  -8  -4  -1 241.800 288.331   3
  -8  -4  -1 309.327 208.400   2
  -8  -4  -2 24.4909 193.934   3
  -8  -4  -3 395.505 304.205   3
  -8  -5   8 145.734 149.452   2
  -8  -5   7-190.234 202.130   2
  -8  -5   7-211.298 191.333   3
  -8  -5   6-81.8256 194.746   2
  -8  -5   6 351.758 258.154   3
  -8  -5   5 160.373 148.921   2
  -8  -5   5 154.084 171.345   3
  -8  -5   4-47.0113 169.059   2
  -8  -5   4 48.8689 146.582   3
  -8  -5   3 21.5522 150.379   2
  -8  -5   3 163.291 205.580   3
  -8  -5   2 5.92025 116.004   2
  -8  -5   2 108.241 163.525   3
  -8  -5   1-8.39953 133.315   2
  -8  -5   1 321.438 266.566   3
  -8  -5   0 0.31514 148.616   2
  -8  -5   0 286.061 271.079   3
  -8  -5  -1 199.596 237.747   3
  -8  -6   7 140.099 122.584   3
  -8  -6   6 23.0646 133.430   3
  -8  -6   5-33.6875 127.452   3
  -8  -6   4 530.360 278.562   3
  -8  -6   3-196.455 200.162   3
  -8  -6   2-304.890 216.919   2
  -8  -6   2 112.629 172.318   3
  -8  -6   1-196.714 180.799   2
  -8  -6   1 101.245 176.402   3
  -8  -7   7-111.838 160.045   3
  -8  -7   6-154.862 179.688   3
  -8  -7   5-59.3882 132.358   3
   9  -7  -1 243.623 227.763   4
   9  -6  -4 90.5749 135.811   6
   9  -6  -3 330.550 267.581   6
   9  -6  -2 297.229 205.642   4
   9  -6  -2 10.1779 175.464   6
   9  -6  -1 150.726 201.083   4
   9  -6   0 132.947 204.062   4
   9  -5  -6-235.999 166.282   6
   9  -5  -5-63.7803 188.472   6
   9  -5  -4 241.367 210.296   6
   9  -5  -3 337.656 229.008   6
   9  -5  -3 334.300 173.642   4
   9  -5  -2 128.667 195.285   4
   9  -5  -2 208.538 181.147   6
   9  -5  -1 353.677 275.518   4
   9  -5   0 89.6051 147.373   4
   9  -5   1 111.311 163.464   4
   9  -4  -7 93.6446 134.546   6
   9  -4  -6-184.100 164.013   6
   9  -4  -5-193.513 127.832   6
   9  -4  -4 136.875 162.620   6
   9  -4  -3 313.770 196.417   6
   9  -4  -3-146.060 134.649   4
   9  -4  -2-43.4273 148.001   4
   9  -4  -1-66.9880 148.059   4
   9  -4   0-33.8912 133.094   4
   9  -4   1-286.653 258.405   4
   9  -4   2 330.304 209.491   4
   9  -3  -8-149.832 139.281   6
   9  -3  -7-115.128 189.284   6
   9  -3  -6 90.2947 165.914   6
   9  -3  -5-113.526 142.878   6
   9  -3  -4 90.8956 139.499   4
   9  -3  -3 70.9249 163.927   4
   9  -3  -2-161.635 237.937   4
   9  -3  -1 208.869 172.175   4
   9  -3   0-37.8572 171.241   4
   9  -3   1 211.846 210.845   4
   9  -3   2-134.311 229.162   4
   9  -3   3-3.20569 182.618   4
   9  -2  -9 148.439 183.902   6
  -9   2   7 298.587 401.430   2
  -9   2   6 266.252 417.820   2
  -9   2   5 632.790 430.087   2
   9  -2  -5-147.041 151.481   4
  -9   2   4 614.825 365.659   2
   9  -2  -4 179.751 178.834   4
   9  -2  -3 92.8127 155.475   4
   9  -2  -2 106.738 162.727   4
   9  -2  -1 300.728 252.752   4
   9  -2   0 446.073 293.342   4
   9  -2   1-153.690 190.473   4
   9  -2   2 151.047 159.025   4
   9  -2   3-137.679 200.547   4
  -9   1   8-68.3655 208.497   2
  -9   1   7 629.755 340.194   2
  -9   1   6 300.968 257.023   2
  -9   1   5 64.2674 233.337   2
  -9   1   4 658.811 337.013   2
   9  -1  -4-115.798 163.466   4
  -9   1   3 771.657 334.479   2
   9  -1  -3 473.318 215.486   4
  -9   1   2 322.135 256.679   2
   9  -1  -2-46.2691 150.481   4
  -9   1   1 675.736 335.018   2
   9  -1  -1 8.15343 111.401   4
   9  -1   0 548.660 300.050   4
   9  -1   1 159.555 172.941   4
   9  -1   2 37.1735 141.540   4
   9  -1   3 435.427 312.816   4
  -9   0   8 16.2526 209.724   2
  -9   0   7 372.718 296.372   2
  -9   0   6 191.152 233.455   2
  -9   0   5 124.630 227.092   2
  -9   0   4 245.379 215.646   2
  -9   0   3 793.689 349.013   2
   9   0  -3 511.281 288.182   4
  -9   0   2 68.4807 198.326   2
   9   0  -2 199.239 196.128   4
  -9   0   1-88.7736 156.787   2
   9   0  -1 705.943 299.045   4
  -9   0   0 486.313 298.762   2
   9   0   0-81.0415 115.888   4
   9   0   1-1.43736 176.843   4
   9   0   2-52.9464 184.917   4
   9   0   3 165.031 230.265   4
  -9  -1   8-85.9142 161.922   2
  -9  -1   7 183.319 212.342   2
  -9  -1   6-222.739 239.219   2
  -9  -1   5 99.2227 238.683   2
  -9  -1   4 212.514 205.765   2
  -9  -1   3 203.181 137.712   2
  -9  -1   2 94.4363 162.540   2
  -9  -1   1 8.86046 175.732   2
   9   1  -1-216.630 196.650   4
  -9  -1   0-3.76988 132.110   2
   9   1   0 148.219 138.695   4
  -9  -1  -1 541.170 278.697   2
   9   1   1 1.48725 142.331   4
   9   1   2-297.729 271.851   4
   9   1   3 165.283 198.595   4
  -9  -2   8 97.7771 222.545   2
  -9  -2   7-73.9152 151.946   2
  -9  -2   6 0.36735 163.346   3
  -9  -2   6-146.357 214.593   2
  -9  -2   5 144.567 144.445   2
  -9  -2   4-265.295 298.519   2
  -9  -2   3 148.803 174.773   2
  -9  -2   2 454.823 264.960   2
  -9  -2   1 149.268 196.684   2
  -9  -2   0 109.900 124.485   2
  -9  -2  -1 26.7485 168.937   2
   9   2   2-87.5806 234.211   4
  -9  -3   7 143.197 159.729   2
  -9  -3   7 304.112 166.212   3
  -9  -3   6-53.8733 138.188   3
  -9  -3   6 55.8175 175.015   2
  -9  -3   5 70.5376 119.679   3
  -9  -3   5 120.179 121.626   2
  -9  -3   4 137.566 208.223   3
  -9  -3   4 65.5376 163.317   2
  -9  -3   3-7.05570 134.352   3
  -9  -3   3 166.417 179.460   2
  -9  -3   2 16.0196 192.407   3
  -9  -3   2-6.23256 145.439   2
  -9  -3   1 0.95478 146.458   3
  -9  -3   1 68.6048 123.526   2
  -9  -3   0 278.563 308.549   3
  -9  -3   0 390.773 197.750   2
  -9  -3  -1 38.5080 136.249   3
  -9  -4   7 35.0457 118.833   3
  -9  -4   6 108.059 224.722   2
  -9  -4   6 41.0499 103.228   3
  -9  -4   5 155.345 227.638   2
  -9  -4   5 409.869 290.741   3
  -9  -4   4 260.692 239.878   2
  -9  -4   4 45.5648 167.675   3
  -9  -4   3 219.057 235.362   2
  -9  -4   3 176.718 195.363   3
  -9  -4   2 354.526 209.899   3
  -9  -4   2 316.255 249.115   2
  -9  -4   1 155.103 129.024   3
  -9  -4   1 96.7735 172.193   2
  -9  -4   0-131.848 196.788   2
  -9  -5   7 249.519 171.950   3
  -9  -5   6 107.602 238.032   3
  -9  -5   5 279.045 218.523   2
  -9  -5   5-71.3105 257.897   3
  -9  -5   4 195.160 209.597   2
  -9  -5   4 387.782 289.250   3
  -9  -5   3 108.450 164.565   2
  -9  -5   3 147.806 209.085   3
  -9  -5   2 20.1683 153.225   2
  -9  -5   1-129.632 164.885   2
  -9  -6   7-194.836 194.053   3
  -9  -6   6 97.7698 114.837   3
  -9  -6   3 290.562 272.067   2
  -9  -6   2-148.128 179.072   2
  10  -5  -2 86.2138 133.086   4
  10  -4  -3-21.0276 131.661   4
  10  -4  -2 89.3824 134.565   4
  10  -4  -1 245.069 222.529   4
  10  -3  -4 26.0577 135.753   4
  10  -3  -3 67.3106 114.159   4
  10  -3  -2-0.36433 160.674   4
  10  -3  -1 139.880 123.664   4
  10  -2  -4 145.553 186.995   4
  10  -2  -3 204.111 194.672   4
  10  -2  -2 438.765 260.053   4
  10  -2  -1 88.1458 216.686   4
  10  -2   0-118.033 160.523   4
 -10   1   4-4.86435 183.618   2
  10  -1  -4 39.7949 139.738   4
 -10   1   3 497.807 306.656   2
  10  -1  -3 88.9612 138.243   4
 -10   1   2 631.811 407.464   2
  10  -1  -2 9.61730 154.322   4
  10  -1  -1 29.7028 169.164   4
  10  -1   0-233.955 189.487   4
 -10   0   4-124.955 190.540   2
 -10   0   3 700.713 382.361   2
 -10   0   2 503.492 341.353   2
  10   0  -2 158.201 125.104   4
 -10   0   1 173.483 323.758   2
  10   0  -1 88.9515 136.964   4
 -10  -1   4-28.7953 148.125   2
 -10  -1   3 494.658 344.263   2
 -10  -1   2 312.117 319.510   2
 -10  -1   1 114.077 171.671   2
 -10  -1   0 628.720 327.910   2
 -10  -1  -1 463.712 319.211   2
 -10  -2   6 89.3210 166.880   3
 -10  -2   5 59.8000 176.620   3
 -10  -2   4 318.404 228.894   2
 -10  -2   3 201.277 173.518   2
 -10  -2   2 54.1681 159.704   2
 -10  -2   1 118.439 199.286   2
 -10  -2   0 90.4835 163.982   2
 -10  -3   6-21.6077 132.299   3
 -10  -3   5 120.984 139.397   3
 -10  -3   4 174.506 172.954   3
 -10  -3   3-0.43450 231.314   2
 -10  -3   2-413.906 256.651   2
 -10  -3   1-347.683 237.591   2
 -10  -4   6-54.1017 136.596   3
 -10  -4   1-271.031 222.787   2
   0   0   0    0.00    0.00   0
TITL 140304_s2_lj in P-1
REM P-1 (#2 in standard setting)
CELL 0.71073   8.098078   8.818008  10.449458 103.7971 101.3442  91.2637
ZERR    2.00   0.000392   0.000680   0.000653   0.0060   0.0047   0.0050
LATT  1
SFAC C H N O Cl
UNIT 24.00 24.00 4.00 8.00 2.00
TREF
HKLF 4
END
;
_shelx_hkl_checksum              3564
_olex2_computing_structure_refinement_long 'ShelXL (Sheldrick, 2008)'
_olex2_computing_structure_solution_long 'ShelXS (Sheldrick, 2008)'
#END Tags that were not found in dictionaries
loop_
_space_group_symop_operation_xyz
'x, y, z'
loop_
_atom_site_label
_atom_site_type_symbol
_atom_site_fract_x
_atom_site_fract_y
_atom_site_fract_z
_atom_site_U_iso_or_equiv
_atom_site_adp_type
_atom_site_occupancy
_atom_site_site_symmetry_order
_atom_site_calc_flag
_atom_site_refinement_flags_posn
_atom_site_refinement_flags_occupancy
_atom_site_disorder_assembly
_atom_site_disorder_group
C14 C -0.8478(11) -1.1626(11) -1.1305(9) 0.106(3) Uani 1 1 d . . . .
H14 H -0.8487 -1.1016 -1.1977 0.127 Uiso 1 1 calc R . . .
C15 C -0.6891(10) -1.1184(9) -1.0243(7) 0.083(2) Uani 1 1 d . . . .
H15 H -0.6961 -1.1751 -0.9552 0.099 Uiso 1 1 calc R . . .
C16 C -0.5365(11) -1.1709(12) -1.0837(9) 0.106(3) Uani 1 1 d . . . .
H16A H -0.5244 -1.1127 -1.1496 0.127 Uiso 1 1 calc R . . .
H16B H -0.4359 -1.1457 -1.0125 0.127 Uiso 1 1 calc R . . .
C17 C -0.5481(19) -1.3418(15) -1.1494(12) 0.155(4) Uani 1 1 d . . . .
H17A H -0.5459 -1.4012 -1.0821 0.186 Uiso 1 1 calc R . . .
H17B H -0.4519 -1.3666 -1.1912 0.186 Uiso 1 1 calc R . . .
C18 C -0.708(2) -1.3863(14) -1.2538(13) 0.161(5) Uani 1 1 d . . . .
H18A H -0.7174 -1.4988 -1.2904 0.193 Uiso 1 1 calc R . . .
H18B H -0.7019 -1.3375 -1.3269 0.193 Uiso 1 1 calc R . . .
C19 C -0.8634(18) -1.3390(14) -1.2004(12) 0.148(5) Uani 1 1 d . . . .
H19A H -0.8794 -1.3989 -1.1365 0.178 Uiso 1 1 calc R . . .
H19B H -0.9614 -1.3623 -1.2740 0.178 Uiso 1 1 calc R . . .
C20 C -0.6093(8) -0.8947(9) -0.8275(7) 0.0721(18) Uani 1 1 d . . . .
C21 C -0.5847(8) -0.7219(9) -0.7825(7) 0.0713(18) Uani 1 1 d . . . .
C22 C -0.4964(8) -0.6512(10) -0.6550(7) 0.079(2) Uani 1 1 d . . . .
H22 H -0.4538 -0.7100 -0.5946 0.095 Uiso 1 1 calc R . . .
C23 C -0.4733(10) -0.4907(12) -0.6197(9) 0.093(2) Uani 1 1 d . . . .
C24 C -0.5397(12) -0.4040(11) -0.7057(11) 0.108(3) Uani 1 1 d . . . .
H24 H -0.5258 -0.2952 -0.6818 0.129 Uiso 1 1 calc R . . .
C25 C -0.6283(13) -0.4850(12) -0.8296(10) 0.117(3) Uani 1 1 d . . . .
H25 H -0.6754 -0.4273 -0.8897 0.140 Uiso 1 1 calc R . . .
C26 C -1.1064(19) -1.082(2) -1.1257(15) 0.175(4) Uani 1 1 d . . . .
H26A H -1.1272 -1.1451 -1.2168 0.262 Uiso 1 1 calc GR . . .
H26B H -1.0910 -0.9740 -1.1253 0.262 Uiso 1 1 calc GR . . .
H26C H -1.2010 -1.0973 -1.0861 0.262 Uiso 1 1 calc GR . . .
Cl1 Cl -0.3462(12) -0.3947(12) -0.4633(8) 0.133(2) Uani 0.74(2) 1 d . P A 1
Cl1A Cl -0.406(3) -0.393(4) -0.456(3) 0.133(2) Uani 0.26(2) 1 d . P A 2
N3 N -0.6704(8) -0.9555(8) -0.9601(7) 0.0807(18) Uani 1 1 d . . . .
H3 H -0.681(7) -0.899(7) -1.006(6) 0.06(2) Uiso 1 1 d . . . .
N4 N -0.6521(8) -0.6405(9) -0.8708(6) 0.097(2) Uani 1 1 d . . . .
O5 O -0.5752(6) -0.9746(6) -0.7458(5) 0.0872(14) Uani 1 1 d . . . .
O27 O -0.9811(9) -1.1210(11) -1.0617(9) 0.159(3) Uani 1 1 d . . . .
C1 C -0.9583(7) -0.8891(8) -1.6148(7) 0.0680(16) Uani 1 1 d . . . .
H1 H -0.8920 -0.8883 -1.6836 0.082 Uiso 1 1 calc R . . .
C2 C -0.8747(7) -0.9821(8) -1.5221(6) 0.0661(17) Uani 1 1 d . . . .
H2 H -0.9402 -0.9780 -1.4520 0.079 Uiso 1 1 calc R . . .
C3 C -0.8739(9) -1.1545(8) -1.5974(7) 0.086(2) Uani 1 1 d . . . .
H3A H -0.8072 -1.1619 -1.6660 0.104 Uiso 1 1 calc R . . .
H3B H -0.8222 -1.2136 -1.5347 0.104 Uiso 1 1 calc R . . .
C4 C -1.0505(12) -1.2232(10) -1.6622(9) 0.116(3) Uani 1 1 d . . . .
H4A H -1.1152 -1.2233 -1.5933 0.139 Uiso 1 1 calc R . . .
H4B H -1.0476 -1.3305 -1.7123 0.139 Uiso 1 1 calc R . . .
C5 C -1.1340(11) -1.1265(11) -1.7569(9) 0.111(3) Uani 1 1 d . . . .
H5A H -1.0725 -1.1319 -1.8285 0.133 Uiso 1 1 calc R . . .
H5B H -1.2486 -1.1701 -1.7976 0.133 Uiso 1 1 calc R . . .
C6 C -1.1372(8) -0.9594(9) -1.6836(7) 0.087(2) Uani 1 1 d . . . .
H6A H -1.2061 -0.9529 -1.6165 0.104 Uiso 1 1 calc R . . .
H6B H -1.1874 -0.9000 -1.7466 0.104 Uiso 1 1 calc R . . .
C7 C -0.6531(8) -0.8547(8) -1.3249(6) 0.0635(15) Uani 1 1 d . . . .
C8 C -0.4746(7) -0.7897(7) -1.2760(6) 0.0594(14) Uani 1 1 d . . . .
C9 C -0.4162(8) -0.7233(8) -1.1434(6) 0.0756(19) Uani 1 1 d . . . .
H9 H -0.4870 -0.7156 -1.0824 0.091 Uiso 1 1 calc R . . .
C10 C -0.2497(10) -0.6675(10) -1.1012(7) 0.099(3) Uani 1 1 d . . . .
C11 C -0.1472(10) -0.6829(10) -1.1925(8) 0.095(2) Uani 1 1 d . . . .
H11 H -0.0330 -0.6505 -1.1649 0.114 Uiso 1 1 calc R . . .
C12 C -0.2154(9) -0.7457(10) -1.3225(8) 0.091(2) Uani 1 1 d . . . .
H12 H -0.1466 -0.7517 -1.3848 0.109 Uiso 1 1 calc R . . .
C13 C -0.9697(16) -0.6157(19) -1.6018(15) 0.175(4) Uani 1 1 d . . . .
H13A H -0.9164 -0.6443 -1.6776 0.262 Uiso 1 1 calc GR . . .
H13B H -0.9143 -0.5205 -1.5418 0.262 Uiso 1 1 calc GR . . .
H13C H -1.0864 -0.6004 -1.6327 0.262 Uiso 1 1 calc GR . . .
Cl3 Cl -0.1775(9) -0.5627(15) -0.9320(6) 0.157(4) Uani 0.74(2) 1 d . P A 1
Cl3A Cl -0.145(3) -0.649(4) -0.938(2) 0.157(4) Uani 0.26(2) 1 d . P A 2
N1 N -0.7027(5) -0.9175(6) -1.4560(4) 0.0665(14) Uani 1 1 d . . . .
H1A H -0.6290 -0.9205 -1.5055 0.080 Uiso 1 1 calc R . . .
N2 N -0.3787(6) -0.8010(7) -1.3682(5) 0.0793(16) Uani 1 1 d . . . .
O2 O -0.7471(5) -0.8468(6) -1.2435(4) 0.0810(13) Uani 1 1 d . . . .
O13 O -0.9584(6) -0.7331(6) -1.5351(5) 0.0877(14) Uani 1 1 d . . . .
loop_
_atom_site_aniso_label
_atom_site_aniso_U_11
_atom_site_aniso_U_22
_atom_site_aniso_U_33
_atom_site_aniso_U_23
_atom_site_aniso_U_13
_atom_site_aniso_U_12
C14 0.093(6) 0.118(7) 0.110(6) 0.045(5) 0.012(5) -0.017(5)
C15 0.102(6) 0.079(5) 0.070(4) 0.028(4) 0.013(4) -0.002(4)
C16 0.110(6) 0.112(7) 0.095(6) 0.026(5) 0.016(5) 0.035(5)
C17 0.244(14) 0.138(10) 0.101(7) 0.047(7) 0.050(9) 0.081(9)
C18 0.239(16) 0.091(8) 0.124(10) 0.007(7) -0.004(10) 0.001(9)
C19 0.194(12) 0.100(8) 0.130(9) 0.034(7) -0.015(9) -0.051(8)
C20 0.066(4) 0.090(6) 0.068(5) 0.027(4) 0.023(3) 0.001(3)
C21 0.065(4) 0.094(5) 0.065(4) 0.027(4) 0.029(3) 0.015(3)
C22 0.071(4) 0.099(6) 0.067(5) 0.020(4) 0.019(3) -0.004(4)
C23 0.090(5) 0.109(7) 0.082(5) 0.009(5) 0.038(4) 0.002(5)
C24 0.134(7) 0.084(6) 0.104(7) -0.003(6) 0.058(6) 0.010(5)
C25 0.174(9) 0.090(7) 0.106(8) 0.044(6) 0.050(6) 0.034(6)
C26 0.163(8) 0.213(11) 0.177(9) 0.091(8) 0.052(7) 0.026(7)
Cl1 0.114(6) 0.160(3) 0.101(2) -0.0119(18) 0.023(3) -0.034(5)
Cl1A 0.114(6) 0.160(3) 0.101(2) -0.0119(18) 0.023(3) -0.034(5)
N3 0.091(4) 0.083(5) 0.072(4) 0.030(4) 0.016(3) 0.004(3)
N4 0.130(5) 0.095(6) 0.074(4) 0.026(4) 0.029(4) 0.026(4)
O5 0.085(3) 0.109(4) 0.073(3) 0.041(3) 0.006(2) 0.002(3)
O27 0.076(4) 0.220(9) 0.196(8) 0.099(7) 0.011(5) -0.007(4)
C1 0.063(4) 0.079(5) 0.065(4) 0.020(4) 0.016(3) 0.003(3)
C2 0.057(4) 0.078(5) 0.063(4) 0.022(3) 0.006(3) -0.006(3)
C3 0.099(5) 0.071(5) 0.079(5) 0.016(4) -0.004(4) 0.000(4)
C4 0.141(8) 0.086(6) 0.095(6) 0.017(5) -0.024(5) -0.030(5)
C5 0.100(6) 0.120(7) 0.091(6) 0.015(5) -0.016(4) -0.024(5)
C6 0.073(5) 0.105(6) 0.079(5) 0.029(5) 0.000(3) 0.001(4)
C7 0.064(4) 0.069(4) 0.062(4) 0.019(3) 0.021(3) 0.003(3)
C8 0.062(4) 0.059(4) 0.060(4) 0.016(3) 0.017(3) 0.005(3)
C9 0.074(4) 0.087(5) 0.059(4) 0.005(3) 0.016(3) -0.009(3)
C10 0.096(6) 0.110(7) 0.064(4) -0.015(4) 0.004(4) -0.023(5)
C11 0.081(5) 0.106(6) 0.088(6) 0.012(5) 0.007(4) -0.022(4)
C12 0.076(5) 0.111(6) 0.083(5) 0.016(4) 0.023(4) -0.010(4)
C13 0.163(8) 0.213(11) 0.177(9) 0.091(8) 0.052(7) 0.026(7)
Cl3 0.136(3) 0.195(9) 0.0810(16) -0.051(4) -0.0041(18) -0.035(5)
Cl3A 0.136(3) 0.195(9) 0.0810(16) -0.051(4) -0.0041(18) -0.035(5)
N1 0.057(3) 0.092(4) 0.048(3) 0.014(3) 0.010(2) -0.004(3)
N2 0.068(3) 0.111(5) 0.055(3) 0.011(3) 0.018(3) -0.011(3)
O2 0.074(3) 0.104(4) 0.065(3) 0.015(3) 0.022(2) -0.003(2)
O13 0.109(4) 0.081(4) 0.084(3) 0.029(3) 0.036(3) 0.017(3)
loop_
_atom_type_symbol
_atom_type_description
_atom_type_scat_dispersion_real
_atom_type_scat_dispersion_imag
_atom_type_scat_source
C C 0.0033 0.0016 'International Tables Vol C Tables 4.2.6.8 and 6.1.1.4'
H H 0.0000 0.0000 'International Tables Vol C Tables 4.2.6.8 and 6.1.1.4'
Cl Cl 0.1484 0.1585 'International Tables Vol C Tables 4.2.6.8 and 6.1.1.4'
N N 0.0061 0.0033 'International Tables Vol C Tables 4.2.6.8 and 6.1.1.4'
O O 0.0106 0.0060 'International Tables Vol C Tables 4.2.6.8 and 6.1.1.4'
loop_
_geom_angle_atom_site_label_1
_geom_angle_atom_site_label_2
_geom_angle_atom_site_label_3
_geom_angle
C15 C14 C19 111.4(9)
O27 C14 C15 105.2(7)
O27 C14 C19 111.5(9)
C14 C15 C16 110.2(7)
N3 C15 C14 112.4(7)
N3 C15 C16 111.4(6)
C17 C16 C15 113.5(9)
C16 C17 C18 110.1(9)
C17 C18 C19 113.3(12)
C18 C19 C14 110.9(9)
N3 C20 C21 116.3(6)
O5 C20 C21 120.2(6)
O5 C20 N3 123.4(7)
C22 C21 C20 120.1(7)
N4 C21 C20 117.2(6)
N4 C21 C22 122.7(7)
C21 C22 C23 117.7(7)
C22 C23 Cl1 119.7(8)
C22 C23 Cl1A 120.2(16)
C24 C23 C22 121.5(8)
C24 C23 Cl1 118.7(9)
C24 C23 Cl1A 116.4(16)
C23 C24 C25 116.4(9)
N4 C25 C24 124.9(9)
C20 N3 C15 124.6(7)
C25 N4 C21 116.8(7)
C26 O27 C14 116.3(11)
C2 C1 C6 110.9(5)
O13 C1 C2 106.6(5)
O13 C1 C6 111.8(6)
C1 C2 C3 110.8(5)
N1 C2 C1 111.8(5)
N1 C2 C3 110.4(5)
C4 C3 C2 110.7(7)
C3 C4 C5 109.5(6)
C6 C5 C4 111.3(7)
C5 C6 C1 110.5(6)
N1 C7 C8 116.8(5)
O2 C7 C8 119.6(5)
O2 C7 N1 123.6(5)
C9 C8 C7 119.7(5)
N2 C8 C7 117.1(5)
N2 C8 C9 123.1(5)
C8 C9 C10 118.3(6)
C9 C10 Cl3 118.7(6)
C9 C10 Cl3A 121.3(10)
C11 C10 C9 119.8(6)
C11 C10 Cl3 121.3(6)
C11 C10 Cl3A 114.3(11)
C12 C11 C10 118.4(7)
C11 C12 N2 123.6(7)
C7 N1 C2 124.3(5)
C8 N2 C12 116.8(5)
C13 O13 C1 116.8(8)
loop_
_geom_bond_atom_site_label_1
_geom_bond_atom_site_label_2
_geom_bond_distance
C14 C15 1.499(11)
C14 C19 1.544(14)
C14 O27 1.419(11)
C15 C16 1.523(11)
C15 N3 1.424(10)
C16 C17 1.491(14)
C17 C18 1.495(17)
C18 C19 1.504(17)
C20 C21 1.480(9)
C20 N3 1.347(9)
C20 O5 1.227(8)
C21 C22 1.372(9)
C21 N4 1.341(9)
C22 C23 1.374(11)
C23 C24 1.355(12)
C23 Cl1 1.757(12)
C23 Cl1A 1.70(3)
C24 C25 1.368(13)
C25 N4 1.333(10)
C26 O27 1.204(14)
C1 C2 1.488(8)
C1 C6 1.529(9)
C1 O13 1.428(8)
C2 C3 1.537(9)
C2 N1 1.463(7)
C3 C4 1.501(10)
C4 C5 1.526(12)
C5 C6 1.493(11)
C7 C8 1.487(8)
C7 N1 1.326(7)
C7 O2 1.239(7)
C8 C9 1.353(8)
C8 N2 1.338(7)
C9 C10 1.374(10)
C10 C11 1.369(10)
C10 Cl3 1.764(9)
C10 Cl3A 1.71(2)
C11 C12 1.337(10)
C12 N2 1.352(8)
C13 O13 1.374(13)
loop_
_geom_torsion_atom_site_label_1
_geom_torsion_atom_site_label_2
_geom_torsion_atom_site_label_3
_geom_torsion_atom_site_label_4
_geom_torsion
C14 C15 C16 C17 -55.9(10)
C14 C15 N3 C20 141.2(7)
C15 C14 C19 C18 -53.8(12)
C15 C14 O27 C26 149.3(12)
C15 C16 C17 C18 54.9(12)
C16 C15 N3 C20 -94.6(8)
C16 C17 C18 C19 -54.2(15)
C17 C18 C19 C14 54.0(14)
C19 C14 C15 C16 54.0(10)
C19 C14 C15 N3 178.9(7)
C19 C14 O27 C26 -89.9(13)
C20 C21 C22 C23 178.2(6)
C20 C21 N4 C25 -179.5(7)
C21 C20 N3 C15 174.4(6)
C21 C22 C23 C24 2.1(10)
C21 C22 C23 Cl1 -174.6(6)
C21 C22 C23 Cl1A 166.2(11)
C22 C21 N4 C25 0.6(10)
C22 C23 C24 C25 -1.0(12)
C23 C24 C25 N4 -0.5(14)
C24 C25 N4 C21 0.6(12)
Cl1 C23 C24 C25 175.8(7)
Cl1A C23 C24 C25 -165.6(11)
N3 C15 C16 C17 178.6(8)
N3 C20 C21 C22 -168.7(6)
N3 C20 C21 N4 11.5(8)
N4 C21 C22 C23 -2.0(9)
O5 C20 C21 C22 11.6(9)
O5 C20 C21 N4 -168.2(6)
O5 C20 N3 C15 -5.8(10)
O27 C14 C15 C16 174.9(7)
O27 C14 C15 N3 -60.2(8)
O27 C14 C19 C18 -171.0(10)
C1 C2 C3 C4 -57.3(8)
C1 C2 N1 C7 113.8(7)
C2 C1 C6 C5 -56.5(8)
C2 C1 O13 C13 156.5(7)
C2 C3 C4 C5 57.1(10)
C3 C2 N1 C7 -122.3(7)
C3 C4 C5 C6 -58.2(10)
C4 C5 C6 C1 57.3(9)
C6 C1 C2 C3 56.0(7)
C6 C1 C2 N1 179.5(6)
C6 C1 O13 C13 -82.1(8)
C7 C8 C9 C10 178.6(7)
C7 C8 N2 C12 -178.2(6)
C8 C7 N1 C2 -177.9(5)
C8 C9 C10 C11 -1.2(12)
C8 C9 C10 Cl3 173.5(8)
C8 C9 C10 Cl3A -155.7(14)
C9 C8 N2 C12 1.7(10)
C9 C10 C11 C12 3.2(13)
C10 C11 C12 N2 -2.9(14)
C11 C12 N2 C8 0.4(12)
Cl3 C10 C11 C12 -171.4(9)
Cl3A C10 C11 C12 159.3(13)
N1 C2 C3 C4 178.3(6)
N1 C7 C8 C9 179.7(6)
N1 C7 C8 N2 -0.5(8)
N2 C8 C9 C10 -1.3(11)
O2 C7 C8 C9 0.3(9)
O2 C7 C8 N2 -179.9(7)
O2 C7 N1 C2 1.5(10)
O13 C1 C2 C3 177.9(5)
O13 C1 C2 N1 -58.5(6)
O13 C1 C6 C5 -175.4(6)
