#------------------------------------------------------------------------------
#$Date: 2016-03-26 14:23:56 +0200 (Sat, 26 Mar 2016) $
#$Revision: 180260 $
#$URL: svn://www.crystallography.net/cod/cif/7/11/46/7114641.cif $
#------------------------------------------------------------------------------
#
# This file is available in the Crystallography Open Database (COD),
# http://www.crystallography.net/
#
# All data on this site have been placed in the public domain by the
# contributors.
#
data_7114641
loop_
_publ_author_name
'Weiwei Luo'
'Jiannan Zhao'
'Chengkai Yin'
'Xiaohua Liu'
'Lili Lin'
'Xiaoming Feng'
_publ_section_title
;
 Catalytic hetero-ene reactions of 5-methyleneoxazolines: highly
 enantioselective synthesis of 2,5-disubstituted oxazole derivatives
;
_journal_name_full               Chem.Commun.
_journal_page_first              7524
_journal_paper_doi               10.1039/C4CC02809K
_journal_volume                  50
_journal_year                    2014
_chemical_formula_moiety         'C18 H14 Br N O3'
_chemical_formula_sum            'C18 H14 Br N O3'
_chemical_formula_weight         372.21
_chemical_name_systematic
;
 ?
;
_space_group_crystal_system      monoclinic
_space_group_IT_number           4
_space_group_name_Hall           'P 2yb'
_space_group_name_H-M_alt        'P 1 21 1'
_symmetry_space_group_name_Hall  'P 2yb'
_symmetry_space_group_name_H-M   'P 1 21 1'
_atom_sites_solution_hydrogens   mixed
_atom_sites_solution_primary     direct
_audit_creation_date             2013-11-04
_audit_creation_method
;
Olex2 1.2
(compiled 2013.09.17 svn.r2790 for OlexSys, GUI svn.r4601)
;
_cell_angle_alpha                90
_cell_angle_beta                 106.961(5)
_cell_angle_gamma                90
_cell_formula_units_Z            2
_cell_length_a                   11.3897(5)
_cell_length_b                   5.3882(2)
_cell_length_c                   13.3371(6)
_cell_measurement_reflns_used    1228
_cell_measurement_temperature    293(2)
_cell_measurement_theta_max      24.9720
_cell_measurement_theta_min      3.1840
_cell_volume                     782.90(6)
_computing_cell_refinement
;
CrysAlisPro, Agilent Technologies,
Version 1.171.36.28 (release 01-02-2013 CrysAlis171 .NET)
(compiled Feb  1 2013,16:14:44)
;
_computing_data_collection
;
CrysAlisPro, Agilent Technologies,
Version 1.171.36.28 (release 01-02-2013 CrysAlis171 .NET)
(compiled Feb  1 2013,16:14:44)
;
_computing_data_reduction
;
CrysAlisPro, Agilent Technologies,
Version 1.171.36.28 (release 01-02-2013 CrysAlis171 .NET)
(compiled Feb  1 2013,16:14:44)
;
_computing_molecular_graphics
;
O. V. Dolomanov, L. J. Bourhis, R. J. Gildea, J. A. K. Howard and H. Puschmann,
OLEX2: a complete structure solution, refinement and analysis program.
J. Appl. Cryst. (2009). 42, 339-341.
;
_computing_publication_material
;
O. V. Dolomanov, L. J. Bourhis, R. J. Gildea, J. A. K. Howard and H. Puschmann,
OLEX2: a complete structure solution, refinement and analysis program.
J. Appl. Cryst. (2009). 42, 339-341.
;
_computing_structure_refinement
;
SHELX, G.M. Sheldrick, Acta Cryst.
(2008). A64, 112-122
;
_computing_structure_solution
;
SHELX, G.M. Sheldrick, Acta Cryst.
(2008). A64, 112-122
;
_diffrn_ambient_temperature      293.15
_diffrn_detector_area_resol_mean 16.0874
_diffrn_measured_fraction_theta_full 0.9978
_diffrn_measured_fraction_theta_max 0.6810
_diffrn_measurement_device_type  'Xcalibur, Eos'
_diffrn_measurement_method       '\w scans'
_diffrn_orient_matrix_UB_11      0.0484930000
_diffrn_orient_matrix_UB_12      -0.0446636000
_diffrn_orient_matrix_UB_13      0.0426230000
_diffrn_orient_matrix_UB_21      0.0058321000
_diffrn_orient_matrix_UB_22      0.1190502000
_diffrn_orient_matrix_UB_23      0.0236895000
_diffrn_orient_matrix_UB_31      -0.0430342000
_diffrn_orient_matrix_UB_32      -0.0342165000
_diffrn_orient_matrix_UB_33      0.0267018000
_diffrn_radiation_monochromator  graphite
_diffrn_radiation_type           'Mo K\a'
_diffrn_radiation_wavelength     0.7107
_diffrn_reflns_av_R_equivalents  0.0245
_diffrn_reflns_av_unetI/netI     0.0536
_diffrn_reflns_Laue_measured_fraction_full 0.997
_diffrn_reflns_Laue_measured_fraction_max 0.998
_diffrn_reflns_limit_h_max       14
_diffrn_reflns_limit_h_min       -13
_diffrn_reflns_limit_k_max       6
_diffrn_reflns_limit_k_min       -6
_diffrn_reflns_limit_l_max       16
_diffrn_reflns_limit_l_min       -14
_diffrn_reflns_number            3827
_diffrn_reflns_point_group_measured_fraction_full 0.806
_diffrn_reflns_point_group_measured_fraction_max 0.804
_diffrn_reflns_theta_full        26.000
_diffrn_reflns_theta_max         26.365
_diffrn_reflns_theta_min         3.194
_diffrn_source                   'Enhance (Mo) X-ray Source'
_exptl_absorpt_coefficient_mu    2.640
_exptl_absorpt_correction_T_max  1.00000
_exptl_absorpt_correction_T_min  0.77585
_exptl_absorpt_correction_type   multi-scan
_exptl_absorpt_process_details
;
CrysAlisPro, Agilent Technologies,
Version 1.171.36.28 (release 01-02-2013 CrysAlis171 .NET)
(compiled Feb  1 2013,16:14:44)
Empirical absorption correction using spherical harmonics,
 implemented in SCALE3 ABSPACK scaling algorithm.
;
_exptl_crystal_density_diffrn    1.579
_exptl_crystal_F_000             376
_exptl_crystal_size_max          0.3
_exptl_crystal_size_mid          0.3
_exptl_crystal_size_min          0.2
_refine_diff_density_max         0.456
_refine_diff_density_min         -0.644
_refine_diff_density_rms         0.061
_refine_ls_abs_structure_details
;
 Flack x determined using 590 quotients [(I+)-(I-)]/[(I+)+(I-)]
 (Parsons and Flack (2004), Acta Cryst. A60, s61).
;
_refine_ls_abs_structure_Flack   0.024(11)
_refine_ls_extinction_method     none
_refine_ls_goodness_of_fit_ref   1.087
_refine_ls_hydrogen_treatment    mixed
_refine_ls_matrix_type           full
_refine_ls_number_parameters     212
_refine_ls_number_reflns         2577
_refine_ls_number_restraints     1
_refine_ls_restrained_S_all      1.087
_refine_ls_R_factor_all          0.0603
_refine_ls_R_factor_gt           0.0443
_refine_ls_shift/su_max          0.000
_refine_ls_shift/su_mean         0.000
_refine_ls_structure_factor_coef Fsqd
_refine_ls_weighting_details
;
 w=1/[\s^2^(Fo^2^)+(0.0312P)^2^+0.0087P]
 where P=(Fo^2^+2Fc^2^)/3
;
_refine_ls_weighting_scheme      calc
_refine_ls_wR_factor_gt          0.0796
_refine_ls_wR_factor_ref         0.0880
_reflns_Friedel_coverage         0.450
_reflns_Friedel_fraction_full    0.566
_reflns_Friedel_fraction_max     0.561
_reflns_number_gt                2112
_reflns_number_total             2577
_reflns_threshold_expression     'I > 2\s(I)'
_cod_data_source_file            c4cc02809k2.cif
_cod_data_source_block           131104_s3_lww
_cod_database_code               7114641
#BEGIN Tags that were not found in dictionaries:
_shelxl_version_number           2013-2
_chemical_oxdiff_formula         c12h20n2o3br1
_shelx_space_group_comment
;
The symmetry employed for this shelxl refinement is uniquely defined
by the following loop, which should always be used as a source of
symmetry information in preference to the above space-group names.
They are only intended as comments.
;
_shelx_estimated_absorpt_t_max   0.620
_shelx_estimated_absorpt_t_min   0.505
_reflns_odcompleteness_completeness 99.78
_reflns_odcompleteness_iscentric 1
_reflns_odcompleteness_theta     26.32
_olex2_refinement_description
;
1. Fixed Uiso
 At 1.2 times of:
  All C(H) groups, All C(H,H) groups
2.a Ternary CH refined with riding coordinates:
 C8(H8)
2.b Secondary CH2 refined with riding coordinates:
 C9(H9A,H9B)
2.c Aromatic/amide H refined with riding coordinates:
 C2(H2), C3(H3A), C5(H5), C6(H6), C11(H11), C14(H14), C15(H15), C16(H16),
 C17(H17), C18(H18)
;
_shelx_res_file
;
TITL 131104_s3_lww in P21 #4
CELL 0.71073 11.389702 5.388225 13.337136 90 106.9613 90
ZERR 2 0.000539 0.000204 0.000641 0 0.005 0
LATT -1
SYMM -X,0.5+Y,-Z

SFAC C H Br N O
UNIT 36 28 2 2 6

L.S. 4
PLAN  20
SIZE 0.2 0.3 0.3
TEMP 20
REM reset to P21 #4
BOND $H
htab
fmap 2
MORE -1
ACTA 52
CONF
SHEL 999 0.8
REM <HKL>E:/CCD%20data/1311/olex2_131104_s3_lww/131104_s3_lww.hkl</HKL>

WGHT    0.031200    0.008700
FVAR       8.64328
BR1   3    0.432242    0.051381    0.076332    11.00000    0.09461    0.04742 =
         0.04368   -0.01207    0.00403   -0.01549
O1    5    0.887082    1.081228    0.673662    11.00000    0.02526    0.03944 =
         0.03620   -0.00783    0.00206   -0.00240
O2    5    0.483334    0.998443    0.428060    11.00000    0.03953    0.04286 =
         0.05451   -0.01055    0.01297    0.00755
O3    5    0.697015    1.221598    0.486525    11.00000    0.04734    0.02485 =
         0.05327   -0.00091    0.00305   -0.00281
H3    2    0.636715    1.229717    0.501658    11.00000    0.11361
N1    4    1.079491    1.018042    0.673763    11.00000    0.02840    0.05677 =
         0.05222   -0.02100    0.00735   -0.00355
C1    1    0.473313    0.306563    0.178044    11.00000    0.05337    0.03851 =
         0.02369   -0.00289   -0.00041   -0.00842
C2    1    0.382491    0.417635    0.211595    11.00000    0.03342    0.05009 =
         0.04171    0.00110    0.00312   -0.01609
AFIX  43
H2    2    0.301287    0.366888    0.184870    11.00000   -1.20000
AFIX   0
C3    1    0.413082    0.604393    0.285035    11.00000    0.02635    0.05324 =
         0.03605    0.00085    0.00599   -0.00517
AFIX  43
H3A   2    0.352164    0.678149    0.308566    11.00000   -1.20000
AFIX   0
C4    1    0.534977    0.684886    0.324836    11.00000    0.02445    0.03354 =
         0.02928    0.00492    0.00240   -0.00375
C5    1    0.624108    0.567228    0.289565    11.00000    0.02278    0.04161 =
         0.03427    0.00044    0.00783    0.00134
AFIX  43
H5    2    0.705692    0.615842    0.315851    11.00000   -1.20000
AFIX   0
C6    1    0.593478    0.379489    0.216188    11.00000    0.04206    0.04620 =
         0.03526    0.00091    0.01361    0.00384
AFIX  43
H6    2    0.653838    0.303029    0.192791    11.00000   -1.20000
AFIX   0
C7    1    0.563475    0.892124    0.400761    11.00000    0.03353    0.03098 =
         0.02996    0.00880    0.00465   -0.00270
C8    1    0.696188    0.978847    0.449480    11.00000    0.02640    0.03065 =
         0.03686   -0.00099    0.00576   -0.00341
AFIX  13
H8    2    0.738702    0.976097    0.395326    11.00000   -1.20000
AFIX   0
C9    1    0.762998    0.803871    0.538472    11.00000    0.03256    0.02613 =
         0.03629   -0.00192    0.00145   -0.00479
AFIX  23
H9A   2    0.712924    0.779773    0.585341    11.00000   -1.20000
H9B   2    0.773818    0.643608    0.509240    11.00000   -1.20000
AFIX   0
C10   1    0.885243    0.902784    0.599258    11.00000    0.03299    0.02668 =
         0.03244   -0.00466    0.00128   -0.00310
C11   1    1.001457    0.864902    0.600350    11.00000    0.03461    0.05160 =
         0.05067   -0.02036    0.01083    0.00051
AFIX  43
H11   2    1.026462    0.752000    0.557952    11.00000   -1.20000
AFIX   0
C12   1    1.008229    1.140531    0.714632    11.00000    0.02669    0.03834 =
         0.03475    0.00156    0.00503   -0.00471
C13   1    1.040540    1.333564    0.795106    11.00000    0.03386    0.03797 =
         0.02908    0.00326    0.00504   -0.00544
C14   1    1.162442    1.362262    0.854397    11.00000    0.03028    0.05532 =
         0.04079   -0.00723    0.00445   -0.00096
AFIX  43
H14   2    1.221743    1.255856    0.843326    11.00000   -1.20000
AFIX   0
C15   1    1.196311    1.543409    0.928295    11.00000    0.03946    0.05509 =
         0.04084   -0.00814   -0.00121   -0.00699
AFIX  43
H15   2    1.278366    1.558580    0.966967    11.00000   -1.20000
AFIX   0
C16   1    1.111707    1.703633    0.946682    11.00000    0.06972    0.04511 =
         0.04441   -0.01534    0.01238   -0.01181
AFIX  43
H16   2    1.135848    1.828598    0.996567    11.00000   -1.20000
AFIX   0
C17   1    0.988294    1.676337    0.889194    11.00000    0.05796    0.04706 =
         0.05905   -0.01049    0.01058    0.00666
AFIX  43
H17   2    0.929380    1.781829    0.901536    11.00000   -1.20000
AFIX   0
C18   1    0.954049    1.493000    0.814242    11.00000    0.03441    0.04583 =
         0.04729   -0.00353    0.00563   -0.00205
AFIX  43
H18   2    0.871911    1.476096    0.776055    11.00000   -1.20000
AFIX   0
HKLF 4

REM  131104_s3_lww in P21 #4
REM R1 =  0.0443 for    2112 Fo > 4sig(Fo)  and  0.0603 for all    2577 data
REM    212 parameters refined using      1 restraints

END

WGHT      0.0312      0.0087

REM Instructions for potential hydrogen bonds
HTAB O3 O2
EQIV $1 -x+1, y+1/2, -z+1
HTAB O3 O2_$1
EQIV $2 x, y-1, z
HTAB C9 O3_$2

REM Highest difference peak  0.456,  deepest hole -0.644,  1-sigma level  0.061
Q1    1   0.3599  0.0559  0.1023  11.00000  0.05    0.43
Q2    1   0.3403  0.9749  0.2545  11.00000  0.05    0.24
Q3    1   1.1431  0.9483  0.7858  11.00000  0.05    0.22
Q4    1   1.2579  2.0469  1.0448  11.00000  0.05    0.21
Q5    1   0.5811  0.5753  0.3271  11.00000  0.05    0.21
Q6    1   0.9559  0.8486  0.5016  11.00000  0.05    0.21
Q7    1   0.4627 -0.0209  0.1611  11.00000  0.05    0.20
Q8    1   0.2137  0.3142  0.1032  11.00000  0.05    0.20
Q9    1   0.6385  0.9478  0.4201  11.00000  0.05    0.20
Q10   1   1.2865  1.0488  0.8718  11.00000  0.05    0.20
Q11   1   1.3025  1.9258  0.9477  11.00000  0.05    0.20
Q12   1   1.0001  1.9512  1.0009  11.00000  0.05    0.20
Q13   1   0.5073  1.0498  0.5210  11.00000  0.05    0.20
Q14   1   0.8061  1.7196  0.9815  11.00000  0.05    0.20
Q15   1   1.0600  1.0433  0.5371  11.00000  0.05    0.19
Q16   1   0.3788 -0.0164 -0.0146  11.00000  0.05    0.19
Q17   1   1.0806  1.0816  0.8356  11.00000  0.05    0.19
Q18   1   0.4577  0.1415  0.1617  11.00000  0.05    0.19
Q19   1   1.0715  0.4141  0.5818  11.00000  0.05    0.19
Q20   1   0.4222  1.0533  0.2989  11.00000  0.05    0.18
;
_shelx_res_checksum              67369
_shelx_hkl_file
;
   0  -6   0 15559.1 1440.64   2
   0  -6  -1 7623.29 1065.58   2
   0  -6  -2 3740.01 818.870   2
   0  -6  -3 2131.90 686.840   2
   0  -6  -4 2538.38 811.849   2
   0  -6  -5 2403.38 742.824   2
   0  -6  -6 5694.20 1147.78   2
   0  -6  -7 10008.8 1455.31   2
   0  -5   0 347.238 352.692   2
   0  -5  -1 11779.4 1168.14   2
   0  -5   1 10553.8 1058.77   2
   0  -5  -2 22388.4 1621.16   2
   0  -5   2 22108.7 1495.78   2
   0  -5  -3 16594.0 1477.80   2
   0  -5   3 15936.2 1244.40   2
   0  -5  -4 17580.1 1588.33   2
   0  -4   0 46106.7 1989.27   2
   0  -4  -1 44899.0 2025.50   2
   0  -4   1 44950.2 1926.75   2
   0  -4  -2 27383.2 1663.15   2
   0  -4   2 29399.3 1564.25   2
   0  -4   3 7206.58 756.755   2
   0  -3   0 63.8878 218.997   2
   0  -3  -1 42689.4 1736.79   2
   0  -3   1 46030.3 1686.87   2
   0  -3   2 81799.9 2320.72   2
   0  -2   0 228649. 3923.15   2
   0  -2  -1 116106. 2917.81   5
   0  -2   1 112413. 2386.45   2
   0  -2  -2 12051.3 877.103   5
   0  -2   2 11512.2 661.851   2
   0  -2  -6 117908. 2048.99   1
   0  -2  -7 24982.8 875.014   1
   0  -2  -8 79169.6 1897.29   1
   0  -2  -9 3554.59 424.851   1
   0  -1   0 455.978 135.265   2
   0  -1   1 4605.86 298.927   2
   0  -1  -1 4768.87 393.313   5
   0  -1  -3 956742. 12613.5   4
   0  -1  -3 906598. 11050.7   1
   0  -1  -4 30359.9 1439.59   4
   0  -1   6 36695.6 1905.24   4
   0  -1   7 17702.9 1380.39   4
   0  -1   8 34505.2 2156.51   4
   0  -1   9 31396.6 2132.99   4
   0  -1  10 55404.8 3095.17   4
   0  -1  11 44784.6 2892.88   4
   0  -1  12 1292.49 462.358   4
   0  -1  13 269.798 684.905   4
   0  -1  14 4059.26 1131.82   4
   0   0   2 11391.4 625.961   4
   0   0  -2 11584.5 625.202   4
   0   0  -2 11935.0 472.092   3
   0   0   2 12178.3 482.575   3
   0   0   3 2148.35 244.153   3
   0   0   3 2788.64 370.292   4
   0   0  -3 2446.30 261.327   3
   0   0  -3 2813.11 370.627   4
   0   0   4 27972.3 1023.10   3
   0   0  -4 27548.7 1343.74   4
   0   0  -4 25505.1 985.684   3
   0   0   4 28706.2 1408.20   4
   0   0   5 98638.6 3055.48   4
   0   0   5 99970.4 2335.38   3
   0   0  -5 93336.6 2218.62   3
   0   0  -5 91672.9 2918.43   4
   0   0   6 93813.5 2410.60   3
   0   0   6 92202.6 3187.13   4
   0   0  -6 86147.9 2265.77   3
   0   0   7 90732.2 3355.45   4
   0   0   7 85343.3 2437.67   3
   0   0   8 237162. 6189.03   4
   0   0   8 230185. 4682.75   3
   0   0   9 10880.5 939.656   3
   0   0   9 9508.03 1276.83   4
   0   0  10 21275.4 1358.76   3
   0   0  10 23210.8 2024.83   4
   0   0  11 1294.43 636.860   4
   0   0  12 13473.1 1725.56   4
   0   0  13 18991.6 2127.77   4
   0   0  14 8650.31 1512.20   4
   0   0  15 10474.4 1783.65   4
   0   0  16 463.152 648.517   4
   0   1   0-118.197 85.8505   5
   0   1  -1 5740.48 329.333   2
   0   1   2 672495. 9082.30   4
   0   1   3 993900. 13162.7   4
   0   1  -4 13040.2 930.910   4
   0   1   4 12727.4 937.195   4
   0   1  -4 10523.4 765.925   3
   0   1   5 261222. 5559.67   4
   0   1  -5 276190. 5582.65   4
   0   1  -5 267873. 4995.26   3
   0   1   6 45447.9 2209.95   4
   0   1   6 43832.4 1450.90   3
   0   1   7 18973.5 1540.88   4
   0   1   7 19275.1 1022.07   3
   0   1   8 43962.4 2483.47   4
   0   1   8 43784.4 1700.13   3
   0   1   9 25741.1 2059.22   4
   0   1   9 27652.5 1399.33   3
   0   1  10 70486.4 2409.21   3
   0   1  10 73934.1 3720.96   4
   0   1  11 43622.2 1921.39   3
   0   1  11 44363.9 3025.43   4
   0   1  12 3094.18 875.453   4
   0   1  13-370.114 665.905   4
   0   1  14 1218.31 896.645   4
   0   1  15 1922.79 959.262   4
   0   1  16 3627.72 1216.47   4
   0   2   0 229358. 4448.93   5
   0   2   1 120516. 2998.60   5
   0   2  -1 121026. 2498.62   2
   0   2  -2 15477.9 775.043   2
   0   2  -3 204628. 3628.19   2
   0   2   3 205794. 2913.31   1
   0   2   4 31720.4 1650.80   4
   0   2  -4 33099.8 1274.36   2
   0   2   5 398717. 7559.50   4
   0   2   6 108350. 3682.82   4
   0   2   7 35361.3 2181.59   4
   0   2   8 84416.8 3706.65   4
   0   2   9 6589.19 684.815   3
   0   2   9 4896.36 1012.34   4
   0   2  10 2223.37 459.318   3
   0   2  10 3353.65 918.510   4
   0   2  11 9728.20 1447.22   4
   0   2  12 15752.8 1955.72   4
   0   2  13 9181.79 1628.16   4
   0   2  14 11926.2 1906.71   4
   0   2  15 1188.87 806.484   4
   0   3   0-535.779 398.046   5
   0   3  -1 38016.8 1920.87   5
   0   3   1 32718.4 1763.87   5
   0   3  -3 88129.8 2446.01   2
   0   3   4 23548.7 1640.79   4
   0   3   4 22333.9 737.827   1
   0   3   5 47092.2 2467.92   4
   0   3   6 47170.3 2558.00   4
   0   3   7 17594.9 1668.21   4
   0   3   8 19778.3 1847.21   4
   0   3   9 43098.4 2888.30   4
   0   3  10 18286.1 1985.82   4
   0   3  11 16421.5 2013.25   4
   0   3  12 6115.70 1417.73   4
   0   3  13 1661.83 625.645   4
   0   3  14 2714.18 1130.65   4
   0   4   0 54085.7 2647.81   5
   0   4   1 44973.2 2382.64   5
   0   4  -1 45652.3 2445.06   5
   0   4  -2 22049.9 1704.35   5
   0   4  -3 10226.0 1200.31   5
   0   4   4 4829.03 902.686   4
   0   4   4 4816.82 428.662   1
   0   4   5 26782.9 2084.22   4
   0   4   6 15762.0 1643.32   4
   0   4   7 21675.1 2032.22   4
   0   4   8 23296.3 2201.91   4
   0   4   9 4564.58 1120.66   4
   0   4  10 779.882 704.189   4
   0   4  11 12032.1 1875.21   4
   0   4  12 8149.17 1667.51   4
   0   4  13 8340.18 1741.21   4
   0   5   0 258.687 467.013   5
   0   5  -1 8034.91 1255.23   5
   0   5  -2 22166.0 1984.46   5
   0   5  -3 16295.8 1713.96   5
   0   5   4 19638.3 1981.28   4
   0   5  -4 18584.8 1825.45   5
   0   5  -5 6694.76 1181.79   5
   0   5   5 7836.77 1301.59   4
   0   5   6 2165.02 828.111   4
   0   5   7 1983.93 830.684   4
   0   5   8 2606.00 906.593   4
   0   5   9 9906.38 1674.77   4
   0   5  10 8293.33 1616.75   4
   0   6  -1 5401.89 1085.53   5
   0   6  -2 3474.82 990.790   5
   0   6  -3 1820.44 543.892   5
   0   6   4 4827.99 1220.99   4
   0   6  -4 4146.44 1111.82   5
   0   6   5 3606.78 1103.09   4
   0   6  -5 4451.57 1118.74   5
   0   6   6 6564.01 1358.26   4
   0   6  -6 4853.03 1206.32   5
   0   6   7 10983.1 1817.51   4
   0   6  -7 9939.83 1668.53   5
  -1  -7  -4 1095.93 686.483   2
   1  -6  -7 2996.02 850.074   2
   1  -6  -6 4331.65 972.790   2
   1  -6  -5 5120.67 985.508   2
   1  -6  -4 2110.35 661.346   2
   1  -6  -3-125.415 388.912   2
   1  -6  -2 592.696 440.106   2
  -1  -6   2 192.616 366.280   2
  -1  -6   1 3775.77 805.179   2
  -1  -6   0 7190.45 1047.06   2
  -1  -6  -1 5071.76 936.402   2
  -1  -6  -2 3671.34 861.479   2
  -1  -6  -3 1976.30 619.847   2
  -1  -6  -4 1710.93 688.074   2
  -1  -6  -5 3248.03 840.545   2
  -1  -6  -6 1360.43 727.949   2
  -1  -6  -7 8928.62 1501.78   2
  -1  -6  -8 1772.99 878.271   2
   1  -5  -4 15583.0 1461.32   2
   1  -5  -3 32963.2 2013.98   2
  -1  -5   3 33843.3 1945.35   2
  -1  -5   2 12233.0 1192.37   2
   1  -5  -2 8731.57 1059.86   2
  -1  -5   1 9924.23 1097.78   2
   1  -5  -1 8606.25 967.133   2
  -1  -5   0 1642.11 517.619   2
   1  -5   0 1811.12 494.586   2
  -1  -5  -1 1594.01 500.600   2
   1  -5   1 2162.89 501.221   2
  -1  -5  -2 9074.23 1118.88   2
   1  -5   2 10065.6 952.810   2
  -1  -5  -3 18910.5 1643.90   2
  -1  -5  -4 22413.5 1859.97   2
  -1  -5  -5 2948.68 751.981   2
  -1  -4   3 13616.4 1099.04   2
   1  -4  -2 9191.10 935.916   2
  -1  -4   2 9097.28 931.777   2
  -1  -4   1 36865.4 1858.44   2
   1  -4  -1 36210.1 1723.44   2
   1  -4   0 38373.3 1697.07   2
  -1  -4   0 37043.0 1867.48   2
  -1  -4  -1 63423.9 2565.56   2
   1  -4   1 65349.7 2195.92   2
  -1  -4  -2 45727.0 2254.64   2
   1  -4   2 45902.9 1790.66   2
  -1  -4  -3 11958.9 1207.91   2
  -1  -3   3 29828.7 1445.93   2
  -1  -3   2 172374. 3815.63   2
  -1  -3   1 74569.1 2365.53   2
   1  -3  -1 75139.6 2207.65   2
  -1  -3   0 59728.9 2129.66   2
   1  -3   0 62080.0 1888.07   2
   1  -3   1 45238.7 1539.70   2
  -1  -3  -1 45563.4 1920.54   2
   1  -3   2 35274.6 1310.80   2
   1  -2  -9 5039.73 406.563   1
   1  -2  -8 4756.32 335.241   1
  -1  -2   2 21470.8 1024.32   2
   1  -2  -1 49687.0 1809.10   5
  -1  -2   1 48312.3 1591.95   2
  -1  -2   0 124830. 2845.59   2
   1  -2   0 130415. 2448.59   2
   1  -2   1 149509. 2587.23   2
  -1  -2  -1 147370. 3371.31   5
  -1  -2  -2 279057. 5130.67   5
  -1  -2  -5 29763.5 1051.95   1
  -1  -2  -6 115046. 2447.47   1
  -1  -2  -7 25117.9 1083.47   1
  -1  -2  -8 27077.5 1208.77   1
  -1  -1  15 4962.15 1181.57   4
  -1  -1  14 6164.83 1337.29   4
  -1  -1  13 6162.32 1250.09   4
  -1  -1  12 1713.61 769.043   4
  -1  -1  11 14782.4 1704.44   4
  -1  -1  10 9704.55 1288.52   4
  -1  -1   9 49233.9 2708.76   4
  -1  -1   8 35757.1 2211.31   4
  -1  -1   7 86735.7 3235.82   4
  -1  -1   6 10315.1 989.261   4
   1  -1  -4 199525. 4147.67   4
   1  -1  -3 749047. 10277.9   4
   1  -1  -1 145223. 2698.85   5
  -1  -1   1 145300. 2532.47   2
  -1  -1   0 23148.1 856.586   2
  -1  -1   0 23384.4 832.148   5
  -1  -1  -2 128655. 2231.79   1
   1  -1   3 415037. 6555.65   3
  -1  -1  -3 406484. 5601.94   1
   1  -1   4 129037. 3206.18   3
  -1  -1  -4 124648. 3127.79   4
  -1  -1  -4 133160. 2509.15   1
   1  -1   5 126958. 3330.03   3
   1  -1   6 27165.7 1510.00   3
   1  -1   6 26253.2 1559.29   4
   1  -1   7 1742.30 539.939   4
   1  -1   8 6889.58 974.315   4
   1  -1   9 30616.3 2143.07   4
   1  -1  10 19661.0 1764.63   4
   1  -1  11 40238.9 2774.84   4
   1  -1  12 15766.4 1794.50   4
   1  -1  13 3960.24 958.482   4
  -1   0  16-766.101 583.131   4
  -1   0  15-364.077 566.339   4
  -1   0  14 9826.47 1624.05   4
  -1   0  13 9329.81 1550.29   4
  -1   0  12 14318.0 1793.83   4
  -1   0  11 23540.4 2162.49   4
  -1   0  10 7747.90 1206.39   4
  -1   0   9 3729.90 893.553   4
  -1   0   8 19102.7 1648.09   4
   1   0  -8 17230.1 960.617   3
   1   0  -7 22430.8 1013.17   3
  -1   0   7 23143.6 1663.21   4
   1   0  -6 177580. 3230.55   3
  -1   0   6 180439. 4689.72   4
   1   0  -5 55717.1 2195.40   4
   1   0  -5 56788.0 1445.97   3
  -1   0   5 59092.6 2319.91   4
  -1   0   4 948.833 297.187   4
   1   0  -4 816.510 271.085   4
   1   0  -4 753.668 128.799   3
   1   0  -3 22163.1 588.190   3
  -1   0   3 20380.7 1035.13   4
   1   0  -3 19686.6 1020.00   4
  -1   0   2 50166.2 1412.27   4
   1   0  -2 52490.4 1435.93   4
   1   0   2 89442.9 1920.60   4
   1   0   2 91282.4 1939.37   3
  -1   0  -2 87074.5 1879.13   4
   1   0   3 352.736 143.965   3
  -1   0  -3 822.079 230.958   4
   1   0   3 1069.52 250.955   4
   1   0   4 20329.0 1202.04   4
  -1   0  -4 21011.7 1153.09   4
   1   0   4 22342.9 1096.48   3
  -1   0  -5 19478.9 1241.97   4
   1   0   5 20565.0 1131.78   3
   1   0   5 20512.4 1320.62   4
   1   0   6 91311.7 2650.93   3
   1   0   6 88531.1 3115.86   4
   1   0   7 77999.3 3118.49   4
   1   0   7 79991.6 2618.02   3
   1   0   8 86996.6 3547.98   4
   1   0   8 85702.0 2850.96   3
   1   0   9 37749.4 2422.06   4
   1   0   9 33553.9 1825.67   3
   1   0  10 1866.41 688.179   4
   1   0  10 1992.48 562.550   3
   1   0  11 3392.50 933.859   4
   1   0  11 4380.60 754.280   3
   1   0  12 15779.2 1398.42   3
   1   0  12 15477.1 1880.57   4
   1   0  13 22768.9 2294.36   4
   1   0  14 13503.6 1862.19   4
   1   0  15 1227.72 612.773   4
   1   0  16 1375.46 911.528   4
  -1   1  16 5255.46 1447.94   4
  -1   1  15 8399.67 1626.17   4
  -1   1  14 6782.39 1452.44   4
  -1   1  13 8252.01 1463.50   4
  -1   1  12 2476.44 938.370   4
  -1   1  11 18147.1 1957.38   4
  -1   1  11 18026.1 1039.12   3
  -1   1  10 16010.1 926.883   3
  -1   1  10 16854.4 1770.21   4
  -1   1   9 52214.6 1671.10   3
  -1   1   9 53262.7 2957.40   4
  -1   1   8 49938.0 2688.36   4
  -1   1   8 49352.3 1523.48   3
  -1   1   7 74856.7 1815.20   3
   1   1  -7 73147.2 2352.07   3
  -1   1   7 75089.0 3130.70   4
  -1   1   6 9348.43 511.961   3
   1   1  -6 10828.7 803.552   3
  -1   1   6 10502.2 1092.15   4
  -1   1   5 23424.2 1438.04   4
  -1   1   4 174921. 3976.74   4
   1   1  -4 177352. 3949.95   4
  -1   1   3 709398. 9996.32   4
   1   1  -2 173034. 2957.73   2
  -1   1   2 174900. 3229.48   4
   1   1  -1 144331. 2540.56   2
  -1   1   1 148706. 2704.87   5
   1   1   0 33995.4 1008.76   5
   1   1   1 24243.1 763.893   1
  -1   1  -1 23951.9 991.173   3
   1   1   2 156566. 2531.12   1
  -1   1  -2 157579. 3196.57   3
   1   1   2 157627. 3074.67   4
  -1   1  -3 403608. 6210.12   4
   1   1   3 389504. 6264.22   4
  -1   1  -3 398600. 6441.45   3
   1   1   4 130723. 3281.77   4
  -1   1  -4 127480. 3228.23   3
  -1   1  -4 131785. 3218.56   4
  -1   1  -5 119405. 3341.50   4
   1   1   5 118533. 3436.91   4
   1   1   6 41520.9 2102.56   4
   1   1   7 3227.55 501.158   3
   1   1   7 2570.34 626.354   4
   1   1   8 6241.61 733.571   3
   1   1   8 6338.74 996.372   4
   1   1   9 33144.1 1734.17   3
   1   1   9 31092.6 2294.22   4
   1   1  10 24515.1 1546.11   3
   1   1  10 27509.8 2259.59   4
   1   1  11 50297.3 3217.24   4
   1   1  11 52826.0 2352.28   3
   1   1  12 18942.8 2083.18   4
   1   1  12 14433.2 1272.53   3
   1   1  13 8408.74 1524.17   4
   1   1  14-524.740 715.279   4
   1   1  15 3398.74 1135.38   4
   1   1  16 6277.33 1461.02   4
  -1   2  15 3273.97 1218.81   4
  -1   2  14 16395.8 2131.79   4
  -1   2  13 10516.5 1679.23   4
  -1   2  12 13216.7 1796.57   4
  -1   2  11 18151.7 1978.68   4
  -1   2  10 3369.18 895.491   4
  -1   2  10 4583.37 503.842   3
  -1   2   9 5481.94 1051.00   4
  -1   2   9 4575.32 474.463   3
  -1   2   8 5543.80 921.580   4
  -1   2   7 10161.5 1166.66   4
  -1   2   6 259654. 6079.14   4
  -1   2   5 28747.9 1687.50   4
  -1   2   4 50008.3 2103.61   4
   1   2  -4 49914.4 1699.26   2
   1   2  -3 2626.94 371.957   2
  -1   2   3 3396.73 528.461   4
   1   2  -2 19294.3 964.004   2
   1   2  -1 40233.9 1446.36   2
  -1   2   1 40437.6 1649.22   5
   1   2  -1 41979.5 1602.61   5
   1   2   0 125796. 3031.14   5
  -1   2   0 132106. 3189.98   5
   1   2   2 268182. 4127.86   1
  -1   2  -2 265182. 4009.59   2
   1   2   3 13007.9 1003.09   4
  -1   2  -3 12792.0 642.558   2
   1   2   3 12931.5 610.853   1
  -1   2  -4 840.095 190.163   2
   1   2   4 895.899 352.479   4
   1   2   5 32622.4 1835.44   4
   1   2   6 121569. 3922.05   4
   1   2   7 26496.0 1892.36   4
   1   2   8 29426.3 2132.24   4
   1   2   9 28163.2 1583.08   3
   1   2   9 28490.7 2242.62   4
   1   2  10 530.238 589.850   4
   1   2  10 234.939 319.513   3
   1   2  11 2710.08 926.474   4
   1   2  11 4567.28 738.931   3
   1   2  12 1047.26 487.329   4
   1   2  13 10644.2 1723.90   4
   1   2  14 9345.11 1692.77   4
   1   2  15 6180.53 1532.73   4
  -1   3  14 5246.25 1347.16   4
  -1   3  13 1280.19 640.292   4
  -1   3  12 230.302 576.825   4
  -1   3  11 17745.8 2076.07   4
  -1   3  10 2537.95 807.877   4
  -1   3   9 44972.7 2950.43   4
  -1   3   8 63538.2 3302.42   4
  -1   3   7 1747.97 669.629   4
  -1   3   6 756.703 586.800   4
  -1   3   5 2109.12 583.573   4
  -1   3   4 67259.3 1224.02   1
  -1   3   4 75697.1 2993.04   4
   1   3  -2 174653. 4369.51   5
   1   3  -1 69881.1 2597.58   5
  -1   3   1 75605.5 2760.29   5
  -1   3   0 63035.3 2505.34   5
   1   3   0 59646.8 2378.76   5
  -1   3  -1 44441.1 2137.21   5
  -1   3  -3 77272.9 2095.61   2
   1   3   3 76468.8 1954.40   1
   1   3   4 89977.7 3305.52   4
   1   3   4 84902.5 1939.43   1
  -1   3  -4 82270.0 2220.25   2
   1   3   5 34187.0 2082.55   4
  -1   3  -5 30344.4 1341.99   2
   1   3   6 24618.2 1845.18   4
   1   3   7 16387.3 1616.04   4
   1   3   8 40816.7 2658.57   4
   1   3   9 4755.87 946.972   4
   1   3  10 8848.86 1397.54   4
   1   3  11 20177.8 2195.76   4
   1   3  12 6038.58 1305.19   4
   1   3  13 2962.88 1075.93   4
   1   3  14-1148.29 813.093   4
  -1   4  13 2344.14 1073.27   4
  -1   4  12 5281.17 1325.72   4
  -1   4  11 16250.1 2060.13   4
  -1   4  10 6474.02 1293.25   4
  -1   4   9 7827.89 1362.36   4
  -1   4   8 1699.27 807.427   4
  -1   4   7 19258.0 1905.96   4
  -1   4   6 33085.8 2379.45   4
  -1   4   5 40250.4 2498.19   4
  -1   4   4 16139.9 1616.72   4
   1   4  -3 13057.4 1321.53   5
   1   4  -2 9240.26 1121.01   5
  -1   4   1 42719.9 2388.14   5
   1   4  -1 39796.2 2267.41   5
   1   4   0 32861.7 2034.51   5
  -1   4   0 34569.6 2140.52   5
  -1   4  -1 72311.4 3186.91   5
  -1   4  -2 36147.3 2239.27   5
   1   4   3 15527.6 962.657   1
   1   4   4 5992.31 533.628   1
   1   4   4 5154.13 894.995   4
   1   4   5 9594.61 1288.63   4
   1   4   5 6887.84 509.585   1
   1   4   6 44654.8 2782.51   4
   1   4   7 2441.52 768.997   4
   1   4   8 19468.3 2048.39   4
   1   4   9 13550.1 1845.78   4
   1   4  10 1069.65 770.249   4
   1   4  11 2462.34 953.704   4
   1   4  12 4651.87 1396.23   4
  -1   5  10 6344.31 1299.30   4
  -1   5   9 5541.02 1258.35   4
  -1   5   8 12179.4 1769.87   4
  -1   5   7 1182.51 767.103   4
  -1   5   6 3970.76 1033.07   4
   1   5  -5 3037.99 865.739   5
  -1   5   5 3199.69 918.932   4
   1   5  -4 19708.4 1872.00   5
  -1   5   4 20012.1 1946.06   4
   1   5  -3 35062.3 2439.70   5
   1   5  -2 12926.3 1504.52   5
   1   5  -1 8163.52 1217.52   5
  -1   5   0 2244.59 661.273   5
  -1   5  -1 2800.98 793.942   5
  -1   5  -2 9037.76 1273.47   5
  -1   5  -3 24904.1 2132.52   5
   1   5   4 20475.3 2046.55   4
  -1   5  -4 20124.7 1972.50   5
   1   5   5 4556.12 1139.74   4
   1   5   6 15400.5 1821.27   4
   1   5   7 2973.66 991.462   4
   1   5   8 4438.27 1199.01   4
   1   5   9 9708.74 1726.61   4
   1   5  10 3812.73 1136.01   4
   1   6  -8 1423.69 875.822   5
   1   6  -7 3041.43 956.684   5
  -1   6   7 5206.24 1361.96   4
   1   6  -6 5435.13 1182.82   5
  -1   6   6 6238.25 1330.30   4
  -1   6   5 6043.63 1357.63   4
   1   6  -5 3844.74 967.637   5
  -1   6   4 2631.19 982.853   4
   1   6  -4 2355.70 898.334   5
   1   6  -3 520.488 539.888   5
   1   6  -2 120.394 506.158   5
   1   6  -1 4747.10 1040.42   5
  -1   6  -1 8124.78 1379.91   5
  -1   6  -2 2645.70 915.375   5
  -1   6  -3 1405.85 625.574   5
   1   6   4 3633.11 1078.25   4
  -1   6  -4 2455.68 1064.21   5
  -1   6  -5 4133.08 1115.48   5
   1   6   5 3121.09 1075.42   4
   1   6   6 3507.81 1026.38   4
  -1   6  -6 2210.23 848.981   5
  -2  -7  -1 423.798 503.357   2
  -2  -7  -2-508.292 611.199   2
  -2  -7  -3 1849.24 794.097   2
   2  -6  -6 7527.74 1200.38   2
   2  -6  -5 3128.40 859.973   2
   2  -6  -4 9648.05 1168.39   2
  -2  -6   3 3930.04 822.103   2
  -2  -6   2 642.669 410.136   2
  -2  -6   1 1099.76 604.687   2
  -2  -6   0 4797.89 999.961   2
  -2  -6  -1 1644.96 603.888   2
  -2  -6  -2 16839.0 1707.47   2
  -2  -6  -3 9276.43 1323.91   2
  -2  -6  -4 1327.50 625.235   2
  -2  -6  -5-22.9054 597.176   2
  -2  -6  -6 4014.54 1143.80   2
  -2  -6  -7 2550.53 945.104   2
  -2  -5   3 3293.21 644.319   2
   2  -5  -3 4526.23 775.441   2
   2  -5  -2 5689.81 787.492   2
  -2  -5   2 5608.41 888.334   2
  -2  -5   1 29261.1 1927.66   2
   2  -5  -1 30083.4 1665.01   2
   2  -5   0 25518.3 1487.46   2
  -2  -5   0 27048.1 1873.07   2
   2  -5   1 5417.15 667.541   2
  -2  -5  -1 4044.47 794.880   2
  -2  -5  -2 2255.62 664.814   2
  -2  -5  -3 2537.12 706.411   2
  -2  -5  -4 10150.3 1351.11   2
  -2  -5  -5 17201.0 1766.23   2
  -2  -5  -6 10389.2 1449.68   2
  -2  -4   3 49594.8 2293.64   2
  -2  -4   2 6976.55 831.808   2
   2  -4  -2 6475.18 734.939   2
   2  -4  -1 3789.72 548.388   2
  -2  -4   1 3444.68 695.992   2
  -2  -4   0 9798.44 1016.82   2
   2  -4   0 9099.08 769.982   2
   2  -4   1 42738.7 1613.05   2
  -2  -4  -1 43332.5 2196.98   2
   2  -4   2 24931.1 1172.90   2
  -2  -4  -2 27024.4 1789.11   2
  -2  -4  -3 28901.0 1901.49   2
  -2  -3   3 39548.5 1809.40   2
  -2  -3   2 55016.4 2123.41   2
  -2  -3   1 61198.6 2232.16   2
   2  -3   0 67595.6 1812.69   2
  -2  -3   0 63955.7 2342.33   2
  -2  -3  -1 6390.56 754.382   2
   2  -3   1 7214.65 521.871   2
  -2  -3  -2 3420.83 607.530   2
  -2  -2   3 99765.4 2627.35   2
  -2  -2   2 2486.45 396.803   2
  -2  -2   1 18497.1 1033.23   2
  -2  -2   0 97557.4 2460.80   5
  -2  -2   0 91359.9 2512.25   2
   2  -2   0 93322.9 1760.81   2
  -2  -2  -1 23557.6 1240.85   2
  -2  -2  -1 24298.0 1191.70   5
   2  -2   1 23959.9 674.997   2
  -2  -2  -2 145304. 3349.37   5
  -2  -2  -4 49880.9 1607.44   1
  -2  -2  -5 2159.13 354.157   1
  -2  -2  -6 14095.8 889.625   1
  -2  -2  -7 31128.5 1403.21   1
  -2  -1  15 9478.04 1628.46   4
  -2  -1  14 6678.58 1261.93   4
  -2  -1  13 11731.1 1639.26   4
  -2  -1  12 10288.1 1516.94   4
  -2  -1  11 6469.97 1147.16   4
  -2  -1  10 10106.0 1359.85   4
  -2  -1   9 52743.6 2814.87   4
  -2  -1   8 78543.9 3266.52   4
  -2  -1   7 112667. 3748.56   4
  -2  -1   6 25332.1 1576.04   4
   2  -1  -4 32996.3 834.591   1
   2  -1  -4 30402.9 1431.27   4
   2  -1  -3 392365. 6149.18   4
   2  -1  -3 388102. 4992.00   1
   2  -1  -2 378388. 5699.27   4
  -2  -1   2 383019. 5688.55   2
   2  -1  -2 382918. 5647.97   5
   2  -1  -1 195416. 3384.79   5
  -2  -1   1 197243. 3424.36   2
   2  -1  -1 193264. 3301.76   3
  -2  -1   0 176380. 2848.58   5
  -2  -1   0 179474. 3259.26   2
   2  -1   0 180398. 3357.14   3
  -2  -1  -1 146126. 2752.33   1
   2  -1   1 139323. 3081.35   3
   2  -1   2 49323.8 1810.35   3
  -2  -1  -2 51417.0 1456.75   1
   2  -1   3 39086.8 1690.24   3
  -2  -1  -3 37843.5 1305.79   1
  -2  -1  -4 44060.4 1734.99   4
  -2  -1  -4 45260.3 1521.03   1
   2  -1   4 46704.6 1947.41   3
  -2  -1  -5 147848. 3239.82   1
   2  -1   5 156028. 3993.11   3
   2  -1   6 123842. 3687.90   3
   2  -1   6 126551. 3601.62   4
   2  -1   7 14579.4 1266.33   3
   2  -1   7 13666.9 1232.58   4
   2  -1   8 28374.5 1833.24   3
   2  -1   8 23959.8 1744.37   4
   2  -1   9 5729.61 899.130   3
   2  -1   9 5046.59 883.924   4
   2  -1  10 11571.4 1373.57   4
   2  -1  10 10405.2 1165.95   3
   2  -1  11 9403.87 1321.16   4
   2  -1  12 11514.2 1576.25   4
  -2   0  16 3205.18 1168.73   4
  -2   0  15 2102.12 936.321   4
  -2   0  14 1933.25 892.907   4
  -2   0  13 8935.73 1545.87   4
  -2   0  12 21075.3 2145.36   4
  -2   0  11 39428.7 2819.36   4
  -2   0  10 111304. 4560.82   4
  -2   0   9 11663.2 1369.60   4
   2   0  -9 9696.20 670.757   3
  -2   0   8 26856.7 1968.69   4
   2   0  -8 25787.8 1033.24   3
  -2   0   7 7139.92 968.387   4
   2   0  -7 7140.59 505.525   3
  -2   0   6 172670. 4642.09   4
   2   0  -6 178708. 2917.45   3
   2   0  -5 40630.7 1878.79   4
  -2   0   5 41302.0 1916.16   4
   2   0  -5 41734.7 1004.12   3
   2   0  -4 523287. 8240.15   4
  -2   0   4 512288. 8216.15   4
  -2   0   3 8495.34 671.482   4
   2   0  -3 8849.06 681.635   4
  -2   0   2 916232. 11692.7   4
   2   0  -2 926359. 11760.3   4
   2   0  -1 30193.8 840.827   4
   2   0  -1 31761.0 951.126   1
  -2   0   1 31032.5 804.281   4
  -2   0   1 30636.2 944.356   1
   2   0  -1 29355.8 833.317   2
   2   0   0 718253. 8646.42   2
  -2   0   0 702402. 8971.01   1
   2   0   0 696883. 8991.39   1
  -2   0   0 707988. 8620.60   2
  -2   0  -1 187047. 3203.30   1
  -2   0  -2 133528. 2391.71   4
   2   0   2 137527. 2922.86   3
   2   0   2 137016. 2502.99   4
   2   0   3 234731. 4220.34   4
   2   0   3 240897. 4472.09   3
  -2   0  -3 234399. 4072.77   4
   2   0   4 8722.25 783.120   3
  -2   0  -4 8395.04 697.832   4
   2   0   4 10036.2 801.542   4
  -2   0  -5 35615.2 1640.12   4
   2   0   5 37958.0 1807.94   4
   2   0   5 38979.8 1786.31   3
   2   0   6 22394.1 1484.61   4
   2   0   6 21057.7 1354.41   3
   2   0   7 20103.5 1555.77   4
   2   0   7 20805.4 1422.65   3
   2   0   8 99526.1 3854.22   4
   2   0   8 107636. 3486.25   3
   2   0   9 32893.8 2306.09   4
   2   0   9 38013.4 2092.45   3
   2   0  10 724.122 549.024   4
   2   0  10 2186.42 604.359   3
   2   0  11 13308.0 1335.29   3
   2   0  11 11260.3 1544.90   4
   2   0  12 5407.20 1110.47   4
   2   0  12 5140.25 888.769   3
   2   0  13 2838.68 710.584   3
   2   0  13 2672.33 990.645   4
   2   0  14 4042.23 1159.54   4
   2   0  15 7208.49 1476.91   4
   2   0  16 3103.46 986.650   4
  -2   1  16 670.079 593.310   4
  -2   1  15 6746.88 1428.68   4
  -2   1  14 8761.89 1558.26   4
  -2   1  13 11769.5 1780.82   4
  -2   1  12 13802.4 1779.02   4
  -2   1  11 6061.85 1227.85   4
  -2   1  10 10965.0 1446.32   4
  -2   1   9 58468.1 3123.63   4
  -2   1   8 86952.0 3631.93   4
  -2   1   7 132416. 4224.60   4
   2   1  -7 129080. 3081.95   3
  -2   1   6 21752.5 1574.76   4
  -2   1   5 22067.0 1411.87   4
  -2   1   4 36374.5 1644.88   4
   2   1  -4 37494.3 1646.29   4
   2   1  -3 401800. 6063.76   2
  -2   1   3 399300. 5251.64   3
   2   1  -2 402790. 5903.78   2
  -2   1   2 393131. 5504.55   3
  -2   1   2 401720. 5210.14   1
  -2   1   2 406741. 5951.14   4
   2   1  -1 201644. 3102.34   5
  -2   1   1 196893. 3437.26   3
  -2   1   1 204180. 3448.66   5
   2   1  -1 198711. 3463.74   2
   2   1   0 175263. 3175.67   2
  -2   1   0 171237. 3336.88   3
   2   1   0 172221. 3079.98   1
  -2   1  -1 147101. 3195.40   3
   2   1   1 146744. 2735.54   1
   2   1   2 55624.6 1527.63   1
   2   1   2 56458.3 1681.20   4
  -2   1  -2 54706.0 1932.62   3
  -2   1  -3 33206.5 1286.70   4
   2   1   3 29644.2 1309.63   4
  -2   1  -3 32958.7 1563.60   3
   2   1   4 48418.5 1884.62   4
  -2   1  -4 52250.5 1886.44   4
  -2   1  -5 140782. 3681.14   4
   2   1   5 149931. 3876.33   4
   2   1   6 138240. 4058.62   4
   2   1   7 12873.5 1270.10   4
   2   1   7 9825.25 930.050   3
   2   1   8 26037.0 1917.19   4
   2   1   8 29276.5 1720.04   3
   2   1   9 5187.82 775.582   3
   2   1   9 6580.86 1057.53   4
   2   1  10 9779.76 1082.11   3
   2   1  10 8177.99 1266.67   4
   2   1  11 12438.5 1262.32   3
   2   1  11 12164.9 1587.35   4
   2   1  12 11764.5 1671.42   4
   2   1  12 13367.5 1319.09   3
   2   1  13 8893.88 1477.99   4
   2   1  14 1602.97 823.567   4
   2   1  15-974.994 773.681   4
   2   1  16 666.650 679.046   4
  -2   2  15 4195.68 1394.05   4
  -2   2  14 629.617 687.838   4
  -2   2  13 5386.97 1314.48   4
  -2   2  12 22496.4 2364.50   4
  -2   2  11 19941.0 2057.79   4
  -2   2  10 19861.8 1992.63   4
  -2   2   9 17828.9 1792.01   4
  -2   2   9 13739.5 650.261   3
  -2   2   8 12854.7 1443.08   4
  -2   2   7 11699.7 1275.70   4
  -2   2   6 50915.5 2473.76   4
  -2   2   5 358333. 7125.72   4
  -2   2   4 67880.4 2491.06   4
  -2   2   3 94721.0 2791.29   4
   2   2  -2 3707.30 442.714   2
   2   2  -1 21657.0 1098.87   5
   2   2  -1 20193.6 1089.49   2
  -2   2   1 19099.0 1156.78   5
  -2   2   0 87993.4 2537.87   3
   2   2   0 90874.7 2404.66   5
  -2   2   0 90883.7 2634.73   5
   2   2   2 142006. 2861.13   1
  -2   2  -2 131135. 2116.49   2
  -2   2  -3 164296. 2659.46   2
   2   2   3 171753. 4123.10   4
   2   2   3 172448. 3237.92   1
   2   2   4 45138.5 2031.30   4
   2   2   5 2155.84 509.221   4
   2   2   6 10191.3 1124.66   4
   2   2   7 34375.8 2200.79   4
   2   2   8 46793.3 2735.00   4
   2   2   9 22483.4 2009.45   4
   2   2   9 20398.9 1475.43   3
   2   2  10 28456.5 1797.76   3
   2   2  10 30411.1 2477.51   4
   2   2  11 95.6671 510.155   4
   2   2  11 151.727 295.107   3
   2   2  12 1973.83 839.441   4
   2   2  13 5960.18 1362.05   4
   2   2  14 6308.82 1483.68   4
   2   2  15 6830.60 1471.72   4
  -2   3  14 7609.71 1678.21   4
  -2   3  13 7773.89 1585.87   4
  -2   3  12 3044.58 1102.32   4
  -2   3  11-197.653 579.567   4
  -2   3  10 1334.90 751.725   4
  -2   3   9 24981.0 2223.94   4
  -2   3   8 53249.1 3016.44   4
  -2   3   7 32063.9 2234.14   4
  -2   3   6 13651.7 1366.82   4
  -2   3   5 12210.1 1221.94   4
  -2   3   4 3296.44 638.906   4
   2   3  -2 54608.5 2242.23   5
   2   3  -1 48751.1 2121.28   5
  -2   3   1 52675.2 2327.36   5
  -2   3   0 79456.9 2889.92   5
   2   3   0 75364.2 2615.59   5
  -2   3  -1 10421.3 1034.96   5
   2   3   2 3176.62 443.363   1
   2   3   3 19333.9 1022.57   1
  -2   3  -4 11492.9 685.323   2
   2   3   4 10629.0 744.264   1
   2   3   4 9443.10 1100.82   4
   2   3   5 92436.3 3519.96   4
  -2   3  -5 88975.4 2222.04   2
  -2   3  -6 22865.3 1118.07   2
   2   3   6 24806.0 1857.87   4
   2   3   7 22955.6 1923.74   4
   2   3   8 670.927 514.528   4
   2   3   9 1241.16 616.366   4
   2   3  10 15065.5 1877.58   4
   2   3  11 12596.2 1824.77   4
   2   3  12 11572.0 1834.28   4
   2   3  13 4940.33 1277.16   4
   2   3  14 1268.23 912.704   4
  -2   4  13 1082.54 851.346   4
  -2   4  12 10284.6 1791.49   4
  -2   4  11 11489.7 1775.55   4
  -2   4  10 12539.9 1786.72   4
  -2   4   9 8232.43 1361.43   4
  -2   4   8-157.555 586.574   4
  -2   4   7 7225.57 1221.92   4
  -2   4   6 11852.1 1428.53   4
  -2   4   5 15290.9 1555.85   4
  -2   4   4 16323.3 1571.91   4
   2   4  -3 46244.0 2471.60   5
   2   4  -2 6673.59 943.323   5
  -2   4   1 4192.33 799.495   5
   2   4  -1 2572.53 593.346   5
  -2   4   0 14790.4 1405.73   5
  -2   4  -1 36109.2 2275.11   5
  -2   4  -2 29970.4 2056.05   5
   2   4   3 32358.1 1519.76   1
   2   4   4 3875.66 487.263   1
   2   4   5 3090.38 426.851   1
   2   4   5 2937.74 717.097   4
   2   4   6 836.767 591.920   4
   2   4   7 27719.5 2265.91   4
   2   4   8 17667.9 1969.86   4
   2   4   9 20741.2 2185.98   4
   2   4  10 4888.59 1168.18   4
   2   4  11 338.787 581.487   4
   2   4  12 484.708 804.657   4
  -2   5  11 1180.77 924.437   4
  -2   5  10 3.13957 619.556   4
  -2   5   9 6742.65 1351.85   4
  -2   5   8 11703.4 1739.36   4
  -2   5   7 6568.68 1261.92   4
  -2   5   6 11480.9 1588.36   4
   2   5  -5 541.799 521.454   5
  -2   5   5 1501.33 538.738   4
  -2   5   4 3118.01 854.886   4
   2   5  -4 2546.92 690.234   5
   2   5  -3 3604.16 785.765   5
   2   5  -2 4705.62 907.061   5
  -2   5   1 25952.1 2139.43   5
   2   5  -1 24078.7 1939.32   5
  -2   5   0 28076.4 2268.17   5
  -2   5  -1 3851.30 860.642   5
  -2   5  -2 840.151 475.622   5
  -2   5  -3 1987.03 791.214   5
  -2   5  -4 13017.2 1616.74   5
   2   5   5 17880.6 1996.52   4
   2   5   6 10642.2 1511.48   4
   2   5   7 7364.84 1362.15   4
   2   5   8 4330.80 1118.46   4
   2   5   9 2761.63 996.871   4
   2   5  10 1989.15 982.710   4
   2   6  -8 792.500 536.037   5
   2   6  -7 538.879 602.089   5
  -2   6   7 628.826 679.626   4
   2   6  -6 6449.33 1289.64   5
  -2   6   6 7304.51 1472.47   4
  -2   6   5 5381.16 1208.61   4
   2   6  -5 3636.99 1023.69   5
  -2   6   4 10563.1 1653.55   4
   2   6  -4 10643.0 1510.01   5
   2   6  -3 2657.05 774.525   5
   2   6  -2 1543.47 705.636   5
  -2   6   0 4522.44 1114.22   5
  -2   6  -1 222.706 517.602   5
  -2   6  -2 21456.0 2211.41   5
  -2   6  -3 7880.07 1373.39   5
  -2   6  -4 1141.42 783.356   5
   2   6   4 3908.10 1186.73   4
   2   6   5 1341.79 561.419   4
  -2   6  -5 2246.60 930.582   5
   2   6   6 2752.29 968.440   4
  -2   6  -6 2679.58 827.231   5
  -3  -7   1 3792.30 954.976   2
  -3  -7   0 1434.88 661.318   2
  -3  -7  -1 1062.96 615.944   2
  -3  -6   3 3213.12 849.651   2
  -3  -6   2 3704.88 920.432   2
  -3  -6   1 905.405 566.438   2
  -3  -6   0 1039.03 621.330   2
  -3  -6  -1 1398.59 710.738   2
  -3  -6  -2 5532.11 1082.55   2
  -3  -6  -3 14045.5 1648.77   2
  -3  -6  -4 1689.72 769.879   2
  -3  -6  -5 3022.85 1050.31   2
  -3  -6  -6 1233.59 592.115   2
  -3  -5   4 148.282 364.427   2
   3  -5  -3 9910.59 1032.63   2
  -3  -5   3 10485.8 1202.27   2
   3  -5  -2 10893.7 991.763   2
  -3  -5   2 10900.4 1256.89   2
   3  -5  -1 32299.3 1608.44   2
  -3  -5   1 29050.2 2010.41   2
  -3  -5   0 24589.1 1905.70   2
  -3  -5  -1 8557.56 1198.62   2
  -3  -5  -2 1839.25 664.993   2
  -3  -5  -3 6646.84 1118.52   2
  -3  -5  -4 7382.76 1200.84   2
  -3  -5  -5 13062.9 1602.57   2
  -3  -5  -6 9601.47 1452.91   2
  -3  -5  -7 7040.13 1264.45   2
  -3  -4   4 60686.3 2654.50   2
  -3  -4   3 51614.6 2440.62   2
  -3  -4   2 18522.1 1440.17   2
  -3  -4   1 1412.78 544.912   2
   3  -4  -1 540.726 228.358   2
   3  -4   0 10443.0 737.307   2
  -3  -4   0 10117.6 1100.28   2
  -3  -4  -1 21851.0 1637.79   2
   3  -4   1 23812.6 1032.99   2
  -3  -4  -2 37466.9 2193.36   2
  -3  -4  -3 19359.5 1630.93   2
  -3  -4  -4 42567.5 2492.08   2
  -3  -3   3 25194.6 1499.57   2
  -3  -3   2 45892.9 2034.72   2
  -3  -3   1 77964.9 2737.08   2
   3  -3   0 119481. 2293.56   2
  -3  -3   0 114254. 3438.18   2
  -3  -3  -1 38193.8 1929.45   2
   3  -3   1 40376.0 1047.65   2
  -3  -3  -2 24267.8 1593.94   2
  -3  -3  -3 4464.13 754.892   2
   3  -2  -9 39714.9 1029.91   1
   3  -2  -8 18179.9 536.557   1
  -3  -2   3 134471. 3327.46   2
  -3  -2   2 11794.6 896.018   2
  -3  -2   1 75703.6 2376.69   2
  -3  -2   0 27109.7 1202.43   5
   3  -2   0 24850.5 634.542   2
  -3  -2   0 25853.7 1347.98   2
  -3  -2  -1 65529.7 2024.42   5
  -3  -2  -1 66655.9 2306.63   2
  -3  -2  -2 157033. 3843.71   2
  -3  -2  -4 32685.2 1464.98   1
  -3  -1  15 9820.74 1583.24   4
  -3  -1  14 14652.8 1903.29   4
  -3  -1  13 5825.37 1250.83   4
  -3  -1  12 12173.7 1639.16   4
  -3  -1  11 5021.17 981.786   4
  -3  -1  10 5292.10 907.844   4
  -3  -1   9 25966.5 1976.48   4
  -3  -1   8 26771.2 1916.93   4
  -3  -1   7 132880. 4083.52   4
   3  -1  -5 30087.2 1035.84   1
   3  -1  -4 7676.70 705.447   4
   3  -1  -4 6346.23 438.751   1
   3  -1  -3 44473.9 1186.19   3
   3  -1  -3 41526.6 1498.37   4
   3  -1  -3 42999.6 1233.66   1
   3  -1  -2 108806. 2324.79   4
  -3  -1   2 112113. 2572.29   2
   3  -1  -2 104855. 2311.91   3
   3  -1  -2 109853. 2383.96   5
  -3  -1   1 264955. 4504.27   2
   3  -1  -1 256721. 4513.07   3
   3  -1   0 236297. 4502.95   3
  -3  -1   0 239020. 4265.19   2
  -3  -1   0 238532. 3523.50   5
  -3  -1  -1 51701.3 1718.21   2
  -3  -1  -1 52689.5 1681.84   1
   3  -1   1 50119.4 1904.20   3
  -3  -1  -2 34319.0 1350.25   1
   3  -1   2 31867.1 1597.75   3
  -3  -1  -3 26050.8 1215.42   1
   3  -1   3 28202.0 1574.17   3
  -3  -1  -4 40536.1 1617.05   1
   3  -1   4 43396.3 2065.23   3
   3  -1   5 170814. 4577.70   3
   3  -1   6 61430.5 2695.53   3
   3  -1   7 30246.3 1926.55   3
   3  -1   8 55897.8 2738.70   3
   3  -1   8 47243.5 2460.95   4
   3  -1   9 2703.20 627.095   3
   3  -1   9 1895.61 576.898   4
   3  -1  10 14315.7 1490.56   3
   3  -1  10 14692.1 1544.84   4
   3  -1  11 23038.7 1927.17   3
  -3   0  16 3789.49 1182.55   4
  -3   0  15 1132.38 735.801   4
  -3   0  14 3731.12 1125.15   4
  -3   0  13 2007.54 839.764   4
  -3   0  12 28296.5 2465.04   4
  -3   0  11 18203.9 1969.73   4
  -3   0  10 11719.4 1461.73   4
   3   0 -10 12244.0 683.973   3
  -3   0   9 46681.4 2718.34   4
   3   0  -9 40590.3 1259.43   3
   3   0  -8 330.203 106.306   3
  -3   0   8 2800.69 651.969   4
   3   0  -7 2209.19 245.203   3
  -3   0   7 1356.02 435.664   4
  -3   0   6 11364.8 1084.95   4
  -3   0   5 42277.4 1973.21   4
   3   0  -5 43232.3 1967.22   4
   3   0  -4 323290. 5900.92   4
  -3   0   4 308249. 5815.05   4
  -3   0   3 73274.8 2086.55   4
   3   0  -3 73309.5 2156.17   4
   3   0  -2 54271.5 1558.55   4
  -3   0   2 52239.4 1444.07   4
   3   0  -2 57551.1 1599.62   1
   3   0  -1 572.118 141.654   2
   3   0  -1 566.337 187.264   1
  -3   0   1 173.216 102.614   2
   3   0  -1 154.043 86.1066   4
  -3   0   1 64.7951 106.221   1
  -3   0   0 1244.91 224.745   2
  -3   0   0 1188.33 229.869   1
   3   0   0 1254.63 240.265   1
   3   0   0 841.359 192.420   2
  -3   0  -1 195334. 3666.30   1
  -3   0  -1 190034. 3201.31   2
   3   0   2 295775. 4383.16   4
  -3   0  -2 288623. 4138.91   4
   3   0   3 288504. 4798.69   4
  -3   0  -3 279712. 4498.60   4
   3   0   3 287953. 5491.14   3
   3   0   4 1995.04 464.879   3
   3   0   4 1985.41 400.011   4
  -3   0  -4 1887.57 328.262   4
   3   0   5 24357.5 1427.47   4
   3   0   5 26937.2 1597.85   3
   3   0   6 904.444 422.255   4
   3   0   6 338.743 275.514   3
   3   0   7 10789.3 1110.82   3
   3   0   7 9308.99 1062.62   4
   3   0   8 45588.5 2517.37   4
   3   0   8 50483.6 2513.78   3
   3   0   9 45386.0 2683.57   4
   3   0   9 43557.6 2429.65   3
   3   0  10 82416.6 3838.37   4
   3   0  10 80546.7 3439.19   3
   3   0  11 22423.0 2079.18   4
   3   0  11 26325.6 1960.81   3
   3   0  12 7894.44 1148.34   3
   3   0  12 11468.1 1550.90   4
   3   0  13 4113.05 875.554   3
   3   0  13 5740.84 1251.56   4
   3   0  14-375.768 822.273   4
   3   0  15 5853.29 1317.62   4
  -3   1  16 1540.07 976.457   4
  -3   1  15 10049.8 1822.74   4
  -3   1  14 10416.3 1733.14   4
  -3   1  13 4200.61 967.011   4
  -3   1  12 18252.8 2057.01   4
  -3   1  11 7639.34 1250.10   4
  -3   1  10 6382.17 1091.30   4
  -3   1   9 32008.8 2303.46   4
  -3   1   8 24278.6 1883.07   4
  -3   1   7 128241. 4243.01   4
  -3   1   6 51557.4 2399.14   4
  -3   1   5 20841.7 1432.50   4
  -3   1   4 6130.66 687.089   4
   3   1  -4 8098.08 798.402   4
  -3   1   3 34204.9 1435.68   4
   3   1  -3 33794.0 1354.25   2
  -3   1   3 34248.4 1080.63   1
  -3   1   3 34730.4 1069.81   3
  -3   1   2 106729. 2390.15   4
  -3   1   2 104277. 2331.49   3
  -3   1   2 105925. 2165.07   1
   3   1  -2 104054. 2482.05   2
   3   1  -1 256988. 3596.35   5
  -3   1   1 251167. 3876.68   4
  -3   1   1 259061. 4206.94   5
  -3   1   1 251451. 4179.85   1
   3   1  -1 262546. 4434.50   2
   3   1  -1 258447. 4472.52   1
  -3   1   1 251103. 4496.27   3
   3   1   0 245007. 4341.02   2
  -3   1   0 243120. 4654.90   3
  -3   1  -1 53209.4 1967.15   3
   3   1   1 51941.5 1650.16   1
   3   1   2 28846.8 1183.90   4
   3   1   2 28906.6 1233.76   1
  -3   1  -2 27591.4 975.478   4
  -3   1  -2 28231.3 1493.09   3
  -3   1  -3 28043.7 1166.12   4
   3   1   3 28790.0 1287.76   4
   3   1   4 47969.9 1900.90   4
  -3   1  -4 50166.5 1826.20   4
  -3   1  -5 162497. 3963.08   4
   3   1   5 174614. 4283.09   4
   3   1   6 60704.3 2487.70   3
   3   1   6 71884.0 2831.01   4
   3   1   7 39105.0 2243.27   4
   3   1   7 37840.8 1995.32   3
   3   1   8 56355.1 2870.87   4
   3   1   8 55046.6 2567.55   3
   3   1   9 3007.31 708.862   4
   3   1   9 1840.15 540.633   3
   3   1  10 19134.0 1893.08   4
   3   1  10 19036.6 1609.68   3
   3   1  11 19840.0 1710.88   3
   3   1  11 19652.4 2072.50   4
   3   1  12 18478.8 1680.17   3
   3   1  12 17677.9 1958.77   4
   3   1  13 21101.7 2292.82   4
   3   1  14 2055.20 918.950   4
   3   1  15 2174.78 947.679   4
  -3   2  15 2910.02 1221.47   4
  -3   2  14 683.452 731.582   4
  -3   2  13 3535.72 1100.40   4
  -3   2  12 15494.0 1982.16   4
  -3   2  11 5118.75 1125.97   4
  -3   2  10 29527.0 2414.42   4
  -3   2   9 57065.5 3212.59   4
  -3   2   8 21954.3 1869.23   4
  -3   2   7 26276.7 1909.87   4
  -3   2   7 22957.4 749.184   3
  -3   2   6 56044.1 2585.33   4
  -3   2   6 47252.8 1308.13   3
  -3   2   5 110969. 3479.23   4
  -3   2   5 105189. 2297.75   3
  -3   2   4 60956.8 1339.29   1
  -3   2   4 58554.3 1744.36   3
  -3   2   4 63648.7 2383.75   4
  -3   2   3 114679. 2758.50   3
  -3   2   3 123119. 3194.85   4
  -3   2   3 116189. 2252.97   1
  -3   2   2 17559.6 1027.60   3
  -3   2   2 17295.0 1080.00   4
  -3   2   2 17135.7 1096.25   5
   3   2  -2 16793.1 959.518   5
  -3   2   1 75429.5 2391.84   3
  -3   2   1 75784.3 2397.99   5
   3   2  -1 75448.5 2105.35   5
  -3   2   0 24882.5 1357.84   5
   3   2   1 72618.2 2175.95   1
   3   2   2 153001. 3351.23   1
  -3   2  -3 123648. 1890.08   2
   3   2   3 133953. 3055.95   1
   3   2   3 134083. 3577.44   4
   3   2   4 34552.9 1812.31   4
  -3   2  -4 34463.1 1607.99   4
   3   2   5 47372.2 2231.51   4
   3   2   6 3157.26 684.960   4
   3   2   7 27943.8 1962.56   4
   3   2   8 41900.4 2610.37   4
   3   2   9 27238.8 2234.02   4
   3   2   9 22910.3 1705.73   3
   3   2  10 13467.5 1629.37   4
   3   2  10 15013.1 1428.47   3
   3   2  11 12165.5 1323.94   3
   3   2  11 15373.0 1874.23   4
   3   2  12 73.1686 515.528   4
   3   2  13-394.289 491.331   4
   3   2  14 5913.46 1484.55   4
   3   2  15 7205.73 1612.80   4
  -3   3  14 4124.58 1240.71   4
  -3   3  13 6871.93 1494.94   4
  -3   3  12 7415.32 1476.61   4
  -3   3  11 1003.90 670.568   4
  -3   3  10 6397.12 1246.33   4
  -3   3   9 28971.8 2363.36   4
  -3   3   8 59931.6 3248.14   4
  -3   3   7 29145.9 2125.93   4
  -3   3   6 103400. 3875.08   4
  -3   3   5 531.139 399.752   4
  -3   3   4 3616.45 646.724   4
  -3   3   4 3381.49 316.551   1
   3   3  -3 21456.4 1348.94   5
  -3   3   3 23965.9 1579.64   4
   3   3  -2 46944.2 2030.32   5
  -3   3   2 46077.4 2243.22   5
  -3   3   1 80212.2 2937.13   5
   3   3  -1 79228.4 2662.36   5
  -3   3   0 115940. 3656.44   5
  -3   3  -1 43929.3 2176.08   5
   3   3   1 40277.2 1738.57   1
   3   3   2 28578.5 1435.25   1
   3   3   3 3155.29 471.925   1
   3   3   4 49628.0 1851.37   1
  -3   3  -4 46346.5 1183.34   2
   3   3   4 47752.2 2476.75   4
  -3   3  -5 20206.3 834.997   2
   3   3   5 20741.2 1670.65   4
   3   3   6 45530.1 2589.93   4
   3   3   7 20488.5 1840.65   4
   3   3   8 9174.84 1320.89   4
   3   3   9 4593.29 1070.64   4
   3   3  10 6574.76 1331.16   4
   3   3  11 5645.84 1260.34   4
   3   3  12 6986.15 1449.95   4
   3   3  13 6304.49 1365.51   4
  -3   4  13 177.750 553.057   4
  -3   4  12 7303.43 1550.40   4
  -3   4  11 19526.6 2284.53   4
  -3   4  10 8186.81 1473.42   4
  -3   4   9 15195.4 1863.38   4
  -3   4   8 301.952 385.337   4
  -3   4   7 1147.40 409.300   4
  -3   4   6 15415.3 1628.47   4
  -3   4   5 18137.8 1675.46   4
   3   4  -4 65920.2 2912.95   5
  -3   4   4 66732.6 3166.05   4
   3   4  -3 55317.6 2629.61   5
   3   4  -2 13201.7 1238.63   5
  -3   4   1 1213.49 483.009   5
   3   4  -1 290.636 416.446   5
  -3   4   0 12433.9 1362.23   5
  -3   4  -1 21252.3 1792.07   5
  -3   4  -2 43074.0 2564.32   5
   3   4   2 44776.5 1982.95   1
   3   4   3 14913.6 1094.42   1
   3   4   4 54689.9 2067.97   1
   3   4   4 58030.9 3072.48   4
   3   4   5 82.7125 190.587   1
   3   4   5 480.573 560.420   4
   3   4   6 6333.15 1095.09   4
   3   4   7 5071.93 1039.98   4
   3   4   8 7868.71 1347.86   4
   3   4   9 14650.5 1885.65   4
   3   4  10 7154.70 1380.66   4
   3   4  11 4373.45 1084.02   4
   3   4  12 3045.75 1274.58   4
  -3   5  11 375.648 604.109   4
  -3   5  10 1820.21 868.119   4
  -3   5   9 4424.88 1121.09   4
  -3   5   8 2517.74 882.187   4
  -3   5   7 17797.3 1997.92   4
   3   5  -6 11360.1 1389.28   5
  -3   5   6 11392.0 1579.67   4
  -3   5   5 7144.43 1254.86   4
   3   5  -5 6142.50 1080.47   5
  -3   5   4-65.5955 461.334   4
   3   5  -4 311.758 445.645   5
   3   5  -3 10759.4 1324.28   5
   3   5  -2 11555.8 1357.03   5
  -3   5   1 41469.9 2737.80   5
  -3   5   0 22290.6 2021.47   5
  -3   5  -1 11770.2 1494.63   5
  -3   5  -2 43.5543 460.722   5
   3   5   2 1201.37 434.064   1
  -3   5  -3 5145.19 1063.61   5
   3   5   4 6408.39 1185.50   4
  -3   5  -4 8057.46 1336.34   5
   3   5   5 9411.83 1486.09   4
   3   5   6 12917.8 1734.08   4
   3   5   7 9094.63 1502.76   4
   3   5   8 1989.92 929.969   4
   3   5   9 2425.37 1089.44   4
   3   6  -9 417.477 657.430   5
   3   6  -8 1049.71 761.482   5
  -3   6   7 1526.68 926.665   4
   3   6  -7 3014.24 1077.43   5
   3   6  -6 1497.67 747.574   5
  -3   6   6 2920.69 1011.13   4
   3   6  -5 3618.69 960.656   5
  -3   6   5 3130.51 1080.07   4
   3   6  -4 8740.50 1397.49   5
  -3   6   4 11483.1 1696.07   4
  -3   6   3 2313.29 855.839   4
   3   6  -3 553.532 546.086   5
  -3   6   0 1026.25 622.145   5
  -3   6  -1 3213.60 1011.28   5
  -3   6  -2 4520.25 1119.81   5
  -3   6  -3 13918.4 1897.71   5
  -3   6  -4 3292.67 1078.84   5
   3   6   4 5698.99 1402.29   4
  -3   6  -5 2021.29 903.320   5
   3   6   5 2686.11 1018.04   4
  -4  -7   2-613.329 675.367   2
  -4  -7   1 2355.32 807.501   2
  -4  -6   3 2464.85 778.312   2
  -4  -6   2 4260.36 911.340   2
  -4  -6   1 221.192 526.363   2
  -4  -6   0 10177.8 1397.00   2
  -4  -6  -1 1134.52 699.346   2
  -4  -6  -2 4225.66 1002.65   2
  -4  -6  -3 3528.33 929.682   2
  -4  -6  -4 5276.95 1160.26   2
  -4  -6  -5 1447.77 918.371   2
  -4  -5   4 114.139 373.759   2
  -4  -5   3 5695.04 986.971   2
  -4  -5   2 4746.21 890.005   2
  -4  -5   1 17330.2 1641.72   2
  -4  -5   0 16795.8 1618.57   2
  -4  -5  -1 6623.91 1144.17   2
  -4  -5  -2 8593.92 1217.84   2
  -4  -5  -3 4025.44 1007.53   2
  -4  -5  -4 123.817 551.793   2
  -4  -5  -5 5002.37 1050.01   2
  -4  -5  -6 5853.88 1189.80   2
  -4  -5  -7 17105.5 1992.81   2
  -4  -5  -8 3735.05 1019.46   2
  -4  -4   4 9057.88 1090.95   2
  -4  -4   3 61458.1 2796.76   2
  -4  -4   2 5593.13 886.858   2
   4  -4  -1 21188.7 1014.06   2
  -4  -4   1 20431.4 1600.51   2
  -4  -4   0 7726.67 1057.79   2
   4  -4   0 8464.04 555.672   2
  -4  -4  -1 11404.8 1251.51   2
  -4  -4  -2 14938.6 1445.18   2
  -4  -4  -3 9493.11 1224.47   2
  -4  -4  -4 15282.3 1612.89   2
  -4  -4  -5 31320.4 2312.46   2
  -4  -3   4 12875.3 1173.27   2
  -4  -3   3 3065.82 629.024   2
  -4  -3   2 1950.72 509.427   2
  -4  -3   1 69984.3 2702.93   2
   4  -3   0 16608.8 579.222   2
  -4  -3   0 16553.8 1318.76   2
  -4  -3  -1 29791.6 1805.45   2
  -4  -3  -2 54905.4 2536.02   2
  -4  -3  -3 15738.3 1384.01   2
   4  -2 -10 11665.5 643.582   1
   4  -2  -9 15810.0 700.798   1
   4  -2  -8 12736.5 599.823   1
  -4  -2   3 125770. 3439.68   2
  -4  -2   2 17484.9 1171.70   2
  -4  -2   1 11907.3 970.732   2
   4  -2   0 27864.4 1572.15   3
  -4  -2   0 27850.2 1199.93   5
  -4  -2   0 27662.7 1477.85   2
   4  -2   1 34697.7 1853.88   3
  -4  -2  -1 36519.3 1746.99   2
  -4  -2  -1 33033.0 1397.95   5
   4  -2   2 34477.7 1958.14   3
  -4  -2  -2 36785.4 1849.39   2
   4  -2   3 47350.5 2398.76   3
   4  -2   4 62958.7 2857.27   3
   4  -2   5 44216.3 2454.00   3
   4  -2   6 8440.60 1154.54   3
   4  -2   7 2609.41 684.600   3
  -4  -1  14 6987.90 1363.11   4
  -4  -1  13 10838.6 1593.08   4
  -4  -1  12 13820.2 1767.53   4
  -4  -1  11 11594.3 1553.07   4
  -4  -1  10 8465.66 1225.67   4
  -4  -1   9 3289.82 768.529   4
   4  -1  -6 95610.5 2339.73   1
   4  -1  -5 53528.7 1218.73   3
   4  -1  -5 57219.7 1669.39   1
   4  -1  -4 14108.9 696.248   3
   4  -1  -4 14628.6 987.832   4
   4  -1  -4 13170.9 767.928   1
   4  -1  -3 4859.92 478.649   5
   4  -1  -3 4406.26 446.931   3
   4  -1  -3 5148.60 495.308   1
   4  -1  -3 5057.46 518.769   4
   4  -1  -2 38466.4 1244.75   4
  -4  -1   2 37684.5 1523.20   2
   4  -1  -2 38960.7 1494.22   3
   4  -1  -1 169156. 2744.78   2
   4  -1  -1 170020. 3778.14   3
   4  -1   0 106363. 1834.01   2
  -4  -1   0 111580. 2749.57   2
   4  -1   0 105551. 3012.15   3
   4  -1   1 3140.57 555.021   3
  -4  -1  -1 3750.90 502.818   2
  -4  -1  -2 207489. 4326.98   2
   4  -1   2 209314. 4932.22   3
   4  -1   3 13749.0 1195.13   3
   4  -1   4 1496.81 464.760   3
   4  -1   5 22927.8 1687.45   3
   4  -1   6 79483.3 3301.08   3
   4  -1   7 56233.0 2820.81   3
   4  -1   8 14095.7 1512.81   3
   4  -1   9 10256.3 1299.30   3
   4  -1  10 5255.56 1032.05   3
   4  -1  11 1686.61 668.349   3
   4  -1  12 5948.66 1192.51   3
  -4   0  16 1400.98 797.154   4
  -4   0  15 8080.60 1535.28   4
  -4   0  14 7360.39 1512.52   4
  -4   0  13-583.380 676.836   4
  -4   0  12 344.085 496.768   4
  -4   0  11 34085.3 2591.86   4
  -4   0  10 44919.7 2816.23   4
   4   0 -10 40354.5 1145.28   3
  -4   0   9 22668.0 1885.01   4
   4   0  -9 24437.2 849.162   3
   4   0  -8 41773.5 1108.63   3
  -4   0   8 37603.7 2363.13   4
  -4   0   7 940.703 373.482   4
  -4   0   6 347.153 291.417   4
  -4   0   5 84487.2 2848.48   4
   4   0  -5 84064.6 2909.73   4
   4   0  -4 96398.7 2840.09   4
  -4   0   4 94226.2 2723.09   4
   4   0  -3 292577. 5232.87   4
  -4   0   3 295635. 5049.70   4
   4   0  -3 296384. 5093.13   1
   4   0  -2 4646.91 245.624   5
   4   0  -2 5165.26 469.486   4
  -4   0   2 4711.60 404.847   4
  -4   0   2 5550.23 534.605   1
   4   0  -2 5150.37 522.109   1
   4   0  -2 4634.47 461.376   2
   4   0  -1 133264. 3008.01   1
   4   0  -1 128117. 2598.26   2
  -4   0   1 131456. 2989.15   1
  -4   0   1 125150. 2607.98   2
   4   0  -1 131066. 2312.33   4
  -4   0   0 390.065 177.148   2
   4   0   0 69.8201 121.465   2
  -4   0   0-13.4217 127.510   1
   4   0   0 376.345 221.062   1
  -4   0  -1 987.548 288.703   1
  -4   0  -1 711.366 191.292   2
  -4   0  -2 109553. 2481.54   2
   4   0   2 107615. 2103.96   4
   4   0   2 107156. 3126.05   3
  -4   0  -3 4483.88 401.937   4
   4   0   3 4311.59 650.197   3
   4   0   3 5315.81 500.094   4
   4   0   4 41709.4 1652.63   4
   4   0   4 43521.0 2102.44   3
  -4   0  -5 117398. 3036.46   4
   4   0   5 128111. 3459.29   4
   4   0   5 128480. 3965.45   3
   4   0   6 1388.51 582.002   3
   4   0   6 861.669 374.222   4
   4   0   7 14531.6 1301.69   4
   4   0   7 14075.0 1387.37   3
   4   0   8 19316.4 1621.67   4
   4   0   8 19921.2 1697.52   3
   4   0   9 13192.2 1442.16   3
   4   0   9 13455.8 1446.65   4
   4   0  10 30664.9 2286.34   4
   4   0  10 30021.6 2218.94   3
   4   0  11 1175.03 612.802   3
   4   0  11 1353.55 698.858   4
   4   0  12 160.828 490.157   3
   4   0  12 680.387 605.666   4
   4   0  13 3835.68 951.127   3
   4   0  13 3245.52 841.293   4
  -4   1  16 866.923 773.686   4
  -4   1  15 1567.79 982.958   4
  -4   1  14 4922.63 1257.96   4
  -4   1  13 16823.3 2078.06   4
  -4   1  12 23710.4 2322.48   4
  -4   1  11 9162.13 1336.24   4
  -4   1  10 8848.91 1376.73   4
  -4   1   9 4746.05 950.361   4
  -4   1   8 31487.6 2195.30   4
  -4   1   7 40484.8 2326.46   4
  -4   1   6 95196.3 3389.11   4
  -4   1   5 72729.4 2694.72   4
   4   1  -4 19868.1 1260.37   4
  -4   1   4 17806.0 1194.25   4
  -4   1   3 5044.53 573.107   4
  -4   1   3 4453.52 445.855   1
  -4   1   2 45378.9 1479.74   4
   4   1  -2 43740.1 998.629   5
   4   1  -2 44652.7 1714.86   1
   4   1  -2 44719.0 1634.39   2
  -4   1   2 44685.0 1563.29   3
  -4   1   2 42589.4 1465.48   1
  -4   1   1 167976. 3180.76   5
  -4   1   1 161871. 2815.06   4
   4   1  -1 165891. 3501.19   2
   4   1  -1 164967. 3646.35   1
  -4   1   1 163887. 3415.85   1
  -4   1   1 160739. 3558.11   3
   4   1   0 127894. 3050.98   1
  -4   1   0 122321. 2012.28   4
  -4   1   0 125151. 2980.41   1
   4   1   0 126676. 2972.28   2
  -4   1   0 118761. 3150.43   3
   4   1   1 3130.20 480.345   1
  -4   1  -1 2630.82 211.771   2
   4   1   2 206867. 4337.16   1
  -4   1  -2 213053. 3419.39   4
  -4   1  -2 216861. 3210.06   2
   4   1   2 217595. 3983.53   4
   4   1   3 9634.15 750.819   4
  -4   1  -3 8887.53 638.315   4
   4   1   4 894.664 327.275   4
  -4   1  -4 818.396 268.327   4
   4   1   5 24926.8 1496.38   4
  -4   1  -5 23273.5 1317.36   4
   4   1   6 62622.9 2690.21   4
   4   1   6 57541.7 2598.58   3
   4   1   7 57058.9 2756.93   4
   4   1   7 58340.7 2687.47   3
   4   1   8 11876.8 1324.05   4
   4   1   8 12420.6 1288.81   3
   4   1   9 17939.5 1755.33   4
   4   1   9 15609.5 1546.90   3
   4   1  10 5613.80 992.332   3
   4   1  10 4165.04 867.623   4
   4   1  11-17.6916 449.142   4
   4   1  11 1007.66 531.912   3
   4   1  12 5466.07 1066.42   3
   4   1  12 6470.28 1225.75   4
   4   1  13 6629.04 1299.36   4
   4   1  14 3442.37 1051.80   4
  -4   2  15 8045.01 1660.62   4
  -4   2  14 1751.27 1021.85   4
  -4   2  13 1403.47 834.929   4
  -4   2  12 4549.99 1226.04   4
  -4   2  11 10807.2 1575.19   4
  -4   2  10 20419.3 1983.08   4
  -4   2   9 19662.9 1878.03   4
  -4   2   8 15658.6 1593.47   4
  -4   2   7 20202.6 1648.50   4
  -4   2   7 15567.1 546.109   3
  -4   2   6 6390.89 895.812   4
  -4   2   6 5046.34 431.267   3
  -4   2   5 5708.98 515.102   3
  -4   2   5 5309.07 785.078   4
  -4   2   4 87949.7 2894.97   4
  -4   2   4 88697.5 2067.01   1
  -4   2   4 84974.6 2378.51   3
  -4   2   3 141844. 2909.60   1
  -4   2   3 136857. 3467.47   4
  -4   2   3 139795. 3376.08   3
  -4   2   2 35004.9 1606.77   5
  -4   2   2 35835.7 1386.47   1
   4   2  -2 34094.1 1326.62   5
  -4   2   2 35634.9 1515.40   4
  -4   2   2 33821.7 1611.79   3
  -4   2   1 13668.5 1001.53   5
  -4   2   0 23860.4 1341.19   5
   4   2   0 23301.9 1302.33   1
   4   2   1 38653.8 1676.37   1
   4   2   2 31200.3 1501.05   1
   4   2   3 47762.9 2065.64   4
   4   2   3 45577.1 1888.77   1
   4   2   4 59596.2 2464.38   4
  -4   2  -4 63504.7 2222.30   4
   4   2   5 49071.1 2326.82   4
   4   2   6 10681.3 1165.94   4
   4   2   7 3251.19 717.895   4
   4   2   8 11649.8 1366.34   4
   4   2   9 14828.8 1663.70   4
   4   2   9 12592.1 1366.76   3
   4   2  10 9806.45 1442.85   4
   4   2  10 9483.83 1259.29   3
   4   2  11 13163.6 1741.94   4
   4   2  11 12103.6 1423.54   3
   4   2  12 4878.15 1167.11   4
   4   2  13 1884.15 920.208   4
   4   2  14 4414.95 1168.63   4
  -4   3  14 1171.12 863.400   4
  -4   3  13 8178.33 1523.16   4
  -4   3  12 5486.84 1296.09   4
  -4   3  11 2916.88 1027.28   4
  -4   3  10 1594.06 795.279   4
  -4   3   9 3477.92 840.284   4
  -4   3   8 2683.68 772.473   4
  -4   3   7 16353.7 977.294   3
  -4   3   7 18393.0 1718.40   4
  -4   3   6 77143.5 2388.75   3
  -4   3   6 86425.5 3536.35   4
  -4   3   5 15981.2 1426.98   4
  -4   3   5 15789.1 697.549   1
  -4   3   4 9302.07 614.062   1
  -4   3   4 10225.8 1061.68   4
   4   3  -3 2783.41 540.054   5
  -4   3   3 2865.26 600.225   4
  -4   3   2 714.560 332.993   5
   4   3  -2 857.457 297.064   5
  -4   3   1 73236.3 2848.69   5
  -4   3   0 13741.6 1235.23   5
   4   3   0 14516.8 1116.62   1
  -4   3  -1 38753.6 2130.38   5
   4   3   1 44402.6 1968.77   1
   4   3   2 53489.7 2119.24   1
   4   3   3 18525.3 1226.75   1
   4   3   4 47110.8 2010.27   1
   4   3   4 45933.5 2465.69   4
   4   3   5 9123.94 1150.37   4
   4   3   6 18994.2 1689.64   4
   4   3   7 19309.0 1813.11   4
   4   3   8 17995.9 1848.00   4
   4   3   9 3584.73 1003.80   4
   4   3  10 894.806 727.100   4
   4   3  11 9096.08 1555.34   4
   4   3  12 3503.58 1044.48   4
   4   3  13 2318.67 990.602   4
  -4   4  13 1270.04 813.444   4
  -4   4  12 1395.20 795.770   4
  -4   4  11 3372.38 1023.00   4
  -4   4  10 4807.14 1137.69   4
  -4   4   9 8940.55 1425.87   4
  -4   4   8 5881.91 1156.05   4
  -4   4   7-13.5838 390.328   4
  -4   4   6 6610.19 1093.30   4
   4   4  -5 3934.00 760.336   5
  -4   4   5 4266.46 896.079   4
   4   4  -4 9990.32 1090.67   5
  -4   4   4 9730.65 1223.39   4
   4   4  -3 54015.5 2527.60   5
  -4   4   3 55298.9 2782.74   4
  -4   4   2 9473.51 1166.27   5
   4   4  -2 9006.11 1021.83   5
  -4   4   1 19173.4 1672.26   5
  -4   4   0 8772.56 1144.62   5
  -4   4  -1 13155.0 1389.21   5
   4   4   1 13689.0 1188.93   1
  -4   4  -2 19618.8 1740.55   5
   4   4   2 19860.8 1394.32   1
   4   4   3 6857.76 839.833   1
   4   4   4 16819.7 1221.23   1
   4   4   4 19587.6 1852.63   4
   4   4   5 29599.5 2310.94   4
   4   4   6 4789.45 970.197   4
   4   4   7 3347.91 830.649   4
   4   4   8 8010.29 1403.00   4
   4   4   9 14208.0 1853.46   4
   4   4  10 7283.53 1480.65   4
   4   4  11 890.600 620.554   4
  -4   5  11 1503.42 885.218   4
  -4   5  10 2744.27 983.943   4
  -4   5   9 1513.37 826.103   4
  -4   5   8 1552.44 739.868   4
   4   5  -7 5938.16 1099.79   5
  -4   5   7 4941.74 1152.30   4
  -4   5   6 9606.81 1422.36   4
   4   5  -6 8201.21 1182.49   5
   4   5  -5 5859.89 999.309   5
  -4   5   5 4986.97 1026.73   4
   4   5  -4 684.627 552.938   5
  -4   5   4 916.393 632.871   4
   4   5  -3 3546.04 804.095   5
  -4   5   3 5167.13 978.240   4
   4   5  -2 3941.46 838.113   5
  -4   5   1 21638.0 1977.16   5
  -4   5   0 11290.5 1447.19   5
  -4   5  -1 6982.37 1220.24   5
   4   5   1 7774.53 998.037   1
  -4   5  -2 7372.13 1254.86   5
   4   5   2 7794.79 975.119   1
  -4   5  -3 5907.01 1150.89   5
   4   5   4 695.702 574.234   4
  -4   5  -4-859.920 764.467   5
   4   5   5 6318.41 1250.41   4
   4   5   6 4705.90 1169.57   4
   4   5   7 21346.1 2303.53   4
   4   5   8 4406.42 1152.70   4
   4   5   9 1346.63 855.724   4
   4   6  -9 502.273 496.454   5
   4   6  -8 5389.90 1283.19   5
  -4   6   7 1142.29 759.364   4
   4   6  -7 932.355 666.945   5
  -4   6   6-733.910 552.117   4
   4   6  -6-84.8654 528.196   5
  -4   6   5 1966.06 849.094   4
   4   6  -5-43.7590 481.600   5
  -4   6   4 7291.79 1326.56   4
   4   6  -4 7453.40 1245.03   5
   4   6  -3 1999.35 712.991   5
  -4   6   3 2614.13 884.734   4
  -4   6   0 12027.6 1680.53   5
  -4   6  -1 212.747 551.647   5
  -4   6  -2 7451.70 1416.65   5
  -4   6  -3 2946.21 1063.08   5
  -4   6  -4 7517.92 1455.51   5
   4   6   4 10317.5 1693.03   4
  -5  -6   4 2967.55 830.033   2
  -5  -6   3 1842.48 735.989   2
  -5  -6   2 4843.97 1023.73   2
  -5  -6   1 4686.64 1059.02   2
  -5  -6   0 327.913 478.587   2
  -5  -6  -1 1161.58 718.476   2
  -5  -6  -2 4133.29 1057.50   2
  -5  -6  -3 3998.86 1046.60   2
  -5  -5   4 10147.6 1315.84   2
  -5  -5   3 14888.0 1593.43   2
  -5  -5   2 2602.93 749.287   2
  -5  -5   1 710.444 590.694   2
  -5  -5   0 3532.06 813.402   2
  -5  -5  -1 14792.1 1611.42   2
  -5  -5  -2 11627.8 1439.15   2
  -5  -5  -3 5683.16 1096.63   2
  -5  -5  -4 2644.54 1090.21   2
  -5  -5  -5 6710.91 1252.62   2
  -5  -5  -6 2155.49 840.643   2
  -5  -5  -7 2014.76 837.934   2
  -5  -4   4 10187.6 1168.97   2
  -5  -4   3 24159.1 1798.79   2
   5  -4  -2 27447.6 1173.16   2
  -5  -4   2 26058.4 1905.58   2
  -5  -4   1 28938.4 2001.46   2
  -5  -4   0 26666.8 1928.21   2
  -5  -4  -1 1127.36 419.693   2
  -5  -4  -2 2306.02 669.135   2
  -5  -4  -3 10308.2 1350.37   2
  -5  -4  -4 6561.80 1115.36   2
  -5  -4  -5 20952.1 1977.68   2
  -5  -4  -6 5466.88 1100.26   2
  -5  -4  -7 2932.46 865.709   2
  -5  -3   4 46280.3 2320.27   2
  -5  -3   3 4144.79 716.718   2
  -5  -3   2 1394.93 455.810   2
  -5  -3   1 2964.86 675.776   2
  -5  -3   0 31415.7 1897.30   2
  -5  -3  -1 34524.7 2033.72   2
  -5  -3  -2 45102.3 2396.72   2
  -5  -3  -3 28930.2 1986.28   2
  -5  -3  -4 8348.74 1140.07   2
  -5  -3  -5 3215.61 837.057   2
   5  -2 -10 5125.10 482.849   1
   5  -2  -9 112074. 2497.59   1
   5  -2  -8 8447.27 617.700   1
  -5  -2   3 24850.7 1506.80   2
   5  -2  -2 55920.5 2171.28   3
  -5  -2   2 56207.9 2260.67   2
   5  -2  -1 119659. 3489.53   3
  -5  -2   1 125067. 3498.15   2
   5  -2  -1 115296. 1999.62   2
  -5  -2   0 5871.81 532.796   5
   5  -2   0 5719.41 779.102   3
  -5  -2   0 5726.66 766.688   2
  -5  -2  -1 12998.3 841.612   5
  -5  -2  -1 12421.7 1078.55   2
   5  -2   2 7841.27 992.841   3
  -5  -2  -2 7941.30 900.719   2
   5  -2   3 25330.2 1844.73   3
  -5  -2  -3 26478.2 1725.15   2
   5  -2   4 11761.2 1352.90   3
   5  -2   5 87296.7 3731.82   3
   5  -2   6 47107.2 2787.83   3
   5  -2   7 20861.1 1910.41   3
   5  -2   8 2700.96 810.185   3
   5  -2   9 828.109 660.243   3
  -5  -1  12 32978.6 2614.37   4
  -5  -1  11 17016.9 1787.61   4
   5  -1  -8 6483.44 664.442   1
   5  -1  -7 38656.4 1587.53   1
   5  -1  -6 45800.3 1193.97   3
   5  -1  -6 46933.8 1704.14   1
   5  -1  -5 604.131 183.850   3
   5  -1  -5 415.111 191.713   1
   5  -1  -4 207468. 4093.91   1
   5  -1  -4 205718. 3921.17   5
   5  -1  -4 199731. 4227.34   4
   5  -1  -4 201714. 3894.00   3
   5  -1  -3 37216.9 1359.46   5
   5  -1  -3 35820.9 1510.35   1
   5  -1  -3 36201.9 1390.76   4
   5  -1  -3 36858.9 1541.61   3
   5  -1  -2 5619.58 649.691   3
  -5  -1   2 4912.09 615.427   2
   5  -1  -2 4950.96 444.313   2
   5  -1  -1 29023.7 993.169   2
  -5  -1   1 29796.7 1425.88   2
   5  -1  -1 26977.3 1511.01   3
   5  -1   0 186841. 3030.26   2
  -5  -1   0 185257. 4035.44   2
   5  -1   0 182257. 4499.15   3
  -5  -1  -1 61519.5 2169.84   2
   5  -1   1 62614.7 2557.56   3
  -5  -1  -2 67254.2 2349.30   2
   5  -1   2 65593.6 2774.81   3
  -5  -1  -3 42819.3 1897.44   2
   5  -1   3 41437.6 2275.13   3
   5  -1   4 19373.4 1574.52   3
   5  -1   5 44427.5 2491.48   3
   5  -1   6 4467.15 874.051   3
   5  -1   7 33630.6 2317.68   3
   5  -1   8 72218.3 3558.66   3
   5  -1   9 6489.75 1130.80   3
   5  -1  10 6958.31 1171.68   3
   5  -1  11 4670.64 1074.98   3
   5  -1  12-265.216 496.013   3
   5  -1  13 12908.3 1702.68   3
  -5   0  16 2341.67 1039.84   4
  -5   0  15 6491.57 1486.63   4
  -5   0  14 31140.7 2851.24   4
  -5   0  13-513.054 814.490   4
  -5   0  12 3303.61 984.757   4
  -5   0  11 1264.40 565.620   4
  -5   0  10 20292.8 1929.84   4
   5   0 -10 16913.1 649.128   3
  -5   0   9 35642.3 2419.51   4
   5   0  -9 35542.9 1023.37   3
  -5   0   8 526.376 367.050   4
  -5   0   7 6442.85 924.286   4
  -5   0   6 140331. 4114.16   4
  -5   0   5 16152.5 1195.95   4
   5   0  -5 16491.5 1073.88   1
   5   0  -4 11724.9 962.712   4
  -5   0   4 13404.4 949.480   4
   5   0  -4 13493.0 968.333   1
   5   0  -3 76001.2 1441.73   5
   5   0  -3 76308.6 2311.85   4
  -5   0   3 74755.0 2058.20   4
   5   0  -3 77694.5 2180.41   2
   5   0  -3 78067.2 2392.24   1
   5   0  -2 73356.8 1963.98   4
   5   0  -2 74026.0 2050.18   2
   5   0  -2 73214.2 2318.34   1
  -5   0   1 204067. 2817.40   5
   5   0  -1 207755. 4377.62   1
   5   0  -1 203136. 3293.57   4
   5   0  -1 210393. 3866.11   2
  -5   0   1 214936. 3906.79   2
   5   0   0 15573.6 1062.84   1
   5   0   0 16603.9 903.054   2
  -5   0   0 16274.8 886.177   2
  -5   0  -1 75827.8 2078.28   2
   5   0   1 78651.2 2770.81   3
  -5   0  -2 224741. 4148.66   2
   5   0   2 229380. 5196.44   3
   5   0   3 91899.1 2197.54   4
  -5   0  -3 90199.9 2494.10   2
   5   0   3 95059.4 3315.84   3
   5   0   4 14002.9 905.564   4
   5   0   4 14880.4 1340.79   3
  -5   0  -5 57778.4 1967.26   4
   5   0   5 65203.8 2315.31   4
   5   0   5 66249.3 2987.87   3
   5   0   6 32911.2 1790.07   4
  -5   0  -6 27327.3 1448.47   4
   5   0   6 30575.9 2096.50   3
   5   0   7 7611.31 1115.91   3
   5   0   7 7087.05 914.482   4
   5   0   8 320.995 431.838   3
   5   0   8 465.419 336.407   4
   5   0   9 287.280 365.872   4
   5   0   9 1182.46 574.698   3
   5   0  10 57218.8 3117.52   4
   5   0  10 63721.2 3461.31   3
   5   0  11 22736.7 2038.72   4
   5   0  11 21510.2 2033.31   3
   5   0  12 1038.93 465.948   3
   5   0  13 7753.65 1320.79   3
  -5   1  16 2464.90 1029.24   4
  -5   1  15 4099.93 1119.47   4
  -5   1  14 4148.83 1008.44   4
  -5   1  13-187.012 598.176   4
  -5   1  12 36734.3 2951.87   4
  -5   1  11 23183.1 2231.03   4
  -5   1  10 2874.36 904.243   4
  -5   1   9 8723.73 1254.92   4
  -5   1   8 5908.92 1007.63   4
  -5   1   7 45792.6 2493.59   4
  -5   1   6 42034.2 2225.25   4
  -5   1   5 1832.59 471.210   4
  -5   1   4 188239. 4398.38   4
  -5   1   4 203928. 3996.13   1
  -5   1   3 35141.1 1520.09   4
   5   1  -3 39117.7 1667.22   4
   5   1  -3 36879.6 1697.10   1
  -5   1   3 38707.7 1563.60   1
  -5   1   2 5177.45 492.223   4
   5   1  -2 5778.71 691.590   1
  -5   1   2 5065.11 550.909   1
  -5   1   1 26204.5 1101.70   5
  -5   1   1 25481.2 909.965   4
   5   1  -1 28476.0 1460.28   1
   5   1   0 191779. 4279.46   1
   5   1   1 55419.7 2141.63   1
  -5   1  -1 55167.9 1336.95   2
   5   1   2 64681.4 1893.27   4
   5   1   2 61825.6 2277.27   1
  -5   1  -2 65396.5 1525.99   2
   5   1   3 45857.7 1708.57   4
  -5   1  -3 40939.3 1279.37   4
  -5   1  -3 43146.3 1341.28   2
   5   1   4 16573.3 1125.93   4
  -5   1  -4 16467.4 908.440   4
  -5   1  -5 42741.5 1719.40   4
   5   1   5 47305.0 2127.10   4
   5   1   6 1999.61 601.750   3
  -5   1  -6 1167.26 331.386   4
   5   1   6 1132.76 448.717   4
   5   1   7 35712.0 2146.40   4
   5   1   7 33667.7 2212.45   3
   5   1   8 81906.9 3555.43   4
   5   1   8 83597.1 3662.88   3
   5   1   9 4386.28 907.706   3
   5   1   9 6508.42 1114.65   4
   5   1  10 4388.26 913.743   3
   5   1  10 4033.77 933.255   4
   5   1  11 2280.94 669.685   3
   5   1  11 4878.08 1057.76   4
   5   1  12-161.027 513.685   3
   5   1  12-589.437 535.830   4
  -5   2  15 4505.50 1264.70   4
  -5   2  14 7228.63 1495.50   4
  -5   2  13 671.573 694.088   4
  -5   2  12 1044.59 557.214   4
  -5   2  11 13641.5 1771.38   4
  -5   2  10 6281.99 1167.59   4
  -5   2   9 114337. 4667.62   4
  -5   2   8 9262.37 1308.23   4
  -5   2   7 41537.9 2501.02   4
  -5   2   6 1288.19 513.425   4
  -5   2   6 1368.74 256.651   3
  -5   2   5 43.4608 182.447   3
  -5   2   5 342.485 315.129   4
  -5   2   4 38223.7 1875.31   4
  -5   2   4 37168.8 1438.53   1
  -5   2   4 35776.7 1576.24   3
   5   2  -3 29095.9 1196.18   5
  -5   2   3 29795.1 1527.38   4
  -5   2   3 28306.4 1503.75   3
  -5   2   3 27077.7 1260.60   1
   5   2  -2 56172.7 1626.87   5
  -5   2   2 57737.6 2143.41   5
  -5   2   2 58036.1 1977.13   4
   5   2  -2 55986.3 2240.72   1
  -5   2   1 122200. 3291.06   5
  -5   2   1 116738. 2782.63   4
   5   2  -1 123338. 3472.02   1
  -5   2   0 4986.09 659.817   5
   5   2   0 5340.52 712.364   1
   5   2   1 13035.9 1047.07   1
   5   2   2 7432.50 801.980   1
   5   2   3 25074.2 1498.53   1
  -5   2  -3 25549.4 1230.71   4
   5   2   3 25479.4 1526.75   4
   5   2   4 14293.7 1195.05   4
  -5   2  -4 12774.5 949.069   4
  -5   2  -4 11627.2 443.363   2
   5   2   5 93805.3 3344.31   4
  -5   2  -5 93796.7 2962.59   4
   5   2   6 52987.9 2628.33   4
   5   2   7 19093.7 1668.79   4
   5   2   8 1770.12 771.049   4
   5   2   9-112.645 399.637   3
   5   2   9 390.409 476.961   4
   5   2  10 14875.5 1621.99   3
   5   2  10 14175.5 1679.67   4
   5   2  11 10655.6 1467.45   3
   5   2  11 8769.00 1477.50   4
   5   2  12 2055.35 794.441   4
  -5   3  14 17.8058 695.258   4
  -5   3  13 3585.09 1074.05   4
  -5   3  12 15616.1 2034.74   4
  -5   3  11 11097.7 1635.62   4
  -5   3  10 10318.8 1602.88   4
  -5   3   9 1758.83 793.032   4
  -5   3   8 11742.4 1473.36   4
  -5   3   7 39222.3 2518.16   4
  -5   3   6 49100.2 2677.18   4
  -5   3   6 50451.3 1993.25   3
  -5   3   5 25120.1 1784.19   4
  -5   3   5 21958.8 1029.08   1
   5   3  -4 40400.6 1850.49   5
  -5   3   4 37224.7 1464.51   1
   5   3  -3 2993.80 506.051   5
  -5   3   3 3040.77 567.632   4
   5   3  -2 929.071 322.122   5
  -5   3   2 745.250 379.809   4
  -5   3   2 545.557 381.012   5
  -5   3   1 1504.96 500.275   5
   5   3  -1 1535.33 413.035   1
  -5   3   0 31379.3 1904.37   5
   5   3   0 31207.9 1771.96   1
  -5   3  -1 42342.7 2259.75   5
   5   3   1 39691.5 1990.84   1
   5   3   2 46286.4 2118.61   1
   5   3   3 39489.4 1966.11   1
   5   3   4 7300.26 1004.64   4
   5   3   4 7400.63 871.556   1
   5   3   5 2600.08 734.264   4
   5   3   6 4147.64 838.050   4
   5   3   7 8881.50 1283.48   4
   5   3   8 36282.9 2669.29   4
   5   3   9 4248.71 972.360   4
   5   3  10 1767.80 792.565   4
   5   3  10 503.543 503.843   3
   5   3  11 7817.23 1275.54   3
   5   3  11 7928.97 1482.15   4
   5   3  12 218.951 535.390   4
  -5   4  13 2172.35 881.031   4
  -5   4  12 4408.81 1348.81   4
  -5   4  11 782.071 902.077   4
  -5   4  10 7744.00 1354.69   4
  -5   4   9 20818.3 2166.58   4
  -5   4   8 7962.86 1257.28   4
  -5   4   7 6001.58 1119.62   4
  -5   4   6 13873.9 1577.70   4
   5   4  -5 2058.81 529.881   5
  -5   4   5 1565.55 582.557   4
   5   4  -4 16454.6 1420.28   5
  -5   4   4 15156.3 1471.14   4
   5   4  -3 23156.4 1592.65   5
  -5   4   3 22110.6 1755.29   4
  -5   4   2 32954.7 2217.25   5
  -5   4   2 29441.8 1970.44   4
  -5   4   1 23303.7 1865.19   5
  -5   4   0 35205.0 2299.42   5
   5   4   0 34525.6 2029.90   1
  -5   4  -1 2233.94 676.330   5
   5   4   1 3035.58 683.050   1
   5   4   2 2672.48 560.876   1
  -5   4  -2 1237.76 566.517   5
   5   4   3 10962.1 1100.68   1
   5   4   4 6751.10 1115.33   4
   5   4   4 5458.97 800.108   1
   5   4   5 19510.4 1827.58   4
   5   4   6 7001.93 1167.24   4
   5   4   7 2846.72 960.140   4
   5   4   8 3693.68 975.614   4
   5   4   9 3905.80 1084.55   4
   5   4  10 4091.43 1145.05   4
   5   4  11 2374.47 1058.25   4
  -5   5  11 3211.02 1155.36   4
  -5   5  10-209.754 626.717   4
  -5   5   9 85.8782 503.264   4
  -5   5   8 998.836 693.667   4
   5   5  -7 6010.94 1057.43   5
  -5   5   7 7365.12 1350.47   4
  -5   5   6 5038.95 1031.68   4
   5   5  -6 3038.04 773.571   5
   5   5  -5 10332.5 1312.34   5
  -5   5   5 9128.06 1404.18   4
   5   5  -4 8677.99 1186.64   5
  -5   5   4 9481.04 1318.90   4
   5   5  -3 16338.4 1555.56   5
  -5   5   3 15311.8 1669.02   4
  -5   5   2 2457.55 682.555   4
  -5   5   1 2809.18 864.337   5
   5   5   0 2954.17 676.157   1
  -5   5   0 5012.93 1049.71   5
  -5   5  -1 15329.0 1769.70   5
   5   5   1 11329.7 1264.03   1
   5   5   2 11064.2 1189.13   1
  -5   5  -2 8751.69 1365.88   5
  -5   5  -3 7681.04 1281.05   5
  -5   5  -4-63.5074 512.857   5
   5   5   4 741.728 554.256   4
   5   5   5 5842.00 1208.05   4
   5   5   6 6220.54 1302.50   4
   5   5   7 1868.89 758.443   4
   5   5   8 4443.36 1176.50   4
   5   6  -9-1.32494 620.596   5
  -5   6   8 4841.82 1391.06   4
   5   6  -8 4654.54 1176.19   5
  -5   6   7 757.971 550.993   4
   5   6  -7 718.201 620.379   5
  -5   6   6 2038.86 871.814   4
   5   6  -6 1361.48 643.052   5
   5   6  -5 1660.09 737.218   5
  -5   6   5 3269.04 970.063   4
   5   6  -4 5486.57 1027.76   5
  -5   6   4 3740.47 1005.77   4
  -5   6   3-94.0649 588.612   4
  -5   6   2 4514.46 1096.04   4
   5   6  -1 2958.67 811.870   1
  -5   6   0 2338.61 827.008   5
  -5   6  -1 561.779 626.578   5
  -5   6  -2 3288.54 942.539   5
  -5   6  -3 3997.76 1184.64   5
   5   6   4 8286.89 1516.26   4
  -6  -6   4 1326.26 698.043   2
  -6  -6   3 3847.07 943.903   2
  -6  -6   2 786.814 613.995   2
  -6  -6   1 4455.51 1124.90   2
  -6  -6   0 4940.15 1104.24   2
  -6  -6  -1 1774.26 811.755   2
  -6  -6  -2 838.594 649.336   2
  -6  -5   4 13542.4 1573.24   2
  -6  -5   3 21810.0 1985.09   2
  -6  -5   2 1705.31 697.894   2
  -6  -5   1 2555.63 791.709   2
  -6  -5   0 3764.98 1019.79   2
  -6  -5  -1 2726.03 775.991   2
  -6  -5  -2 8159.75 1372.39   2
  -6  -5  -3 5105.88 1079.46   2
  -6  -5  -4 2308.72 899.580   2
  -6  -5  -5 6672.59 1257.74   2
  -6  -5  -6 2441.39 1073.37   2
  -6  -4   4 4971.22 951.332   2
  -6  -4   3 10558.5 1293.57   2
  -6  -4   2 9826.79 1208.03   2
  -6  -4   1 32903.9 2224.53   2
  -6  -4   0 15459.9 1562.04   2
  -6  -4  -1 6649.02 1011.07   2
  -6  -4  -2 2688.89 675.894   2
  -6  -4  -3 1009.48 621.065   2
  -6  -4  -4 13071.5 1548.50   2
  -6  -4  -5 16075.8 1762.55   2
  -6  -4  -6 5727.76 1214.88   2
  -6  -4  -7 13043.6 1806.06   2
  -6  -4  -8 849.186 710.456   2
  -6  -3   4 12331.7 1257.06   2
  -6  -3   3 16705.9 1434.00   2
  -6  -3   2 2691.50 618.656   2
  -6  -3   1 7737.95 995.698   2
  -6  -3   0 9899.06 1141.97   2
  -6  -3  -1 8916.69 1087.40   2
  -6  -3  -2 138712. 4504.01   2
  -6  -3  -3 3367.36 765.246   2
  -6  -3  -4 1101.05 685.514   2
  -6  -3  -5 2288.51 797.068   2
  -6  -3  -6 9887.49 1340.66   2
  -6  -3  -7 6771.23 1230.82   2
   6  -2 -10 6003.16 607.645   1
   6  -2  -9 14184.7 910.249   1
   6  -2  -8 14137.8 935.376   1
   6  -2  -4 30973.1 1543.71   3
   6  -2  -3 57209.5 2254.18   3
  -6  -2   3 61120.0 2528.41   2
   6  -2  -2 1770.30 460.351   3
  -6  -2   2 1885.26 507.099   2
   6  -2  -1 57635.2 2500.73   3
   6  -2  -1 53962.6 1254.24   2
  -6  -2   1 56224.9 2384.79   2
   6  -2   0 38007.2 2120.08   3
  -6  -2   0 39172.0 1365.25   5
  -6  -2   0 37959.7 1977.65   2
  -6  -2  -1 8481.35 676.442   5
  -6  -2  -1 7193.51 873.384   2
   6  -2   1 8624.39 1055.56   3
   6  -2   2 3679.05 764.121   3
  -6  -2  -2 2909.58 580.448   2
   6  -2   3 9869.89 1246.42   3
  -6  -2  -3 8785.90 1047.85   2
   6  -2   4 80156.2 3635.07   3
  -6  -2  -4 82232.2 3323.29   2
   6  -2   5 40575.9 2629.36   3
  -6  -2  -5 39905.8 2344.12   2
   6  -2   6 267.462 427.830   3
   6  -2   7 8001.26 1299.52   3
   6  -2   8 1239.49 546.670   3
   6  -2   9 2164.69 920.942   3
   6  -2  10 7007.35 1398.47   3
   6  -1 -11 5183.24 694.162   1
   6  -1 -10 18790.1 1278.40   1
   6  -1  -9 11004.8 963.605   1
   6  -1  -8 2110.08 427.895   1
   6  -1  -7 3293.51 322.547   3
   6  -1  -7 2903.39 466.084   1
   6  -1  -6 82359.1 2550.34   1
   6  -1  -6 82351.3 2143.23   3
   6  -1  -5 25895.1 1385.64   1
   6  -1  -5 21564.9 1136.38   5
   6  -1  -5 25029.5 1233.03   3
   6  -1  -4 48754.4 1672.02   5
   6  -1  -4 53608.0 2062.70   1
   6  -1  -4 49735.9 1873.06   4
   6  -1  -4 52613.2 1992.28   3
   6  -1  -3 33106.8 1301.67   4
   6  -1  -3 33228.0 1603.69   1
   6  -1  -3 34069.7 1344.46   2
   6  -1  -3 32326.5 1649.61   3
   6  -1  -2 16215.7 858.533   2
  -6  -1   2 16704.6 1172.78   2
   6  -1  -2 14344.1 1174.72   3
   6  -1  -1 56656.6 1589.48   2
  -6  -1   1 55079.6 2130.93   2
   6  -1  -1 56900.7 2443.88   3
  -6  -1   0 3041.90 539.728   2
   6  -1   0 3059.31 603.738   3
  -6  -1  -1 24636.3 1415.97   2
   6  -1   1 22639.6 1643.27   3
  -6  -1  -2 61627.6 2379.03   2
   6  -1   2 65002.1 2942.90   3
  -6  -1  -3 20143.9 1408.24   2
   6  -1   3 19295.8 1670.95   3
  -6  -1  -4 17709.0 1334.27   2
   6  -1   4 16774.9 1594.02   3
   6  -1   5 12318.4 1407.59   3
   6  -1   6 2317.62 557.007   3
   6  -1   7 41689.0 2765.03   3
   6  -1   8 5504.86 1078.37   3
   6  -1   9 7919.61 1321.62   3
   6  -1  10 12367.6 1699.59   3
   6  -1  11 1240.39 767.329   3
   6  -1  12-61.5151 532.298   3
   6  -1  13 117.325 566.534   3
  -6   0  16 1432.00 916.233   4
  -6   0  15 11520.7 1846.28   4
  -6   0  14 2421.39 1080.49   4
  -6   0  13 4271.65 1128.72   4
  -6   0  12 1002.05 647.867   4
  -6   0  11 3857.08 978.000   4
  -6   0  10 3066.22 857.805   4
  -6   0   9 32496.6 2274.00   4
  -6   0   8 15838.2 1551.65   4
  -6   0   7 89356.0 3412.78   4
   6   0  -7 89535.4 2900.79   1
   6   0  -6 2816.32 515.307   1
  -6   0   6 3253.36 593.635   4
   6   0  -5 6141.55 724.738   1
  -6   0   5 6439.08 745.439   4
   6   0  -4 27658.3 867.638   5
   6   0  -4 28486.7 1543.26   4
  -6   0   4 30082.9 1416.94   4
   6   0  -4 28108.0 1519.39   1
   6   0  -3 55399.0 1944.81   4
   6   0  -3 54270.2 2141.15   1
   6   0  -2 6667.56 763.076   1
   6   0  -2 6775.63 562.991   4
  -6   0   1 83990.3 1481.54   5
   6   0  -1 93601.8 2937.05   1
   6   0  -1 83417.5 1794.04   4
   6   0  -1 90945.5 2450.57   2
  -6   0   1 92111.8 2446.74   2
   6   0   0 31846.2 1381.32   2
  -6   0   0 34748.2 1437.84   2
  -6   0  -1 253.849 229.305   2
   6   0   1 403.621 334.182   3
  -6   0  -2 1001.85 263.992   2
   6   0   2 1333.59 514.573   3
   6   0   3 3870.78 800.217   3
   6   0   3 3264.93 340.623   4
  -6   0  -3 3355.38 526.195   2
   6   0   4 23126.6 1127.02   4
  -6   0  -4 19539.9 1246.34   2
   6   0   4 22898.3 1787.03   3
   6   0   5 18831.3 1182.23   4
   6   0   5 19473.6 1754.62   3
   6   0   6 21866.6 1405.05   4
   6   0   6 19656.8 1811.72   3
   6   0   7 15375.4 1287.05   4
   6   0   7 16468.1 1702.18   3
   6   0   8 10934.6 1397.10   3
   6   0   8 10304.9 1126.05   4
   6   0   9 11457.7 1519.21   3
   6   0  10 6052.75 1141.81   3
   6   0  11 5716.03 1214.24   3
   6   0  12 2815.67 932.686   3
   6   0  13 5438.83 1231.65   3
  -6   1  16 2149.22 1103.36   4
  -6   1  15 15.1527 594.199   4
  -6   1  14 6962.98 1446.47   4
  -6   1  13 11113.1 1673.43   4
  -6   1  12 17150.4 2106.85   4
  -6   1  11 5766.25 1126.12   4
  -6   1  10 16742.7 1820.66   4
  -6   1   9 10268.9 1345.48   4
  -6   1   8 2145.57 682.837   4
  -6   1   7 3968.56 751.351   4
  -6   1   6 83645.3 3221.20   4
  -6   1   5 20764.7 1446.39   4
  -6   1   4 61762.3 2314.25   4
   6   1  -4 60143.2 2415.03   1
  -6   1   3 27243.5 1323.64   4
   6   1  -3 27403.2 1455.48   4
   6   1  -3 24821.9 1518.02   1
  -6   1   2 18314.4 903.269   5
  -6   1   2 18931.3 912.334   4
   6   1  -2 18233.0 1275.84   1
  -6   1   1 55863.9 1717.42   5
  -6   1   1 53164.8 1227.02   4
   6   1  -1 52914.2 2232.20   1
   6   1   0 1247.54 429.586   1
   6   1   1 23762.4 1508.50   1
  -6   1  -1 23247.8 940.061   2
   6   1   2 62501.4 1890.57   4
  -6   1  -2 63283.8 1681.73   2
  -6   1  -3 18593.5 596.862   4
   6   1   3 20700.4 1140.22   4
  -6   1  -3 21836.3 996.435   2
  -6   1  -4 12250.8 674.381   4
   6   1   4 13926.3 1036.64   4
  -6   1  -4 14252.2 867.482   2
  -6   1  -5 12489.6 825.794   4
   6   1   5 15249.0 1216.38   4
   6   1   5 13922.6 1423.66   3
   6   1   6 3276.99 778.706   3
   6   1   6 3942.75 687.403   4
   6   1   7 37396.5 2219.78   4
   6   1   7 37284.2 2481.11   3
   6   1   8 6662.04 1124.12   3
   6   1   8 8395.87 1108.40   4
   6   1   9 8192.13 1203.20   4
   6   1   9 6633.33 1163.71   3
   6   1  10 10773.0 1494.28   3
   6   1  11 1096.59 694.184   3
   6   1  12 624.417 655.355   3
  -6   2  15 3480.69 1170.98   4
  -6   2  14 5122.35 1342.25   4
  -6   2  13 2763.38 928.675   4
  -6   2  12 993.355 702.337   4
  -6   2  11 2212.47 873.337   4
  -6   2  10 7896.95 1302.71   4
  -6   2   9 13955.2 1613.30   4
  -6   2   8 16863.6 1670.60   4
  -6   2   7 17829.7 1659.83   4
  -6   2   6 6132.70 906.732   4
  -6   2   5 3858.13 705.013   4
   6   2  -4 30146.0 1176.35   5
  -6   2   4 29868.2 1712.99   4
   6   2  -3 55150.1 1553.26   5
  -6   2   3 59480.4 2228.42   4
   6   2  -3 55395.8 2428.63   1
  -6   2   2 6679.76 737.052   5
  -6   2   2 7119.63 685.707   4
   6   2  -2 8131.18 903.099   1
  -6   2   1 55055.2 2190.84   5
  -6   2   1 54601.7 1761.74   4
   6   2  -1 54692.2 2390.99   1
  -6   2   0 36275.0 1766.87   5
  -6   2   0 35417.5 1253.13   4
   6   2   0 34588.0 1849.04   1
   6   2   1 10160.9 1032.16   1
  -6   2  -2 3244.37 380.793   4
   6   2   2 4276.99 712.963   1
  -6   2  -3 8002.46 638.482   4
   6   2   3 7736.03 875.112   4
   6   2   3 8119.96 912.205   1
   6   2   4 82669.5 2956.85   4
   6   2   5 37525.5 2092.90   4
   6   2   6 420.157 385.229   4
   6   2   7 6174.27 960.017   4
   6   2   8 2395.73 759.537   3
   6   2   8 2221.93 751.944   4
   6   2   9 1154.70 551.341   3
   6   2   9 681.551 507.035   4
   6   2  10 6477.12 1168.71   3
   6   2  10 6709.46 1222.96   4
   6   2  11 3020.31 918.852   3
   6   2  12 14082.0 1800.03   3
  -6   3  14-1046.39 904.055   4
  -6   3  13 6340.18 1386.58   4
  -6   3  12 6043.79 1367.27   4
  -6   3  11 2089.73 893.451   4
  -6   3  10 6659.89 1306.27   4
  -6   3   9 6953.18 1322.01   4
  -6   3   8 9224.41 1330.52   4
  -6   3   7 3796.04 847.601   4
  -6   3   6 30936.4 2145.65   4
   6   3  -5 9568.93 915.006   5
  -6   3   5 8638.54 757.199   1
   6   3  -4 9207.44 846.886   5
  -6   3   4 10478.7 1126.24   4
   6   3  -3 17957.9 1132.87   5
  -6   3   3 18009.5 1371.36   4
  -6   3   2 2119.64 567.015   5
   6   3  -2 2313.23 556.592   1
  -6   3   2 2472.94 520.710   4
  -6   3   1 8330.98 877.083   4
  -6   3   1 8361.15 1036.09   5
  -6   3   0 10103.8 1106.79   5
   6   3   0 10564.9 1114.92   1
  -6   3  -1 9041.58 1106.85   5
   6   3   1 10368.5 1088.84   1
   6   3   2 133321. 4080.75   1
   6   3   3 1847.22 561.843   1
   6   3   4 1740.08 625.118   4
   6   3   5 4357.73 857.317   4
   6   3   6 11600.4 1405.39   4
   6   3   7 8313.99 1253.40   4
   6   3   8 5417.68 1036.06   4
   6   3   9 10860.5 1554.50   4
   6   3  10 2784.71 783.504   3
   6   3  10 4746.16 1153.86   4
   6   3  11-176.387 594.867   3
  -6   4  13 1664.00 1006.68   4
  -6   4  12 318.107 589.651   4
  -6   4  11 206.924 723.854   4
  -6   4  10 1164.28 711.874   4
  -6   4   9 5355.27 1171.08   4
  -6   4   8 14333.5 1712.14   4
  -6   4   7 1507.12 612.776   4
   6   4  -6 791.336 393.973   5
  -6   4   6 1553.84 569.616   4
  -6   4   5 9474.59 1273.53   4
   6   4  -5 8496.41 1002.44   5
   6   4  -4 5808.88 793.215   5
  -6   4   4 7358.15 1087.26   4
  -6   4   3 8864.98 1127.64   4
  -6   4   2 13023.2 1294.83   4
  -6   4   2 10457.2 1268.98   5
   6   4  -2 10274.6 1211.59   1
  -6   4   1 33461.5 2263.76   5
  -6   4   1 31470.0 1979.85   4
   6   4  -1 32014.3 2058.50   1
  -6   4   0 19401.6 1768.51   5
   6   4   0 18390.2 1600.71   1
  -6   4  -1 7659.72 1153.28   5
   6   4   1 6793.30 956.447   1
  -6   4  -2 3061.17 791.799   5
   6   4   2 2365.59 603.739   1
   6   4   3 1173.20 457.834   1
   6   4   4 13824.4 1588.40   4
   6   4   4 13893.9 1311.36   1
   6   4   5 22835.1 2064.64   4
   6   4   6 5414.63 1065.77   4
   6   4   7 17568.3 1962.62   4
   6   4   8-1003.92 701.037   4
   6   4   9 5853.97 1285.34   4
   6   4  10 616.252 535.628   4
  -6   5  11 5139.22 1329.73   4
  -6   5  10 3329.90 1223.91   4
  -6   5   9 290.551 616.901   4
   6   5  -8 203.844 503.268   5
  -6   5   8 1457.07 710.376   4
   6   5  -7-727.920 511.009   5
  -6   5   7 360.782 515.195   4
   6   5  -6 9409.48 1242.75   5
  -6   5   6 10292.5 1494.93   4
   6   5  -5 2778.94 693.107   5
  -6   5   5 4575.14 1032.24   4
   6   5  -4 6461.76 1026.60   5
  -6   5   4 7767.21 1280.67   4
  -6   5   3 24498.0 2080.50   4
  -6   5   2 146.613 432.394   4
   6   5  -2 615.900 543.546   1
  -6   5   1 4526.09 994.003   5
  -6   5   1 4725.24 927.717   4
   6   5  -1 4640.77 936.053   1
  -6   5   0 2231.29 807.176   5
   6   5   0 3010.27 800.066   1
  -6   5  -1 6019.72 1236.25   5
   6   5   1 3818.84 797.036   1
  -6   5  -2 7896.80 1356.96   5
   6   5   2 8687.77 1159.37   1
  -6   5  -3 3877.50 996.825   5
  -6   5  -4 2082.50 837.418   5
   6   5   4 3428.88 1035.38   4
   6   5   5 4208.43 1045.81   4
   6   5   6 3150.11 1018.97   4
   6   5   7 5307.11 1303.62   4
   6   5   8 2284.61 893.074   4
  -6   6   7 784.204 654.914   4
  -6   6   6 3615.17 1014.53   4
  -6   6   5 1384.30 742.698   4
  -6   6   4 161.453 709.135   4
  -6   6   3 3228.07 982.664   4
   6   6  -2 24.1533 532.649   1
  -6   6   2 401.879 579.319   4
  -6   6   1 3658.50 987.750   4
   6   6  -1 2992.83 794.753   1
  -6   6   0 5520.15 1293.39   5
  -6   6  -1 2139.35 937.174   5
  -7  -6   4 220.563 553.574   2
  -7  -6   3 417.362 632.373   2
  -7  -6   2 1533.93 660.426   2
  -7  -5   4 8331.51 1312.37   2
  -7  -5   3-472.838 705.636   2
  -7  -5   2 2488.95 903.626   2
  -7  -5   1 2353.83 861.109   2
  -7  -5   0 337.908 439.744   2
  -7  -5  -1 1751.76 829.106   2
  -7  -5  -2 3852.21 1016.96   2
  -7  -5  -3 2285.99 854.341   2
  -7  -5  -4 1151.21 643.570   2
  -7  -4   4 3716.09 870.837   2
  -7  -4   3-16.1472 509.376   2
  -7  -4   2 3069.10 750.987   2
  -7  -4   1 23398.9 1946.80   2
  -7  -4   0 4957.05 916.961   2
  -7  -4  -1 8973.27 1284.64   2
  -7  -4  -2 3732.10 913.386   2
  -7  -4  -3 5372.87 1111.13   2
  -7  -4  -4 220.487 464.395   2
  -7  -4  -5 1458.97 795.733   2
  -7  -4  -6 3657.80 1038.10   2
  -7  -4  -7 2789.34 918.024   2
  -7  -3   4 17592.5 1570.62   2
  -7  -3   3 17548.4 1571.21   2
  -7  -3   2 6170.45 983.179   2
  -7  -3   1 5574.02 895.595   2
  -7  -3   0 91.2327 461.589   2
  -7  -3  -1 12104.6 1312.36   2
  -7  -3  -2 4708.03 977.391   2
  -7  -3  -3 8691.73 1194.23   2
  -7  -3  -4 11428.2 1415.27   2
  -7  -3  -5 7534.29 1185.87   2
  -7  -3  -6 4755.69 1033.95   2
  -7  -3  -7 955.189 482.428   2
  -7  -3  -8 1899.14 911.724   2
  -7  -3  -9 5802.85 1300.05   2
  -7  -3 -10 2977.46 1066.53   2
   7  -2 -10 1973.95 422.847   1
   7  -2  -9 3070.74 487.771   1
   7  -2  -8 7744.54 782.628   1
   7  -2  -5 14775.1 1074.06   3
   7  -2  -4 5624.84 733.794   3
   7  -2  -3 4863.31 743.861   3
  -7  -2   3 4591.18 715.774   2
  -7  -2   2 6233.07 850.025   2
   7  -2  -2 6292.44 858.472   3
   7  -2  -2 6254.85 495.461   2
   7  -2  -1 31582.5 989.553   2
  -7  -2   1 31857.7 1883.64   2
  -7  -2   0 7731.88 952.880   2
   7  -2   0 5030.08 841.874   3
   7  -2   1 16847.6 1598.12   3
  -7  -2  -1 18164.5 971.806   5
  -7  -2  -1 16971.6 1408.87   2
  -7  -2  -2 5629.88 845.691   2
   7  -2   2 8923.15 1230.22   3
   7  -2   3 1789.99 674.164   3
  -7  -2  -3 245.467 411.843   2
   7  -2   4 17190.6 1791.65   3
  -7  -2  -4 15200.3 1462.45   2
   7  -2   5 19423.0 1950.06   3
  -7  -2  -5 20053.6 1749.05   2
   7  -2   6 7741.80 1263.86   3
  -7  -2  -6 5889.41 1032.86   2
   7  -2   7 6853.90 1247.33   3
  -7  -2  -7 4770.72 966.871   2
   7  -2   8 6402.68 1306.46   3
   7  -2   9 378.779 550.574   3
   7  -2  10 306.097 520.016   3
   7  -2  11 2237.42 871.624   3
   7  -1 -12 9002.34 991.947   1
   7  -1 -11 3320.52 672.372   1
   7  -1 -10 11552.0 1084.50   1
   7  -1  -9 4842.26 693.915   1
   7  -1  -8 4179.84 404.054   3
   7  -1  -8 3678.72 583.017   1
   7  -1  -7 567.869 165.623   3
   7  -1  -7 198.747 269.840   1
   7  -1  -6 1113.16 322.781   3
   7  -1  -6 872.842 269.985   1
   7  -1  -5 4183.47 501.792   5
   7  -1  -5 3833.35 576.825   3
   7  -1  -5 3661.44 614.614   1
   7  -1  -4 51574.9 1859.36   4
   7  -1  -4 51024.4 2192.80   1
   7  -1  -4 46786.5 2094.68   3
   7  -1  -3 10852.1 719.297   4
   7  -1  -3 9791.01 993.320   3
   7  -1  -2 48493.7 1672.06   2
  -7  -1   2 50359.7 2174.53   2
   7  -1  -2 45767.3 2299.08   3
   7  -1  -1 19527.6 982.559   2
  -7  -1   1 18179.9 1290.17   2
   7  -1  -1 17993.6 1491.76   3
  -7  -1   0 13675.3 541.090   5
  -7  -1   0 15516.9 1182.54   2
   7  -1   0 16163.0 1466.85   3
   7  -1   1 6401.69 988.309   3
  -7  -1  -1 7169.59 808.482   2
  -7  -1  -2 21490.4 1460.39   2
   7  -1   2 21200.2 1798.64   3
  -7  -1  -3 46869.3 2251.68   2
   7  -1   3 50277.9 2848.67   3
   7  -1   4 9659.08 1277.05   3
  -7  -1  -4 10281.1 1086.92   2
   7  -1   5 6382.53 1127.62   3
  -7  -1  -5 3367.99 687.161   2
   7  -1   6 5042.32 939.515   3
  -7  -1  -6 5900.19 935.872   2
   7  -1   7-606.761 592.332   3
   7  -1   8 16582.1 1905.00   3
   7  -1   9 1875.27 742.040   3
   7  -1  10 1282.96 845.564   3
   7  -1  11 2330.16 941.286   3
   7  -1  12 1048.28 780.316   3
  -7   0  16 2985.81 1057.23   4
  -7   0  15 3327.42 1217.51   4
  -7   0  14 3704.61 1094.04   4
  -7   0  13 2815.74 1022.93   4
  -7   0  12 8288.06 1452.41   4
  -7   0  11 620.497 501.298   4
  -7   0  10 1270.71 717.439   4
  -7   0   9 20417.2 1827.80   4
   7   0  -9 19825.9 1464.59   1
   7   0  -8 4355.70 682.127   1
  -7   0   8 3593.91 726.308   4
  -7   0   7 19814.3 1549.31   4
   7   0  -7 17959.5 1358.32   1
  -7   0   6 16074.0 1248.77   4
   7   0  -6 17776.4 1328.31   1
   7   0  -5 8480.63 515.798   5
   7   0  -5 11027.0 1040.32   1
   7   0  -4 4394.55 672.621   1
   7   0  -4 4155.69 591.869   4
   7   0  -3 1416.28 329.428   4
   7   0  -3 1545.57 465.766   1
   7   0  -2 78055.1 2868.49   1
   7   0  -2 78090.0 2028.20   4
  -7   0   1 693.521 112.239   5
  -7   0   1 936.984 289.141   2
   7   0  -1 1140.44 169.007   4
  -7   0   0 69723.0 2285.57   2
   7   0   0 70603.2 2983.34   3
  -7   0  -1 33506.4 1547.39   2
   7   0   1 34798.9 2097.66   3
  -7   0  -2 78.3931 240.879   2
   7   0   2-191.087 275.562   3
  -7   0  -3 235.389 252.975   2
   7   0   3 594.346 530.421   3
   7   0   3 411.204 110.799   4
   7   0   4 3257.08 375.007   4
  -7   0  -4 3969.86 618.247   2
   7   0   5 12659.5 1474.30   3
   7   0   5 12029.6 858.058   4
  -7   0  -5 13003.3 1129.80   2
   7   0   6 34400.6 1649.78   4
  -7   0  -6 36904.0 1994.25   2
   7   0   6 39277.7 2733.14   3
   7   0   7 1717.10 664.512   3
   7   0   8 2873.14 858.680   3
   7   0   9 3218.07 898.581   3
   7   0  10 4768.59 1088.70   3
   7   0  11 1562.11 736.811   3
   7   0  12-277.742 527.788   3
   7   0  13 3899.93 1099.89   3
  -7   1  16 1837.14 1022.46   4
  -7   1  15-177.234 707.901   4
  -7   1  14 3086.07 875.091   4
  -7   1  13 505.171 552.296   4
  -7   1  12 9218.64 1561.30   4
  -7   1  11 1319.99 622.288   4
  -7   1  10 10317.2 1455.89   4
  -7   1   9 7957.92 1216.37   4
  -7   1   8 3966.59 869.431   4
  -7   1   7 355.163 393.559   4
   7   1  -6 814.082 325.552   1
  -7   1   6 598.246 346.371   4
   7   1  -5 3830.25 675.753   1
  -7   1   5 3688.14 606.475   4
  -7   1   4 51589.1 2051.66   4
   7   1  -4 56538.4 2473.57   1
  -7   1   3 11055.6 786.689   4
   7   1  -3 11139.1 971.887   4
   7   1  -3 10478.0 1039.59   1
  -7   1   2 57028.0 1494.79   4
   7   1  -2 59592.0 2088.80   4
   7   1  -2 54707.0 2411.26   1
  -7   1   1 15444.9 899.069   5
   7   1  -1 16161.7 1302.41   1
   7   1   0 16705.9 1356.86   1
   7   1   1 10770.6 1096.13   1
  -7   1  -1 10753.7 697.534   2
   7   1   2 14469.6 869.295   4
  -7   1  -2 16156.5 892.209   2
   7   1   3 49499.7 1841.80   4
  -7   1  -3 50339.3 1700.68   2
   7   1   4 9697.76 876.475   4
  -7   1  -4 8200.39 699.572   2
   7   1   5 4390.68 974.739   3
   7   1   5 5353.40 730.670   4
  -7   1  -5 4953.95 609.081   2
   7   1   6 7483.04 1169.80   3
   7   1   6 7128.62 913.956   4
  -7   1  -6 6082.57 719.638   2
   7   1   7 568.689 439.423   3
   7   1   7 95.0990 314.594   4
   7   1   8 17244.5 1875.39   3
   7   1   9 43.1288 614.798   3
   7   1  10 2200.39 855.493   3
   7   1  11 2487.42 863.684   3
   7   1  12 610.009 677.351   3
  -7   2  15 1922.72 1078.23   4
  -7   2  14 3277.37 1177.99   4
  -7   2  13 5737.94 1358.83   4
  -7   2  12-650.778 540.299   4
  -7   2  11 11830.4 1693.00   4
  -7   2  10 109.253 513.421   4
  -7   2   9 1349.81 500.250   4
  -7   2   8 10926.5 1401.97   4
  -7   2   7 19589.1 1747.81   4
  -7   2   6 14858.9 1437.56   4
   7   2  -5 16189.7 841.020   5
  -7   2   5 17261.4 1398.36   4
   7   2  -4 3803.86 359.903   5
   7   2  -4 4474.87 778.189   1
  -7   2   4 3319.58 581.147   4
  -7   2   3 7251.50 786.547   4
   7   2  -3 7392.37 957.180   1
  -7   2   2 7974.10 818.672   5
  -7   2   2 6554.48 659.378   4
   7   2  -2 7552.55 971.191   1
  -7   2   1 35738.0 1778.50   5
  -7   2   1 31679.8 1300.42   4
   7   2  -1 32980.7 1910.86   1
  -7   2   0 8559.83 884.917   5
  -7   2   0 9371.87 592.270   4
   7   2   0 9779.95 1075.83   1
   7   2   1 20387.2 1562.90   1
  -7   2  -1 19002.3 757.717   4
  -7   2  -1 20074.1 762.180   4
  -7   2  -2 4806.50 355.323   4
   7   2   2 5991.97 875.664   1
   7   2   3 1684.90 448.403   4
   7   2   4 11816.2 1096.29   4
   7   2   5 23633.4 1659.11   4
   7   2   6 8373.29 1090.51   4
   7   2   7 6248.38 1011.60   4
   7   2   8 6300.04 1143.01   3
   7   2   9 1851.20 736.590   3
   7   2  10-1066.30 773.918   3
   7   2  11 1904.63 788.547   3
   7   2  12-354.070 672.589   3
  -7   3  14 344.394 889.129   4
  -7   3  13 1196.89 891.685   4
  -7   3  12 2572.67 866.783   4
  -7   3  11 2321.09 827.016   4
  -7   3  10 7659.27 1357.99   4
  -7   3   9 7601.28 1351.72   4
  -7   3   8 3833.53 901.074   4
  -7   3   7 1338.02 672.897   4
   7   3  -6 716.801 283.103   5
  -7   3   6 221.163 331.856   4
   7   3  -5 13698.9 1004.38   5
  -7   3   5 13987.6 1352.64   4
   7   3  -4 14251.4 979.357   5
  -7   3   4 15924.8 1379.66   4
   7   3  -4 13926.5 1369.84   1
  -7   3   3 18239.8 1394.20   4
   7   3  -3 14733.4 1436.86   1
  -7   3   2 5341.10 819.666   5
  -7   3   2 7889.95 852.234   4
   7   3  -2 7514.81 1050.00   1
  -7   3   1 5076.37 837.505   5
  -7   3   1 4613.56 637.177   4
   7   3  -1 4770.39 850.346   1
  -7   3   0 1139.16 418.586   5
   7   3   0 1083.80 435.446   1
  -7   3   0 1775.19 403.539   4
  -7   3  -1 9400.94 1122.13   5
   7   3   1 8051.31 1005.57   1
   7   3   2 8905.80 1106.83   1
   7   3   3 14435.7 1416.72   4
   7   3   3 16157.4 1463.92   1
   7   3   4 13386.3 1344.78   4
   7   3   5 6644.85 1045.93   4
   7   3   6 3473.74 861.624   4
   7   3   7 2532.40 735.130   4
   7   3   8 1446.79 604.792   4
   7   3   9 4433.39 1097.52   3
   7   3  10 4260.77 1120.43   3
   7   3  11 1985.23 904.257   3
  -7   4  13 2518.91 1047.59   4
  -7   4  12 598.877 589.386   4
  -7   4  11 72.3246 801.422   4
  -7   4  10 1666.60 827.990   4
  -7   4   9 2606.42 890.999   4
  -7   4   8 3616.01 914.010   4
   7   4  -7 10850.0 1147.77   5
  -7   4   7 9421.25 1384.66   4
   7   4  -6 4563.03 746.616   5
  -7   4   6 6386.94 1105.93   4
   7   4  -5 3023.73 612.177   5
  -7   4   5 4508.20 901.658   4
  -7   4   4 3187.77 773.586   4
   7   4  -3 344.637 466.713   1
  -7   4   3 582.038 405.371   4
  -7   4   2 2485.33 704.917   5
  -7   4   2 2453.74 615.345   4
   7   4  -2 3013.92 738.560   1
  -7   4   1 22131.3 1880.16   5
  -7   4   1 22316.6 1591.78   4
   7   4  -1 20322.6 1774.92   1
  -7   4   0 8478.82 1215.02   5
  -7   4   0 7061.22 886.400   4
   7   4   0 9382.61 1183.72   1
  -7   4  -1 11527.5 1427.92   5
   7   4   1 10671.2 1254.86   1
  -7   4  -2 3246.61 852.845   5
   7   4   2 1362.50 553.602   1
   7   4   3 6788.88 1135.16   4
   7   4   3 5280.33 948.312   1
   7   4   4 288.276 476.784   4
   7   4   4 750.842 480.794   1
   7   4   5 2444.02 859.959   4
   7   4   6 3779.66 876.724   4
   7   4   7 2637.48 892.381   4
   7   4   8 3693.68 1094.17   4
  -7   5  11 2420.42 1184.26   4
  -7   5  10 452.544 696.089   4
  -7   5   9 1274.83 608.888   4
  -7   5   8 1239.55 823.898   4
  -7   5   7 1069.10 708.679   4
  -7   5   6 279.502 504.419   4
  -7   5   5 1304.71 677.837   4
  -7   5   4 7349.49 1186.54   4
   7   5  -3-61.6372 503.664   1
  -7   5   3 1633.82 649.285   4
  -7   5   2 1739.56 632.264   4
   7   5  -2 2280.23 704.586   1
  -7   5   1 1937.56 738.634   5
  -7   5   1 1563.66 603.868   4
   7   5  -1 804.398 582.098   1
  -7   5   0 995.076 581.194   5
   7   5   0 1598.11 734.892   1
  -7   5  -1 2095.50 869.450   5
   7   5   1 2217.93 685.826   1
  -7   5  -2 4953.87 1140.04   5
   7   5   2 5504.76 937.246   1
  -7   5  -3 4818.73 1174.33   5
   7   5   3 3420.95 966.615   4
  -7   5  -4 3698.11 1103.56   5
   7   5   4 4610.27 1167.56   4
  -7   5  -5 941.629 649.471   5
   7   5   5-704.781 626.232   4
   7   5   6 5626.06 1179.22   4
   7   5   7-195.648 663.372   4
  -7   6   7 690.029 878.283   4
  -7   6   6 2651.88 1000.26   4
  -7   6   5 1182.35 730.352   4
  -7   6   4 225.522 655.968   4
   7   6  -4-235.056 569.518   1
   7   6  -3 127.696 621.878   1
   7   6  -2 3172.38 953.478   1
  -7   6   0 1352.08 847.505   5
  -8  -5   4 3107.13 913.247   2
  -8  -5   3 9026.15 1373.80   2
  -8  -5   2 2387.58 807.831   2
  -8  -5   1 1167.51 623.229   2
  -8  -5   0 1722.64 757.732   2
  -8  -5  -1 2674.82 863.321   2
  -8  -5  -2 2734.11 829.164   2
  -8  -5  -3 1867.84 989.961   2
  -8  -4   4 3143.86 858.542   2
  -8  -4   3 1197.90 746.399   2
  -8  -4   2 1220.13 714.769   2
  -8  -4   1 19986.9 1890.22   2
  -8  -4   0 11964.9 1499.31   2
  -8  -4  -1 8710.56 1313.94   2
  -8  -4  -2 1290.52 645.714   2
  -8  -4  -3 1152.99 646.496   2
  -8  -4  -4 1252.48 669.111   2
  -8  -4  -5 4183.06 1037.78   2
  -8  -4  -6 1830.70 875.962   2
  -8  -3   4 27296.9 2042.20   2
  -8  -3   3 1801.66 657.502   2
  -8  -3   2 21122.7 1795.09   2
  -8  -3   1 3307.67 717.862   2
  -8  -3   0 4516.15 884.998   2
  -8  -3  -1 768.814 555.116   2
   8  -3   1 373.623 467.237   3
   8  -3   2 18452.5 1939.76   3
  -8  -3  -2 23081.5 1942.69   2
  -8  -3  -3 3501.29 892.833   2
   8  -3   3 5107.48 1160.92   3
   8  -3   4 22818.9 2228.14   3
  -8  -3  -4 21360.3 1944.88   2
  -8  -3  -5 5906.59 1121.75   2
  -8  -3  -6 873.613 651.566   2
  -8  -3  -7 3214.47 936.806   2
  -8  -3  -8 2471.57 949.173   2
  -8  -3  -9 2803.59 1054.65   2
   8  -2  -9 151.427 369.600   1
   8  -2  -6 15808.1 1157.67   3
   8  -2  -5 5204.15 731.570   3
   8  -2  -4 3472.05 629.425   3
   8  -2  -3 5544.46 546.318   2
   8  -2  -3 6079.57 930.960   3
  -8  -2   3 5876.16 898.396   2
   8  -2  -2 1740.02 527.742   3
  -8  -2   2 1671.78 503.442   2
   8  -2  -1 16033.4 1565.36   3
  -8  -2   1 14820.7 1371.36   2
  -8  -2   0 11653.4 1265.75   2
   8  -2   0 10645.4 1352.00   3
   8  -2   1 35586.9 2455.08   3
  -8  -2  -1 32468.3 2066.49   2
   8  -2   2 28898.7 2271.11   3
  -8  -2  -2 29526.8 2023.47   2
  -8  -2  -3-215.877 478.525   2
   8  -2   3 196.359 627.876   3
   8  -2   4 2438.33 856.855   3
  -8  -2  -4 2870.95 740.325   2
   8  -2   5 4458.54 1014.08   3
  -8  -2  -5 4867.68 962.498   2
   8  -2   6 5273.50 1194.20   3
  -8  -2  -6 4204.36 893.229   2
   8  -2   7 6074.79 1333.43   3
  -8  -2  -7 4894.62 1026.83   2
   8  -2   8 9823.08 1567.99   3
  -8  -2  -8 5692.32 1159.98   2
   8  -2   9 1179.90 772.464   3
  -8  -2  -9 2477.70 873.175   2
   8  -2  10 5382.96 1319.21   3
  -8  -2 -10 2594.74 782.517   2
   8  -1 -12 3040.31 721.026   1
   8  -1 -11 1190.49 331.780   1
   8  -1 -10 10576.7 1083.04   1
   8  -1  -9 18284.9 1389.31   1
   8  -1  -8 3066.49 441.782   3
   8  -1  -8 2238.25 528.529   1
   8  -1  -7 8388.65 951.094   1
   8  -1  -7 8890.15 813.531   3
   8  -1  -6 8896.09 975.133   1
   8  -1  -6 9422.41 913.864   3
   8  -1  -5 10478.5 1067.66   1
   8  -1  -5 10287.0 1032.23   3
   8  -1  -4 9035.78 976.784   1
   8  -1  -4 9697.09 767.706   4
   8  -1  -4 10310.2 1118.40   3
   8  -1  -3 21034.3 1616.36   3
   8  -1  -2 6035.83 929.735   3
  -8  -1   2 5149.61 712.346   2
   8  -1  -1 59538.2 1960.87   2
  -8  -1   1 61672.9 2540.88   2
   8  -1  -1 62218.7 3023.63   3
  -8  -1   0 135.437 58.0629   5
   8  -1   0 380.673 419.895   3
  -8  -1   0 169.033 362.950   2
  -8  -1  -1 17846.0 1400.35   2
   8  -1   1 16485.6 1668.89   3
  -8  -1  -2 2634.00 589.098   2
   8  -1   2 3705.13 902.181   3
  -8  -1  -3 15912.9 1343.43   2
   8  -1   3 17890.0 1803.23   3
  -8  -1  -4 17506.4 1507.79   2
   8  -1   4 19579.3 1978.76   3
   8  -1   5 10082.6 1455.66   3
  -8  -1  -5 8619.53 1057.31   2
   8  -1   6 4273.23 1135.49   3
  -8  -1  -6 2954.63 718.589   2
   8  -1   7 3456.81 980.281   3
  -8  -1  -7 3398.19 808.968   2
   8  -1   8-357.315 661.275   3
  -8  -1  -8 404.818 576.391   2
   8  -1   9 7472.59 1502.85   3
  -8  -1  -9 4162.51 894.806   2
   8  -1  10 6751.60 1345.67   3
  -8  -1 -10 4330.69 1005.34   2
   8  -1  11-80.2341 583.647   3
  -8   0  16 1951.76 1029.24   4
  -8   0  15 1720.05 945.225   4
  -8   0  14 2447.40 1030.51   4
  -8   0  13 3499.51 1018.06   4
   8   0 -12 5588.55 914.644   1
  -8   0  12 8635.75 1460.78   4
   8   0 -11 4480.29 782.355   1
  -8   0  11 3876.36 870.722   4
   8   0 -10 77.1042 314.366   1
  -8   0  10 26.8291 382.781   4
   8   0  -9 322.707 396.986   1
  -8   0   9-36.0291 401.564   4
   8   0  -8 4765.24 773.471   1
  -8   0   8 4485.80 826.394   4
  -8   0   7 25382.4 1765.39   4
   8   0  -7 26990.3 1776.66   1
   8   0  -6 3106.70 652.593   1
   8   0  -6 4138.06 386.752   5
   8   0  -5 6618.75 883.918   1
   8   0  -4 45510.2 2005.72   4
   8   0  -4 47687.7 2314.89   1
   8   0  -3 3209.44 703.962   1
   8   0  -3 2416.37 419.411   4
   8   0  -2 7181.94 544.929   4
   8   0  -2 7948.95 988.215   1
   8   0  -1 26578.5 1780.12   1
  -8   0   1 29584.6 1544.21   2
   8   0  -1 25991.3 1900.35   3
   8   0   0 3945.27 807.153   3
  -8   0   0 4610.88 637.065   2
  -8   0  -1 14826.9 1093.89   2
   8   0   1 13934.9 1504.96   3
  -8   0  -2 24525.8 1451.29   2
   8   0   2 26896.4 2085.07   3
  -8   0  -3 1493.00 393.471   2
   8   0   3 2189.36 721.172   3
   8   0   4 13957.7 1602.23   3
  -8   0  -4 16270.2 1240.62   2
   8   0   5 5930.22 1182.30   3
  -8   0  -5 6349.53 859.300   2
   8   0   6 1555.21 658.604   3
  -8   0  -6 1364.72 487.318   2
   8   0   7 17014.0 1968.37   3
  -8   0  -7 16050.1 1424.65   2
   8   0   8 5416.25 1274.43   3
  -8   0  -8 3191.30 701.062   2
   8   0   9 4782.37 1098.95   3
   8   0  10 1959.18 887.072   3
   8   0  11-1195.41 836.958   3
  -8   1  16 2922.43 1079.63   4
  -8   1  15 3079.29 1113.99   4
  -8   1  14 3456.16 1123.94   4
  -8   1  13 741.077 785.691   4
  -8   1  12 3499.44 1064.87   4
  -8   1  11 2342.99 819.088   4
  -8   1  10 11006.0 1505.52   4
  -8   1   9 18182.5 1769.04   4
   8   1  -8 3214.07 674.766   1
  -8   1   8 3142.70 753.494   4
   8   1  -7 5873.00 859.216   1
  -8   1   7 6406.48 907.108   4
   8   1  -6 8237.17 1045.80   1
  -8   1   6 10071.0 1046.97   4
  -8   1   5 11204.1 1039.30   4
   8   1  -5 9320.67 1088.10   1
  -8   1   4 11246.9 897.401   4
   8   1  -4 12282.9 1214.82   1
  -8   1   3 16622.1 897.801   4
   8   1  -3 15509.4 1341.67   1
   8   1  -2 6600.25 909.563   1
   8   1  -2 6202.05 687.744   4
  -8   1   1 58117.8 1832.91   5
   8   1  -1 60063.9 2733.96   1
   8   1   0-264.926 380.553   1
   8   1   1 16182.3 867.029   4
  -8   1  -2 3305.88 470.448   2
   8   1   2 3967.78 473.722   4
   8   1   3 14602.1 960.826   4
  -8   1  -3 13658.0 926.638   2
   8   1   4 23335.1 1333.37   4
  -8   1  -4 22886.3 1243.77   2
   8   1   4 21358.2 1946.73   3
   8   1   5 8715.07 1390.81   3
   8   1   6 2599.22 811.983   3
   8   1   7 3504.34 1025.42   3
   8   1   8 1879.66 954.057   3
   8   1   9 6724.73 1410.00   3
   8   1  10 7583.24 1437.55   3
   8   1  11 970.735 570.874   3
  -8   2  15-436.980 777.906   4
  -8   2  14 1679.78 1001.38   4
  -8   2  13 7009.91 1474.19   4
  -8   2  12 2713.20 1006.74   4
  -8   2  11 2349.12 889.362   4
  -8   2  10-334.736 437.969   4
  -8   2   9 835.515 595.464   4
  -8   2   8 5276.47 1014.99   4
  -8   2   7 17925.7 1649.53   4
  -8   2   6 16306.5 1490.63   4
   8   2  -6 15622.4 1502.00   1
   8   2  -5 2754.18 291.872   5
   8   2  -5 3168.29 724.067   1
  -8   2   5 2530.14 550.274   4
   8   2  -4 2203.66 556.574   1
  -8   2   4 2458.34 551.944   4
  -8   2   3 6901.43 736.660   4
   8   2  -3 6092.34 915.901   1
   8   2  -2 1661.44 585.131   1
  -8   2   2 1350.11 346.643   5
  -8   2   2 1564.41 320.327   4
  -8   2   1 12891.5 1067.11   5
  -8   2   1 11049.9 655.925   4
   8   2  -1 13634.0 1343.46   1
  -8   2   0 10624.1 1024.63   5
   8   2   0 9708.49 1152.92   1
   8   2   1 36766.8 2256.81   1
   8   2   2 32053.6 1716.05   4
   8   2   2 31037.9 2040.72   1
   8   2   3 621.533 368.803   4
   8   2   4 3073.66 588.458   4
   8   2   5 4343.49 725.088   4
   8   2   7 5004.25 1065.63   3
   8   2   8 4872.48 1126.63   3
   8   2   9 1656.63 760.560   3
   8   2  10 1733.71 1004.30   3
   8   2  11 3113.36 1047.02   3
  -8   3  14-734.953 916.315   4
  -8   3  13 252.480 729.374   4
  -8   3  12-1351.86 795.889   4
  -8   3  11 6102.76 1325.32   4
  -8   3  10 7113.35 1364.93   4
  -8   3   9 3439.16 864.609   4
  -8   3   8 6123.52 1139.74   4
  -8   3   7 392.753 400.897   4
  -8   3   6 3352.15 838.336   4
   8   3  -5 567.454 487.329   1
  -8   3   5 611.224 401.124   4
  -8   3   4 27696.8 1823.03   4
   8   3  -4 22664.7 1841.50   1
  -8   3   3 1461.85 452.759   4
   8   3  -3 1281.13 607.433   1
  -8   3   2 18963.0 1490.00   5
  -8   3   2 20243.1 1352.24   4
   8   3  -2 15910.6 1537.95   1
   8   3  -1 2564.01 726.057   1
  -8   3   1 3221.94 685.777   5
  -8   3   1 2201.48 428.682   4
  -8   3   0 3397.21 741.307   5
   8   3   0 3548.54 770.616   1
  -8   3  -1 833.765 554.621   5
   8   3   1 670.474 374.481   1
   8   3   2 19896.2 1721.28   1
   8   3   3 5541.10 902.659   4
   8   3   3 4831.77 891.469   1
   8   3   4 25227.3 1894.52   4
   8   3   5 6319.57 1068.76   4
   8   3   9 79.4516 589.131   3
   8   3  10 3090.05 1024.48   3
  -8   4  13 1051.80 674.062   4
  -8   4  12 1275.64 877.668   4
  -8   4  11-3.21901 703.438   4
  -8   4  10 1868.63 912.945   4
  -8   4   9-166.272 478.242   4
  -8   4   8 2251.22 859.318   4
  -8   4   7 2683.48 784.361   4
  -8   4   6 7864.98 1205.68   4
  -8   4   5 2399.49 673.663   4
   8   4  -5 3884.19 867.106   1
   8   4  -4 1903.62 654.750   1
  -8   4   4 1761.91 512.456   4
  -8   4   3 1949.14 622.645   4
   8   4  -3 1151.64 550.511   1
  -8   4   2 1371.04 601.940   5
   8   4  -2 741.301 536.684   1
  -8   4   1 22987.1 1962.20   5
   8   4  -1 23392.9 1923.91   1
  -8   4   0 7202.76 1139.58   5
   8   4   0 7228.64 1107.07   1
  -8   4  -1 7548.62 1194.35   5
   8   4   1 8440.21 1196.70   1
  -8   4  -2 679.766 423.893   5
   8   4   2 186.942 402.869   1
  -8   4  -3 1514.23 709.210   5
   8   4   3 2376.70 823.648   4
   8   4   3 1022.83 600.690   1
   8   4   4 182.890 442.098   4
   8   4   5 6495.99 1138.96   4
  -8   5  11 2356.43 993.579   4
  -8   5  10 3591.02 1206.92   4
  -8   5   9 470.036 596.963   4
  -8   5   8 1661.85 837.969   4
  -8   5   7 1277.38 731.098   4
  -8   5   6 173.852 456.080   4
  -8   5   5 546.806 532.334   4
   8   5  -5 55.2389 455.263   1
   8   5  -4 4224.13 939.067   1
   8   5  -3 10168.8 1412.08   1
   8   5  -2 3328.88 910.227   1
  -8   5   1 863.397 480.300   5
   8   5  -1 1038.52 585.229   1
  -8   5   0 1945.17 887.249   5
   8   5   0 511.571 499.848   1
  -8   5  -1 2943.39 893.964   5
   8   5   1 3394.34 860.230   1
  -8   5  -2 2404.38 784.039   5
  -8   5  -3 1125.42 810.273   5
   8   5   3 2351.58 797.179   4
  -8   5  -4 2129.12 844.540   5
   8   5   4 3720.35 977.853   4
  -8   5  -5 2780.88 1069.37   5
   8   5   5 2545.20 979.667   4
   8   6  -4 40.9795 607.041   1
   8   6  -3 147.277 608.547   1
   8   6  -2 1290.75 692.805   1
  -9  -5   4 3461.61 1067.35   2
  -9  -5   3 2139.22 879.483   2
  -9  -5   2 783.450 780.245   2
  -9  -5   1 639.503 634.122   2
  -9  -5   0 267.195 639.322   2
  -9  -4   4 74.2228 540.756   2
  -9  -4   3 856.264 619.176   2
  -9  -4   2 583.488 541.043   2
  -9  -4   1 12698.8 1548.56   2
  -9  -4   0-490.490 582.643   2
  -9  -4  -1 4235.29 1021.20   2
  -9  -4  -2 3240.94 838.818   2
  -9  -4  -3 1080.19 666.859   2
  -9  -4  -4 599.904 570.385   2
  -9  -4  -5 2919.81 921.049   2
  -9  -3   4 935.465 532.860   2
  -9  -3   3 10605.9 1355.27   2
  -9  -3   2 8796.06 1240.85   2
  -9  -3   1 3444.51 867.738   2
   9  -3  -1 2229.05 726.639   3
  -9  -3   0 1992.67 741.712   2
   9  -3   0 1847.51 689.909   3
  -9  -3  -1 322.490 449.115   2
   9  -3   1 1435.83 749.972   3
  -9  -3  -2 3064.30 885.129   2
   9  -3   2 1293.70 589.956   3
  -9  -3  -3 3895.38 913.878   2
   9  -3   3 5579.81 1184.66   3
  -9  -3  -4 7058.41 1197.39   2
   9  -3   4 5475.24 1285.73   3
  -9  -3  -5 7950.58 1316.73   2
   9  -3   5 6022.89 1315.74   3
  -9  -3  -6 1201.55 800.582   2
   9  -3   6 1576.47 803.395   3
  -9  -3  -7 1693.99 727.295   2
   9  -2  -7 6006.26 715.399   3
   9  -2  -6 4331.32 740.137   3
   9  -2  -5 15585.6 1356.96   3
   9  -2  -4 6468.16 940.820   3
   9  -2  -3-81.1384 350.411   3
  -9  -2   3-28.4559 488.302   2
   9  -2  -2 1441.90 561.973   3
  -9  -2   2 2657.61 701.534   2
   9  -2  -1 6966.43 1094.00   3
  -9  -2   1 8198.45 1104.01   2
  -9  -2   0 3609.06 736.071   2
   9  -2   0 4333.89 962.903   3
   9  -2   1 19635.6 1945.14   3
  -9  -2  -1 21929.5 1805.46   2
  -9  -2  -2 13072.1 1409.47   2
   9  -2   2 12659.9 1621.92   3
  -9  -2  -3 737.030 361.031   2
   9  -2   3 1276.01 625.270   3
  -9  -2  -4 1489.04 661.304   2
   9  -2   4 3282.28 915.600   3
  -9  -2  -5-719.877 523.862   2
   9  -2   5-1.32648 549.068   3
   9  -2   6 2673.28 1040.08   3
  -9  -2  -6 1728.26 657.185   2
   9  -2   7 5786.48 1371.32   3
  -9  -2  -7 5772.86 1106.13   2
   9  -2   8 41.4276 732.533   3
  -9  -2  -8 479.183 547.181   2
  -9  -2  -9 255.557 655.849   2
   9  -1 -12-21.6485 433.323   1
   9  -1 -11 1777.66 539.754   1
   9  -1 -10 7601.10 1007.28   1
   9  -1  -9 215.893 332.717   1
   9  -1  -8 4938.17 616.826   3
   9  -1  -8 5100.05 844.158   1
   9  -1  -7 23787.2 1696.72   1
   9  -1  -7 26013.3 1581.51   3
   9  -1  -6 5135.11 769.934   3
   9  -1  -6 5198.74 849.590   1
   9  -1  -5 9360.96 1076.02   1
   9  -1  -5 8571.93 1030.40   3
   9  -1  -4 9726.77 1149.13   3
   9  -1  -3 14000.9 1447.83   3
  -9  -1   2 16404.2 1389.01   2
   9  -1  -2 14106.4 1491.18   3
   9  -1  -1 7633.67 1159.06   3
  -9  -1   1 8116.39 993.399   2
   9  -1   0 9196.79 1308.17   3
  -9  -1   0 9761.57 1069.62   2
   9  -1   1 7140.40 1254.62   3
  -9  -1  -1 7711.97 1009.85   2
  -9  -1  -2 8657.78 1066.60   2
   9  -1   2 8926.18 1331.78   3
  -9  -1  -3 1527.18 508.733   2
   9  -1   3 1097.82 696.917   3
  -9  -1  -4 11118.5 1247.45   2
   9  -1   4 12265.6 1694.19   3
  -9  -1  -5 5354.18 913.991   2
   9  -1   5 6716.17 1299.38   3
   9  -1   6 1885.07 824.454   3
  -9  -1  -6 3257.31 752.005   2
   9  -1   7 1935.01 876.502   3
  -9  -1  -7 2927.38 773.326   2
   9  -1   8 332.490 668.476   3
  -9  -1  -8-100.425 430.179   2
   9  -1   9-679.722 788.015   3
  -9  -1  -9 1336.41 659.711   2
  -9   0  15-417.116 808.693   4
   9   0 -14 806.662 511.325   1
  -9   0  14 709.661 770.118   4
   9   0 -13 4678.05 892.887   1
  -9   0  13 5656.22 1242.87   4
   9   0 -12 4492.00 872.552   1
  -9   0  12 5231.09 1141.97   4
   9   0 -11 167.174 317.242   1
  -9   0  11 507.532 596.373   4
   9   0 -10 2211.06 630.589   1
  -9   0  10 5133.11 1040.07   4
   9   0  -9 1110.38 552.186   1
   9   0  -8 5498.30 894.907   1
   9   0  -7 517.501 393.782   1
   9   0  -6 11086.1 1202.10   1
   9   0  -5 7546.89 990.150   1
   9   0  -4 64928.8 2905.88   1
   9   0  -4 57121.0 2234.51   4
   9   0  -3 34252.8 2139.35   1
   9   0  -3 34290.1 1414.27   4
   9   0  -3 31774.2 2130.44   3
   9   0  -2 4106.81 815.646   3
   9   0  -2 2688.45 293.076   4
   9   0  -2 3581.62 752.557   1
   9   0  -1 977.970 574.575   3
  -9   0   0 12182.9 621.285   5
   9   0   0 11660.3 1417.69   3
  -9   0   0 13866.4 1115.80   2
   9   0   1 827.352 646.695   3
  -9   0  -1 448.252 346.062   2
  -9   0  -2 21414.7 1438.92   2
   9   0   2 20369.1 1979.38   3
   9   0   3 3953.91 947.174   3
  -9   0  -3 5058.05 724.444   2
  -9   0  -4 3530.27 643.872   2
   9   0   4 3176.41 991.982   3
  -9   0  -5 5290.23 812.723   2
   9   0   5 3637.27 909.346   3
  -9   0  -6 4889.27 819.428   2
   9   0   6 5646.94 1207.19   3
   9   0   7 6878.70 1407.09   3
   9   0   8 283.642 667.339   3
   9   0   9 5662.39 1390.03   3
  -9   1  15 2866.77 1218.82   4
  -9   1  14 536.129 747.810   4
  -9   1  13 402.233 660.115   4
  -9   1  12-98.8192 656.827   4
   9   1 -11 1111.06 537.796   1
  -9   1  11 1496.45 733.792   4
   9   1 -10 7447.01 1111.31   1
  -9   1  10 6011.64 1156.35   4
   9   1  -9-301.124 444.184   1
  -9   1   9-727.554 540.698   4
   9   1  -8 3278.23 759.102   1
  -9   1   8 3625.44 756.345   4
  -9   1   7 25014.9 1820.53   4
   9   1  -7 23867.7 1866.15   1
  -9   1   6 5689.97 762.418   4
   9   1  -6 5763.29 898.108   1
   9   1  -5 8412.08 1096.08   1
  -9   1   5 10286.6 939.188   4
   9   1  -4 5799.48 907.703   1
   9   1  -3 17693.2 1549.20   1
   9   1  -2 19649.0 1664.55   1
   9   1  -1 8707.75 1101.23   1
  -9   1   1 8784.94 699.104   5
  -9   1   0 7226.29 679.687   5
   9   1   0 9298.25 1204.81   1
  -9   1  -2 9611.22 817.085   2
   9   1   3 2293.24 837.974   3
   9   1   4 10716.9 1477.35   3
   9   1   5 3057.71 939.647   3
   9   1   6 1865.57 790.343   3
   9   1   7 1189.78 757.005   3
   9   1   8 2111.79 938.060   3
   9   1   9-44.8491 742.718   3
  -9   2  15-1205.24 1036.98   4
  -9   2  14 1845.44 843.522   4
  -9   2  13 2397.10 1068.75   4
  -9   2  12 4174.87 1188.58   4
  -9   2  11 1331.07 686.763   4
  -9   2  10 5115.98 1141.26   4
  -9   2   9 9562.66 1392.87   4
   9   2  -8 5266.13 962.261   1
  -9   2   8 6909.53 1128.06   4
   9   2  -7 6909.79 1103.41   1
  -9   2   7 6586.85 1050.41   4
   9   2  -6 1648.92 469.390   1
  -9   2   6 2568.23 593.992   4
  -9   2   5 20439.6 1511.29   4
   9   2  -5 18059.8 1664.75   1
  -9   2   4 4667.62 664.590   4
   9   2  -4 5408.41 992.656   1
   9   2  -3 1671.93 594.373   1
  -9   2   3 1430.98 325.129   4
  -9   2   2 951.232 308.653   5
   9   2  -2 1844.47 537.258   1
  -9   2   1 7000.13 802.880   5
   9   2  -1 7751.03 1093.04   1
  -9   2   0 5534.06 771.708   5
   9   2   0 4961.31 891.018   1
   9   2   1 27736.0 2067.98   1
   9   2   2 7802.74 857.018   4
   9   2   6 2644.99 860.870   3
   9   2   7 5367.39 1285.85   3
   9   2   8 283.689 591.180   3
   9   2   9-476.037 638.682   3
  -9   3  14 2382.68 1244.90   4
  -9   3  13-620.656 855.845   4
  -9   3  12 978.561 827.766   4
  -9   3  11 297.470 568.855   4
  -9   3  10 6943.18 1235.72   4
  -9   3   9 296.115 498.040   4
  -9   3   8 444.332 445.299   4
   9   3  -7 5895.35 1063.44   1
  -9   3   7 5209.70 1052.74   4
   9   3  -6 45.6469 516.048   1
  -9   3   6-112.260 404.335   4
   9   3  -5 2969.97 825.847   1
  -9   3   5 3285.17 731.608   4
   9   3  -4 1066.04 551.744   1
   9   3  -3 9336.85 1262.00   1
  -9   3   2 11941.2 1240.86   5
   9   3  -2 11910.0 1352.62   1
  -9   3   1 1749.31 546.933   5
   9   3  -1 1409.33 601.571   1
  -9   3   0 2814.93 705.670   5
   9   3   0 4091.49 887.754   1
  -9   3  -1 887.108 486.631   5
   9   3   1 733.527 450.695   1
  -9   3  -2 2734.28 730.485   5
   9   3   2 2307.59 587.450   4
   9   3   2 2062.77 614.012   1
   9   3   8 2888.76 992.948   3
  -9   4  12-1167.65 937.000   4
  -9   4  11-134.777 636.287   4
  -9   4  10 2512.13 982.524   4
  -9   4   9 905.807 708.931   4
  -9   4   8 806.437 628.822   4
  -9   4   7 458.426 564.653   4
   9   4  -7 327.494 496.915   1
   9   4  -6 1260.66 590.561   1
  -9   4   6 1533.81 715.308   4
   9   4  -5 4186.57 970.807   1
   9   4  -4 1487.72 704.996   1
   9   4  -3 1589.08 777.907   1
   9   4  -2 278.578 516.909   1
  -9   4   1 11237.2 1409.91   5
   9   4  -1 10755.8 1405.22   1
  -9   4   0 357.536 571.236   5
   9   4   0 717.565 405.583   1
  -9   4  -1 2357.82 821.132   5
   9   4   1 1980.40 821.313   1
  -9   4  -2 2590.23 805.343   5
   9   4   2 3823.11 931.945   1
  -9   4  -3 2066.13 783.333   5
   9   4   3 260.862 473.039   1
  -9   5  10 437.922 701.439   4
   9   5  -7 1208.78 801.446   1
   9   5  -6 1006.61 630.123   1
   9   5  -5-776.694 683.152   1
   9   5  -4 2763.49 986.382   1
   9   5  -3 1924.05 767.996   1
   9   5  -2 1127.22 566.538   1
  -9   5   1-750.484 650.626   5
   9   5  -1-23.9275 574.735   1
  -9   5   0 2353.12 881.805   5
   9   5   0 3087.75 915.766   1
   9   5   1-212.120 540.118   1
  -9   5  -1 697.928 706.969   5
  -9   5  -2 1948.32 871.942   5
  -9   5  -3-176.680 597.468   5
 -10  -4   4 430.055 663.346   2
 -10  -4   3 5905.98 1112.09   2
 -10  -4   2 2615.94 853.069   2
 -10  -4   1 805.744 723.906   2
 -10  -4   0 1561.05 786.090   2
 -10  -4  -1 1448.31 805.235   2
 -10  -4  -2 2729.03 923.179   2
 -10  -4  -3 743.323 731.256   2
  10  -3  -3 1893.79 764.198   3
 -10  -3   3 1729.59 674.892   2
 -10  -3   2 6997.76 1145.82   2
  10  -3  -2 7713.93 1186.56   3
 -10  -3   1 1653.63 737.341   2
  10  -3  -1 1755.89 679.948   3
 -10  -3   0 177.629 536.331   2
  10  -3   0-605.009 710.331   3
 -10  -3  -1 2957.50 951.855   2
  10  -3   1 1634.10 771.297   3
 -10  -3  -2 4629.76 1038.87   2
  10  -3   2 2380.91 721.407   3
 -10  -3  -3 86.8274 479.549   2
  10  -3   3 1387.83 765.367   3
 -10  -3  -4 5733.14 1131.46   2
  10  -3   4 8211.85 1548.36   3
 -10  -3  -5 320.395 688.330   2
  10  -3   5-161.673 619.462   3
 -10  -3  -6 1396.94 761.925   2
  10  -2  -7 5923.71 814.694   3
  10  -2  -6 3584.16 718.092   3
  10  -2  -5 2775.25 675.986   3
  10  -2  -4 12228.1 1359.21   3
  10  -2  -3 423.088 506.319   3
 -10  -2   3 1489.29 661.403   2
  10  -2  -2 1005.66 548.796   3
 -10  -2   2 988.104 484.021   2
  10  -2  -1 5073.87 1013.13   3
 -10  -2   1 7253.02 1124.49   2
  10  -2   0 1474.33 591.971   3
 -10  -2   0 2827.49 746.614   2
 -10  -2  -1 15579.4 1568.39   2
  10  -2   1 15641.3 1868.22   3
 -10  -2  -2 3461.77 833.129   2
  10  -2   2 2204.55 801.456   3
 -10  -2  -3-85.9243 468.977   2
  10  -2   3-692.587 696.129   3
 -10  -2  -4 4368.83 892.779   2
  10  -2   4 5366.13 1201.22   3
 -10  -2  -5 3520.22 942.239   2
  10  -2   5 2569.97 927.144   3
 -10  -2  -6 461.541 625.450   2
  10  -2   6 1171.83 818.281   3
 -10  -2  -7-198.733 633.003   2
 -10  -2  -8 659.591 635.530   2
  10  -1 -11 3573.35 792.031   1
  10  -1 -10 839.842 522.988   1
  10  -1  -9 6264.39 943.901   1
  10  -1  -8 1706.44 450.613   3
  10  -1  -8 770.943 438.204   1
  10  -1  -7 12308.3 1349.69   1
  10  -1  -7 12428.0 1217.88   3
  10  -1  -6 12732.2 1356.85   1
  10  -1  -6 12253.8 1294.56   3
  10  -1  -5 1964.04 597.673   3
  10  -1  -4 1310.79 464.491   3
  10  -1  -3 12793.5 1481.01   3
  10  -1  -2 3750.91 882.997   3
 -10  -1   2 3416.35 737.298   2
 -10  -1   1 53164.6 2636.24   2
  10  -1  -1 53557.1 3193.63   3
  10  -1   0 1176.10 704.186   3
 -10  -1   0 964.216 484.786   2
  10  -1   1 2231.43 844.324   3
 -10  -1  -1 2402.37 676.047   2
 -10  -1  -2 5458.18 882.775   2
  10  -1   2 5991.70 1171.25   3
 -10  -1  -3 2960.17 672.535   2
  10  -1   3 2336.82 930.505   3
 -10  -1  -4 1670.98 605.581   2
  10  -1   4-297.894 562.210   3
 -10  -1  -5 32.1201 372.890   2
  10  -1   5-451.484 688.795   3
 -10  -1  -6 5045.27 939.411   2
  10  -1   6 3715.13 1111.30   3
 -10  -1  -7 3446.49 862.383   2
  10  -1   7 3189.99 1071.93   3
  10   0 -14 348.103 489.877   1
  10   0 -13-22.8777 529.865   1
  10   0 -12 4401.70 937.973   1
  10   0 -11 3316.36 844.164   1
  10   0 -10 294.829 434.293   1
  10   0  -9-690.326 444.713   1
  10   0  -8-273.619 456.244   1
  10   0  -8 808.061 387.723   3
  10   0  -7 3999.12 813.474   1
  10   0  -7 4246.97 750.636   3
  10   0  -6 10246.2 1261.32   1
  10   0  -6 7090.69 994.751   3
  10   0  -5 3030.56 719.625   1
  10   0  -5 2808.39 638.714   3
  10   0  -4 50832.4 2759.79   1
  10   0  -4 46145.5 2668.30   3
  10   0  -3 10040.5 1249.34   1
  10   0  -3 5746.73 977.598   3
  10   0  -2 387.182 596.610   3
  10   0  -1 734.769 610.872   3
  10   0   0 6701.81 1145.65   3
 -10   0   0 5642.78 749.419   2
 -10   0  -1 22262.8 1530.84   2
  10   0   1 22914.8 2142.64   3
  10   0   2 93.3346 619.576   3
 -10   0  -2 834.659 507.602   2
  10   0   3 1494.69 737.956   3
 -10   0  -3 383.128 430.664   2
  10   0   4 12813.2 1781.66   3
 -10   0  -4 11473.6 1172.95   2
  10   0   5 728.049 669.470   3
  10   0   6 1545.44 985.227   3
  10   0   7-404.929 805.884   3
  10   0   8 1689.18 922.140   3
  10   1 -16-49.3025 579.285   1
  10   1 -15-782.264 726.880   1
 -10   1  15 925.594 736.055   4
  10   1 -14 319.927 481.443   1
 -10   1  14-33.0655 602.443   4
  10   1 -13 367.239 540.348   1
 -10   1  13 1721.82 723.429   4
  10   1 -12 577.573 492.533   1
 -10   1  12 1827.22 785.550   4
  10   1 -11 3235.35 810.988   1
 -10   1  11 2684.10 809.938   4
  10   1 -10 986.769 533.347   1
 -10   1  10 813.783 566.165   4
  10   1  -9 6391.59 1069.02   1
 -10   1   9 5707.81 1000.35   4
  10   1  -8 1679.74 596.081   1
 -10   1   8 1906.31 665.086   4
 -10   1   7 11015.4 1197.50   4
  10   1  -7 10339.7 1270.09   1
  10   1  -6 13714.2 1453.92   1
 -10   1   6 16667.4 1253.88   4
  10   1  -5 2043.74 686.816   1
  10   1  -4 1760.03 651.904   1
  10   1  -3 11017.1 1304.21   1
  10   1  -2 5193.71 940.375   1
  10   1  -1 48398.6 2770.35   1
  10   1   2 6824.46 1251.05   3
  10   1   3 2526.39 892.335   3
  10   1   4 4062.27 1085.22   3
  10   1   5 773.523 623.765   3
  10   1   6 5303.44 1162.74   3
  10   1   7 3888.93 1266.87   3
  10   1   8 52.2693 603.984   3
 -10   2  15 161.000 842.698   4
 -10   2  14 634.520 729.584   4
 -10   2  13 267.077 553.849   4
 -10   2  12 737.448 554.154   4
  10   2 -11-1193.39 776.360   1
 -10   2  11 59.6037 613.078   4
  10   2 -10 3689.72 913.637   1
 -10   2  10 4225.65 967.209   4
  10   2  -9 8770.44 1304.64   1
 -10   2   9 7479.80 1198.68   4
  10   2  -8 1841.66 754.015   1
 -10   2   8 1351.46 538.699   4
  10   2  -7 5576.03 1007.52   1
 -10   2   7 8017.78 1101.61   4
  10   2  -6 2681.35 797.192   1
  10   2  -5 1541.21 618.686   1
  10   2  -4 12896.6 1466.08   1
  10   2  -3-607.207 704.474   1
  10   2  -2 408.446 375.577   1
 -10   2   1 6341.43 797.655   5
  10   2  -1 5925.62 1021.63   1
 -10   2   0 1547.21 487.823   5
  10   2   0 625.205 529.550   1
 -10   2  -1 14870.5 1309.69   5
  10   2   1 16057.0 1654.98   1
  10   2   5 4915.71 1229.36   3
  10   2   6 2136.60 953.167   3
  10   2   7 1425.21 866.636   3
 -10   3  14-273.772 736.503   4
 -10   3  13 3008.43 1152.97   4
 -10   3  12 2641.41 779.369   4
 -10   3  11 596.963 614.867   4
  10   3 -10 273.291 554.037   1
 -10   3  10 495.002 497.426   4
  10   3  -9 854.746 466.173   1
 -10   3   9 2597.34 919.361   4
  10   3  -8 3839.66 968.556   1
 -10   3   8 2438.90 785.379   4
  10   3  -7 349.522 573.648   1
  10   3  -6 9174.59 1345.24   1
  10   3  -5 608.819 600.299   1
  10   3  -4 5014.89 1105.96   1
  10   3  -3 1821.31 700.830   1
  10   3  -2 7178.99 1172.76   1
 -10   3   1 2441.27 739.407   5
  10   3  -1 2528.26 781.502   1
 -10   3   0 921.529 478.716   5
  10   3   0 720.042 648.058   1
 -10   3  -1 1568.74 556.908   5
  10   3   1 1424.93 653.997   1
 -10   3  -2 4888.04 966.109   5
 -10   4  12-715.142 962.438   4
 -10   4  11 651.958 646.074   4
  10   4  -9 25.5804 528.640   1
  10   4  -8 339.847 561.851   1
  10   4  -7 183.451 609.632   1
  10   4  -6 2350.32 863.653   1
  10   4  -5 2826.54 904.473   1
  10   4  -4 851.336 630.826   1
  10   4  -3 6118.04 1111.75   1
  10   4  -2 877.117 616.992   1
 -10   4   1 995.564 478.655   5
  10   4  -1-96.7349 492.777   1
  10   4   0 3356.91 951.658   1
 -10   4   0 2649.62 798.363   5
 -10   4  -1 3902.68 952.364   5
  10   4   1 2566.55 807.517   1
 -10   4  -2 3761.43 943.448   5
  10   4   2 2825.71 930.828   1
 -10   4  -3 606.163 538.836   5
 -10   4  -4 3452.57 1005.92   5
  10   5  -5-1007.28 634.961   1
  10   5  -4 1548.04 716.350   1
  10   5  -3 2337.82 926.363   1
  10   5  -2 141.515 520.344   1
  10   5  -1 2911.03 988.733   1
 -10   5   0 244.101 640.853   5
  10   5   0-523.174 574.676   1
 -10   5  -1 764.016 766.770   5
  10   5   1 362.935 551.074   1
 -10   5  -2 1999.39 887.897   5
 -11  -4   3 947.945 723.243   2
 -11  -4   2 1390.89 723.411   2
 -11  -4   1-252.499 572.239   2
 -11  -4   0 292.688 681.688   2
  11  -3  -3 1022.60 653.621   3
 -11  -3   3 174.355 533.553   2
  11  -3  -2-198.797 529.448   3
 -11  -3   2 659.823 609.920   2
 -11  -3   1 1286.61 610.287   2
  11  -3  -1 1154.59 765.809   3
 -11  -3   0 5132.59 1087.42   2
  11  -3   0 3268.40 964.459   3
 -11  -3  -1 2070.80 770.389   2
  11  -3   1 3946.94 1132.99   3
 -11  -3  -2-144.045 573.392   2
  11  -3   2-1036.89 784.438   3
 -11  -3  -3 1071.25 618.637   2
  11  -3   3 1181.10 818.314   3
 -11  -3  -4 3958.93 1049.29   2
  11  -2  -6 35.8349 355.177   3
  11  -2  -5 5640.17 985.077   3
  11  -2  -4 603.579 519.234   3
  11  -2  -3 1295.33 683.470   3
  11  -2  -2 6789.06 1187.28   3
 -11  -2   2 8383.80 1231.16   2
  11  -2  -1 2146.29 742.096   3
 -11  -2   1 1517.35 631.581   2
  11  -2   0 427.548 448.699   3
 -11  -2   0 338.267 396.374   2
 -11  -2  -1 3614.42 943.645   2
  11  -2   1 2915.92 955.195   3
 -11  -2  -2 5293.74 1040.58   2
  11  -2   2 7383.68 1448.05   3
 -11  -2  -3 1355.54 608.104   2
  11  -2   3 1312.49 714.278   3
 -11  -2  -4 3083.69 900.222   2
  11  -2   4 3683.66 1117.52   3
 -11  -2  -5 424.381 501.066   2
  11  -2   5-307.787 641.035   3
 -11  -2  -6 1029.88 627.674   2
 -11  -2  -7 3549.02 926.791   2
  11  -1 -11 34.4352 491.022   1
  11  -1 -10 2583.55 667.829   1
  11  -1  -9 2226.89 630.487   1
  11  -1  -8 3845.91 855.641   1
  11  -1  -7 22335.6 1890.89   1
  11  -1  -7 23387.5 1810.41   3
  11  -1  -6 1836.86 627.942   3
  11  -1  -5 1082.45 505.337   3
  11  -1  -4 1346.96 614.044   3
  11  -1  -3 394.331 482.604   3
  11  -1  -2 9730.52 1431.23   3
  11  -1  -1-478.086 551.123   3
 -11  -1   1 1066.89 517.533   2
  11  -1   0 4443.55 1044.51   3
 -11  -1   0 5291.60 896.901   2
  11  -1   1 6633.87 1262.45   3
 -11  -1  -1 6903.63 1015.40   2
  11  -1   2 638.681 638.696   3
 -11  -1  -2 1069.42 510.857   2
 -11  -1  -3 246.603 447.859   2
  11  -1   3-694.790 744.761   3
 -11  -1  -4 1096.93 593.119   2
  11  -1   4-125.789 786.138   3
 -11  -1  -5 1252.76 624.195   2
  11  -1   5 890.028 774.627   3
  11  -1   6 1036.62 751.489   3
  11   0 -13 4316.61 941.686   1
  11   0 -12 1269.36 600.904   1
  11   0 -11-409.900 535.885   1
  11   0 -10 7522.13 1198.54   1
  11   0  -9 489.713 526.104   1
  11   0  -8 2753.96 623.999   3
  11   0  -8 2658.56 766.810   1
  11   0  -7 622.855 450.247   3
  11   0  -7-369.785 470.872   1
  11   0  -6-632.933 539.758   3
  11   0  -6 869.888 642.057   1
  11   0  -5 27751.5 2182.07   1
  11   0  -5 23980.7 2026.02   3
  11   0  -4 23404.6 1947.39   1
  11   0  -4 22939.6 2021.17   3
  11   0  -3 5425.98 1094.38   3
  11   0  -3 5082.78 956.105   1
  11   0  -2 4725.82 999.000   3
  11   0  -1 1683.02 729.268   3
  11   0   0 543.035 688.130   3
  11   0   1-210.232 431.422   3
 -11   0  -1-396.633 398.208   2
  11   0   2 2088.45 697.793   3
 -11   0  -2 1153.81 488.402   2
  11   0   3 10734.7 1722.66   3
  11   0   4 710.962 682.795   3
  11   0   5 3164.13 1213.90   3
  11   0   6 397.562 766.506   3
  11   1 -15 1006.61 688.998   1
 -11   1  15 873.094 860.448   4
  11   1 -14 588.772 517.862   1
 -11   1  14 276.833 552.195   4
  11   1 -13 407.800 502.153   1
 -11   1  13 531.377 755.164   4
  11   1 -12 2080.77 783.390   1
 -11   1  12 521.829 483.050   4
  11   1 -11-182.634 467.242   1
 -11   1  11 82.5751 551.176   4
  11   1 -10 1700.57 679.927   1
 -11   1  10 2399.77 802.053   4
 -11   1   9 2595.23 691.388   4
  11   1  -9 3266.12 790.843   1
  11   1  -8 3839.29 862.291   1
  11   1  -7 20130.1 1823.66   1
  11   1  -6 1085.03 488.475   1
  11   1  -5 669.473 480.125   1
  11   1  -4 2068.86 663.762   1
  11   1  -3 2027.94 761.318   1
  11   1  -2 10021.1 1383.16   1
  11   1  -1 549.329 566.416   1
  11   1   1 6687.41 1281.94   3
  11   1   2 2120.50 919.925   3
  11   1   3-362.120 742.932   3
  11   1   4 672.719 663.092   3
  11   1   5 1364.01 944.332   3
  11   1   6 2171.01 980.641   3
 -11   2  14-614.816 730.280   4
  11   2 -13 1323.82 672.417   1
 -11   2  13 715.234 625.343   4
  11   2 -12 79.0128 505.417   1
 -11   2  12 855.525 697.006   4
  11   2 -11-306.185 542.781   1
 -11   2  11-146.044 515.666   4
  11   2 -10 5893.12 1142.28   1
  11   2  -9 4847.21 1049.96   1
  11   2  -8 3577.49 985.976   1
  11   2  -7 17.5706 402.306   1
  11   2  -6-155.841 529.237   1
  11   2  -5 4608.96 987.052   1
  11   2  -4 448.397 522.233   1
  11   2  -3 1083.68 710.178   1
  11   2  -2 5512.45 1080.86   1
  11   2  -1 2761.78 903.041   1
  11   2   0 390.557 489.808   1
  11   2   4 2229.75 935.139   3
  11   2   5 697.800 586.024   3
  11   3 -11 314.701 582.684   1
  11   3 -10 1275.51 748.210   1
  11   3  -9-346.027 423.350   1
  11   3  -8 2668.50 923.708   1
  11   3  -7-1793.58 863.684   1
  11   3  -6 537.443 409.702   1
  11   3  -5 1952.54 702.408   1
  11   3  -4 2741.62 799.652   1
  11   3  -3 2814.34 859.254   1
  11   3  -2 457.970 585.590   1
  11   3  -1 1164.93 620.127   1
  11   3   0 3727.23 1036.07   1
  11   3   1 2171.71 805.593   1
  11   4  -7 1351.66 674.494   1
  11   4  -6 1398.53 758.588   1
  11   4  -5 1014.61 607.068   1
  11   4  -4 557.524 602.488   1
  11   4  -3 1075.79 726.408   1
  11   4  -2-127.150 504.133   1
  11   4  -1 905.216 636.836   1
  11   4   0 251.522 575.804   1
  11   4   1 323.371 621.917   1
  12  -3  -4 519.618 434.953   3
  12  -3  -3 3244.35 951.679   3
  12  -3  -2 628.589 525.846   3
 -12  -3   2 927.408 618.020   2
  12  -3  -1 2823.57 1056.73   3
 -12  -3   1 1173.28 731.388   2
 -12  -3   0 759.652 681.440   2
  12  -3   0 854.434 749.768   3
 -12  -3  -1 550.826 682.123   2
  12  -3   1 229.334 568.757   3
 -12  -3  -2-294.672 659.405   2
  12  -2  -5-2.10032 434.813   3
  12  -2  -4 385.426 451.879   3
  12  -2  -3 1442.96 614.925   3
  12  -2  -2-55.8423 613.132   3
 -12  -2   2 602.107 508.699   2
  12  -2  -1 1443.58 808.486   3
 -12  -2   1 215.729 446.331   2
  12  -2   0 838.160 851.560   3
 -12  -2   0 1184.44 692.626   2
  12  -2   1-755.774 717.403   3
 -12  -2  -1 214.132 492.923   2
 -12  -2  -2 279.290 405.970   2
  12  -2   2-106.632 659.430   3
 -12  -2  -3 670.850 567.097   2
  12  -2   3 2720.46 1178.50   3
 -12  -2  -4 127.506 545.330   2
 -12  -2  -5 1071.41 627.553   2
  12  -1 -11 1751.18 749.389   1
  12  -1 -10 2471.66 850.030   1
  12  -1  -9 175.589 458.271   1
  12  -1  -8 4200.95 1005.81   1
  12  -1  -6 1668.63 725.844   3
  12  -1  -5 1570.73 657.307   3
  12  -1  -4 25.9444 450.441   3
  12  -1  -3 1299.88 593.103   3
  12  -1  -2 745.230 637.690   3
  12  -1  -1 1334.86 792.769   3
  12  -1   0 873.744 667.325   3
 -12  -1   0 477.897 446.588   2
  12  -1   1 2573.28 957.579   3
 -12  -1  -1 1338.22 569.441   2
  12  -1   2 826.331 716.328   3
 -12  -1  -2 264.313 386.921   2
  12  -1   3-848.908 839.558   3
  12  -1   4 2324.96 1034.47   3
  12   0 -13 735.253 678.900   1
  12   0 -12 347.575 469.568   1
  12   0 -11 127.920 464.997   1
  12   0 -10-742.590 626.564   1
  12   0  -9 133.795 516.773   1
  12   0  -8 655.275 404.189   1
  12   0  -7 2903.44 790.583   3
  12   0  -7 3560.96 869.411   1
  12   0  -6 2352.70 796.579   1
  12   0  -6 1697.34 625.787   3
  12   0  -5 1165.36 630.178   3
  12   0  -5 2347.03 795.926   1
  12   0  -4 987.785 455.984   3
  12   0  -4 2800.83 877.262   1
  12   0  -3 1236.16 672.561   3
  12   0  -2 1381.87 704.578   3
  12   0  -1 892.151 589.976   3
  12   0   0-899.401 713.169   3
  12   0   1-376.861 563.349   3
  12   0   2-66.3144 672.294   3
  12   0   3-643.647 907.253   3
  12   0   4 3950.85 1140.41   3
  12   1 -14-185.641 639.722   1
  12   1 -13 401.769 556.335   1
  12   1 -12-1249.90 782.187   1
  12   1 -11 2500.05 803.827   1
  12   1 -10 1501.32 679.454   1
  12   1  -9 520.917 519.695   1
  12   1  -8 3638.06 975.145   1
  12   1  -7-240.329 512.453   1
  12   1  -6 2426.32 728.337   1
  12   1  -5 1730.22 747.818   1
  12   1  -4 173.276 436.095   1
  12   1  -3 562.671 524.696   1
  12   1  -2-412.008 523.630   1
  12   1  -1 3064.93 1051.36   3
  12   1   0 32.0273 604.973   3
  12   1   1 1909.91 817.847   3
  12   1   2 247.603 639.583   3
  12   1   3 573.578 644.145   3
  12   1   4 2499.73 941.988   3
  12   2 -12 600.505 597.271   1
  12   2 -11 406.545 477.520   1
  12   2 -10-151.848 618.839   1
  12   2  -9 871.475 778.577   1
  12   2  -8 647.800 561.825   1
  12   2  -7 351.371 476.838   1
  12   2  -6 305.609 419.720   1
  12   2  -5 70.5290 458.397   1
  12   2  -4 1559.45 732.819   1
  12   2  -3 1218.57 639.558   1
  12   2  -2 569.444 684.172   1
  12   2  -1 1389.34 504.530   1
  12   2   3 698.719 627.813   3
  12   3  -8-403.896 656.792   1
  12   3  -7-7.35182 569.111   1
  12   3  -6 2053.79 848.980   1
  12   3  -5 533.841 508.476   1
  12   3  -4-222.580 702.260   1
  12   3  -3 846.266 600.166   1
  12   3  -2-288.247 543.119   1
  12   3  -1-39.7380 529.212   1
  12   3   0 140.137 624.658   1
  13  -3  -3 1186.04 729.766   3
  13  -3  -2 1799.87 849.376   3
 -13  -3   2 2324.44 890.574   2
  13  -3  -1 1317.85 849.575   3
  13  -2  -5-1.19943 470.417   3
  13  -2  -4 103.295 550.019   3
  13  -2  -3 455.331 654.508   3
  13  -2  -2 1915.98 916.746   3
  13  -2  -1 172.070 679.336   3
 -13  -2   1-184.589 499.194   2
  13  -2   0 1210.78 748.843   3
 -13  -2   0 1193.44 655.482   2
  13  -2   1 735.681 694.604   3
 -13  -2  -1 356.950 497.732   2
 -13  -2  -2 1415.56 845.054   2
 -13  -2  -3 568.410 577.194   2
  13  -1 -10 306.629 443.812   1
  13  -1  -9-185.659 510.552   1
  13  -1  -6 168.629 522.608   3
  13  -1  -5 2944.47 958.302   3
  13  -1  -4 2791.27 1020.60   3
  13  -1  -3 1485.58 871.360   3
  13  -1  -2 531.345 665.225   3
  13  -1  -1-1211.08 784.283   3
  13  -1   0-162.340 653.653   3
  13  -1   1 5943.09 1367.71   3
  13  -1   2-922.977 667.612   3
  13   0 -13-1098.50 736.151   1
  13   0 -12-122.560 532.523   1
  13   0 -11 1281.04 811.801   1
  13   0 -10-431.418 748.615   1
  13   0  -9 883.013 596.697   1
  13   0  -8 652.033 686.401   1
  13   0  -7 1895.09 641.189   3
  13   0  -7 1504.33 779.084   1
  13   0  -6-598.134 549.728   1
  13   0  -6-1.19627 590.731   3
  13   0  -5 907.943 662.815   3
  13   0  -5 1533.81 712.928   1
  13   0  -4-1116.50 717.510   3
  13   0  -3 324.309 534.044   3
  13   0  -2 2533.36 834.120   3
  13   0  -1 1860.94 781.508   3
  13   0   0 1078.51 994.226   3
  13   0   1 1908.59 783.262   3
  13   0   2 870.474 795.263   3
  13   1 -12-860.952 746.580   1
  13   1 -11 757.358 435.178   1
  13   1 -10 15.8064 507.888   1
  13   1  -9-793.860 639.526   1
  13   1  -8 703.377 466.152   1
  13   1  -7 845.837 530.257   1
  13   1  -6 298.373 588.436   1
  13   1  -5 2292.06 894.403   1
  13   1  -4 3381.25 1093.16   1
  13   1  -3-581.579 604.545   1
  13   1  -3 734.420 605.338   3
  13   1  -2 1515.56 701.700   3
  13   1  -1 2642.51 1084.28   3
  13   1   0 280.585 480.233   3
  13   1   1 1863.39 939.797   3
  13   2  -9 878.875 629.314   1
  13   2  -8 122.065 452.141   1
  13   2  -7-160.911 547.327   1
  13   2  -6 91.3544 479.617   1
  13   2  -5 1388.74 698.779   1
  13   2  -4 506.042 804.675   1
  13   2  -3 463.769 703.576   1
  13   2  -2 2115.10 767.074   1
  14  -3  -3 1262.08 830.729   3
  14  -2  -4 726.745 686.680   3
  14  -2  -3 821.899 734.640   3
  14  -2  -2 2380.91 1003.10   3
 -14  -2   0 1517.22 805.527   2
  14  -1  -5 3906.20 980.354   3
  14  -1  -4 64.4423 644.452   3
  14  -1  -3 1642.33 746.444   3
  14  -1  -2 2198.57 942.812   3
  14  -1  -1-1246.38 1031.05   3
  14   0 -11-14.4808 568.324   1
  14   0 -10-251.186 532.454   1
  14   0  -9-870.754 620.906   1
  14   0  -8 2140.27 662.981   1
  14   0  -7 35.8717 597.321   1
  14   0  -6 382.936 680.693   3
  14   0  -5-398.480 634.749   3
  14   0  -4-252.493 604.304   3
  14   0  -3 480.395 714.974   3
  14   0  -2 7924.42 1574.04   3
  14   0  -1 3261.88 1099.48   3
  14   1  -8 11.8425 571.198   1
  14   1  -7 638.359 706.600   1
  14   1  -7 1330.49 805.228   3
  14   1  -6-876.996 729.454   1
  14   1  -6 229.555 500.092   3
  14   1  -5 1815.86 819.649   3
  14   1  -5 3204.92 936.587   1
  14   1  -4 748.330 653.599   3
  14   1  -4-311.239 571.297   1
  14   1  -3 1680.73 967.972   3
  14   1  -2 1254.24 845.850   3
  15  -1  -4 2035.21 882.323   3
  15   0  -5 1456.84 748.598   3
  15   0  -4 801.459 961.836   3
  15   1  -6 956.997 821.529   3
  15   1  -5 485.522 691.098   3
   0   0   0    0.00    0.00   0
TITL 131104_s3_lww in P2(1)
REM P2(1) (#4 in standard setting)
CELL 0.71073  11.389702   5.388225  13.337136  90.0000 106.9613  90.0000
ZERR    3.00   0.000539   0.000204   0.000641   0.0000   0.0050   0.0000
LATT -1
SYMM -x, y+1/2,-z
SFAC C H N O Br
UNIT 36.00 60.00 6.00 9.00 3.00
TREF
HKLF 4
END
;
_shelx_hkl_checksum              3324
#END Tags that were not found in dictionaries
loop_
_space_group_symop_operation_xyz
'x, y, z'
'-x, y+1/2, -z'
loop_
_atom_site_label
_atom_site_type_symbol
_atom_site_fract_x
_atom_site_fract_y
_atom_site_fract_z
_atom_site_U_iso_or_equiv
_atom_site_adp_type
_atom_site_occupancy
_atom_site_site_symmetry_order
_atom_site_calc_flag
_atom_site_refinement_flags_posn
_atom_site_refinement_flags_adp
Br1 Br 0.43224(6) 0.05138(14) 0.07633(5) 0.0653(3) Uani 1 1 d . .
O1 O 0.8871(2) 1.0812(8) 0.6737(2) 0.0351(9) Uani 1 1 d . .
O2 O 0.4833(3) 0.9984(7) 0.4281(3) 0.0458(12) Uani 1 1 d . .
O3 O 0.6970(4) 1.2216(7) 0.4865(4) 0.0443(12) Uani 1 1 d . .
H3 H 0.637(7) 1.230(17) 0.502(7) 0.11(4) Uiso 1 1 d . .
N1 N 1.0795(3) 1.0180(12) 0.6738(3) 0.0467(14) Uani 1 1 d . .
C1 C 0.4733(5) 0.3066(11) 0.1780(4) 0.0410(14) Uani 1 1 d . .
C2 C 0.3825(5) 0.4176(11) 0.2116(4) 0.0434(16) Uani 1 1 d . .
H2 H 0.3013 0.3669 0.1849 0.052 Uiso 1 1 calc R U
C3 C 0.4131(4) 0.6044(11) 0.2850(4) 0.0392(16) Uani 1 1 d . .
H3A H 0.3522 0.6781 0.3086 0.047 Uiso 1 1 calc R U
C4 C 0.5350(4) 0.6849(10) 0.3248(4) 0.0302(12) Uani 1 1 d . .
C5 C 0.6241(4) 0.5672(15) 0.2896(4) 0.0330(11) Uani 1 1 d . .
H5 H 0.7057 0.6158 0.3159 0.040 Uiso 1 1 calc R U
C6 C 0.5935(5) 0.3795(12) 0.2162(4) 0.0407(14) Uani 1 1 d . .
H6 H 0.6538 0.3030 0.1928 0.049 Uiso 1 1 calc R U
C7 C 0.5635(4) 0.8921(10) 0.4008(4) 0.0325(13) Uani 1 1 d . .
C8 C 0.6962(4) 0.9788(9) 0.4495(4) 0.0320(14) Uani 1 1 d . .
H8 H 0.7387 0.9761 0.3953 0.038 Uiso 1 1 calc R U
C9 C 0.7630(4) 0.8039(10) 0.5385(4) 0.0335(13) Uani 1 1 d . .
H9A H 0.7129 0.7798 0.5853 0.040 Uiso 1 1 calc R U
H9B H 0.7738 0.6436 0.5092 0.040 Uiso 1 1 calc R U
C10 C 0.8852(4) 0.9028(9) 0.5993(4) 0.0325(13) Uani 1 1 d . .
C11 C 1.0015(5) 0.8649(12) 0.6003(5) 0.0460(16) Uani 1 1 d . .
H11 H 1.0265 0.7520 0.5580 0.055 Uiso 1 1 calc R U
C12 C 1.0082(4) 1.1405(10) 0.7146(4) 0.0341(13) Uani 1 1 d . .
C13 C 1.0405(4) 1.3336(11) 0.7951(4) 0.0345(13) Uani 1 1 d . .
C14 C 1.1624(4) 1.3623(12) 0.8544(4) 0.0434(15) Uani 1 1 d . .
H14 H 1.2217 1.2559 0.8433 0.052 Uiso 1 1 calc R U
C15 C 1.1963(4) 1.5434(16) 0.9283(4) 0.0479(14) Uani 1 1 d . .
H15 H 1.2784 1.5586 0.9670 0.057 Uiso 1 1 calc R U
C16 C 1.1117(6) 1.7036(12) 0.9467(5) 0.0540(17) Uani 1 1 d . .
H16 H 1.1358 1.8286 0.9966 0.065 Uiso 1 1 calc R U
C17 C 0.9883(6) 1.6763(12) 0.8892(5) 0.0561(18) Uani 1 1 d . .
H17 H 0.9294 1.7818 0.9015 0.067 Uiso 1 1 calc R U
C18 C 0.9540(4) 1.4930(11) 0.8142(5) 0.0438(17) Uani 1 1 d . .
H18 H 0.8719 1.4761 0.7761 0.053 Uiso 1 1 calc R U
loop_
_atom_site_aniso_label
_atom_site_aniso_U_11
_atom_site_aniso_U_22
_atom_site_aniso_U_33
_atom_site_aniso_U_23
_atom_site_aniso_U_13
_atom_site_aniso_U_12
Br1 0.0946(5) 0.0474(4) 0.0437(4) -0.0121(5) 0.0040(3) -0.0155(4)
O1 0.0253(15) 0.039(2) 0.0362(18) -0.008(2) 0.0021(13) -0.0024(18)
O2 0.0395(19) 0.043(3) 0.055(2) -0.011(2) 0.0130(17) 0.0076(19)
O3 0.047(3) 0.025(2) 0.053(3) -0.001(2) 0.003(2) -0.0028(19)
N1 0.028(2) 0.057(4) 0.052(3) -0.021(4) 0.0074(19) -0.004(3)
C1 0.053(3) 0.039(3) 0.024(3) -0.003(3) 0.000(3) -0.008(3)
C2 0.033(3) 0.050(4) 0.042(4) 0.001(3) 0.003(3) -0.016(3)
C3 0.026(2) 0.053(5) 0.036(3) 0.001(3) 0.006(2) -0.005(3)
C4 0.024(3) 0.034(3) 0.029(3) 0.005(3) 0.002(2) -0.004(2)
C5 0.023(2) 0.042(3) 0.034(3) 0.000(4) 0.0078(19) 0.001(3)
C6 0.042(3) 0.046(4) 0.035(3) 0.001(3) 0.014(3) 0.004(3)
C7 0.034(3) 0.031(3) 0.030(3) 0.009(3) 0.005(2) -0.003(2)
C8 0.026(2) 0.031(3) 0.037(3) -0.001(3) 0.006(2) -0.003(2)
C9 0.033(3) 0.026(3) 0.036(3) -0.002(3) 0.001(2) -0.005(2)
C10 0.033(3) 0.027(3) 0.032(3) -0.005(3) 0.001(2) -0.003(2)
C11 0.035(3) 0.052(4) 0.051(4) -0.020(4) 0.011(3) 0.001(3)
C12 0.027(3) 0.038(3) 0.035(3) 0.002(3) 0.005(2) -0.005(2)
C13 0.034(3) 0.038(3) 0.029(3) 0.003(3) 0.005(2) -0.005(2)
C14 0.030(3) 0.055(4) 0.041(3) -0.007(4) 0.004(2) -0.001(3)
C15 0.039(3) 0.055(3) 0.041(3) -0.008(5) -0.001(2) -0.007(4)
C16 0.070(4) 0.045(4) 0.044(4) -0.015(4) 0.012(3) -0.012(3)
C17 0.058(4) 0.047(4) 0.059(4) -0.010(4) 0.011(3) 0.007(3)
C18 0.034(3) 0.046(4) 0.047(3) -0.004(3) 0.006(2) -0.002(3)
loop_
_atom_type_symbol
_atom_type_description
_atom_type_scat_dispersion_real
_atom_type_scat_dispersion_imag
_atom_type_scat_source
C C 0.0033 0.0016 'International Tables Vol C Tables 4.2.6.8 and 6.1.1.4'
H H 0.0000 0.0000 'International Tables Vol C Tables 4.2.6.8 and 6.1.1.4'
Br Br -0.2901 2.4595 'International Tables Vol C Tables 4.2.6.8 and 6.1.1.4'
N N 0.0061 0.0033 'International Tables Vol C Tables 4.2.6.8 and 6.1.1.4'
O O 0.0106 0.0060 'International Tables Vol C Tables 4.2.6.8 and 6.1.1.4'
loop_
_geom_angle_atom_site_label_1
_geom_angle_atom_site_label_2
_geom_angle_atom_site_label_3
_geom_angle
C12 O1 C10 104.6(4)
C8 O3 H3 103(7)
C12 N1 C11 104.6(4)
C2 C1 Br1 119.8(4)
C6 C1 Br1 119.0(5)
C6 C1 C2 121.2(5)
C1 C2 H2 120.3
C3 C2 C1 119.4(5)
C3 C2 H2 120.3
C2 C3 H3A 119.6
C2 C3 C4 120.8(5)
C4 C3 H3A 119.6
C3 C4 C7 119.2(5)
C5 C4 C3 118.1(5)
C5 C4 C7 122.7(4)
C4 C5 H5 119.5
C6 C5 C4 121.1(4)
C6 C5 H5 119.5
C1 C6 C5 119.5(5)
C1 C6 H6 120.3
C5 C6 H6 120.3
O2 C7 C4 121.7(4)
O2 C7 C8 117.5(5)
C4 C7 C8 120.8(4)
O3 C8 C7 109.8(4)
O3 C8 H8 108.7
O3 C8 C9 110.6(5)
C7 C8 H8 108.7
C9 C8 C7 110.2(4)
C9 C8 H8 108.7
C8 C9 H9A 109.2
C8 C9 H9B 109.2
H9A C9 H9B 107.9
C10 C9 C8 112.0(4)
C10 C9 H9A 109.2
C10 C9 H9B 109.2
O1 C10 C9 117.2(4)
C11 C10 O1 107.0(4)
C11 C10 C9 135.8(5)
N1 C11 H11 124.9
C10 C11 N1 110.2(5)
C10 C11 H11 124.9
O1 C12 C13 117.9(5)
N1 C12 O1 113.6(5)
N1 C12 C13 128.5(4)
C14 C13 C12 119.5(5)
C18 C13 C12 122.4(4)
C18 C13 C14 118.1(5)
C13 C14 H14 119.5
C15 C14 C13 121.1(5)
C15 C14 H14 119.5
C14 C15 H15 119.4
C14 C15 C16 121.1(5)
C16 C15 H15 119.4
C15 C16 H16 120.6
C15 C16 C17 118.9(6)
C17 C16 H16 120.6
C16 C17 H17 120.0
C18 C17 C16 120.0(6)
C18 C17 H17 120.0
C13 C18 H18 119.6
C17 C18 C13 120.8(5)
C17 C18 H18 119.6
loop_
_geom_bond_atom_site_label_1
_geom_bond_atom_site_label_2
_geom_bond_distance
Br1 C1 1.892(6)
O1 C10 1.378(6)
O1 C12 1.366(5)
O2 C7 1.220(6)
O3 H3 0.77(7)
O3 C8 1.397(7)
N1 C11 1.386(7)
N1 C12 1.284(7)
C1 C2 1.378(8)
C1 C6 1.371(7)
C2 H2 0.9300
C2 C3 1.376(7)
C3 H3A 0.9300
C3 C4 1.403(6)
C4 C5 1.390(7)
C4 C7 1.478(7)
C5 H5 0.9300
C5 C6 1.380(8)
C6 H6 0.9300
C7 C8 1.534(7)
C8 H8 0.9800
C8 C9 1.533(7)
C9 H9A 0.9700
C9 H9B 0.9700
C9 C10 1.490(6)
C10 C11 1.335(7)
C11 H11 0.9300
C12 C13 1.462(7)
C13 C14 1.392(6)
C13 C18 1.386(8)
C14 H14 0.9300
C14 C15 1.361(8)
C15 H15 0.9300
C15 C16 1.368(9)
C16 H16 0.9300
C16 C17 1.399(8)
C17 H17 0.9300
C17 C18 1.378(8)
C18 H18 0.9300
loop_
_geom_torsion_atom_site_label_1
_geom_torsion_atom_site_label_2
_geom_torsion_atom_site_label_3
_geom_torsion_atom_site_label_4
_geom_torsion
Br1 C1 C2 C3 -179.5(4)
Br1 C1 C6 C5 179.3(5)
O1 C10 C11 N1 -0.6(7)
O1 C12 C13 C14 166.3(5)
O1 C12 C13 C18 -14.5(8)
O2 C7 C8 O3 -22.1(7)
O2 C7 C8 C9 100.0(5)
O3 C8 C9 C10 -49.1(6)
N1 C12 C13 C14 -15.5(9)
N1 C12 C13 C18 163.7(6)
C1 C2 C3 C4 0.9(8)
C2 C1 C6 C5 0.1(9)
C2 C3 C4 C5 -1.3(8)
C2 C3 C4 C7 177.8(5)
C3 C4 C5 C6 1.1(9)
C3 C4 C7 O2 -1.6(8)
C3 C4 C7 C8 177.5(5)
C4 C5 C6 C1 -0.5(9)
C4 C7 C8 O3 158.8(5)
C4 C7 C8 C9 -79.2(6)
C5 C4 C7 O2 177.5(6)
C5 C4 C7 C8 -3.4(8)
C6 C1 C2 C3 -0.3(8)
C7 C4 C5 C6 -178.0(5)
C7 C8 C9 C10 -170.8(5)
C8 C9 C10 O1 80.0(6)
C8 C9 C10 C11 -98.9(8)
C9 C10 C11 N1 178.4(6)
C10 O1 C12 N1 -0.2(6)
C10 O1 C12 C13 178.3(5)
C11 N1 C12 O1 -0.2(7)
C11 N1 C12 C13 -178.5(5)
C12 O1 C10 C9 -178.7(5)
C12 O1 C10 C11 0.5(6)
C12 N1 C11 C10 0.5(7)
C12 C13 C14 C15 178.5(6)
C12 C13 C18 C17 -178.6(5)
C13 C14 C15 C16 -0.1(10)
C14 C13 C18 C17 0.7(9)
C14 C15 C16 C17 1.0(10)
C15 C16 C17 C18 -1.1(10)
C16 C17 C18 C13 0.3(9)
C18 C13 C14 C15 -0.8(9)
