#------------------------------------------------------------------------------
#$Date: 2016-03-26 14:37:05 +0200 (Sat, 26 Mar 2016) $
#$Revision: 180270 $
#$URL: svn://www.crystallography.net/cod/cif/7/11/56/7115608.cif $
#------------------------------------------------------------------------------
#
# This file is available in the Crystallography Open Database (COD),
# http://www.crystallography.net/
#
# All data on this site have been placed in the public domain by the
# contributors.
#
data_7115608
loop_
_publ_author_name
'Zhi-Min Chen'
'Zhen Zhang'
'Yong-Qiang Tu'
'Ming-Hui Xu'
'Fu-Min Zhang'
'Chen-Chen Li'
'Shao-Hua Wang'
_publ_section_title
;
 A Mn(III)/TEMPO-co-mediated tandem azidation-1,2-carbon migration
 reaction of allylic silyl ethers
;
_journal_name_full               Chem.Commun.
_journal_page_first              10805
_journal_paper_doi               10.1039/C4cc04707A
_journal_volume                  50
_journal_year                    2014
_chemical_formula_moiety         'C18 H17 N3 O2'
_chemical_formula_sum            'C18 H17 N3 O2'
_chemical_formula_weight         307.34
_chemical_name_systematic
;
 ?
;
_space_group_crystal_system      triclinic
_space_group_IT_number           2
_space_group_name_Hall           '-P 1'
_space_group_name_H-M_alt        'P -1'
_symmetry_space_group_name_Hall  '-P 1'
_symmetry_space_group_name_H-M   'P -1'
_atom_sites_solution_hydrogens   geom
_atom_sites_solution_primary     direct
_audit_creation_date             2014-03-31
_audit_creation_method
;
Olex2 1.2
(compiled 2014.03.20 svn.r2914 for OlexSys, GUI svn.r4816)
;
_cell_angle_alpha                61.409(13)
_cell_angle_beta                 80.700(12)
_cell_angle_gamma                86.903(11)
_cell_formula_units_Z            2
_cell_length_a                   8.6242(13)
_cell_length_b                   10.2987(12)
_cell_length_c                   10.3691(14)
_cell_measurement_reflns_used    1579
_cell_measurement_temperature    294.52(10)
_cell_measurement_theta_max      24.5650
_cell_measurement_theta_min      3.8780
_cell_volume                     797.7(2)
_computing_cell_refinement
;
CrysAlisPro, Agilent Technologies,
Version 1.171.36.28 (release 01-02-2013 CrysAlis171 .NET)
(compiled Feb  1 2013,16:14:44)
;
_computing_data_collection
;
CrysAlisPro, Agilent Technologies,
Version 1.171.36.28 (release 01-02-2013 CrysAlis171 .NET)
(compiled Feb  1 2013,16:14:44)
;
_computing_data_reduction
;
CrysAlisPro, Agilent Technologies,
Version 1.171.36.28 (release 01-02-2013 CrysAlis171 .NET)
(compiled Feb  1 2013,16:14:44)
;
_computing_molecular_graphics    'Olex2 (Dolomanov et al., 2009)'
_computing_publication_material  'Olex2 (Dolomanov et al., 2009)'
_computing_structure_refinement  'ShelXL (Sheldrick, 2008)'
_computing_structure_solution    'ShelXS (Sheldrick, 2008)'
_diffrn_ambient_temperature      294.52(10)
_diffrn_detector_area_resol_mean 16.0733
_diffrn_measured_fraction_theta_full 0.997
_diffrn_measured_fraction_theta_max 0.871
_diffrn_measurement_device_type  'SuperNova, Dual, Cu at zero, Eos'
_diffrn_measurement_method       '\w scans'
_diffrn_orient_matrix_UB_11      0.0044633000
_diffrn_orient_matrix_UB_12      -0.0781356000
_diffrn_orient_matrix_UB_13      0.0395556000
_diffrn_orient_matrix_UB_21      0.0731405000
_diffrn_orient_matrix_UB_22      0.0038829000
_diffrn_orient_matrix_UB_23      -0.0444609000
_diffrn_orient_matrix_UB_31      0.0397655000
_diffrn_orient_matrix_UB_32      0.0060551000
_diffrn_orient_matrix_UB_33      0.0517382000
_diffrn_radiation_monochromator  mirror
_diffrn_radiation_type           MoK\a
_diffrn_radiation_wavelength     0.71073
_diffrn_reflns_av_R_equivalents  0.0374
_diffrn_reflns_av_unetI/netI     0.0671
_diffrn_reflns_Laue_measured_fraction_full 0.997
_diffrn_reflns_Laue_measured_fraction_max 0.871
_diffrn_reflns_limit_h_max       10
_diffrn_reflns_limit_h_min       -9
_diffrn_reflns_limit_k_max       12
_diffrn_reflns_limit_k_min       -13
_diffrn_reflns_limit_l_max       13
_diffrn_reflns_limit_l_min       -13
_diffrn_reflns_number            5760
_diffrn_reflns_point_group_measured_fraction_full 0.997
_diffrn_reflns_point_group_measured_fraction_max 0.871
_diffrn_reflns_theta_full        25.500
_diffrn_reflns_theta_max         28.648
_diffrn_reflns_theta_min         3.030
_diffrn_source                   'SuperNova (Mo) X-ray Source'
_exptl_absorpt_coefficient_mu    0.086
_exptl_absorpt_correction_T_max  1.00000
_exptl_absorpt_correction_T_min  0.84747
_exptl_absorpt_correction_type   multi-scan
_exptl_absorpt_process_details
;
CrysAlisPro, Agilent Technologies,
Version 1.171.36.28 (release 01-02-2013 CrysAlis171 .NET)
(compiled Feb  1 2013,16:14:44)
Empirical absorption correction using spherical harmonics,
 implemented in SCALE3 ABSPACK scaling algorithm.
;
_exptl_crystal_colour            'clear light colourless'
_exptl_crystal_density_diffrn    1.280
_exptl_crystal_description       block
_exptl_crystal_F_000             324
_exptl_crystal_size_max          0.31
_exptl_crystal_size_mid          0.23
_exptl_crystal_size_min          0.18
_refine_diff_density_max         0.182
_refine_diff_density_min         -0.185
_refine_diff_density_rms         0.039
_refine_ls_extinction_coef       0.025(4)
_refine_ls_extinction_expression Fc^*^=kFc[1+0.001xFc^2^\l^3^/sin(2\q)]^-1/4^
_refine_ls_extinction_method     SHELXL
_refine_ls_goodness_of_fit_ref   1.063
_refine_ls_hydrogen_treatment    constr
_refine_ls_matrix_type           full
_refine_ls_number_parameters     209
_refine_ls_number_reflns         3576
_refine_ls_number_restraints     0
_refine_ls_restrained_S_all      1.063
_refine_ls_R_factor_all          0.0963
_refine_ls_R_factor_gt           0.0567
_refine_ls_shift/su_max          0.000
_refine_ls_shift/su_mean         0.000
_refine_ls_structure_factor_coef Fsqd
_refine_ls_weighting_details
;
 w=1/[\s^2^(Fo^2^)+(0.0525P)^2^+0.1167P]
 where P=(Fo^2^+2Fc^2^)/3
;
_refine_ls_weighting_scheme      calc
_refine_ls_wR_factor_gt          0.1392
_refine_ls_wR_factor_ref         0.1729
_reflns_Friedel_coverage         0.000
_reflns_number_gt                2089
_reflns_number_total             3576
_reflns_threshold_expression     'I > 2\s(I)'
_cod_data_source_file            c4cc04707a2-1.cif
_cod_data_source_block           chenzhm_0328
_cod_database_code               7115608
#BEGIN Tags that were not found in dictionaries:
_shelxl_version_number           2013-2
_shelx_space_group_comment
;
The symmetry employed for this shelxl refinement is uniquely defined
by the following loop, which should always be used as a source of
symmetry information in preference to the above space-group names.
They are only intended as comments.
;
_reflns_odcompleteness_completeness 99.75
_reflns_odcompleteness_iscentric 1
_reflns_odcompleteness_theta     26.32
_olex2_refinement_description
;
1. Fixed Uiso
 At 1.2 times of:
  All C(H) groups, All C(H,H) groups
2.a Ternary CH refined with riding coordinates:
 C15(H15)
2.b Secondary CH2 refined with riding coordinates:
 C16(H16A,H16B), C17(H17A,H17B), C18(H18A,H18B)
2.c Aromatic/amide H refined with riding coordinates:
 C1(H1), C2(H2), C3(H3), C4(H4), C5(H5), C10(H10), C11(H11), C12(H12),
 C13(H13), C14(H14)
;
_shelx_res_file
;
TITL chenzhm_0328 in P-1 #2
CELL 0.71073 8.624185 10.298683 10.369101 61.4092 80.6998 86.9034
ZERR 2 0.001261 0.001171 0.001426 0.0129 0.012 0.0105
LATT 1

SFAC C H N O
UNIT 36 34 6 4

L.S. 10
PLAN  20
REM reset to P-1 #2
BOND $H
HTAB
MORE -1
CONF
fmap 2
acta 51.0
REM <HKL>D:\olex2_chenzhm_0328\chenzhm_0328.hkl</HKL>

WGHT    0.052500    0.116700
EXTI    0.025133
FVAR      10.58158
O1    4    0.003354    0.381498    0.221584    11.00000    0.04494    0.04027 =
         0.04669   -0.01628   -0.00174    0.00213
O2    4   -0.309517    0.186873    0.489150    11.00000    0.06864    0.05553 =
         0.04552   -0.01190   -0.00116   -0.01956
N1    3   -0.147234    0.343422    0.596614    11.00000    0.07875    0.03819 =
         0.04417   -0.01393   -0.00969   -0.00270
N2    3   -0.191873    0.225489    0.707070    11.00000    0.07076    0.04887 =
         0.04843   -0.01932   -0.01259    0.00063
N3    3   -0.240859    0.126139    0.814511    11.00000    0.10558    0.06222 =
         0.05503   -0.00883    0.00217   -0.01075
C1    1   -0.425893    0.168848    0.266013    11.00000    0.05159    0.05856 =
         0.06862   -0.03424   -0.00406   -0.00540
AFIX  43
H1    2   -0.453149    0.094244    0.363351    11.00000   -1.20000
AFIX   0
C2    1   -0.493031    0.169248    0.153812    11.00000    0.05263    0.08643 =
         0.10226   -0.06482   -0.00971   -0.00477
AFIX  43
H2    2   -0.564256    0.094176    0.175695    11.00000   -1.20000
AFIX   0
C3    1   -0.455437    0.279481    0.010470    11.00000    0.05901    0.10935 =
         0.08615   -0.06717   -0.01995    0.00541
AFIX  43
H3    2   -0.502976    0.280438   -0.064337    11.00000   -1.20000
AFIX   0
C4    1   -0.347469    0.388814   -0.023074    11.00000    0.07115    0.08473 =
         0.05620   -0.03471   -0.01774    0.00055
AFIX  43
H4    2   -0.320378    0.462553   -0.120851    11.00000   -1.20000
AFIX   0
C5    1   -0.279229    0.389140    0.088446    11.00000    0.05557    0.05818 =
         0.05366   -0.02626   -0.01064   -0.00398
AFIX  43
H5    2   -0.206840    0.463846    0.065064    11.00000   -1.20000
AFIX   0
C6    1   -0.316975    0.280096    0.234188    11.00000    0.04017    0.04363 =
         0.05025   -0.02399   -0.00534    0.00186
C7    1   -0.253671    0.274652    0.362453    11.00000    0.04511    0.03507 =
         0.04240   -0.01350   -0.00295    0.00065
C8    1   -0.116965    0.379711    0.335375    11.00000    0.04304    0.03426 =
         0.04037   -0.01452   -0.00414   -0.00059
C9    1   -0.174992    0.538131    0.278422    11.00000    0.04877    0.03305 =
         0.04075   -0.01496   -0.00978    0.00018
C10   1   -0.087783    0.655197    0.158297    11.00000    0.05426    0.04009 =
         0.04878   -0.01456   -0.00751   -0.00141
AFIX  43
H10   2    0.005284    0.637306    0.110685    11.00000   -1.20000
AFIX   0
C11   1   -0.139270    0.798833    0.109183    11.00000    0.07927    0.03594 =
         0.05503   -0.01140   -0.01573   -0.00318
AFIX  43
H11   2   -0.081831    0.876574    0.027136    11.00000   -1.20000
AFIX   0
C12   1   -0.274764    0.827016    0.181075    11.00000    0.08541    0.04051 =
         0.06596   -0.02492   -0.03100    0.01636
AFIX  43
H12   2   -0.307933    0.923649    0.148405    11.00000   -1.20000
AFIX   0
C13   1   -0.360646    0.712636    0.300723    11.00000    0.06595    0.05778 =
         0.06408   -0.02787   -0.01513    0.02019
AFIX  43
H13   2   -0.451741    0.731660    0.349879    11.00000   -1.20000
AFIX   0
C14   1   -0.311827    0.568172    0.348768    11.00000    0.05246    0.04986 =
         0.05450   -0.01947   -0.00337    0.00538
AFIX  43
H14   2   -0.371662    0.490787    0.429034    11.00000   -1.20000
AFIX   0
C15   1   -0.038358    0.333730    0.475081    11.00000    0.05244    0.03768 =
         0.04417   -0.01682   -0.01040   -0.00294
AFIX  13
H15   2    0.044995    0.408378    0.444322    11.00000   -1.20000
AFIX   0
C16   1    0.044231    0.187155    0.523252    11.00000    0.05790    0.04072 =
         0.05734   -0.01539   -0.02020    0.00326
AFIX  23
H16A  2    0.099612    0.167276    0.604892    11.00000   -1.20000
H16B  2   -0.032512    0.107597    0.557076    11.00000   -1.20000
AFIX   0
C17   1    0.159735    0.194766    0.392609    11.00000    0.04921    0.04758 =
         0.07934   -0.02386   -0.01600    0.00944
AFIX  23
H17A  2    0.244381    0.265012    0.367849    11.00000   -1.20000
H17B  2    0.204945    0.098536    0.419485    11.00000   -1.20000
AFIX   0
C18   1    0.077899    0.241647    0.259697    11.00000    0.05202    0.04815 =
         0.06495   -0.02714   -0.00511    0.00835
AFIX  23
H18A  2    0.153756    0.250415    0.175752    11.00000   -1.20000
H18B  2   -0.000592    0.166904    0.281736    11.00000   -1.20000
AFIX   0
HKLF 4

REM  chenzhm_0328 in P-1 #2
REM R1 =  0.0567 for    2089 Fo > 4sig(Fo)  and  0.0963 for all    3576 data
REM    209 parameters refined using      0 restraints

END

WGHT      0.0522      0.1177

REM Instructions for potential hydrogen bonds
EQIV $1 -x, -y+1, -z+1
HTAB C15 N1_$1
HTAB C16 O2

REM Highest difference peak  0.182,  deepest hole -0.185,  1-sigma level  0.039
Q1    1  -0.1422  0.4573  0.3020  11.00000  0.05    0.18
Q2    1  -0.3014  0.0354  0.5291  11.00000  0.05    0.14
Q3    1  -0.2443  0.1838  0.4304  11.00000  0.05    0.14
Q4    1  -0.3787  0.6792  0.4505  11.00000  0.05    0.14
Q5    1  -0.0693  0.3629  0.4014  11.00000  0.05    0.13
Q6    1  -0.3064  0.3138  0.1867  11.00000  0.05    0.13
Q7    1  -0.2589  0.0554  0.5198  11.00000  0.05    0.13
Q8    1  -0.2669  0.3373  0.4975  11.00000  0.05    0.13
Q9    1  -0.3792  0.2422  0.2570  11.00000  0.05    0.13
Q10   1  -0.5651  0.3585 -0.0706  11.00000  0.05    0.13
Q11   1   0.1646  0.8299 -0.0613  11.00000  0.05    0.13
Q12   1  -0.6334  0.3312 -0.1438  11.00000  0.05    0.12
Q13   1  -0.0356  0.0655  0.4126  11.00000  0.05    0.12
Q14   1  -0.0050  0.6333  0.0627  11.00000  0.05    0.12
Q15   1  -0.3128  0.6142  0.0870  11.00000  0.05    0.12
Q16   1  -0.5187  0.2434  0.1604  11.00000  0.05    0.11
Q17   1  -0.4221  0.2013  0.4964  11.00000  0.05    0.11
Q18   1  -0.5144  0.3414 -0.1367  11.00000  0.05    0.11
Q19   1  -0.2296  0.1823 -0.0022  11.00000  0.05    0.11
Q20   1  -0.2560  0.4128  0.4985  11.00000  0.05    0.11
;
_shelx_res_checksum              69968
_shelx_hkl_file
;
   0   0   2 97320.9 3167.36   7
   0   0   3 6347.65 640.701   7
   0   0   4 21796.1 1451.91   7
   0   0   5 1125.64 354.907   7
   0   0  -6 9649.00 622.052   1
   0   0  -6 8543.41 427.752   4
   0   0   7 2437.16 621.937   7
   0   0  -7 1751.81 258.328   1
   0   0   8 5178.60 974.119   7
   0   0   9 1565.48 563.462   7
   0   0  10 770.141 418.062   7
   0   0  11-329.013 290.030   7
   0  -1  10 878.729 409.188   7
   0  -1   9 826.708 396.831   7
   0  -1   8 11929.4 1546.74   7
   0  -1   7 2421.31 655.654   7
   0  -1   6 12775.0 1388.07   7
   0  -1   5 15302.9 1404.33   7
   0  -1   4 300.615 195.255   7
   0  -1   3 134035. 4653.73   7
   0  -1   2 13640.2 929.834   7
   0  -1   1 3227.47 339.108   7
   0   1  -1 3004.63 265.802   2
   0   1   2 37598.8 1362.87   5
   0   1   2 37343.5 1381.99   7
   0   1   3 35649.2 1582.63   7
   0   1   4 1938.59 369.932   7
   0   1   5 19926.7 1430.16   7
   0   1   6 3613.69 636.423   7
   0   1   7 11738.9 1302.31   7
   0   1   8 12500.8 1446.45   7
   0   1   9 17961.3 1894.88   7
   0   1  10 62.3454 180.188   7
   0   1  11 222.945 193.552   7
   0   1  12-250.741 256.305   7
   0  -2  10-421.123 330.367   7
   0  -2   9 1982.96 686.814   7
   0  -2   8 4592.28 968.360   7
   0  -2   7 1727.10 539.362   7
   0  -2   6 2428.32 612.244   7
   0  -2   5 97.8552 101.192   7
   0  -2   4 772.414 288.406   7
   0  -2   3 19770.7 1416.66   7
   0  -2   2 24568.4 1410.22   7
   0  -2   2 21688.7 761.060   4
   0  -2   1 9575.07 717.586   7
   0  -2   0 841792. 21938.2   7
   0   2   1 71645.9 2203.14   5
   0   2   2 118558. 3480.67   3
   0   2   2 113047. 3442.12   5
   0   2   3 556.997 151.564   5
   0   2   3 565.976 141.664   7
   0   2   4 58978.6 2349.68   7
   0   2   4 60691.4 2320.70   5
   0   2   5 12865.9 1036.92   7
   0   2   6-9.18996 109.186   7
   0   2   7 1689.63 455.541   7
   0   2   8 68180.5 3606.66   7
   0   2   9 185.398 196.481   7
   0   2  10 102.712 141.714   7
   0   2  11 105.297 113.460   7
   0   2  12-150.408 196.303   7
   0  -3   9 212.210 303.195   7
   0  -3   8 1044.07 469.376   7
   0  -3   7-70.4796 195.801   7
   0  -3   6 7544.36 1137.67   7
   0  -3   5 8442.54 1136.49   7
   0  -3   4 22.5320 44.2370   7
   0  -3   3 15589.5 557.563   4
   0  -3   3 14974.2 549.760   1
   0  -3   2 9743.11 559.989   4
   0  -3   2 11467.7 997.470   7
   0  -3   1 101.357 78.6576   7
   0  -3   0 31941.4 1363.63   7
   0   3   0 29200.5 1438.97   7
   0  -3  -1 29582.8 1060.48   7
   0   3   1 29062.6 1205.08   5
   0   3   1 28402.7 1118.19   7
   0  -3  -2-15.2369 24.7113   3
   0   3   2 44.0788 40.7039   5
   0   3   2-4.58941 36.8366   3
   0   3   2 51.1987 22.3368   7
   0   3   3 68046.0 2405.64   5
   0   3   3 68173.9 2162.65   7
   0   3   3 66029.3 2427.57   3
   0   3   4 32614.5 1426.00   7
   0   3   4 30522.0 1571.21   3
   0   3   4 32048.3 1542.95   5
   0   3   5 25245.9 1402.53   7
   0   3   5 23441.6 1386.70   5
   0   3   6 9945.79 909.186   5
   0   3   6 9640.97 938.489   7
   0   3   7 2018.01 468.521   7
   0   3   8 3401.10 673.264   7
   0   3   9 33555.6 2445.38   7
   0   3  10 1227.01 458.292   7
   0   3  11 3025.75 789.113   7
   0   3  12 688.979 389.383   7
   0   3  12 1702.84 603.638   3
   0   3  13 1010.36 498.473   7
   0  -4   8-136.160 183.930   7
   0  -4   7 2809.92 782.150   7
   0  -4   6 3256.41 779.838   7
   0  -4   5 6896.79 1064.44   7
   0  -4   4 6388.25 952.751   7
   0  -4   3 8277.32 481.310   4
   0  -4   3 13700.3 1259.09   7
   0  -4   2 1976.71 420.398   7
   0  -4   2 1716.57 260.946   4
   0  -4   1 1422.81 321.229   7
   0  -4   0 46469.0 1959.93   7
   0   4   1 13940.3 827.873   5
   0   4   1 11911.4 786.878   7
   0  -4  -1 13039.2 716.902   7
   0  -4  -2 5501.15 482.606   3
   0   4   2 6245.87 405.719   7
   0   4   2 6437.89 548.695   5
   0   4   3 107342. 3526.27   3
   0   4   3 110037. 3602.66   5
   0   4   4 1806.96 327.568   5
   0   4   4 2167.33 275.206   7
   0   4   4 2344.02 379.481   3
   0   4   5 32158.4 1512.59   7
   0   4   5 31256.6 1728.24   3
   0   4   5 33117.3 1698.72   5
   0   4   6 6095.86 685.793   7
   0   4   6 7912.47 867.114   3
   0   4   6 7560.51 804.558   5
   0   4   7 136.792 109.112   5
   0   4   7 362.297 224.521   3
   0   4   7 401.984 198.065   7
   0   4   8 22210.3 1771.68   3
   0   4   8 23739.5 1687.76   5
   0   4   8 21895.9 1701.86   7
   0   4   9 6541.22 995.848   3
   0   4   9 4335.90 788.147   7
   0   4  10-42.3354 100.962   7
   0   4  10 83.9816 178.264   3
   0   4  11 33.5205 86.4041   7
   0   4  11-209.068 204.092   3
   0   4  12 3738.12 905.527   3
   0   4  12 4015.39 924.516   7
   0   4  13-253.161 244.899   7
   0  -5   8 1499.91 628.637   7
   0  -5   7 2346.91 752.200   7
   0  -5   6 3324.23 837.604   7
   0  -5   5 6551.06 1076.24   7
   0  -5   4 7931.30 1099.44   7
   0  -5   3 121.307 134.998   7
   0  -5   2 10359.4 1074.95   7
   0  -5   1 1429.45 317.772   2
   0  -5   1 1855.98 391.750   7
   0   5   0 64587.9 2550.40   5
   0  -5   0 65599.0 2644.65   7
   0  -5   0 65746.4 2542.67   2
   0   5   1 581.245 170.654   5
   0  -5  -1 65.5129 32.2340   7
   0   5   2 2175.68 343.154   5
   0   5   2 1559.15 250.268   7
   0   5   3 47652.5 1986.94   5
   0   5   3 42130.8 1468.24   7
   0   5   4 45835.4 2017.52   3
   0   5   4 45555.5 2046.46   5
   0   5   5 8122.33 813.433   3
   0   5   5 8765.61 819.149   5
   0   5   5 8689.31 622.322   7
   0   5   6 26781.1 1640.49   5
   0   5   6 24488.3 1377.82   7
   0   5   6 27083.8 1699.73   3
   0   5   7 1479.43 344.240   7
   0   5   7 1843.94 478.662   3
   0   5   7 1661.59 397.804   5
   0   5   8 799.253 287.895   5
   0   5   8 977.629 341.456   3
   0   5   8 1229.54 351.000   7
   0   5   9-269.947 184.708   7
   0   5   9 54.3030 87.7730   3
   0   5   9 74.6754 159.259   5
   0   5  10-147.293 161.009   3
   0   5  10 151.314 208.238   7
   0   5  11-353.233 247.821   7
   0   5  11 134.251 135.797   3
   0   5  12 96.3261 141.966   7
   0   5  12 84.7749 149.004   3
   0  -6   7 670.755 479.043   7
   0  -6   6 952.823 478.911   7
   0  -6   5 13.9718 57.1810   7
   0  -6   4 360.871 230.742   7
   0  -6   3 38725.8 2561.04   7
   0  -6   2 2190.26 508.087   7
   0  -6   1 254.643 165.731   7
   0  -6   1 358.692 143.483   2
   0  -6   0 16384.6 1164.32   2
   0   6   0 16583.3 1184.90   5
   0  -6   0 17099.0 1229.09   7
   0  -6  -1 36867.8 1706.36   7
   0   6   1 40758.1 1906.08   5
   0  -6  -2 25977.6 1129.04   7
   0   6   2 30049.8 1528.68   5
   0   6   3 29987.4 1071.43   6
   0   6   3 26392.7 1211.03   7
   0   6   4 1607.82 347.684   5
   0   6   4 1264.41 166.414   7
   0   6   5 8.77415 18.4919   7
   0   6   5-23.5996 56.1630   5
   0   6   5 74.9739 60.4005   3
   0   6   6 3486.42 416.074   7
   0   6   6 4376.31 649.909   5
   0   6   6 3989.55 624.339   3
   0   6   7 978.046 256.977   7
   0   6   7 915.982 313.745   5
   0   6   7 1534.43 411.461   3
   0   6   8 2336.01 520.447   5
   0   6   8 1899.05 408.017   7
   0   6   8 2477.58 563.984   3
   0   6   9 2153.69 555.018   3
   0   6   9 1919.36 463.959   7
   0   6   9 1641.11 458.514   5
   0   6  10 1164.52 446.453   3
   0   6  10 1886.57 504.463   5
   0   6  10 1349.14 427.816   7
   0   6  11-31.9465 102.712   3
   0   6  12-14.1900 69.7880   3
   0  -7   6 410.871 314.224   7
   0  -7   5 1434.05 567.872   7
   0  -7   4 64.0606 79.2676   7
   0  -7   3 3533.00 760.763   7
   0  -7   2 3401.96 682.453   7
   0  -7   1 6469.93 806.325   2
   0  -7   1 6474.08 866.428   7
   0   7  -1 6560.51 805.790   5
   0  -7   0 11818.0 1078.37   2
   0   7   0 11724.0 1067.86   5
   0  -7   0 11792.3 1058.19   7
   0  -7  -1 30986.4 1734.79   2
   0   7   1 30928.0 1754.58   5
   0  -7  -1 27975.8 1536.72   7
   0  -7  -2 2758.18 344.620   7
   0   7   2 3237.47 489.707   5
   0   7   3 3284.92 318.205   6
   0   7   3 3985.51 570.298   5
   0   7   3 3140.99 396.329   7
   0   7   4 1647.47 369.854   5
   0   7   4 1114.39 182.395   7
   0   7   5 1877.12 205.671   7
   0   7   5 2282.81 446.052   5
   0   7   6 8147.03 877.390   3
   0   7   6 6865.34 509.977   7
   0   7   6 8464.61 931.076   5
   0   7   7 6395.99 596.532   7
   0   7   7 7552.18 924.183   5
   0   7   7 7030.46 889.278   3
   0   7   8 3720.41 692.971   3
   0   7   8 3101.81 606.308   5
   0   7   9-46.4267 57.0007   5
   0   7   9-27.8876 120.657   3
   0   7  10 517.148 217.174   5
   0   7  10 1214.93 450.184   3
   0   7  11 134.610 103.762   3
   0   7  11 6.62695 54.7018   5
   0   7  12 320.878 297.808   3
   0  -8   5 181.996 182.247   7
   0  -8   4 141.923 125.001   7
   0  -8   3 834.015 371.479   7
   0  -8   2 4406.38 811.489   7
   0   8  -1 28105.6 1904.85   5
   0  -8   1 27241.1 1934.35   2
   0  -8   1 27110.7 1932.27   7
   0   8   0 4277.30 696.219   5
   0  -8   0 6437.28 803.154   7
   0  -8   0 4725.84 734.829   2
   0  -8  -1 1495.49 370.713   2
   0   8   1 1507.67 381.982   5
   0  -8  -1 2034.37 389.508   7
   0  -8  -2 9861.38 751.958   7
   0   8   2 11010.5 1034.54   5
   0   8   3 7561.06 870.306   5
   0   8   4 396.478 188.803   5
   0   8   5 5406.25 742.118   5
   0   8   6 796.758 284.398   5
   0   8   7 4345.17 715.248   5
   0   8   8 5693.30 858.435   3
   0   8   8 6101.40 899.177   5
   0   8   9 2845.04 658.729   3
   0   8   9 2888.04 644.505   5
   0   8  10 273.038 205.302   3
   0   8  10-164.842 67.3935   5
   0   8  11 9.27761 126.797   3
   0   8  11 72.4855 64.1157   5
   0   8  12 24.1534 85.2696   3
   0   8  12-82.9000 131.591   5
   0  -9   4 76.8438 181.854   7
   0   9  -3 183.511 168.276   5
   0  -9   3 16.9738 104.424   7
   0  -9   2 587.243 313.362   7
   0   9  -2 870.426 342.576   5
   0  -9   1 75.9011 75.1622   2
   0  -9   1 44.2012 141.346   7
   0   9  -1 287.854 230.622   5
   0   9   0 3039.34 625.748   5
   0  -9   0 3407.35 610.432   7
   0  -9   0 3282.82 655.186   2
   0  -9  -1 1245.06 317.608   7
   0  -9  -1 1939.88 469.546   2
   0   9   1 1445.63 406.477   5
   0   9   2 216.932 72.0272   5
   0  -9  -2 522.339 249.935   2
   0   9   3 201.474 177.077   5
   0   9   4 6065.11 812.885   5
   0   9   5 1744.38 437.650   5
   0   9   6 272.376 196.591   5
   0   9   7 2182.71 534.393   5
   0   9   8 2508.20 592.994   5
   0   9   9 6472.45 976.260   3
   0   9   9 7267.78 1074.04   5
   0   9  10 347.858 290.404   5
   0   9  10 164.156 292.312   3
   0   9  11 438.223 302.014   5
   0   9  11 229.997 173.149   3
   0   9  12 550.491 324.486   5
   0   9  12 680.185 376.300   3
   0  10  -2 2512.94 632.452   5
   0  10  -1 1971.31 555.769   5
   0 -10   0 560.028 319.373   2
   0  10   0 17.3157 106.397   5
   0 -10  -1 7940.07 1045.94   2
   0  10   1 6855.11 971.698   5
   0 -10  -2 187.380 135.856   2
   0  10   2-90.4866 154.322   5
   0  10   3 82.7209 145.716   5
   0  10   4 267.179 147.986   5
   0  10   5 2978.77 615.885   5
   0  10   6 3197.58 643.579   5
   0  10   7 7139.53 1022.61   5
   0  10   8 385.448 192.016   5
   0  10   9 5611.59 950.653   5
   0  10  10 4759.89 901.034   5
   0  10  11 1806.23 598.878   5
   0  10  11 1067.20 463.058   3
   0  10  12 51.0683 201.113   3
   0 -11   0 4569.03 911.519   2
   0  11   0 4758.90 896.191   5
   0  11   1 2691.41 648.328   5
   0 -11  -1 2760.51 689.105   2
   0 -11  -2 73.6127 73.2853   2
   0  11   2-110.937 150.204   5
   0 -11  -3 987.312 362.319   2
   0  11   3 576.054 275.409   5
   0  11   4 519.557 273.016   5
   0  11   5 3294.55 689.675   5
   0  11   6 2341.68 591.680   5
   0  11   7 112.773 145.471   5
   0  11   8 4270.14 838.367   5
   0  11   9 248.767 216.631   5
   0  11  10 1037.57 468.591   5
   0  11  11 832.663 404.498   5
   0 -12  -1 302.233 242.006   2
   0  12   2 2739.56 682.548   5
   0 -12  -2 2909.76 732.283   2
   0 -12  -3 483.669 265.360   2
   0  12   3 1446.54 502.643   5
   0  12   4 119.229 161.481   5
   0  12   5 104.179 117.435   5
   0  12   6 31.4435 74.3186   5
   0  12   7 626.316 285.456   5
   0  12   8-21.5594 74.9899   5
   0  12   9 3551.05 817.441   5
   0 -13  -4 233.625 209.571   2
  -1  12   9-1.43390 59.7664   5
  -1  12   8 831.620 383.476   5
  -1  12   7 132.515 153.301   5
  -1  12   6-124.528 178.731   5
  -1  12   5 155.771 82.5899   5
  -1  12   4-82.7383 122.940   5
   1 -12  -3 62.5339 79.3059   2
  -1  12   3 55.9494 79.9285   5
  -1  12   2 602.179 349.648   5
   1 -12  -2-54.8543 118.769   2
  -1  11  10 561.011 327.389   5
  -1  11   9 436.133 313.401   5
  -1  11   8 1060.04 424.443   5
  -1  11   7-373.824 244.453   5
  -1  11   6 2976.66 661.458   5
  -1  11   5 9.52421 113.017   5
  -1  11   4 370.930 295.558   5
  -1  11   3 2037.87 528.596   5
   1 -11  -2 1635.06 512.631   2
  -1  11   2 1220.49 470.641   5
  -1  11   1 10310.1 1283.83   5
   1 -11  -1 11912.5 1451.04   2
  -1  11   0 242.740 199.705   5
   1 -11   0 52.6972 178.703   2
  -1  10  12 401.170 288.465   3
  -1  10  11 42.4417 99.4321   3
  -1  10  11-193.780 198.048   5
  -1  10  10 216.805 178.691   5
  -1  10  10 203.350 191.992   3
  -1  10   9 2345.76 632.151   5
  -1  10   8 4793.68 867.088   5
  -1  10   7 3470.76 698.821   5
  -1  10   6 3263.20 665.262   5
  -1  10   5 2068.79 546.596   5
  -1  10   4 661.187 288.743   5
  -1  10   3-4.03968 113.636   5
  -1  10   2 79.2788 81.1170   5
   1 -10  -2 42.0977 78.0720   2
  -1  10   1 131.352 115.315   5
   1 -10  -1-78.3539 175.609   2
   1 -10   0-75.3687 113.773   2
  -1  10   0 203.625 211.651   5
   1 -10   1 72.6596 84.9569   2
  -1  10  -1 142.833 136.047   5
  -1  10  -2 543.580 300.900   5
   1 -10   3 1301.11 501.237   7
  -1   9  12 34.3760 98.7053   3
  -1   9  12-105.482 148.870   5
  -1   9  11 46.9667 160.533   3
  -1   9  11 627.332 348.186   5
  -1   9  10 488.770 336.712   3
  -1   9  10 991.990 420.381   5
  -1   9   9 14607.7 1490.37   3
  -1   9   9 15343.1 1583.04   5
  -1   9   8 5658.34 930.598   5
  -1   9   8 6883.15 931.869   3
  -1   9   7 5732.59 873.356   5
  -1   9   6 256.943 153.264   5
  -1   9   5 6822.75 900.135   5
  -1   9   4 9609.48 1066.92   5
  -1   9   3 502.917 214.664   5
  -1   9   2 861.494 302.082   5
   1  -9  -1 6547.21 745.706   7
  -1   9   1 7936.58 983.762   5
   1  -9  -1 8285.09 1000.62   2
  -1   9   0 735.400 281.365   5
   1  -9   0 657.233 313.401   2
   1  -9   0 472.788 226.043   7
   1  -9   1 2577.65 613.455   2
  -1   9  -1 2629.20 581.327   5
   1  -9   1 2582.85 574.947   7
   1  -9   2 1702.40 512.759   7
  -1   9  -2 1396.51 451.626   5
  -1   9  -3 412.588 244.022   5
   1  -9   3 303.421 193.409   7
   1  -9   4 2105.88 680.533   7
  -1   9  -4 1510.51 499.294   5
  -1   8  12 125.363 171.449   3
  -1   8  12 404.563 274.671   5
  -1   8  11 139.497 111.659   5
  -1   8  11 1036.72 436.530   3
  -1   8  10 605.607 316.560   3
  -1   8  10 464.529 303.637   5
  -1   8   9 2951.55 651.581   5
  -1   8   9 2369.75 592.257   3
  -1   8   8 4784.67 800.326   3
  -1   8   8 4101.05 746.961   5
  -1   8   7 2946.39 551.048   3
  -1   8   7 2880.31 583.435   5
  -1   8   6-36.1905 164.746   5
  -1   8   5 4420.29 690.559   5
  -1   8   4 580.178 240.181   5
  -1   8   3 1735.28 286.627   6
  -1   8   3 2735.40 502.714   5
  -1   8   2 2792.30 523.158   5
   1  -8  -1-11.8400 33.5808   7
  -1   8   1 50.7356 99.4506   5
   1  -8  -1-44.0134 138.537   2
  -1   8   0-92.1141 139.004   5
   1  -8   0 18.3062 41.2678   7
   1  -8   0-41.5122 67.9828   2
   1  -8   1 1030.77 339.916   7
  -1   8  -1 868.827 307.406   5
   1  -8   1 1375.64 415.290   2
   1  -8   2 7388.82 1022.78   2
   1  -8   2 7078.41 1006.85   7
  -1   8  -2 7056.39 929.829   5
   1  -8   3 1824.26 545.505   7
   1  -8   4 1655.28 574.712   7
   1  -8   5-132.780 176.519   7
  -1   7  12-159.756 188.034   3
  -1   7  11 480.501 276.471   5
  -1   7  11 411.839 262.455   3
  -1   7  10 123.009 78.1239   5
  -1   7  10 86.9856 139.475   3
  -1   7   9 482.565 208.412   3
  -1   7   9 580.282 305.739   5
  -1   7   8 5427.28 848.135   3
  -1   7   8 5334.26 819.274   5
  -1   7   8 4592.61 650.239   7
  -1   7   7-97.4288 181.640   5
  -1   7   7-3.99761 73.9706   3
  -1   7   7 0.72333 51.9865   7
  -1   7   6 1860.97 434.943   5
  -1   7   6 1879.76 430.311   3
  -1   7   5 438.028 173.195   3
  -1   7   5 797.553 260.755   5
  -1   7   4 21566.1 1467.41   5
  -1   7   3 72.5265 54.5705   6
  -1   7   3 150.014 109.866   5
  -1   7   2 21065.9 1400.92   5
   1  -7  -1 11612.2 890.131   7
  -1   7   1 11110.8 992.646   5
   1  -7   0 3650.07 551.808   7
   1  -7   0 2910.43 515.970   2
  -1   7   0 4091.22 602.454   5
   1  -7   1 1839.23 429.605   7
  -1   7  -1 2155.79 444.692   5
   1  -7   1 1450.74 388.005   2
   1  -7   2 15378.0 1383.14   2
   1  -7   2 16548.3 1500.73   7
   1  -7   3 2205.32 569.760   7
   1  -7   4 90.6834 204.941   7
   1  -7   5 97.6192 146.043   7
   1  -7   6 441.496 323.200   7
  -1   6  12 512.916 334.476   3
  -1   6  11-55.6782 104.658   7
  -1   6  11 103.140 125.762   3
  -1   6  10 449.590 275.289   5
  -1   6  10 972.626 421.608   3
  -1   6  10 552.957 279.461   7
  -1   6   9-64.8545 102.309   3
  -1   6   9 84.6838 87.1602   5
  -1   6   9 47.2351 79.9937   7
  -1   6   8-9.61253 94.0310   5
  -1   6   8-146.009 122.774   7
  -1   6   8-108.096 181.049   3
  -1   6   7 15365.0 1194.68   7
  -1   6   7 17594.1 1421.03   5
  -1   6   7 15743.4 1391.53   3
  -1   6   6-60.6130 121.186   5
  -1   6   6 67.2103 81.7823   3
  -1   6   6-103.329 83.0832   7
  -1   6   5 4830.63 603.464   3
   1  -6  -5 4326.78 386.253   6
  -1   6   4 3180.26 485.517   5
  -1   6   4 2892.94 409.557   3
  -1   6   3 3132.79 466.148   5
  -1   6   3 2841.55 303.099   6
   1  -6  -2 1824.14 265.777   3
  -1   6   2 2340.94 402.390   5
  -1   6   2 1760.43 272.778   6
   1  -6  -1 3948.91 370.143   3
  -1   6   1 5755.74 626.611   5
   1  -6  -1 5201.70 528.429   7
   1  -6   0 277.764 147.833   2
   1  -6   0 89.7461 33.1843   7
  -1   6   0 173.997 111.538   5
  -1   6  -1 5063.31 635.735   5
   1  -6   1 3854.45 608.781   7
   1  -6   1 4553.24 632.700   2
   1  -6   2 16006.9 1297.99   2
   1  -6   2 15518.0 1388.67   7
   1  -6   3 41225.7 2609.42   7
   1  -6   4 8841.67 1217.90   7
   1  -6   5 11928.5 1533.25   7
   1  -6   6 75.3883 132.016   7
   1  -6   7-268.917 259.987   7
  -1   5  12-73.4711 135.065   3
  -1   5  12-202.675 212.481   7
  -1   5  11 1775.15 599.800   3
  -1   5  11 859.507 395.138   7
  -1   5  10 5680.91 970.272   7
  -1   5   9 4248.40 771.782   7
  -1   5   8 790.194 291.184   5
  -1   5   8 219.802 111.310   7
  -1   5   7 35.7387 66.4127   3
  -1   5   7 182.358 150.187   7
  -1   5   6 103.868 110.707   7
  -1   5   6 70.2118 84.1205   5
  -1   5   6 273.295 153.368   3
  -1   5   5 10536.3 925.893   3
  -1   5   5 10770.8 953.102   5
   1  -5  -4 22129.4 1011.47   6
  -1   5   4 27201.9 1398.02   3
  -1   5   4 25421.4 1439.42   5
  -1   5   3 4295.70 504.076   5
  -1   5   3 2924.93 330.269   7
  -1   5   3 3567.53 393.189   3
  -1   5   2 69133.2 2287.73   6
   1  -5  -2 63572.3 2257.85   3
  -1   5   2 72174.8 2635.10   5
   1  -5  -1 23906.2 1144.56   7
   1  -5  -1 20354.7 906.347   3
  -1   5   1 24172.0 1276.86   5
  -1   5   0 68169.9 2621.65   5
   1  -5   0 67674.6 2666.58   7
   1  -5   1 1717.55 375.504   7
   1  -5   2 3880.19 634.245   7
   1  -5   2 3953.46 569.502   2
   1  -5   3 20274.0 1681.49   7
   1  -5   4 1033.11 373.707   7
   1  -5   5 4492.93 871.482   7
   1  -5   6 1066.20 438.465   7
   1  -5   7 417.525 302.666   7
   1  -5   8-86.7915 163.474   7
  -1   4  13 2.60035 69.7577   7
  -1   4  12-200.608 219.250   7
  -1   4  11 547.746 335.446   7
  -1   4  10 1530.16 518.992   7
  -1   4   9 10831.8 1303.42   7
  -1   4   8 158.334 141.494   7
  -1   4   7 4663.28 696.982   7
  -1   4   7 4720.39 690.648   5
  -1   4   6 7987.66 840.654   7
  -1   4   6 8400.48 868.717   5
  -1   4   5 143786. 4821.07   5
  -1   4   5 139715. 4692.08   7
  -1   4   4 43443.6 1951.50   5
  -1   4   4 41101.1 1906.99   3
  -1   4   3 519.644 148.782   5
  -1   4   3 595.052 161.683   3
   1  -4  -3 520.249 118.597   6
  -1   4   2 2912.66 280.636   6
  -1   4   2 2547.76 297.740   7
  -1   4   2 3264.34 390.881   5
   1  -4  -1 2565.55 230.112   3
   1  -4  -1 2449.73 290.608   7
  -1   4   1 2784.06 354.963   5
   1  -4   0 90708.4 3157.76   7
  -1   4   0 93504.8 3098.63   5
   1  -4   1 19978.1 1271.57   7
   1  -4   2 3470.45 565.148   7
   1  -4   3 146.519 65.1494   4
   1  -4   3 199.192 131.729   7
   1  -4   4 3269.68 654.680   7
   1  -4   5 3221.44 700.737   7
   1  -4   6 1175.32 457.018   7
   1  -4   7 2243.68 679.267   7
   1  -4   8 524.824 395.063   7
  -1   3  12 193.571 307.272   7
  -1   3  11 212.067 194.358   7
  -1   3  10 9416.81 1370.13   7
  -1   3   9 1540.90 498.537   7
  -1   3   8 17823.7 1644.93   7
  -1   3   7 8532.43 1018.37   7
  -1   3   6 240.510 96.5960   5
  -1   3   6 96.6699 126.332   7
  -1   3   5 6297.93 705.631   7
  -1   3   5 7083.56 706.707   5
  -1   3   4-25.1856 42.2264   5
  -1   3   3 9985.60 723.199   5
  -1   3   2 69947.3 2416.80   5
  -1   3   2 72439.7 2283.67   3
   1  -3  -2 68128.9 2188.51   6
  -1   3   1 127555. 3929.23   7
  -1   3   1 134594. 3836.20   6
  -1   3   1 134442. 3965.31   5
  -1   3   0 21539.5 992.046   5
   1  -3   0 20480.2 1032.59   7
   1  -3   1 20070.0 1173.38   7
   1  -3   2 20895.7 1380.25   7
   1  -3   3 12164.2 626.618   1
   1  -3   3 12482.7 478.935   4
   1  -3   4 2585.00 546.337   7
   1  -3   4 2016.53 237.158   1
   1  -3   5 321.652 191.235   7
   1  -3   6 7812.62 1119.54   7
   1  -3   7-98.3610 247.982   7
   1  -3   8 750.556 391.237   7
   1  -3   9-58.2880 177.216   7
  -1   2  12 4.04934 193.560   7
  -1   2  11 408.487 355.254   7
  -1   2  10 1200.86 503.538   7
  -1   2   9 15402.5 1726.25   7
  -1   2   8 20640.8 1861.48   7
  -1   2   7 10741.4 1211.65   7
  -1   2   6 2164.90 477.386   7
  -1   2   5 38233.8 2033.41   7
  -1   2   4 27647.4 1426.29   5
  -1   2   4 27484.1 1514.64   7
  -1   2   3 30630.3 1394.94   5
  -1   2   2 111121. 3419.71   5
  -1   2   1 342704. 9153.28   5
  -1   2   1 334199. 9043.34   6
   1  -2  -1 329024. 9073.57   6
   1  -2   0 12575.2 659.132   7
  -1   2   0 13062.2 623.022   5
   1  -2   1 517.172 151.640   7
   1  -2   2 27.7037 48.9165   7
   1  -2   2 46.6497 26.1005   4
   1  -2   3 33588.1 1250.05   1
   1  -2   3 41675.7 2018.47   7
   1  -2   4 279.448 162.074   7
   1  -2   5 1702.24 448.267   7
   1  -2   6 2683.37 630.806   7
   1  -2   7 4324.53 858.917   7
   1  -2   8 14200.5 1694.79   7
   1  -2   9 625.887 339.845   7
   1  -2  10-242.875 250.495   7
  -1   1  11 509.896 364.462   7
  -1   1  10 2180.85 708.299   7
  -1   1   9 72.8957 206.578   7
  -1   1   8-122.375 126.250   7
  -1   1   7 4818.43 843.276   7
  -1   1   6 9585.57 1094.62   7
  -1   1   5 6659.05 815.082   7
  -1   1   4 26384.9 1553.18   7
  -1   1   3 32383.1 1582.60   7
  -1   1   2 61133.2 2067.51   5
  -1   1   1 265155. 7115.72   5
  -1   1   0 288909. 7572.16   5
   1  -1   1 16319.2 830.215   7
  -1   1  -1 16553.7 735.019   2
   1  -1   1 17203.7 601.671   4
   1  -1   2 88.9866 44.2039   1
   1  -1   2 60.3217 23.2564   4
   1  -1   2 3.21771 39.9304   7
   1  -1   3 39.4514 37.0953   1
   1  -1   3 156.214 115.491   7
   1  -1   4 39960.2 2104.79   7
   1  -1   5 4875.50 738.156   7
   1  -1   6 3176.48 642.262   7
   1  -1   7 3442.81 713.732   7
   1  -1   8 1539.32 545.165   7
   1  -1   9 480.615 300.848   7
   1  -1  10 630.986 385.518   7
   1  -1  11 615.268 336.731   7
  -1   0  11-191.660 233.420   7
  -1   0  10 962.069 483.352   7
  -1   0   9 1301.30 539.328   7
  -1   0   8 9688.08 1384.20   7
  -1   0   7 1483.61 471.826   7
   1   0  -6 17.4772 22.6361   4
  -1   0   6-10.9141 113.333   7
  -1   0   5 765.312 268.934   7
   1   0  -5 673.901 122.957   4
   1   0  -4 24192.7 939.473   4
  -1   0   4 25977.3 1625.28   7
  -1   0   3 34278.0 1778.33   7
   1   0  -3 36576.1 1217.36   4
   1   0  -2 23362.5 840.877   4
  -1   0   2 24440.0 1236.21   7
   1   0  -1 580661. 15024.2   4
  -1   0  -1 44.6169 27.5153   2
   1   0   2 72.9856 20.8841   4
  -1   0  -2 145.666 47.8081   4
  -1   0  -2 118.290 60.2725   1
   1   0   2 67.3033 52.4716   7
   1   0   2 90.4415 34.9471   1
   1   0   2 36.2798 37.4964   3
  -1   0  -3 41154.1 1388.03   4
  -1   0  -3 43294.0 1517.65   1
   1   0   3 43040.4 1864.82   7
   1   0   4 19863.4 1308.79   7
  -1   0  -4 18469.3 792.376   4
  -1   0  -4 20441.3 945.678   1
  -1   0  -5 5642.86 475.791   1
  -1   0  -5 5285.01 371.147   4
   1   0   5 6183.90 780.387   7
  -1   0  -6 18367.1 957.159   1
   1   0   6 19913.6 1588.76   7
  -1   0  -7 22.7184 56.1692   1
   1   0   7 387.014 251.878   7
   1   0   8 13432.6 1508.84   7
   1   0   9 1901.96 574.388   7
   1   0  10 487.685 279.895   7
   1   0  11 2056.30 703.695   7
  -1  -1  10 105.632 120.223   7
  -1  -1   9 77.3888 106.614   7
  -1  -1   8 1361.05 523.942   7
  -1  -1   7 585.280 327.701   7
   1   1  -6 3787.49 286.460   4
  -1  -1   6 5492.60 916.721   7
   1   1  -5 1166.09 159.345   4
  -1  -1   5 1906.47 495.031   7
  -1  -1   4 55042.2 2739.93   7
   1   1  -4 54237.7 1724.66   4
   1   1  -3 5.44976 18.9789   4
  -1  -1   3-78.1936 79.7520   7
   1   1  -2 2574.48 220.326   4
  -1  -1   2 2180.78 184.480   4
  -1  -1   2 2184.40 357.719   7
   1   1  -1 32029.8 1023.20   1
   1   1  -1 33221.9 1140.04   4
  -1  -1   1 35999.5 1460.71   7
   1   1   0 3323.39 270.480   4
  -1  -1  -1 102930. 2828.19   6
   1   1   2 481904. 12316.0   7
   1   1   2 464561. 12251.2   5
   1   1   2 457423. 12385.2   4
   1   1   2 454717. 12423.3   3
  -1  -1  -3 195766. 6105.82   7
  -1  -1  -3 194998. 5803.28   4
  -1  -1  -3 199437. 5856.30   5
   1   1   3 213286. 5976.61   7
   1   1   3 208119. 6015.35   3
   1   1   3 212450. 5809.56   5
  -1  -1  -4 515.368 144.272   4
   1   1   4 958.924 230.734   7
   1   1   5 260.252 139.796   7
  -1  -1  -5 495.076 144.514   4
   1   1   6 2236.19 483.090   7
  -1  -1  -7 6429.05 642.995   1
   1   1   7 6602.52 922.825   7
   1   1   8 10810.0 1296.88   7
  -1  -1  -8 11938.1 935.338   1
   1   1   9 282.095 193.497   7
   1   1  10-158.703 314.304   7
   1   1  11 359.044 350.428   3
   1   1  11 459.936 340.444   7
   1   1  12 5.02391 71.3005   7
   1   1  12 54.6243 129.611   3
  -1  -2  10-483.284 367.028   7
  -1  -2   9 327.220 285.126   7
  -1  -2   8 61.8604 89.4770   7
  -1  -2   7-6.62664 185.851   7
  -1  -2   6 11641.7 1429.22   7
  -1  -2   5 11747.4 1311.31   7
  -1  -2   4 9202.44 1047.94   7
   1   2  -4 7727.21 453.334   4
  -1  -2   3 2882.47 218.383   4
   1   2  -3 2610.63 263.747   4
  -1  -2   3 3718.21 588.034   7
  -1  -2   2 2821.08 245.486   4
   1   2  -2 2889.25 288.926   4
  -1  -2   2 3117.57 480.038   7
  -1  -2   1 42698.4 1544.66   4
   1   2  -1 45541.7 1616.69   4
  -1  -2   1 47186.0 1925.71   7
  -1  -2   0 49386.8 1594.18   2
  -1  -2   0 49187.5 1780.88   7
   1   2   0 48112.3 1767.68   4
   1   2   1 115502. 3589.22   4
   1   2   1 116691. 3339.27   5
   1   2   2 269138. 7340.42   5
  -1  -2  -2 270767. 7047.67   6
   1   2   2 271925. 7033.45   7
  -1  -2  -2 267171. 7094.13   7
   1   2   3 16484.3 970.831   3
  -1  -2  -3 16588.0 865.815   7
   1   2   3 17210.0 819.285   7
   1   2   3 17374.9 889.765   5
   1   2   4 166232. 4988.74   5
   1   2   4 155436. 5155.76   3
   1   2   4 166593. 5032.36   7
   1   2   5 1324.09 312.792   7
   1   2   5 1276.84 312.188   3
   1   2   5 2148.74 345.333   5
   1   2   6 6309.24 775.046   7
   1   2   7 6809.51 892.643   7
   1   2   8 2530.90 574.271   7
  -1  -2  -9 713.047 248.615   1
   1   2   9 726.195 335.783   7
   1   2  10-484.176 291.970   7
   1   2  10-155.567 152.677   3
   1   2  11 366.551 273.186   7
   1   2  11 864.891 435.809   3
   1   2  12 998.704 473.847   7
   1   2  12-405.903 304.530   3
  -1  -3   9 205.197 237.066   7
  -1  -3   8 1784.24 645.871   7
  -1  -3   7-394.391 291.744   7
  -1  -3   6-12.5894 102.023   7
  -1  -3   5 10467.4 1304.27   7
  -1  -3   4 7706.52 1038.97   7
  -1  -3   3 15777.2 685.530   4
  -1  -3   3 22160.5 1608.17   7
  -1  -3   2 364.488 101.114   4
  -1  -3   2 354.317 184.377   7
  -1  -3   2 368.042 65.6229   1
  -1  -3   1 9755.68 662.630   4
  -1  -3   1 11429.0 907.333   7
   1   3   0 29329.0 1458.38   7
  -1  -3   0 35754.6 1515.77   7
  -1  -3   0 35877.3 1336.62   2
  -1  -3   0 28187.3 1394.85   4
  -1  -3  -1 19276.3 850.813   7
   1   3   1 18876.9 912.580   5
   1   3   2 2940.48 318.316   5
   1   3   3 161335. 4974.05   3
  -1  -3  -3 164064. 4439.17   7
   1   3   3 163271. 4835.77   5
   1   3   3 161566. 4374.27   7
   1   3   4 6966.87 678.851   3
  -1  -3  -4 6818.50 547.158   7
   1   3   4 7565.80 544.162   7
   1   3   4 8607.56 680.214   5
   1   3   5 1724.71 364.407   3
   1   3   5 1825.70 322.565   7
   1   3   5 1769.28 335.055   5
   1   3   6 431.657 180.425   3
   1   3   6 568.648 204.977   7
   1   3   7 2881.29 539.887   3
   1   3   7 2725.83 521.477   7
   1   3   8 93.4039 62.9355   3
   1   3   8 29.0865 75.9594   7
   1   3   9 2003.23 542.895   3
   1   3   9 1909.11 507.623   7
   1   3  10 939.895 420.333   3
   1   3  10 1280.59 449.055   7
   1   3  11 2933.74 736.784   7
   1   3  11 3405.28 828.356   3
   1   3  12 1026.89 446.269   3
   1   3  12 655.069 391.062   7
   1   3  13 359.723 295.571   7
  -1  -4   8-507.637 360.955   7
  -1  -4   7 2541.63 753.620   7
  -1  -4   6 29189.7 2544.79   7
  -1  -4   5 3956.20 841.168   7
  -1  -4   4 287.463 258.236   7
  -1  -4   3 4111.62 735.606   7
  -1  -4   3 2905.03 287.250   4
  -1  -4   2 342.266 156.300   7
  -1  -4   1 367.937 163.048   7
  -1  -4   1 296.445 91.2804   2
  -1  -4   0 938.166 201.435   2
  -1  -4   0 1232.42 272.181   7
   1   4   1 13.9350 27.7814   7
   1   4   1-28.6281 62.1188   5
  -1  -4  -1-8.74391 23.7544   7
  -1  -4  -2 39770.8 1261.33   7
   1   4   2 41447.8 1674.08   5
   1   4   3 20871.7 1118.72   5
   1   4   4 108328. 3648.94   3
   1   4   4 107051. 3533.73   5
   1   4   4 97947.9 2926.47   7
   1   4   5 2855.24 472.048   3
   1   4   5 2580.61 407.891   5
   1   4   5 2493.26 323.108   7
   1   4   6 34109.7 1734.49   7
   1   4   6 38063.3 2081.90   3
   1   4   6 39483.3 1967.85   5
   1   4   7 398.858 184.551   5
   1   4   7 305.783 200.185   3
   1   4   7 156.079 92.1659   7
   1   4   8 10345.8 1075.74   7
   1   4   8 11300.4 1094.60   5
   1   4   8 11969.2 1255.89   3
   1   4   9 1592.19 473.427   3
   1   4   9 953.411 349.960   7
   1   4  10 1372.36 456.020   7
   1   4  10 2448.89 630.333   3
   1   4  11 2066.25 589.054   7
   1   4  11 3304.82 784.745   3
   1   4  12 2.11728 184.289   3
   1   4  12-230.685 215.697   7
   1   4  13 318.995 262.962   7
  -1  -5   7 1306.87 580.899   7
  -1  -5   6-308.473 263.445   7
  -1  -5   5 306.649 314.910   7
  -1  -5   4-91.5682 58.3719   7
  -1  -5   3 818.906 340.112   7
  -1  -5   2 22366.4 1705.17   7
  -1  -5   1 9996.13 994.103   7
  -1  -5   1 9193.27 813.935   2
  -1  -5   0 359.417 138.373   2
  -1  -5   0 307.523 144.534   7
  -1  -5  -1 43.5682 43.3362   7
   1   5   1 231.392 133.827   5
   1   5   2 216.370 102.575   5
   1   5   2 237.907 86.4776   7
  -1  -5  -2 128.693 60.5252   7
   1   5   3 4685.36 514.090   5
   1   5   4 1187.96 269.434   5
   1   5   5 4851.71 591.464   5
   1   5   5 4989.43 348.883   7
   1   5   5 5754.30 663.740   3
   1   5   6 229.931 153.366   5
   1   5   6 159.774 110.356   3
   1   5   6 173.688 100.546   7
   1   5   7 906.620 302.462   3
   1   5   7 799.468 276.621   5
   1   5   7 662.310 209.192   7
   1   5   8 29694.4 1819.95   7
   1   5   8 32555.7 2012.58   5
   1   5   8 34887.0 2245.23   3
   1   5   9 2397.49 515.523   7
   1   5   9 1567.14 484.814   3
   1   5   9 2245.07 513.594   5
   1   5  10 158.577 94.7289   3
   1   5  10-21.0210 130.090   7
   1   5  11-48.0020 178.451   3
   1   5  11-21.5691 163.687   7
   1   5  12 115.408 151.403   3
  -1  -6   7 117.575 227.314   7
  -1  -6   6 8802.31 1443.23   7
  -1  -6   5 4103.39 917.178   7
  -1  -6   4 373.223 189.314   7
  -1  -6   3 1383.30 438.690   7
  -1  -6   2 82.6687 101.137   7
  -1  -6   1 3854.80 637.125   7
  -1  -6   1 2796.75 482.746   2
  -1  -6   0 6016.36 709.348   7
  -1  -6   0 5964.36 659.342   2
   1   6   1 19964.3 1267.88   5
  -1  -6  -1 18798.5 1165.97   7
  -1  -6  -1 19899.2 1197.84   2
   1   6   2 90009.2 3143.54   5
  -1  -6  -2 85221.8 2630.77   7
   1   6   3 19287.1 1230.43   5
   1   6   4 312.007 159.167   5
   1   6   5 19207.7 1291.10   5
   1   6   6 17481.5 797.205   7
   1   6   6 19152.6 1366.26   5
   1   6   6 19591.9 1405.24   3
   1   6   7 10461.4 759.147   7
   1   6   7 12447.4 1185.58   3
   1   6   7 12946.9 1163.09   5
   1   6   8 589.586 199.998   7
   1   6   8 514.224 255.853   3
   1   6   8 788.670 240.914   5
   1   6   9 635.289 301.478   3
   1   6   9 1013.08 359.177   5
   1   6   9 584.302 228.397   7
   1   6  10 333.531 245.348   3
   1   6  10 749.198 302.899   5
   1   6  11 75.8429 173.522   3
   1   6  12-298.972 251.331   3
  -1  -7   6 453.928 406.032   7
  -1  -7   5 329.232 272.884   7
  -1  -7   4 82.1238 105.065   7
  -1  -7   3 425.049 233.302   7
  -1  -7   2 28837.1 2141.04   7
  -1  -7   1 37952.9 2167.72   2
  -1  -7   1 43185.0 2459.29   7
  -1  -7   0 81140.0 3419.04   7
  -1  -7   0 76056.3 3265.34   2
   1   7   0 82900.5 3387.33   5
  -1  -7  -1 21358.9 1375.60   7
  -1  -7  -1 26731.6 1540.10   2
   1   7   1 25411.2 1568.74   5
  -1  -7  -2-58.0824 51.6511   7
   1   7   2 6.82641 93.2793   5
   1   7   3 26007.2 1576.27   5
   1   7   4 9201.01 889.689   5
   1   7   5 590.473 215.234   5
   1   7   6 209.322 34.5959   5
   1   7   7 7567.75 914.952   5
   1   7   7 8440.08 982.073   3
   1   7   8 3522.54 640.814   5
   1   7   8 3333.73 642.260   3
   1   7   9 712.945 322.506   5
   1   7   9 899.359 368.727   3
   1   7  10 144.075 98.3630   5
   1   7  10 233.337 227.062   3
   1   7  11 828.243 363.923   3
   1   7  11 1697.14 520.469   5
   1   7  12-258.112 236.215   3
   1   7  13 470.301 311.458   3
  -1  -8   5-101.095 166.936   7
  -1  -8   4 120.092 226.723   7
  -1  -8   3 52.5047 103.865   7
  -1  -8   2 3090.33 693.729   7
   1   8  -1 15433.1 1372.20   5
  -1  -8   1 12847.3 1355.37   7
   1   8   0 8901.12 993.177   5
  -1  -8   0 7482.23 912.611   7
  -1  -8   0 7567.68 898.954   2
  -1  -8  -1 1846.30 410.371   2
   1   8   1 1501.70 395.309   5
  -1  -8  -1 1233.52 311.773   7
  -1  -8  -2 21990.6 1245.47   7
   1   8   2 25604.6 1660.83   5
  -1  -8  -2 26494.2 1603.75   2
   1   8   3 2775.40 515.691   5
   1   8   4 1897.74 435.010   5
   1   8   5 1242.70 347.028   5
   1   8   6 104.710 48.6186   5
   1   8   7 8130.84 975.527   5
   1   8   8 603.999 238.457   5
   1   8   9 4624.40 785.375   5
   1   8   9 4528.12 813.855   3
   1   8  10 3271.37 710.316   5
   1   8  10 3067.62 710.617   3
   1   8  11 273.366 196.722   5
   1   8  11 173.599 230.794   3
   1   8  12-125.925 231.067   5
   1   8  12 113.300 130.746   3
   1   8  13 187.170 180.153   3
  -1  -9   4 576.631 362.990   7
  -1  -9   3-32.8290 87.9282   7
  -1  -9   2-360.723 250.042   7
   1   9  -2 64.1735 112.762   5
   1   9  -1 5822.13 885.681   5
  -1  -9   1 3962.65 752.647   7
   1   9   0 8634.01 1053.25   5
  -1  -9   0 8878.40 1027.69   7
  -1  -9   0 8631.52 1050.87   2
   1   9   1 7475.27 940.070   5
  -1  -9  -1 7942.63 967.658   2
   1   9   2 178.534 140.914   5
  -1  -9  -2 313.124 192.737   2
   1   9   3 1500.62 405.433   5
   1   9   4 2602.19 534.960   5
   1   9   5 376.891 234.345   5
   1   9   6-34.0463 41.0551   5
   1   9   7 6774.06 934.981   5
   1   9   8 5022.81 826.677   5
   1   9   9 136.383 103.759   5
   1   9  10 1051.65 411.159   5
   1   9  10 829.233 397.508   3
   1   9  11 472.477 337.390   5
   1   9  11 218.618 206.901   3
   1   9  12-292.648 234.338   5
   1   9  12 14.7865 57.8695   3
   1  10  -2 602.194 333.897   5
   1  10  -1 160.858 179.401   5
   1  10   0 384.714 259.368   5
  -1 -10   0 716.940 288.668   2
  -1 -10  -1 1164.43 390.337   2
   1  10   1 727.597 296.645   5
  -1 -10  -2-17.8842 92.0510   2
   1  10   2 16.0984 87.9140   5
  -1 -10  -3 258.885 181.231   2
   1  10   3 533.004 291.346   5
   1  10   4 132.097 152.696   5
   1  10   5 148.270 175.583   5
   1  10   6 598.926 281.651   5
   1  10   7 194.983 112.237   5
   1  10   8 8864.06 1159.73   5
   1  10   9 7524.27 1100.51   5
   1  10  10 7270.66 1121.53   5
   1  10  11-155.250 175.576   5
   1  10  12 1186.58 482.836   5
   1  11   0 399.507 250.360   5
   1  11   1 2396.06 633.213   5
  -1 -11  -1 1682.53 511.166   2
  -1 -11  -2 244.349 161.279   2
   1  11   2 134.759 104.889   5
  -1 -11  -3 935.906 330.852   2
   1  11   3 538.180 278.660   5
   1  11   4-55.6457 120.701   5
   1  11   5 1546.08 478.992   5
   1  11   6-68.5851 87.9815   5
   1  11   7 1158.95 409.290   5
   1  11   8 1806.68 554.900   5
   1  11   9 1901.48 579.450   5
   1  11  10 4591.19 909.456   5
   1  11  11 1187.08 498.377   5
  -1 -12  -1 527.636 326.391   2
   1  12   2 3350.29 768.811   5
  -1 -12  -2 4056.50 834.383   2
   1  12   3 129.529 85.4267   5
  -1 -12  -3 334.285 228.860   2
   1  12   4 143.769 163.997   5
  -1 -12  -4 341.929 195.459   2
   1  12   5 163.888 175.806   5
   1  12   6 262.933 236.382   5
   1  12   7 530.146 234.862   5
   1  12   8 1161.08 452.773   5
   1  12   9-67.9520 167.102   5
   1  12  10 48.9294 182.490   5
  -1 -13  -3 1028.42 445.614   2
  -1 -13  -4 275.392 209.653   2
  -1 -13  -5 1133.58 447.614   2
  -2  12   8 408.327 278.690   5
  -2  12   7-132.239 198.898   5
  -2  12   6-325.663 239.153   5
  -2  12   5 774.667 289.383   5
  -2  12   4-5.97744 125.887   5
   2 -12  -3 1432.64 496.196   2
  -2  12   3 1093.16 439.352   5
  -2  12   2 516.883 341.551   5
   2 -12  -2 545.715 280.543   2
  -2  11  10 360.232 269.990   5
  -2  11   9 1374.47 508.096   5
  -2  11   8-87.5030 221.494   5
  -2  11   7-90.5928 206.447   5
  -2  11   6-183.937 172.741   5
  -2  11   5 108.867 94.9965   5
  -2  11   4 716.233 321.516   5
  -2  11   3 341.581 244.360   5
  -2  11   2 1047.54 399.457   5
   2 -11  -2 1234.10 423.719   2
   2 -11  -1 349.113 238.113   2
  -2  11   1 205.317 207.024   5
   2 -11   0-46.9904 217.704   2
  -2  11   0-520.138 290.426   5
  -2  11  -1 48.4765 104.991   5
  -2  10  12-58.3811 116.718   3
  -2  10  11 325.161 257.335   5
  -2  10  10-86.5214 125.902   5
  -2  10   9 44.1758 120.330   5
  -2  10   8 277.493 244.444   5
  -2  10   7 40.3545 48.8152   5
  -2  10   6 698.903 276.043   5
  -2  10   5-64.8966 158.471   5
  -2  10   4 3164.86 649.673   5
  -2  10   3 1047.57 367.698   5
  -2  10   2 216.888 173.603   5
   2 -10  -2 842.600 316.686   2
  -2  10   1 316.159 232.927   5
   2 -10  -1 343.177 223.249   2
   2 -10   0 1781.14 525.172   2
  -2  10   0 1520.29 447.890   5
   2 -10   1 115.244 140.505   7
   2 -10   1 327.399 242.118   2
  -2  10  -1 126.125 119.825   5
   2 -10   2 2042.84 562.731   7
  -2  10  -2 2130.64 591.989   5
   2 -10   3 1770.58 564.303   7
  -2   9  12 353.997 284.459   3
  -2   9  11 44.7414 45.1768   5
  -2   9  11-150.638 172.956   3
  -2   9  10 6.71336 72.5910   3
  -2   9  10-256.460 216.921   5
  -2   9   9 322.312 196.857   5
  -2   9   9 605.073 290.005   3
  -2   9   8-10.5867 176.745   5
  -2   9   8 163.243 208.877   3
  -2   9   7-73.7299 71.4659   5
  -2   9   7-9.69972 80.4131   3
  -2   9   6 2558.79 565.347   5
  -2   9   5 8310.35 1015.90   5
  -2   9   4 2438.43 529.551   5
  -2   9   3 1815.15 447.656   5
  -2   9   2 3793.99 653.464   5
  -2   9   2 2901.55 482.742   6
  -2   9   1 682.934 270.872   5
   2  -9  -1 504.098 221.893   2
   2  -9   0 359.437 221.572   2
   2  -9   0 296.114 155.956   7
  -2   9   0 507.767 274.153   5
   2  -9   1 2218.06 559.226   2
   2  -9   1 1944.46 490.032   7
  -2   9  -1 3372.82 649.564   5
   2  -9   2-45.1272 98.8809   2
  -2   9  -2 130.323 129.582   5
   2  -9   2 98.0430 124.755   7
   2  -9   3 1275.05 465.152   7
  -2   9  -3 1409.19 459.871   5
   2  -9   4 177.749 207.274   7
  -2   9  -4 4705.83 904.317   5
  -2   8  12-283.776 251.539   3
  -2   8  11 102.014 159.493   5
  -2   8  11-393.971 279.124   3
  -2   8  10 1030.36 434.470   3
  -2   8  10 759.426 355.817   5
  -2   8   9 431.123 258.999   5
  -2   8   9 736.889 283.001   3
  -2   8   8 28.6853 96.2725   5
  -2   8   8 32.8543 109.832   3
  -2   8   7 13531.0 1261.32   3
  -2   8   7 13576.9 1354.81   5
  -2   8   6 12292.0 1238.51   5
  -2   8   6 11135.1 1026.03   3
  -2   8   5 28173.5 1890.31   5
  -2   8   4 8081.72 936.672   5
  -2   8   3 17.2504 75.0493   6
  -2   8   3 0.23896 55.6654   5
  -2   8   2 261.510 183.781   5
  -2   8   2 42.0502 68.4056   6
  -2   8   1 140.950 99.3131   5
   2  -8   0 918.685 294.778   7
  -2   8   0 449.237 197.839   5
   2  -8   0 677.493 276.468   2
   2  -8   1 882.812 309.122   7
  -2   8  -1 1187.58 363.157   5
   2  -8   1 702.905 292.461   2
  -2   8  -2 108.358 116.430   5
   2  -8   2-53.3275 167.526   2
   2  -8   2-68.0227 180.749   7
   2  -8   3 311.439 208.254   7
  -2   8  -3-35.8700 155.630   5
   2  -8   4-24.7487 79.4522   7
   2  -8   5-418.212 301.062   7
  -2   7  12 519.964 396.421   3
  -2   7  11 69.7633 124.851   3
  -2   7  10 7977.22 1141.39   5
  -2   7  10 6368.68 1078.67   3
  -2   7   9-204.246 108.594   5
  -2   7   9-60.6107 113.497   3
  -2   7   9-199.688 162.284   7
  -2   7   8 2894.35 624.684   3
  -2   7   8 4346.75 763.307   5
  -2   7   8 3968.24 663.672   7
  -2   7   7 20196.3 1613.90   5
  -2   7   7 19086.1 1540.46   3
  -2   7   6 714.423 277.348   3
  -2   7   6 857.739 298.675   5
  -2   7   5 9707.10 996.845   5
  -2   7   5 8237.50 802.769   3
  -2   7   4 207.311 159.105   5
  -2   7   3 2379.55 445.770   5
  -2   7   3 2009.74 323.046   6
  -2   7   2 4686.47 542.465   6
  -2   7   2 4974.15 648.471   5
  -2   7   1 394.808 165.789   5
   2  -7   0 270.383 169.193   2
   2  -7   0 192.290 123.524   7
  -2   7   0 153.477 135.638   5
  -2   7  -1 4226.89 626.811   5
   2  -7   1 3277.50 582.396   2
   2  -7   1 3307.57 588.518   7
  -2   7  -2 59.2717 112.989   5
   2  -7   2-16.6444 111.805   7
   2  -7   2 145.062 145.888   2
   2  -7   3 2895.80 656.958   7
   2  -7   4 161.217 126.168   7
   2  -7   5 2221.91 659.020   7
   2  -7   6-96.2399 153.439   7
  -2   6  12-149.462 186.033   3
  -2   6  11 635.102 391.890   7
  -2   6  11 915.472 427.079   3
  -2   6  10 1411.02 482.535   7
  -2   6   9 5284.48 863.511   5
  -2   6   9 2886.61 636.885   7
  -2   6   8 5950.61 872.910   5
  -2   6   8 5842.34 849.666   7
  -2   6   7-240.254 165.701   5
  -2   6   7 23.8336 100.517   7
  -2   6   7-38.1347 124.795   3
  -2   6   6 798.872 287.978   5
  -2   6   6 746.940 255.426   3
  -2   6   5 14418.7 1184.05   5
  -2   6   5 13592.0 1076.89   3
  -2   6   4 9530.32 894.678   5
  -2   6   4 8485.62 732.217   3
  -2   6   3 6691.17 717.609   5
  -2   6   2 5019.67 598.064   5
  -2   6   2 3961.16 461.480   6
  -2   6   1 15277.7 1091.18   5
   2  -6   0 13216.1 1017.14   7
  -2   6   0 13781.3 1037.20   5
   2  -6   0 12863.3 1057.25   2
   2  -6   1 4884.12 674.954   7
   2  -6   1 4211.01 616.429   2
  -2   6  -1 4297.49 575.850   5
   2  -6   2 8670.46 947.904   2
   2  -6   2 8631.32 1003.45   7
   2  -6   3 9406.81 1134.69   7
   2  -6   4 248.396 209.196   7
   2  -6   5 1793.06 553.927   7
   2  -6   6 534.688 340.030   7
   2  -6   7 68.0624 138.246   7
  -2   5  12 72.9315 171.150   7
  -2   5  11 393.517 339.413   7
  -2   5  10 5259.23 973.104   7
  -2   5   9 1503.12 481.759   7
  -2   5   8 81.0873 81.5644   7
  -2   5   8-2.60776 112.926   5
  -2   5   7 1475.95 387.505   5
  -2   5   7 1586.12 414.938   7
  -2   5   6 1277.51 347.855   5
  -2   5   5 12081.2 1047.07   5
  -2   5   4 18598.7 1244.77   5
  -2   5   4 17367.7 1113.43   3
  -2   5   3 6893.96 676.495   5
  -2   5   3 6356.15 535.677   3
  -2   5   2 30830.2 1393.07   6
  -2   5   2 30355.6 1536.89   5
  -2   5   1 15.7680 69.8871   5
  -2   5   1 129.073 78.9380   6
   2  -5   0 2314.69 385.667   7
  -2   5   0 2903.97 404.666   5
  -2   5  -1 10493.4 838.405   5
   2  -5   1 8412.70 840.912   7
   2  -5   2 21483.0 1546.69   7
   2  -5   2 20228.9 1404.48   2
   2  -5   3 159.050 71.9016   4
   2  -5   3 239.972 183.164   7
   2  -5   4 14193.1 1468.44   7
   2  -5   5 3793.31 802.701   7
   2  -5   6 11176.5 1475.66   7
   2  -5   7 185.154 281.195   7
   2  -5   8 39.2724 118.157   7
  -2   4  12 2190.47 747.076   7
  -2   4  11-114.586 161.871   7
  -2   4  10-31.5438 86.8413   7
  -2   4   9 4472.98 857.092   7
  -2   4   8 374.069 208.195   7
  -2   4   7 1695.68 458.063   7
  -2   4   7 3064.61 556.462   5
  -2   4   6 14288.5 1241.82   7
  -2   4   6 13976.4 1173.61   5
  -2   4   5 759.599 245.016   5
  -2   4   4 343.929 149.754   5
  -2   4   3 40176.6 1815.94   5
  -2   4   2 5500.94 534.671   5
  -2   4   2 5454.10 404.261   3
  -2   4   1 433086. 11714.4   5
  -2   4   1 420643. 11694.4   6
  -2   4   0 131342. 4204.20   5
   2  -4   0 137495. 4310.87   7
   2  -4   1 4724.31 570.306   7
  -2   4  -1 4190.09 463.747   5
   2  -4   2 345.774 126.955   7
   2  -4   3 27281.7 1076.02   4
   2  -4   3 33008.4 1982.24   7
   2  -4   4 16952.2 1523.92   7
   2  -4   5 18372.8 1723.41   7
   2  -4   6 387.495 285.243   7
   2  -4   7 739.940 410.901   7
   2  -4   8 4808.39 1057.53   7
  -2   3  12 320.675 294.442   7
  -2   3  11 507.088 266.765   7
  -2   3  10 3024.44 803.177   7
  -2   3   9 13771.2 1606.36   7
  -2   3   8 69.2741 145.929   7
  -2   3   7 1818.25 488.506   7
  -2   3   6 2719.77 544.978   7
  -2   3   5 7368.60 767.774   5
  -2   3   4 102749. 3647.35   5
  -2   3   3 85.8767 64.8506   5
  -2   3   2 11457.4 750.925   5
  -2   3   1 22849.9 1071.81   5
  -2   3   1 22946.2 1087.48   6
  -2   3   0 3857.39 371.382   5
   2  -3   1 68848.0 2568.84   7
   2  -3   1 66281.4 1962.58   3
   2  -3   2 12138.1 622.914   4
   2  -3   2 11853.7 983.892   7
   2  -3   3 16742.1 1282.93   7
   2  -3   3 13989.8 653.349   4
   2  -3   4 65.4934 31.2269   4
   2  -3   4 169.618 188.291   7
   2  -3   5 5624.70 886.933   7
   2  -3   6 21972.2 1956.73   7
   2  -3   7 12187.2 1525.61   7
   2  -3   8 6031.36 1137.75   7
   2  -3   9 157.336 133.061   7
  -2   2  11 10.2729 69.5410   7
  -2   2  10 5801.99 1151.90   7
  -2   2   9 2295.41 672.852   7
  -2   2   8 10909.3 1374.44   7
   2  -2  -8 10638.5 796.651   4
  -2   2   7 4134.88 778.352   7
  -2   2   6 499.194 240.512   7
  -2   2   5 328.552 182.939   7
  -2   2   4 65451.1 2570.18   5
  -2   2   3 107760. 3587.03   5
  -2   2   2 45382.0 1740.91   5
   2  -2  -1 943986. 25278.0   5
  -2   2   1 999999. 25295.2   5
   2  -2   0 43238.5 1532.79   5
  -2   2   0 47418.8 1552.17   5
  -2   2   0 46734.0 1738.03   6
   2  -2   1 6715.15 566.548   7
   2  -2   1 5933.40 405.789   4
   2  -2   2 9152.20 769.741   7
   2  -2   2 8550.26 481.463   4
   2  -2   2 9108.89 571.227   3
   2  -2   3 17479.4 1216.91   7
   2  -2   3 14428.1 671.141   4
   2  -2   4 1637.02 409.340   7
   2  -2   4 1174.76 156.034   4
   2  -2   5 2416.53 549.473   7
   2  -2   6 607.838 316.030   7
   2  -2   7 9104.27 1268.57   7
   2  -2   8 11316.8 1494.57   7
   2  -2   9 2246.59 697.391   7
   2  -2  10 72.7254 122.844   3
   2  -2  10-304.297 275.630   7
   2  -2  11 612.308 335.888   3
  -2   1  11-34.3442 110.778   7
  -2   1  10 752.743 447.618   7
  -2   1   9 676.819 390.008   7
  -2   1   8 6552.13 1101.90   7
   2  -1  -7 438.879 142.069   4
  -2   1   7 104.975 83.5176   7
  -2   1   6 8702.83 1075.97   7
   2  -1  -6 7396.12 579.832   4
   2  -1  -5 8121.45 590.635   4
  -2   1   5 9356.49 1028.24   7
  -2   1   4 21637.9 1477.62   7
   2  -1  -4 21986.6 1023.02   4
   2  -1  -3 32784.1 1305.24   4
  -2   1   2 3172.53 346.620   5
   2  -1  -2 3113.36 304.155   4
   2  -1  -1 601.138 126.469   5
  -2   1   1 842.901 144.227   5
   2  -1  -1 785.412 142.934   4
   2  -1   0 106716. 3056.13   5
  -2   1   0 112378. 3068.02   5
   2  -1   0 115999. 3241.73   4
  -2   1   0 108449. 3351.97   6
  -2   1  -1 136400. 3989.63   3
   2  -1   1 150104. 4238.28   7
   2  -1   1 144098. 4013.10   4
  -2   1  -1 139517. 4034.89   4
   2  -1   2 74265.6 2380.18   3
   2  -1   2 73869.1 2253.25   4
  -2   1  -2 69411.1 2207.49   4
   2  -1   2 72045.9 2628.26   7
   2  -1   3 14043.8 875.845   3
   2  -1   3 13438.5 992.686   7
  -2   1  -3 12392.0 602.603   4
   2  -1   3 13638.5 669.354   4
   2  -1   4 919.107 243.368   3
   2  -1   4 1084.41 300.593   7
   2  -1   4 914.036 155.443   4
  -2   1  -4 794.307 122.585   4
  -2   1  -5 2418.73 198.819   4
   2  -1   5 3584.58 624.115   7
   2  -1   6 5740.64 872.851   7
   2  -1   7-121.272 161.154   7
   2  -1   8 13423.6 1568.06   7
   2  -1   9 2724.98 751.709   7
   2  -1   9 3425.17 757.667   3
   2  -1  10-62.9622 138.701   3
   2  -1  10-17.0057 160.335   7
   2  -1  11 443.364 264.945   3
   2  -1  11 513.425 424.070   7
  -2   0  10 1609.85 646.264   7
  -2   0   9-83.0669 279.742   7
  -2   0   8 2810.91 760.071   7
   2   0  -7 777.885 181.624   4
  -2   0   7 810.792 394.984   7
   2   0  -6 47.6770 44.1554   4
  -2   0   6-71.8726 107.103   7
  -2   0   5 11282.5 1189.53   7
   2   0  -5 11417.9 686.069   4
   2   0  -4 15701.0 803.571   4
  -2   0   4 15728.4 1294.18   7
  -2   0   3 52506.5 2394.98   7
   2   0  -3 49079.5 1736.13   4
   2   0  -2 46174.5 1607.42   4
   2   0  -1 151462. 4313.72   4
   2   0   0 36561.1 1311.35   4
   2   0   0 35692.1 1121.89   5
   2   0   1 61661.5 1821.33   2
   2   0   1 65721.9 2050.79   4
  -2   0  -1 63150.4 2083.67   6
   2   0   1 60211.7 2046.44   1
   2   0   2 193996. 5407.81   4
   2   0   2 195329. 5574.38   7
  -2   0  -2 191671. 5332.12   2
   2   0   2 193000. 5479.79   3
  -2   0  -2 187111. 5378.90   4
   2   0   3 918.827 177.083   4
   2   0   3 1024.74 213.673   3
  -2   0  -3 1091.32 197.009   1
  -2   0  -3 1094.79 179.060   4
   2   0   3 1071.04 239.618   7
  -2   0  -4 63030.8 2166.41   1
   2   0   4 57718.1 2069.99   4
  -2   0  -4 53817.8 1954.81   4
   2   0   4 61344.9 2568.92   7
   2   0   4 59773.9 2408.81   3
   2   0   5 3540.59 522.000   3
   2   0   5 3827.20 600.018   7
  -2   0  -5 3171.72 382.163   1
  -2   0  -5 2612.08 285.752   4
   2   0   6 3942.28 674.975   7
  -2   0  -6 2424.71 266.026   4
  -2   0  -6 3409.36 422.513   1
   2   0   6 3968.20 608.533   3
   2   0   7 12680.6 1342.21   7
   2   0   7 12909.3 1262.10   3
  -2   0  -7 13489.3 906.928   1
   2   0   8-30.4240 150.009   7
   2   0   8 4.18228 86.9819   3
  -2   0  -8 46.4877 64.9256   1
   2   0   9 5878.08 1050.35   7
   2   0   9 5491.16 927.543   3
   2   0  10 81.4066 118.815   3
   2   0  10 274.884 240.943   7
   2   0  11 686.402 372.527   3
   2   0  11 1294.25 545.397   7
  -2  -1  10 4.90397 59.7713   7
  -2  -1   9 523.357 361.373   7
  -2  -1   8 213.484 146.972   7
  -2  -1   7 9221.25 1334.84   7
  -2  -1   6 2060.63 586.255   7
   2   1  -6 1862.61 269.278   4
   2   1  -5 1293.00 215.982   4
   2   1  -5 1075.20 121.422   1
  -2  -1   5 1336.51 426.323   7
   2   1  -4 32813.7 1360.66   4
  -2  -1   4 34422.2 2125.87   7
   2   1  -3 2792.29 308.338   4
  -2  -1   3 3040.72 521.933   7
  -2  -1   2 7708.94 757.855   7
   2   1  -2 7252.81 507.173   4
   2   1  -2 6396.68 387.889   1
  -2  -1   2 6173.78 440.183   4
   2   1  -1 45498.0 1557.78   1
   2   1  -1 48047.1 1700.52   4
   2   1   0 100613. 3116.05   1
   2   1   0 106940. 3200.21   4
   2   1   1 381378. 10621.9   1
   2   1   1 401874. 10196.9   5
   2   1   1 402778. 10653.4   4
  -2  -1  -2 83514.0 2435.72   5
   2   1   2 88482.2 2453.20   5
   2   1   2 86861.3 2808.10   4
  -2  -1  -2 85064.0 2651.16   6
  -2  -1  -2 78508.1 2683.50   7
  -2  -1  -3 631983. 17412.4   5
   2   1   3 695912. 17684.4   7
   2   1   3 679568. 17762.6   3
   2   1   3 663399. 17652.8   4
  -2  -1  -3 647306. 17642.9   4
  -2  -1  -4 55775.4 2160.16   1
   2   1   4 54617.7 2264.49   7
   2   1   4 51042.0 2062.29   4
   2   1   4 52887.2 2263.25   3
  -2  -1  -5 29558.0 1487.84   1
   2   1   5 27938.5 1632.45   3
   2   1   5 29367.9 1689.52   7
   2   1   6 1603.44 406.360   7
   2   1   6 2522.07 488.229   3
  -2  -1  -6 2226.00 378.059   1
   2   1   7 4405.79 739.397   7
  -2  -1  -7 3976.48 523.579   1
   2   1   7 4458.57 699.785   3
  -2  -1  -8 33334.2 1780.26   1
   2   1   8 36234.1 2443.51   7
   2   1   8 37643.7 2376.28   3
   2   1   9-44.9636 91.9247   3
   2   1   9 2.83396 43.0257   7
   2   1  10-362.073 249.760   3
   2   1  10 240.893 215.592   7
   2   1  11-139.546 178.305   7
   2   1  11 128.743 114.319   3
   2   1  12 802.808 413.984   3
   2   1  12 19.7233 87.2588   7
  -2  -2   9 1136.61 555.204   7
  -2  -2   8 75.2124 63.0242   7
  -2  -2   7 507.531 377.090   7
  -2  -2   6 199.544 166.481   7
  -2  -2   5 7998.19 1100.93   7
   2   2  -5 7453.35 577.887   4
   2   2  -4 606.097 155.255   4
  -2  -2   4 650.517 258.003   7
   2   2  -3 7023.07 564.787   4
  -2  -2   3 6802.77 846.338   7
   2   2  -2 64254.4 2293.12   4
  -2  -2   2 62546.0 2768.68   7
  -2  -2   1 8118.21 734.198   7
   2   2  -1 7567.94 588.559   4
  -2  -2   1 7089.35 424.919   1
  -2  -2   0 59594.6 1996.62   1
   2   2   0 58532.6 1817.37   2
   2   2   0 60118.2 2181.82   4
   2   2   1 210278. 5725.50   5
  -2  -2  -1 216216. 5496.87   2
   2   2   1 203752. 6099.11   4
  -2  -2  -2 464804. 13264.9   7
   2   2   2 521827. 13316.3   5
  -2  -2  -2 495985. 13295.0   5
   2   2   2 513556. 13781.3   4
   2   2   2 484139. 13316.4   6
  -2  -2  -3 93406.7 3074.50   7
  -2  -2  -3 91175.2 2972.40   5
   2   2   3 96163.3 2931.75   7
   2   2   3 97821.1 3343.15   4
   2   2   3 101033. 3002.72   5
   2   2   4 5984.05 520.515   5
   2   2   4 5241.95 503.010   7
   2   2   4 5408.78 599.669   3
   2   2   5 206540. 6409.52   7
   2   2   5 206998. 6178.41   5
   2   2   5 204177. 6549.05   3
   2   2   6-66.3582 74.3881   7
   2   2   6 59.1744 50.7703   3
   2   2   7 79.8464 101.262   3
  -2  -2  -7 165.065 126.124   1
   2   2   7 65.1455 95.8852   7
   2   2   8 384.588 235.810   3
  -2  -2  -8 459.849 192.253   1
   2   2   8 778.144 312.331   7
   2   2   9 1140.95 411.445   3
  -2  -2  -9 834.064 263.773   1
   2   2   9 1086.17 395.837   7
   2   2  10 422.258 261.696   7
   2   2  10 385.422 262.020   3
   2   2  11 2177.09 667.582   7
   2   2  11 3831.79 859.125   3
   2   2  12 1893.13 664.609   3
   2   2  12 2498.03 763.926   7
  -2  -3   9 101.362 111.944   7
  -2  -3   8-101.968 262.722   7
  -2  -3   7 9691.11 1514.79   7
  -2  -3   6 10464.0 1461.09   7
  -2  -3   5 536.642 312.167   7
  -2  -3   4 1272.74 448.621   7
   2   3  -4 770.488 211.049   4
   2   3  -3 17530.4 1025.78   4
  -2  -3   3 19897.3 1596.19   7
  -2  -3   2 6491.21 793.622   7
   2   3  -2 6382.82 584.875   4
  -2  -3   1 458.569 106.441   1
  -2  -3   1 429.093 191.241   7
   2   3  -1 526.514 162.698   4
  -2  -3   0 103796. 3533.26   7
   2   3   0 99353.7 3489.70   4
   2   3   1 71391.0 2406.04   5
  -2  -3  -1 74575.1 2221.42   2
   2   3   1 70292.2 2728.19   4
   2   3   2 6244.42 472.031   5
   2   3   2 6381.76 644.147   4
  -2  -3  -3 47837.3 1629.39   7
   2   3   3 50388.0 1846.90   5
  -2  -3  -4 25720.1 1290.78   7
   2   3   4 29495.2 1182.42   7
   2   3   4 30014.9 1551.31   3
   2   3   4 28109.2 1338.89   5
   2   3   5 8897.45 692.117   7
   2   3   5 8639.86 854.953   3
   2   3   5 8105.11 711.488   5
   2   3   6 836.863 276.667   3
   2   3   6 807.468 221.476   5
   2   3   6 957.439 246.294   7
   2   3   7 2062.03 470.108   3
   2   3   7 2072.63 438.262   7
   2   3   8 9741.80 1073.00   7
   2   3   8 10382.2 1159.66   3
   2   3   9 505.351 283.524   3
   2   3   9 630.868 288.023   7
   2   3  10 801.019 406.080   3
   2   3  10 392.983 243.652   7
  -2  -3 -10 567.536 252.553   1
   2   3  11 598.028 350.916   3
   2   3  11 1280.33 505.333   7
   2   3  12 794.781 412.016   3
   2   3  12 1641.21 574.467   7
   2   3  13 157.611 145.929   7
  -2  -4   8 460.562 346.316   7
  -2  -4   7 3252.38 896.242   7
  -2  -4   6 1738.61 619.679   7
  -2  -4   5-103.427 145.037   7
  -2  -4   4 358.248 266.359   7
  -2  -4   3 123.414 46.5344   7
  -2  -4   2 11860.3 569.150   1
  -2  -4   2 16808.7 1386.91   7
  -2  -4   1 12677.6 734.054   1
  -2  -4   1 14766.1 1184.34   7
  -2  -4   0 12339.1 956.107   7
  -2  -4   0 11512.3 757.715   2
  -2  -4  -1 7693.35 635.257   7
   2   4   1 8584.58 653.730   5
  -2  -4  -1 7790.86 537.053   2
   2   4   2 155725. 4886.43   5
  -2  -4  -2 169342. 4708.16   7
   2   4   3 12902.8 814.923   5
  -2  -4  -3 11863.2 499.339   7
   2   4   3 12391.9 551.981   6
   2   4   4 1624.80 285.912   5
  -2  -4  -4 1015.46 164.404   7
   2   4   5 38724.5 1466.69   7
   2   4   5 41099.3 2035.60   3
   2   4   5 39097.0 1812.72   5
   2   4   6 800.242 281.429   3
   2   4   6 1507.93 327.787   5
   2   4   6 1202.34 254.491   7
   2   4   7 5728.54 708.493   5
   2   4   7 4957.06 621.053   7
   2   4   7 4967.42 752.776   3
   2   4   8 4793.82 690.235   7
   2   4   8 5091.49 806.869   3
   2   4   8 5391.92 720.297   5
   2   4   9 10647.6 1152.39   7
   2   4   9 13617.9 1437.40   3
   2   4  10 3299.05 731.364   3
   2   4  10 2930.91 631.264   7
   2   4  11 202.441 89.2258   3
  -2  -4 -11 78.0776 105.015   1
   2   4  11 180.937 174.217   7
   2   4  12 3070.33 814.725   3
   2   4  12 2804.64 724.159   7
   2   4  13 2811.99 787.033   7
  -2  -5   7 236.356 322.118   7
  -2  -5   6 388.975 225.880   7
  -2  -5   5 1836.83 601.873   7
  -2  -5   4 2501.51 656.406   7
  -2  -5   3 2109.77 562.534   7
  -2  -5   2 17258.3 813.834   1
  -2  -5   2 24037.5 1808.03   7
  -2  -5   1 883.404 296.967   7
  -2  -5   0 72.8079 50.6654   2
  -2  -5   0 116.702 105.056   7
  -2  -5  -1 17744.1 985.257   2
   2   5   1 16821.4 1069.51   5
  -2  -5  -1 15707.7 1053.80   7
  -2  -5  -2 11015.0 692.072   7
   2   5   2 9814.24 765.153   5
   2   5   3 4339.07 495.374   5
   2   5   4 12573.3 910.858   5
   2   5   5 1037.01 263.519   5
  -2  -5  -5 444.033 99.9707   7
   2   5   6 21390.7 1383.12   5
  -2  -5  -6 17908.7 1044.44   7
   2   5   6 23292.8 1553.86   3
   2   5   6 20847.4 990.099   7
   2   5   7 530.795 200.351   5
   2   5   7 423.457 150.003   7
   2   5   7 922.515 321.891   3
   2   5   8 4090.59 727.572   3
   2   5   8 3946.10 641.005   5
   2   5   8 3783.40 556.621   7
   2   5   9 602.587 259.200   5
   2   5   9 602.170 241.160   7
   2   5   9 403.645 280.109   3
   2   5  10-6.42102 64.9654   7
   2   5  10 12.3855 105.882   3
   2   5  11 52.5146 90.6089   7
   2   5  11 112.314 152.241   3
   2   5  12 1402.74 540.635   3
  -2  -6   6 2791.54 822.953   7
  -2  -6   5-114.437 166.582   7
  -2  -6   4 13.9485 98.1646   7
  -2  -6   3 3150.83 737.091   7
  -2  -6   2 14241.1 1470.86   7
  -2  -6   1 1352.19 398.784   7
  -2  -6   0 895.422 295.313   7
  -2  -6   0 1083.55 271.493   2
  -2  -6  -1 1560.03 295.655   2
   2   6   1 916.354 266.006   5
  -2  -6  -1 1640.11 340.040   7
   2   6   2 1254.61 300.303   5
  -2  -6  -2 725.003 183.768   7
  -2  -6  -3 16251.8 674.948   7
   2   6   3 16943.9 1131.33   5
   2   6   4 867.432 259.381   5
   2   6   5 7459.30 765.867   5
   2   6   6 12884.8 1075.17   5
   2   6   7 9073.46 605.947   7
   2   6   7 10605.6 1026.73   5
   2   6   7 9734.49 1051.46   3
  -2  -6  -7 9428.40 528.109   6
   2   6   8 533.197 235.564   5
   2   6   8 428.773 151.462   7
   2   6   8 472.599 237.304   3
   2   6   9 412.064 215.634   5
   2   6   9 188.064 136.961   3
   2   6  10 12220.8 1314.24   5
   2   6  10 14390.7 1568.00   3
   2   6  11 203.302 222.560   3
   2   6  12 73.4879 112.787   3
   2   6  13 788.853 374.209   3
  -2  -7   6 2714.71 855.389   7
  -2  -7   5-41.5969 113.223   7
  -2  -7   4 963.150 431.284   7
  -2  -7   3 1119.95 440.732   7
  -2  -7   2 6640.05 1024.01   7
  -2  -7   1 11492.9 1243.37   7
   2   7   0 17402.0 1320.34   5
  -2  -7   0 16810.0 1385.24   7
  -2  -7   0 14397.2 1177.60   2
  -2  -7  -1-56.9214 109.524   7
   2   7   1 100.383 117.194   5
  -2  -7  -1 65.1105 76.5969   2
  -2  -7  -2 889.316 253.221   2
   2   7   2 868.063 271.431   5
  -2  -7  -2 639.922 182.098   7
  -2  -7  -3 1274.01 175.865   7
   2   7   3 1174.21 306.348   5
   2   7   4 1645.23 359.641   5
   2   7   5 23800.5 1543.12   5
   2   7   6 55.7698 79.5179   5
   2   7   7 3544.31 595.618   5
   2   7   8 14.4556 110.855   5
   2   7   9 672.700 284.015   5
   2   7   9 723.901 307.066   3
   2   7  10 4480.58 790.701   5
   2   7  10 4488.77 860.797   3
   2   7  11 716.340 337.838   5
   2   7  11 1201.50 482.589   3
   2   7  12 407.737 288.417   3
   2   7  13 98.6565 139.100   3
  -2  -8   5-224.603 242.071   7
  -2  -8   4 1032.79 488.062   7
  -2  -8   3 363.766 250.349   7
  -2  -8   2 1030.40 400.489   7
  -2  -8   1 275.798 215.981   7
  -2  -8   0 114.535 66.7720   2
   2   8   0 247.370 190.882   5
  -2  -8   0 114.877 72.2160   7
  -2  -8  -1 2052.39 429.737   7
  -2  -8  -1 1943.84 423.785   2
   2   8   1 1996.32 454.808   5
   2   8   2 39346.4 2190.18   5
  -2  -8  -2 42711.9 2094.00   2
  -2  -8  -2 38010.4 1851.92   7
   2   8   3 157.651 84.2960   5
   2   8   4 1390.88 359.366   5
   2   8   5 1276.24 355.136   5
   2   8   6 2803.81 556.560   5
   2   8   7 745.446 301.965   5
   2   8   8 2205.74 531.099   5
   2   8   9 473.742 262.781   5
   2   8  10 25.5180 101.058   5
   2   8  10 228.765 143.634   3
   2   8  11 12.0669 60.7059   5
   2   8  11 196.587 231.108   3
   2   8  12-107.573 146.538   5
   2   8  12 87.2892 193.354   3
  -2  -9   4 290.454 249.547   7
  -2  -9   3 693.989 382.359   7
  -2  -9   2 921.554 367.536   7
   2   9  -2 683.666 343.042   5
  -2  -9   1 145.524 109.151   7
   2   9  -1 586.087 297.891   5
   2   9   0 947.421 357.902   5
   2   9   1 1690.62 443.302   5
  -2  -9  -1 2131.66 481.702   2
   2   9   2 37245.8 2232.95   5
  -2  -9  -2 33771.2 2025.19   2
  -2  -9  -3 2530.34 477.555   2
   2   9   3 2116.20 474.740   5
   2   9   4 2672.17 537.502   5
   2   9   5 1027.02 338.924   5
   2   9   6 615.017 275.236   5
   2   9   7 10295.6 1149.95   5
   2   9   8 379.807 222.368   5
   2   9   9 308.326 185.407   5
   2   9  10 81.1476 209.501   5
   2   9  11 888.036 401.742   5
   2   9  12 630.099 317.523   5
   2   9  12 583.424 335.129   3
   2   9  13 20.1625 85.8220   5
   2  10  -1 90.4500 50.9038   5
   2  10   0 623.830 304.132   5
  -2 -10  -1 1269.11 420.618   2
   2  10   1 1247.80 412.590   5
   2  10   2 1718.44 464.466   5
  -2 -10  -2 1475.95 431.707   2
   2  10   3 188.103 171.160   5
  -2 -10  -3-19.4205 55.7580   2
   2  10   4 1334.71 408.631   5
   2  10   5 251.381 184.959   5
   2  10   6 143.578 83.0785   5
   2  10   7 81.8735 105.302   5
   2  10   8 4079.06 759.239   5
   2  10   9 352.873 254.366   5
   2  10  10 4516.29 857.562   5
   2  10  11 64.3573 56.0064   5
   2  10  12-56.6230 110.340   5
   2  11   0 1294.11 469.096   5
  -2 -11  -1 1074.18 406.824   2
   2  11   1 1654.60 518.849   5
   2  11   2 2654.57 636.382   5
  -2 -11  -2 2130.84 539.378   2
   2  11   3 544.664 282.507   5
  -2 -11  -3 723.307 288.733   2
  -2 -11  -4 1261.97 382.799   2
   2  11   4 1169.83 424.164   5
   2  11   5 739.785 307.621   5
   2  11   6 187.069 146.348   5
   2  11   7 2169.59 579.792   5
   2  11   8 1532.30 485.563   5
   2  11   9-4.46237 154.407   5
   2  11  10 5293.40 973.770   5
   2  11  11 275.957 230.389   5
  -2 -12  -2-204.941 184.570   2
   2  12   3-13.4322 68.6281   5
  -2 -12  -3-95.8181 125.576   2
   2  12   4 311.410 244.040   5
  -2 -12  -4 417.907 238.784   2
   2  12   5 211.856 193.370   5
   2  12   6 575.516 295.033   5
   2  12   7 1781.57 564.914   5
   2  12   8-155.468 202.484   5
   2  12   9-157.126 171.980   5
   2  12  10 317.825 236.621   5
  -2 -13  -4-209.331 187.583   2
  -2 -13  -5 1180.54 410.956   2
  -3  12   7 166.725 128.577   5
  -3  12   6 789.168 375.921   5
  -3  12   5 2054.91 600.183   5
  -3  12   4 61.8802 133.539   5
  -3  12   3 28.9957 151.618   5
  -3  12   2 16.2891 83.6815   5
  -3  11   9 477.124 301.962   5
  -3  11   8-45.2899 143.865   5
  -3  11   7 284.587 262.390   5
  -3  11   6-84.7153 166.751   5
  -3  11   5 1174.89 394.253   5
  -3  11   4 252.835 208.413   5
  -3  11   3 64.6758 139.952   5
   3 -11  -2 1466.20 493.637   2
  -3  11   2 1172.23 428.096   5
  -3  11   1 554.012 293.124   5
   3 -11  -1 664.124 337.405   2
  -3  11   0 581.415 328.380   5
  -3  11  -1-260.323 212.612   5
  -3  10  10 142.081 203.605   5
  -3  10   9 342.106 248.519   5
  -3  10   8 3399.73 748.521   5
  -3  10   7 157.510 147.041   5
  -3  10   6 1669.00 488.352   5
  -3  10   5 698.367 298.202   5
  -3  10   4 967.254 357.048   5
  -3  10   3 691.192 292.936   5
  -3  10   2 532.157 232.622   5
  -3  10   1 581.451 269.531   5
   3 -10  -1 254.889 201.545   2
  -3  10   0 1029.70 372.502   5
   3 -10   0 714.555 333.539   2
   3 -10   1 1038.67 422.884   2
  -3  10  -1 738.674 339.168   5
   3 -10   2 3482.57 739.501   7
  -3  10  -2 4607.24 844.598   5
  -3  10  -3 306.320 210.040   5
   3 -10   3 257.738 267.928   7
  -3   9  12 626.955 340.194   3
  -3   9  11 461.886 309.066   3
  -3   9  11 387.599 281.686   5
  -3   9  10 169.866 166.716   3
  -3   9  10 187.520 188.520   5
  -3   9   9 183.991 182.739   5
  -3   9   8-9.52645 169.532   5
  -3   9   7 168.463 201.910   5
  -3   9   6 1933.06 515.242   5
  -3   9   5 1001.69 343.655   5
  -3   9   4-63.2480 141.602   5
  -3   9   3 1445.71 423.257   5
  -3   9   2 86.4977 114.866   5
  -3   9   2 163.249 120.062   6
   3  -9  -1 1761.67 485.371   2
  -3   9   1 1685.86 454.915   5
  -3   9   1 1256.63 361.322   6
  -3   9   0 4041.65 695.922   5
   3  -9   0 3960.81 751.406   2
   3  -9   1 3834.27 753.773   2
   3  -9   1 3813.28 693.806   7
  -3   9  -1 4577.35 765.413   5
   3  -9   2 359.260 247.484   7
   3  -9   2-4.12476 165.423   2
  -3   9  -2 4.02065 77.2693   5
  -3   9  -3-138.919 148.919   5
   3  -9   3-163.441 168.454   7
  -3   9  -4 1555.72 491.192   5
   3  -9   4 1808.83 582.874   7
  -3   8  12 520.808 330.531   3
  -3   8  11 302.409 265.985   5
  -3   8  11 471.568 354.765   3
  -3   8  10 470.618 281.225   5
  -3   8  10 377.922 270.076   3
  -3   8   9 666.786 325.857   5
  -3   8   9 778.539 367.825   3
  -3   8   8 5224.29 884.404   5
  -3   8   8 4836.29 807.426   3
  -3   8   7 1788.22 452.198   3
  -3   8   7 1550.78 482.769   5
  -3   8   6 35452.1 2003.23   3
  -3   8   6 39100.2 2380.81   5
  -3   8   5 9376.12 1060.12   5
  -3   8   4 354.593 129.433   5
  -3   8   3 735.205 272.058   5
  -3   8   2 149.520 91.5495   5
  -3   8   2 301.858 159.933   6
  -3   8   1 2186.49 454.308   6
  -3   8   1 3048.89 548.774   5
   3  -8   0 24.5590 86.0171   2
  -3   8   0-82.3493 99.7425   5
  -3   8  -1 672.284 273.974   5
   3  -8   1 988.857 331.065   7
   3  -8   1 1198.83 413.912   2
   3  -8   2 688.806 290.218   7
  -3   8  -2 596.135 278.222   5
   3  -8   2 920.484 364.934   2
  -3   8  -3 10.8334 119.834   5
   3  -8   3 66.2483 110.720   7
   3  -8   4 1152.15 449.114   7
  -3   8  -4 970.205 362.029   5
   3  -8   5-119.067 160.011   7
  -3   8  -5 81.0037 110.437   5
  -3   7  12-173.770 207.957   3
  -3   7  11 2845.54 772.704   3
  -3   7  10 100.877 173.535   5
  -3   7  10 24.0206 94.7235   3
  -3   7   9 1422.66 481.287   5
  -3   7   9 2014.84 566.823   3
  -3   7   9 948.867 395.451   7
  -3   7   8 5881.57 906.674   5
  -3   7   8 4135.59 744.292   7
  -3   7   8 5379.86 869.091   3
  -3   7   7-199.896 161.869   5
  -3   7   7-430.659 221.616   3
  -3   7   6 3407.33 634.628   5
  -3   7   6 2957.02 534.075   3
  -3   7   5 6853.18 871.459   5
  -3   7   5 6796.27 728.175   3
  -3   7   4 21108.5 1482.36   5
  -3   7   4 16968.5 1026.31   3
  -3   7   3 7374.51 837.002   5
  -3   7   2 1099.99 298.891   5
  -3   7   2 1487.41 328.712   6
  -3   7   1-36.5339 72.0611   6
  -3   7   1 112.354 75.0856   5
  -3   7   0 310.503 149.491   5
   3  -7   0 555.379 232.369   2
   3  -7   1 10954.6 1085.99   7
  -3   7  -1 10757.1 1019.71   5
   3  -7   1 11491.6 1150.79   2
   3  -7   2-44.5994 98.6927   2
   3  -7   2-13.7790 53.1162   7
  -3   7  -3 3456.54 612.979   5
   3  -7   3 3304.72 687.494   7
   3  -7   4 712.136 315.686   7
   3  -7   5-644.505 353.666   7
   3  -7   6 201.901 268.949   7
  -3   6  11 263.461 236.332   7
  -3   6  10 1571.50 543.208   7
  -3   6   9 1040.33 368.929   5
  -3   6   9 637.409 323.029   7
  -3   6   8 2310.98 545.995   5
  -3   6   8 1779.32 499.131   7
  -3   6   7 1547.07 441.749   5
  -3   6   6 5962.28 830.799   5
  -3   6   5 24342.0 1650.08   5
  -3   6   4 12176.2 1067.42   5
  -3   6   4 12309.1 904.449   3
  -3   6   3 7641.20 569.278   3
  -3   6   3 9585.71 891.796   5
  -3   6   2 8134.41 797.854   5
  -3   6   2 8538.48 757.511   6
  -3   6   1 15195.3 1107.34   5
  -3   6   1 14466.3 1081.87   6
  -3   6   0 1634.51 345.766   5
   3  -6   1 4806.89 669.590   2
  -3   6  -1 5031.64 620.817   5
   3  -6   1 3761.29 593.782   7
   3  -6   2 11962.5 828.164   4
   3  -6   2 13144.4 1228.68   7
  -3   6  -2 14159.6 1119.56   5
   3  -6   2 13805.8 1247.23   2
   3  -6   3 6400.26 922.444   7
   3  -6   3 5655.71 828.054   2
   3  -6   4 8328.83 1145.00   7
   3  -6   5 3624.46 804.512   7
   3  -6   6-119.166 163.165   7
   3  -6   7 71.6053 174.322   7
  -3   5  12 196.587 245.708   7
  -3   5  11 688.371 389.848   7
  -3   5  10-102.724 143.791   7
  -3   5   9 672.941 360.263   7
  -3   5   8 8.03109 51.5978   7
  -3   5   8-67.9709 172.529   5
  -3   5   7 758.457 297.793   5
  -3   5   6 2942.95 541.590   5
  -3   5   5 1306.75 330.885   5
  -3   5   4 3666.06 542.325   5
  -3   5   3 12577.9 977.480   5
  -3   5   2 1654.07 195.701   3
  -3   5   2 1937.68 346.136   5
  -3   5   2 2074.46 346.166   6
  -3   5   1 4537.60 545.887   6
  -3   5   1 4520.04 527.599   5
  -3   5   0 9941.50 795.430   5
  -3   5   0 8956.05 829.446   6
  -3   5  -1 608.517 190.052   5
   3  -5   1 410.239 183.714   7
   3  -5   1 724.885 233.348   2
   3  -5   2 484.943 103.452   3
   3  -5   2 693.826 267.888   2
   3  -5   2 499.698 211.455   7
   3  -5   2 476.179 144.999   4
  -3   5  -2 682.007 221.435   5
   3  -5   3 2230.15 484.854   2
   3  -5   3 2389.53 305.325   4
   3  -5   3 2600.05 535.840   7
   3  -5   4 22375.6 1852.72   7
   3  -5   5 228.140 217.735   7
   3  -5   6 1309.62 502.705   7
   3  -5   7 1941.56 637.499   7
  -3   4  12 752.732 451.265   7
  -3   4  11-7.06234 91.1006   7
  -3   4  10 6151.39 1132.21   7
  -3   4   9 290.635 196.360   7
  -3   4   8 106.466 163.125   7
  -3   4   7 961.381 360.161   7
  -3   4   6 2725.58 518.097   5
  -3   4   5 4580.65 634.111   5
  -3   4   4 7960.25 787.799   5
  -3   4   3 21614.2 1280.20   5
  -3   4   2 39098.1 1751.76   5
  -3   4   1 3931.70 449.607   5
  -3   4   1 3708.97 458.852   6
  -3   4   0 14803.5 895.859   5
  -3   4   0 13754.3 988.833   6
  -3   4  -1 10074.2 739.204   5
   3  -4   1 10983.9 902.028   7
   3  -4   1 10542.9 708.018   4
   3  -4   2 39038.2 2028.19   7
   3  -4   2 34335.4 1289.44   3
   3  -4   2 38404.5 1913.67   2
   3  -4   2 36158.3 1484.00   4
   3  -4   3 26755.9 1628.03   2
   3  -4   3 24050.2 1111.28   4
   3  -4   3 28035.9 1815.78   7
   3  -4   3 24971.0 1229.86   3
   3  -4   4 26360.5 1895.05   7
   3  -4   4 22929.3 1058.99   4
   3  -4   4 23585.3 1367.84   3
   3  -4   5 5390.49 883.997   7
   3  -4   5 4152.16 589.510   3
   3  -4   6 6195.07 1030.16   7
   3  -4   6 4673.16 700.879   3
   3  -4   7 39.0260 177.226   7
   3  -4   8 565.889 348.151   7
  -3   3  11 300.679 267.106   7
  -3   3  10 559.102 345.985   7
   3  -3  -9 979.503 275.779   4
  -3   3   9 1196.90 499.791   7
   3  -3  -8 3007.91 462.488   4
  -3   3   8 2599.71 653.680   7
  -3   3   7-13.1831 71.3826   7
  -3   3   6 4268.43 740.541   7
  -3   3   5 4203.91 587.342   5
  -3   3   4 19175.0 1246.08   5
  -3   3   3 8673.45 750.732   5
  -3   3   2 20388.0 1105.76   5
  -3   3   1 126586. 3897.72   5
  -3   3   1 125673. 4072.59   6
  -3   3   0 3384.68 358.494   5
   3  -3   0 2612.69 348.811   4
  -3   3   0 3602.83 474.568   6
  -3   3  -1 72333.6 2405.98   5
   3  -3   1 69686.7 2426.76   4
   3  -3   1 71116.3 2738.91   7
   3  -3   2 662.034 150.248   4
   3  -3   2 902.053 254.493   7
   3  -3   3 14158.9 876.577   3
   3  -3   3 15893.9 1240.81   7
   3  -3   3 13594.9 768.355   4
   3  -3   4 4679.75 732.504   7
   3  -3   4 4161.63 515.071   3
   3  -3   4 3872.13 375.792   4
   3  -3   5 42.7539 58.4710   3
   3  -3   5 35.8243 129.458   7
   3  -3   6 4392.60 819.581   7
   3  -3   6 3621.03 608.087   3
   3  -3   7 3055.78 628.761   3
   3  -3   7 3877.37 826.652   7
   3  -3   8 26.8374 53.4833   3
   3  -3   8 173.066 194.916   7
   3  -3   9 428.965 302.494   7
  -3   2  11 68.5228 143.181   7
  -3   2  10 300.747 305.962   7
  -3   2   9-464.132 310.142   7
  -3   2   8 0.88190 120.706   7
   3  -2  -8-79.6345 64.1634   4
   3  -2  -7 762.147 206.876   4
  -3   2   7 210.990 191.284   7
   3  -2  -6 1051.95 239.852   4
  -3   2   6 985.358 350.968   7
   3  -2  -5 35503.8 1619.58   4
   3  -2  -4 90972.2 3106.85   4
   3  -2  -3 26489.5 1257.35   4
  -3   2   3 25119.0 1334.79   5
  -3   2   2 68798.6 2445.49   5
   3  -2  -2 67975.0 2410.77   4
  -3   2   1 24587.2 1092.32   5
   3  -2  -1 22937.8 1075.47   5
  -3   2   0 12608.8 645.759   5
   3  -2   0 11571.0 609.592   5
   3  -2   0 13119.4 756.316   4
  -3   2   0 12903.5 847.549   6
  -3   2  -1 33498.6 1187.97   5
   3  -2   1 33262.1 1394.82   2
  -3   2  -1 31719.6 1533.91   6
  -3   2  -1 29360.8 1180.33   3
   3  -2   1 30284.8 1297.95   4
   3  -2   2 9527.45 791.171   7
   3  -2   2 9399.34 706.123   2
   3  -2   2 9006.50 595.238   4
   3  -2   3 12191.9 1008.64   7
   3  -2   3 10372.7 663.742   4
   3  -2   3 11160.5 766.376   3
   3  -2   4 90.7437 65.0410   3
   3  -2   4 81.5959 91.0246   7
   3  -2   4 121.544 58.9611   4
   3  -2   5 594.945 144.364   4
   3  -2   5 536.611 198.944   3
   3  -2   5 1027.91 340.662   7
   3  -2   6 6391.89 931.066   7
   3  -2   6 4251.47 657.664   3
   3  -2   7 684.787 297.173   3
   3  -2   7 157.842 257.736   7
   3  -2   8 190.909 164.114   3
   3  -2   8 19.2688 97.8258   7
   3  -2   9 1918.24 538.783   3
   3  -2   9 3361.15 845.626   7
   3  -2  10 850.407 391.835   3
   3  -2  10 806.888 432.232   7
  -3   1  10 967.466 490.586   7
  -3   1   9 1255.88 578.353   7
  -3   1   8 1986.55 606.627   7
   3  -1  -7 11084.2 825.831   4
  -3   1   7 9147.22 1275.77   7
  -3   1   6-105.723 127.097   7
   3  -1  -6 49.5212 83.2034   4
  -3   1   5 81939.9 3700.05   7
   3  -1  -5 73606.0 2680.09   4
   3  -1  -4 183.103 89.4036   4
   3  -1  -3 154.597 85.3893   4
   3  -1  -2 9142.03 630.286   4
  -3   1   1 94555.8 2832.54   5
   3  -1  -1 95244.2 2964.72   4
  -3   1   0 3333.59 252.052   5
   3  -1   0 2924.01 234.310   5
   3  -1   0 3017.91 329.564   4
   3  -1   1 267.118 88.2315   4
  -3   1  -1 285.697 57.5368   5
   3  -1   2-21.0576 15.5769   2
  -3   1  -2 84.5737 37.9277   3
   3  -1   2-2.07772 34.4802   4
   3  -1   2 1.45271 62.0613   7
   3  -1   3 18594.0 1191.62   7
   3  -1   3 17687.0 939.054   4
   3  -1   3 18064.8 1019.02   3
   3  -1   4 54.9055 83.2323   3
   3  -1   4-10.2852 33.9780   4
   3  -1   5 1105.21 218.051   4
   3  -1   5 889.469 258.953   3
   3  -1   5 1516.11 398.577   7
   3  -1   6 418.696 264.224   7
   3  -1   6 349.264 200.755   3
   3  -1   7 6702.15 889.178   3
   3  -1   7 8092.11 1101.50   7
   3  -1   8 988.956 352.376   3
   3  -1   8 968.479 441.055   7
   3  -1   9 4686.48 854.268   3
   3  -1   9 7692.25 1212.65   7
   3  -1  10 124.868 129.047   3
   3  -1  10 341.290 280.849   7
   3  -1  11 1043.55 422.006   3
  -3   0  10 189.792 90.5304   7
  -3   0   9 2053.36 695.657   7
  -3   0   8-314.359 260.785   7
   3   0  -7 34297.9 1641.17   4
  -3   0   7 36676.2 2752.73   7
  -3   0   6 12878.1 1466.05   7
   3   0  -6 12413.0 861.201   4
   3   0  -5 40.0458 57.0188   4
  -3   0   5-271.477 190.473   7
  -3   0   4 63301.2 3115.36   7
   3   0  -4 62395.5 2307.48   4
   3   0  -3 22664.1 1126.71   4
   3   0  -2 4105.55 414.039   4
   3   0  -1 23771.8 1108.69   5
   3   0  -1 28023.8 1217.36   4
   3   0   0 14967.8 823.972   4
   3   0   0 12542.1 593.791   5
   3   0   1 33.7021 53.6543   4
   3   0   1 96.1395 39.0242   2
  -3   0  -1 117.332 75.2829   6
   3   0   2 12024.3 770.802   4
  -3   0  -2 12472.4 817.056   6
  -3   0  -3 64149.6 2194.45   5
   3   0   3 71725.3 2638.59   7
   3   0   3 70669.8 2520.58   4
   3   0   4 78237.2 3071.67   7
  -3   0  -4 79798.5 2789.97   1
   3   0   4 74659.1 2724.99   4
   3   0   4 75025.6 2883.72   3
   3   0   5 3596.80 529.319   3
   3   0   5 3544.08 562.778   7
  -3   0  -5 3756.74 462.790   1
   3   0   5 3663.75 446.324   4
  -3   0  -6 682.084 194.158   1
   3   0   6 787.643 258.739   3
   3   0   6 461.600 237.746   7
   3   0   7 4829.24 802.366   7
   3   0   7 5697.54 806.621   3
  -3   0  -7 5120.34 587.515   1
   3   0   8 1660.80 468.521   3
   3   0   8 1605.18 491.488   7
   3   0   9 2485.82 616.918   3
   3   0   9 1763.07 564.727   7
   3   0  10 284.766 258.859   7
   3   0  10 496.417 302.338   3
   3   0  11-2.21558 108.531   7
   3   0  11 127.723 163.316   3
   3   0  12 618.633 363.638   3
  -3  -1   9-129.869 190.311   7
  -3  -1   8 1402.85 579.192   7
  -3  -1   7 1535.18 560.893   7
   3   1  -6 1451.48 290.301   4
  -3  -1   6 1738.25 520.920   7
  -3  -1   5 3723.17 751.235   7
   3   1  -5 3938.90 466.705   4
   3   1  -4 621.396 134.407   1
   3   1  -4 575.067 170.566   4
  -3  -1   4 697.474 306.523   7
   3   1  -3 242.047 99.1483   4
  -3  -1   3 462.923 219.723   7
   3   1  -2 14437.9 892.465   4
   3   1  -1 2924.98 371.838   4
   3   1   0 141011. 4364.28   4
   3   1   1 16990.2 974.394   4
   3   1   2 10077.1 420.975   5
  -3  -1  -2 9598.27 673.146   6
  -3  -1  -2 9997.07 395.412   5
  -3  -1  -2 10231.0 436.805   2
   3   1   2 10305.5 759.100   4
  -3  -1  -3 59879.8 1950.76   5
   3   1   3 66351.2 2319.39   7
   3   1   3 64405.7 2423.35   4
  -3  -1  -3 62407.1 2337.18   6
  -3  -1  -4 18580.5 990.112   5
   3   1   4 21913.6 1233.82   7
  -3  -1  -4 21218.9 1213.86   1
   3   1   4 22413.4 1238.57   4
   3   1   4 21850.7 1278.07   3
   3   1   5 3117.01 490.520   7
  -3  -1  -5 3422.79 463.771   1
   3   1   5 3094.84 455.116   4
   3   1   5 2945.49 483.557   3
  -3  -1  -6 6470.17 678.987   1
   3   1   6 6680.97 798.039   3
   3   1   6 7982.16 885.903   7
   3   1   7 14937.2 1356.58   7
  -3  -1  -7 13013.1 1042.45   1
   3   1   7 14379.4 1298.19   3
   3   1   8 340.732 155.239   3
  -3  -1  -8 184.773 127.817   1
   3   1   8 552.706 276.923   7
   3   1   9 101.633 125.106   3
  -3  -1  -9 552.081 218.641   1
   3   1   9 475.248 272.747   7
   3   1  10 129.937 136.207   3
   3   1  10 49.7078 97.0146   7
   3   1  11 318.699 249.866   3
   3   1  11-14.3950 92.0994   7
   3   1  12 1535.60 572.363   3
   3   1  12 1480.45 585.223   7
  -3  -2   9 233.722 240.411   7
  -3  -2   8-82.0568 153.969   7
  -3  -2   7 11526.5 1620.76   7
  -3  -2   6 17004.5 1848.61   7
   3   2  -5-69.8251 65.9515   4
  -3  -2   5 9.80690 101.422   7
   3   2  -4 71.4884 42.3022   4
  -3  -2   4 64.8923 89.7169   7
   3   2  -3 6576.17 490.147   1
   3   2  -3 8668.47 716.703   4
  -3  -2   3 9283.25 1052.60   7
   3   2  -2 2979.95 345.830   1
   3   2  -2 4122.56 478.653   4
  -3  -2   2 3404.11 578.787   7
   3   2  -1 14174.3 942.906   4
   3   2   0 1358.55 272.775   4
   3   2   0 924.244 130.977   2
  -3  -2   0 938.206 180.057   1
   3   2   1 212944. 6423.68   4
   3   2   2 14091.7 651.362   5
   3   2   2 14483.5 983.723   4
  -3  -2  -3 5007.61 452.806   6
   3   2   3 4749.72 375.203   5
  -3  -2  -3 4514.05 359.508   5
   3   2   3 4335.84 532.997   4
   3   2   4 430058. 11635.0   5
   3   2   4 426452. 11766.3   7
   3   2   4 437391. 12199.7   4
  -3  -2  -4 425228. 11776.8   6
  -3  -2  -5 26363.8 1524.58   1
   3   2   5 24510.4 1531.25   3
   3   2   5 26044.4 1418.49   7
   3   2   5 25848.5 1531.79   4
   3   2   6 796.847 289.015   3
  -3  -2  -6 692.107 235.264   1
   3   2   6 656.427 208.952   7
  -3  -2  -7 777.090 255.979   1
   3   2   7 699.750 281.802   3
   3   2   7 762.146 286.125   7
   3   2   8 416.538 222.718   3
  -3  -2  -8 1256.75 333.792   1
   3   2   8 1029.92 355.509   7
   3   2   9-32.7401 155.061   3
  -3  -2  -9 38.5170 56.9801   1
   3   2   9 193.930 199.796   7
   3   2  10 1549.26 520.234   3
   3   2  10 1213.88 439.169   7
  -3  -2 -10 880.794 299.063   1
   3   2  11-170.511 182.234   3
   3   2  11 90.6986 158.424   7
   3   2  12 586.491 387.813   3
   3   2  12 268.471 301.859   7
  -3  -3   8 437.364 271.666   7
  -3  -3   7 1193.95 540.236   7
  -3  -3   6 261.632 282.489   7
  -3  -3   5 42.6083 132.834   7
   3   3  -4 489.674 183.840   4
  -3  -3   4 286.098 155.803   7
  -3  -3   3 6863.18 963.028   7
   3   3  -3 6301.84 663.859   4
  -3  -3   2 36525.7 2170.58   7
   3   3  -2 33601.2 1711.77   4
   3   3  -1 51.5350 34.0173   4
  -3  -3   1 96.1431 65.6506   1
  -3  -3   1-15.4683 67.6628   7
  -3  -3   0 80152.9 2616.81   1
   3   3   0 77390.0 2914.54   4
   3   3   1 2099.00 377.956   4
  -3  -3  -1 2477.71 360.379   1
   3   3   2 120795. 3620.22   5
   3   3   2 117580. 4174.85   4
   3   3   3 38657.4 1471.66   5
   3   3   3 39230.4 1915.95   4
   3   3   4 7360.50 799.264   4
  -3  -3  -4 6717.15 531.100   6
   3   3   4 7246.94 574.617   5
   3   3   5 59773.7 2315.59   5
   3   3   5 57680.1 2206.14   7
  -3  -3  -5 58300.2 2601.30   1
   3   3   6 15079.4 1049.36   5
  -3  -3  -6 15736.1 1237.60   1
   3   3   6 13350.6 1008.97   7
   3   3   6 15201.0 1267.81   3
  -3  -3  -7 24310.1 1657.31   1
   3   3   7 25750.5 1616.83   7
   3   3   8 985.941 301.166   3
  -3  -3  -8 1142.36 345.949   1
   3   3   8 909.672 292.141   7
  -3  -3  -9 4610.63 728.664   1
   3   3   9 4872.11 791.100   7
   3   3   9 5380.97 896.555   3
   3   3  10-141.648 185.556   3
  -3  -3 -10 264.351 175.702   1
   3   3  10 475.110 302.894   7
   3   3  11 100.914 149.626   3
   3   3  11 77.5300 123.780   7
   3   3  12 2051.26 658.857   3
   3   3  12 1761.14 578.993   7
   3   3  13 382.460 307.367   7
  -3  -4   7 121.149 173.891   7
  -3  -4   6 4061.78 975.853   7
  -3  -4   5 4633.93 964.129   7
  -3  -4   4 9626.09 1308.51   7
  -3  -4   3 981.083 383.043   7
   3   4  -3 1060.79 282.951   4
   3   4  -2 4282.76 574.044   4
  -3  -4   2 5094.67 800.353   7
  -3  -4   1 43.3570 31.5643   1
  -3  -4   1 10.8042 78.3311   7
   3   4  -1-28.6364 89.3429   4
  -3  -4   0 10063.9 753.691   1
  -3  -4   0 10768.0 961.306   7
   3   4   0 10187.7 932.130   4
  -3  -4  -1 108565. 3839.41   1
  -3  -4  -1 114836. 3427.12   2
   3   4   1 112698. 4180.80   4
   3   4   2 97551.0 3212.03   5
   3   4   2 95953.7 3749.80   4
   3   4   3 7927.72 619.241   5
   3   4   3 8573.27 886.617   4
   3   4   3 6801.17 506.134   6
   3   4   4 19232.9 1059.65   5
  -3  -4  -4 15817.0 874.281   7
   3   4   5 3777.84 476.849   5
  -3  -4  -5 4353.53 411.697   6
   3   4   6 25223.7 1278.72   7
   3   4   6 26873.0 1487.72   5
   3   4   7 1917.03 389.419   5
   3   4   7 1742.67 340.332   7
   3   4   7 2409.79 508.181   3
   3   4   8 1595.42 438.597   3
   3   4   8 1943.06 405.260   5
   3   4   8 1576.87 373.050   7
   3   4   9 6973.12 883.535   7
  -3  -4  -9 6976.82 928.248   1
   3   4   9 7711.10 1077.72   3
   3   4  10 1094.07 408.941   3
  -3  -4 -10 792.676 313.213   1
   3   4  10 1357.57 420.647   7
  -3  -4 -11 182.102 85.7692   1
   3   4  11 345.887 223.801   3
   3   4  11 88.1106 139.594   7
   3   4  12 1237.64 508.358   3
   3   4  12 1514.45 512.890   7
  -3  -5   7 252.098 268.035   7
  -3  -5   6 107.060 138.033   7
  -3  -5   5 1584.16 622.753   7
  -3  -5   4 2272.67 648.519   7
  -3  -5   3 18895.8 1821.48   7
  -3  -5   2 31218.1 2217.23   7
  -3  -5   1 5396.19 505.464   1
  -3  -5   1 5831.53 820.126   7
   3   5  -1 5932.52 742.332   4
  -3  -5   0 592.499 225.527   7
   3   5   0 954.116 294.523   4
  -3  -5   0 441.355 154.602   1
   3   5   1 3590.97 472.055   5
  -3  -5  -1 3355.48 389.566   2
  -3  -5  -1 3122.20 476.297   7
   3   5   1 2819.65 525.287   4
  -3  -5  -2 5815.07 590.339   7
   3   5   2 6115.12 602.270   5
  -3  -5  -2 6524.11 500.438   2
   3   5   3 3763.77 462.959   5
   3   5   3 3160.51 331.814   6
   3   5   4 5893.93 608.121   5
  -3  -5  -4 5907.25 409.008   7
   3   5   5 5505.25 598.501   5
  -3  -5  -5 4058.20 399.740   7
   3   5   6 21615.4 1363.42   5
  -3  -5  -6 20867.3 996.200   6
   3   5   7 13677.8 893.331   7
   3   5   7 15345.8 1191.48   5
  -3  -5  -7 14638.9 892.322   6
   3   5   8 3607.03 590.593   5
   3   5   8 3309.34 488.035   7
   3   5   8 5088.45 810.117   3
   3   5   9 2112.97 556.655   3
   3   5   9 1789.46 439.679   5
   3   5   9 1236.10 335.011   7
   3   5  10 2679.78 667.755   3
   3   5  10 1994.86 480.109   7
   3   5  11 72.4198 114.661   3
  -3  -5 -11 73.3828 111.323   1
   3   5  12-185.761 197.687   3
  -3  -5 -12 183.873 198.102   1
  -3  -6   6 3008.32 893.719   7
  -3  -6   5 160.991 199.744   7
  -3  -6   4 731.884 359.640   7
  -3  -6   3 135.119 150.741   7
  -3  -6   2 262.234 204.920   7
  -3  -6   1 6226.92 582.099   1
  -3  -6   1 7497.91 996.409   7
  -3  -6   0 1625.35 330.146   1
  -3  -6   0 1939.43 449.612   7
  -3  -6  -1 446.905 156.013   2
   3   6   1 96.2169 66.0715   5
  -3  -6  -1 309.897 154.081   7
   3   6   2 1044.23 282.801   5
  -3  -6  -2 1207.70 238.995   2
  -3  -6  -2 1557.07 309.897   7
   3   6   3 2242.58 393.017   5
  -3  -6  -3 1961.48 283.691   7
   3   6   4 4456.90 558.438   5
  -3  -6  -4 4315.26 297.637   7
   3   6   4 3174.88 297.004   6
  -3  -6  -4 3582.54 243.648   7
   3   6   5 108.962 64.6092   5
   3   6   6 12383.7 1045.25   5
   3   6   7 7938.74 863.615   5
  -3  -6  -7 5881.29 450.672   6
   3   6   8 673.241 267.427   5
   3   6   9 9939.07 1091.18   5
   3   6   9 10115.8 1227.85   3
   3   6  10 2771.92 592.699   5
   3   6  10 2245.55 588.082   3
   3   6  11 761.318 370.903   3
   3   6  12 666.106 379.480   3
  -3  -6 -12 402.071 263.480   1
  -3  -7   5 10.3604 74.6109   7
  -3  -7   4 134.340 179.086   7
  -3  -7   3 7521.84 1237.29   7
  -3  -7   2 14638.1 1617.58   7
  -3  -7   1 19.9476 119.397   7
  -3  -7   0 13480.7 1320.38   7
  -3  -7  -1 86.7896 79.5829   2
   3   7   1 36.2281 84.9887   5
  -3  -7  -1 117.070 121.522   7
   3   7   2 6320.12 745.435   5
  -3  -7  -2 6846.74 658.958   2
  -3  -7  -2 6575.40 706.752   7
   3   7   3 122.829 82.6492   5
  -3  -7  -3 41.8840 44.0454   7
   3   7   4 12234.9 1040.66   5
   3   7   5 982.904 285.378   5
   3   7   6 3828.35 585.715   5
   3   7   7 480.154 213.364   5
   3   7   8-206.702 151.376   5
   3   7   9 6918.68 933.813   5
   3   7  10 819.744 341.742   5
   3   7  11 238.059 179.934   5
   3   7  11-18.2747 211.924   3
   3   7  12 592.956 338.685   3
  -3  -8   5 1547.50 633.405   7
  -3  -8   4-484.466 340.552   7
  -3  -8   3-9.44758 68.3228   7
  -3  -8   2 542.441 302.213   7
  -3  -8   1 3589.74 744.764   7
   3   8   0-175.376 246.440   5
  -3  -8   0 120.782 128.550   7
   3   8   1 32605.7 2016.67   5
  -3  -8  -1 32192.7 2019.21   7
  -3  -8  -1 31881.5 1856.62   2
   3   8   2 14433.3 1250.89   5
  -3  -8  -2 14291.9 1107.02   2
   3   8   3-188.659 135.262   5
  -3  -8  -3-87.2585 94.6628   2
   3   8   4-76.2891 130.591   5
   3   8   5 30.6810 39.0030   5
   3   8   6 8573.96 948.547   5
   3   8   7 37094.1 2213.51   5
   3   8   8 10041.4 1121.83   5
   3   8   9 1015.61 354.224   5
   3   8  10 13.2514 120.589   5
   3   8  11 1043.42 392.592   5
   3   8  12 349.009 217.241   5
   3   9  -1 315.484 132.412   5
   3   9   0 3264.54 657.326   5
  -3  -9  -1 3033.86 565.302   2
   3   9   1 3352.65 638.678   5
   3   9   2 31728.0 2060.60   5
  -3  -9  -2 30454.9 1873.78   2
   3   9   3 2309.03 502.904   5
  -3  -9  -3 2073.33 416.849   2
   3   9   4 5825.41 812.366   5
   3   9   5 6050.65 837.178   5
   3   9   6 5093.35 779.180   5
   3   9   7 91.5531 96.9916   5
   3   9   8 2986.71 626.731   5
   3   9   9 1445.32 442.397   5
   3   9  10 1250.83 455.092   5
   3   9  11-295.025 220.158   5
   3   9  12 314.029 240.214   5
   3   9  13-210.612 201.561   5
   3  10  -1 1129.78 433.812   5
   3  10   0 464.794 259.456   5
   3  10   1 1811.93 505.772   5
  -3 -10  -2 524.298 242.350   2
   3  10   2 884.961 346.850   5
   3  10   3 2626.57 589.335   5
  -3 -10  -3 2609.28 521.515   2
  -3 -10  -4 1040.79 314.032   2
   3  10   4 2248.24 532.628   5
   3  10   5 281.456 183.477   5
   3  10   6 445.778 244.036   5
   3  10   7 9485.80 1142.28   5
   3  10   8 675.488 311.753   5
   3  10   9 410.401 285.971   5
   3  10  10 1534.79 497.196   5
   3  10  11 556.281 280.285   5
   3  10  12 81.6195 165.147   5
   3  11   1 524.449 276.739   5
   3  11   2 2170.66 582.654   5
  -3 -11  -2 2142.54 528.332   2
   3  11   3 431.698 250.080   5
  -3 -11  -3 595.728 237.899   2
   3  11   4 1826.17 512.101   5
  -3 -11  -4 1536.67 422.741   2
   3  11   5 637.719 302.368   5
   3  11   6 33.1543 94.0973   5
   3  11   7-169.940 160.594   5
   3  11   8 430.495 227.556   5
   3  11   9 419.823 239.508   5
   3  11  10 120.203 148.570   5
   3  11  11 564.967 316.967   5
   3  11  12 197.545 171.648   5
   3  12   3 256.712 209.310   5
   3  12   4 180.146 157.976   5
   3  12   5 614.628 282.492   5
   3  12   6 280.945 175.424   5
   3  12   7 191.853 149.261   5
   3  12   8 11.2744 89.9236   5
   3  12   9 8.78166 212.927   5
   3  12  10 319.858 222.613   5
  -4  12   6 3115.48 775.020   5
  -4  12   5 55.8273 122.961   5
  -4  12   4 697.700 340.869   5
  -4  12   3-127.497 156.605   5
  -4  12   2 252.415 240.279   5
  -4  11   8 565.530 325.976   5
  -4  11   7 36.7937 97.7172   5
  -4  11   6-4.20889 162.355   5
  -4  11   5-107.855 137.466   5
  -4  11   4 443.097 258.418   5
  -4  11   3 125.133 117.483   5
   4 -11  -2-135.634 160.053   2
  -4  11   2-74.3844 112.109   5
  -4  11   1 170.183 156.593   5
   4 -11  -1 190.553 234.196   2
  -4  11   0 1047.12 417.923   5
  -4  11  -1 154.937 193.006   5
  -4  10   9-9.96681 69.0882   5
  -4  10   8 462.518 309.507   5
  -4  10   7 83.7121 123.239   5
  -4  10   6 105.458 59.0982   5
  -4  10   5 440.672 245.777   5
  -4  10   4 264.728 202.705   5
  -4  10   3 1070.23 375.047   5
  -4  10   2 358.409 214.071   5
  -4  10   1-334.094 214.844   5
   4 -10  -1 113.619 95.7019   2
  -4  10   0 494.501 276.468   5
   4 -10   0 498.116 249.886   2
   4 -10   1-16.6924 51.3359   2
  -4  10  -1 72.6071 125.629   5
  -4  10  -1-3.09888 43.9282   6
  -4  10  -2 1919.85 578.139   6
  -4  10  -2 1532.93 474.007   5
  -4   9  10 415.462 272.153   5
  -4   9   9 402.311 274.268   5
  -4   9   8 970.883 388.038   5
  -4   9   7 96.7879 48.4927   5
  -4   9   6 166.601 79.4922   5
  -4   9   5 153.790 132.180   5
  -4   9   4 1986.18 482.261   5
  -4   9   3-97.9438 97.5787   5
  -4   9   2 2893.69 588.522   5
  -4   9   2 1875.18 431.370   6
  -4   9   1 130.514 51.5672   6
   4  -9  -1 39.8176 91.9943   2
  -4   9   0 310.798 201.458   6
  -4   9   0 925.918 326.550   5
   4  -9   0 1100.08 397.473   2
  -4   9  -1 55.1527 95.2239   6
  -4   9  -1 65.8444 97.9677   5
   4  -9   2 396.393 290.200   2
  -4   9  -2 142.532 127.093   5
   4  -9   3 817.658 385.991   7
  -4   9  -3 834.760 341.780   5
  -4   9  -4 183.371 166.568   5
  -4   8  11 248.213 309.296   3
  -4   8  10 389.564 258.273   5
  -4   8  10 45.1421 121.864   3
  -4   8   9 418.657 261.750   5
  -4   8   9 371.341 225.484   3
  -4   8   8 356.294 240.271   5
  -4   8   7 305.864 244.671   5
  -4   8   6 696.708 327.492   5
  -4   8   5 95.7511 135.886   5
  -4   8   4 5196.15 774.277   5
  -4   8   3 777.364 277.934   5
  -4   8   2 136.248 114.534   5
  -4   8   2 125.311 99.3019   6
  -4   8   1 34.0711 111.754   5
  -4   8   1 49.5146 65.8821   6
  -4   8   0 205.019 77.6190   6
  -4   8   0 379.155 191.857   5
   4  -8   0 149.889 144.471   2
  -4   8  -1-33.6472 52.5123   5
   4  -8   1 8.92065 103.923   4
   4  -8   1 12.6724 68.5630   2
   4  -8   2 200.438 211.080   7
   4  -8   2-297.120 212.793   2
  -4   8  -2 103.779 96.6129   5
   4  -8   3 590.202 264.645   7
  -4   8  -3 535.060 270.138   5
   4  -8   4 2461.92 669.388   7
  -4   8  -4 2052.94 526.948   5
  -4   8  -5-227.973 186.346   5
  -4   7  10 1256.96 493.158   7
  -4   7   9 74.2353 102.350   5
  -4   7   9-218.696 195.287   7
  -4   7   8 28.2802 132.884   5
  -4   7   7-1.31332 97.6676   5
  -4   7   6 3079.16 609.510   5
  -4   7   6 2816.75 529.758   3
  -4   7   5 16577.3 1420.88   5
  -4   7   4 25757.6 1736.87   5
  -4   7   3 354.202 92.9734   5
  -4   7   2 1061.32 307.828   5
  -4   7   2 1249.08 320.030   6
  -4   7   1 1440.12 357.003   5
  -4   7   1 1141.89 315.346   6
  -4   7   0 2357.54 499.314   6
  -4   7   0 2425.93 461.772   5
   4  -7   0 2316.54 499.166   2
  -4   7  -1 1181.80 363.964   6
  -4   7  -1 1379.93 356.482   5
   4  -7   1 991.826 273.742   4
   4  -7   1 1318.05 390.856   2
   4  -7   2 221.750 166.868   2
  -4   7  -2 361.999 186.948   5
   4  -7   2 268.272 201.454   7
  -4   7  -3 550.323 253.269   5
   4  -7   3 225.441 140.779   2
   4  -7   3 494.362 241.889   7
  -4   7  -4 2532.11 541.766   5
   4  -7   4 2564.93 650.960   7
   4  -7   5 569.065 293.594   7
  -4   7  -5 1085.18 366.355   5
   4  -6 -11 315.498 184.070   4
  -4   6  11 308.445 267.880   7
  -4   6  10 391.475 256.398   7
  -4   6   9 190.059 205.990   7
  -4   6   8 262.716 173.957   5
  -4   6   7 1382.65 408.768   5
  -4   6   6 515.064 227.376   5
  -4   6   5 14195.9 1251.65   5
  -4   6   4 64255.7 2916.11   5
  -4   6   3 16471.9 1229.77   5
  -4   6   3 16143.1 902.912   3
  -4   6   2 60231.7 2640.61   5
  -4   6   1-35.1575 50.8737   5
  -4   6   1 140.990 84.6374   6
  -4   6   0-282.555 143.197   5
  -4   6   0-80.0009 128.116   6
  -4   6  -1-42.2895 116.173   6
  -4   6  -1-113.783 109.224   5
   4  -6   1 34.6693 32.7181   4
   4  -6   1 56.9077 67.3317   2
  -4   6  -2 1144.08 304.330   5
   4  -6   2 732.484 273.333   7
   4  -6   2 1226.91 265.219   4
   4  -6   2 1096.84 342.566   2
   4  -6   3 16.1712 94.9339   2
  -4   6  -3 416.618 199.192   5
   4  -6   3 254.716 108.743   7
   4  -6   4 309.394 189.097   7
  -4   6  -4 645.531 268.651   5
   4  -6   5 9.22439 74.8853   7
   4  -6   6 48.6431 152.282   7
  -4   5  12 568.671 412.837   7
  -4   5  11-44.5760 199.691   7
   4  -5 -10 2584.47 522.388   4
  -4   5  10 1280.10 541.442   7
  -4   5   9 1245.25 503.914   7
  -4   5   8 37.3787 54.2107   7
  -4   5   7 5010.98 773.363   5
  -4   5   6 35.3957 99.8655   5
  -4   5   5 103.593 69.7488   5
  -4   5   4 186.097 152.859   5
  -4   5   3 4834.98 607.403   5
  -4   5   2 8875.02 797.452   5
  -4   5   1 184.066 122.394   5
  -4   5   1 327.493 161.088   6
  -4   5   0-67.0512 71.7070   6
  -4   5   0-139.952 91.6166   5
   4  -5   0 21.6412 59.6608   4
  -4   5  -1 52.5837 111.884   6
  -4   5  -1 112.930 110.434   5
   4  -5   1 76.0327 57.4070   4
   4  -5   1 104.676 113.415   2
   4  -5   2 5407.05 742.142   7
  -4   5  -2 5597.68 616.976   5
   4  -5   2 5520.26 728.465   2
   4  -5   2 4938.82 522.699   4
   4  -5   3 151.829 125.533   2
  -4   5  -3 266.446 154.042   5
   4  -5   3 55.4787 35.4225   4
   4  -5   3 204.300 168.017   7
   4  -5   4 11146.1 1255.83   7
   4  -5   5 8036.64 1141.94   7
   4  -5   6-98.0489 97.8785   7
   4  -5   7 286.173 246.346   7
  -4   4  11 416.219 319.549   7
  -4   4  10-2.24796 98.5357   7
  -4   4   9 635.874 290.216   7
   4  -4  -9 663.919 246.008   4
   4  -4  -8 771.423 264.319   4
  -4   4   8 451.116 260.656   7
   4  -4  -7 422.570 187.996   4
  -4   4   6 1549.81 391.289   5
  -4   4   5 617.340 246.266   5
  -4   4   4 11326.0 992.324   5
  -4   4   3 44840.1 2068.27   5
  -4   4   2 114279. 3890.87   5
  -4   4   1 1427.92 267.331   5
  -4   4   1 1999.86 390.839   6
   4  -4  -1 2335.47 368.691   4
  -4   4   0 9458.49 719.762   5
   4  -4   0 10328.7 786.195   4
  -4   4   0 9756.60 892.346   6
  -4   4  -1 241.866 129.863   6
  -4   4  -1 222.479 92.1135   5
   4  -4   1 461.708 184.219   2
   4  -4   1 335.920 126.124   4
  -4   4  -2 179.928 86.6695   5
   4  -4   2 126.978 104.954   4
   4  -4   2 119.043 91.4700   2
   4  -4   2 47.2651 62.3790   7
   4  -4   3 9660.85 1015.46   7
   4  -4   3 8602.31 900.567   2
   4  -4   3 7824.49 648.857   4
   4  -4   4 12027.6 1223.45   7
   4  -4   4 9964.05 745.140   4
   4  -4   5 191.693 139.719   7
   4  -4   6 1635.19 519.570   7
   4  -4   7 4115.38 868.063   7
   4  -4   8 897.520 374.156   7
  -4   3  11 84.1771 157.844   7
  -4   3  10-152.972 197.198   7
   4  -3  -9 1965.92 408.817   4
  -4   3   9 1637.93 579.183   7
   4  -3  -8 759.370 251.465   4
  -4   3   8 323.908 248.882   7
   4  -3  -7 1981.12 391.855   4
  -4   3   7 2085.49 598.449   7
   4  -3  -6 1948.09 379.525   4
   4  -3  -5 10304.9 869.417   4
  -4   3   4 448.027 184.168   5
   4  -3  -4 347.996 152.402   4
  -4   3   3 2782.01 425.260   5
   4  -3  -3 3338.37 441.699   4
  -4   3   2 3597.01 440.487   5
   4  -3  -2 3587.89 460.919   4
  -4   3   1 29181.5 1346.63   5
   4  -3  -1 30385.4 1459.25   4
  -4   3   0 11160.2 700.237   5
   4  -3   0 10807.6 787.676   4
  -4   3   0 11170.9 903.108   6
  -4   3  -1 198.546 70.8464   3
  -4   3  -1 208.419 87.4056   5
   4  -3   1 156.330 89.0854   4
  -4   3  -1 265.478 150.562   6
  -4   3  -2 20258.7 1015.79   5
   4  -3   2 19711.2 1082.33   4
  -4   3  -2 20252.9 1372.46   6
   4  -3   3 8818.36 845.325   2
   4  -3   3 9042.86 936.105   7
   4  -3   3 9065.93 697.956   4
   4  -3   4 5287.44 761.826   7
   4  -3   4 4506.75 518.152   3
   4  -3   4 4504.12 485.306   4
   4  -3   5 15286.9 1432.70   7
   4  -3   5 12759.7 1034.25   3
   4  -3   6 3386.61 567.179   3
   4  -3   6 4092.42 790.102   7
   4  -3   7 21281.8 1988.82   7
   4  -3   8 4755.91 969.522   7
   4  -3   9 1123.41 495.261   7
  -4   2  10 210.726 163.773   7
  -4   2   9 293.286 284.922   7
   4  -2  -8 17.5712 85.5847   4
  -4   2   8-232.787 216.400   7
   4  -2  -7 2609.38 442.640   4
  -4   2   7 3654.35 802.213   7
   4  -2  -6 4974.15 585.706   4
  -4   2   6 4445.75 837.927   7
   4  -2  -5 2401.52 394.507   4
   4  -2  -4 3628.49 475.749   4
   4  -2  -3 1417.83 282.257   4
  -4   2   2 19236.9 1073.97   5
   4  -2  -2 20481.7 1131.23   4
  -4   2   1 132698. 4073.40   5
   4  -2  -1 135607. 4271.98   4
  -4   2   0 2244.71 253.647   5
   4  -2   0 1923.73 220.891   5
   4  -2   0 2381.67 339.498   4
  -4   2   0 1841.69 336.957   6
  -4   2  -1 36482.7 1332.84   5
   4  -2   1 40499.7 1667.62   4
  -4   2  -1 37807.7 1845.31   6
  -4   2  -2 5488.20 400.662   5
   4  -2   2 5646.60 554.187   2
  -4   2  -2 5616.01 649.932   6
   4  -2   2 6431.86 566.943   4
   4  -2   3 615.695 243.457   7
   4  -2   3 385.296 137.767   4
   4  -2   4 46382.5 2353.69   7
   4  -2   4 40339.0 1793.93   4
   4  -2   5 27851.4 1899.80   7
   4  -2   5 26261.6 1391.73   4
   4  -2   5 28901.2 1620.90   3
   4  -2   6 6250.30 779.604   3
   4  -2   6 6996.94 986.926   7
   4  -2   7 268.418 174.025   3
   4  -2   7-32.7746 100.860   7
   4  -2   8 2013.93 523.478   3
   4  -2   8 2772.78 698.021   7
   4  -2   9-185.691 172.646   3
   4  -2   9-166.474 288.346   7
   4  -2  10 4151.16 975.003   7
  -4   1  10 155.517 232.950   7
  -4   1   9 971.007 474.929   7
  -4   1   8 4830.54 1010.74   7
  -4   1   7 13049.6 1605.89   7
   4  -1  -7 14102.7 1065.42   4
   4  -1  -6 6565.83 664.529   4
  -4   1   6 4794.93 906.479   7
   4  -1  -5 73.5992 63.0194   4
   4  -1  -4 442.458 155.196   4
   4  -1  -3 4675.78 512.892   4
   4  -1  -2 46229.9 1929.88   4
   4  -1  -1 1487.00 238.780   5
   4  -1  -1 2034.71 306.208   4
   4  -1   0 27266.2 1036.59   5
   4  -1   0 31512.1 1410.91   4
  -4   1  -1 16926.7 610.642   5
   4  -1   1 18308.8 1031.90   4
  -4   1  -1 17904.2 1113.64   6
  -4   1  -2 16219.0 610.434   5
   4  -1   2 17518.2 1023.44   4
   4  -1   2 15600.3 887.862   2
  -4   1  -2 17583.9 1139.24   6
   4  -1   3 24497.8 1446.91   7
   4  -1   3 24443.1 1293.10   4
  -4   1  -3 25708.5 1490.77   6
   4  -1   4 335.331 138.595   4
   4  -1   4 156.535 112.462   7
   4  -1   5 7849.03 895.541   7
   4  -1   5 6217.82 631.151   4
   4  -1   5 7442.78 774.916   3
   4  -1   6 5488.20 826.420   7
   4  -1   6 5176.40 578.950   4
   4  -1   6 5233.74 716.310   3
   4  -1   7 11320.0 1297.15   7
   4  -1   7 10857.6 1143.45   3
   4  -1   8 402.964 225.542   3
   4  -1   8 832.548 351.381   7
   4  -1   9 834.037 350.101   3
   4  -1   9 717.822 325.965   7
   4  -1  10 42.5469 87.6695   3
   4  -1  10 84.0326 74.1799   7
   4  -1  11 2035.57 624.314   3
  -4   0   9 259.124 272.084   7
  -4   0   8 2375.88 745.581   7
  -4   0   7 12947.7 1637.25   7
   4   0  -6 803.948 247.595   4
  -4   0   6 464.701 276.516   7
  -4   0   5 8616.57 1184.04   7
   4   0  -5 9879.40 830.927   4
   4   0  -4 19612.4 1203.71   4
   4   0  -3 82111.2 2997.48   4
   4   0  -2 3978.64 471.346   4
   4   0  -1 6985.15 627.672   4
   4   0   0 6131.53 420.136   5
   4   0   0 7400.57 646.781   4
   4   0   1 51382.1 2102.10   4
   4   0   2 9558.14 559.495   2
   4   0   2 9645.48 768.905   4
  -4   0  -2 9872.04 796.587   6
  -4   0  -3 8130.92 420.222   5
   4   0   3 9222.16 753.162   4
  -4   0  -3 8974.02 790.971   6
  -4   0  -4 2972.51 328.680   5
   4   0   4 3835.89 529.015   7
   4   0   4 3815.92 497.291   4
   4   0   5 230.436 138.674   4
   4   0   5 87.7218 55.1441   7
   4   0   5 188.443 105.055   3
   4   0   6 2238.35 446.186   3
   4   0   6 1982.19 479.548   7
   4   0   6 1404.41 314.880   4
   4   0   7 2101.67 483.501   3
   4   0   7 1465.66 433.678   7
   4   0   8 4972.57 804.870   3
   4   0   8 5264.33 879.118   7
   4   0   9-50.0639 97.0981   3
   4   0   9-191.017 179.566   7
   4   0  10 1145.48 440.319   3
   4   0  10 842.312 424.164   7
   4   0  11 1108.75 476.902   3
   4   0  11 1355.32 530.752   7
   4   0  12 1688.64 625.205   3
  -4  -1   9 336.436 367.726   7
  -4  -1   8 808.700 448.091   7
  -4  -1   7 3299.52 858.160   7
   4   1  -6 3191.36 483.838   4
  -4  -1   6 3631.62 842.281   7
   4   1  -5 1658.79 344.215   4
  -4  -1   5 2116.71 589.116   7
   4   1  -4 74.4109 103.303   4
  -4  -1   4 239.351 165.771   7
   4   1  -3 1420.58 311.104   4
   4   1  -2 18186.4 1142.37   4
   4   1  -1 1257.99 267.171   4
   4   1   0 89.0203 75.5218   4
   4   1   1 55351.3 2281.93   4
   4   1   2 22652.6 1313.01   4
  -4  -1  -3 48652.9 1478.47   5
  -4  -1  -3 50983.2 1693.12   2
   4   1   3 55700.2 2319.45   4
  -4  -1  -3 55484.6 2191.39   6
  -4  -1  -4 8051.46 521.737   5
  -4  -1  -4 10140.6 835.418   1
   4   1   4 8693.90 799.669   4
  -4  -1  -4 9508.41 815.581   6
   4   1   5 4782.10 604.808   7
  -4  -1  -5 6044.66 665.698   1
   4   1   5 4249.77 575.578   4
   4   1   6 2620.38 497.045   7
   4   1   6 3100.56 503.715   4
  -4  -1  -6 2646.60 457.424   1
   4   1   6 2960.19 524.831   3
   4   1   7 50.1683 94.0544   3
   4   1   7 79.8383 97.8218   7
  -4  -1  -7 189.805 141.696   1
   4   1   8 2019.05 503.062   3
  -4  -1  -8 1981.95 420.976   1
   4   1   8 1840.78 486.472   7
   4   1   9 422.700 251.501   3
  -4  -1  -9 206.320 138.355   1
   4   1   9 274.629 74.4764   7
   4   1  10 497.453 320.419   3
   4   1  10 296.887 235.518   7
   4   1  11 293.905 240.996   7
   4   1  11 314.860 207.486   3
   4   1  12 1160.51 484.568   3
   4   1  12 403.648 300.221   7
  -4  -2   8 381.593 320.283   7
  -4  -2   7 419.089 306.424   7
  -4  -2   6 6452.48 1151.82   7
   4   2  -5-22.7325 59.0959   4
  -4  -2   5 173.245 208.025   7
   4   2  -4 682.720 211.557   4
  -4  -2   4 468.304 258.361   7
   4   2  -3 144.094 124.204   4
  -4  -2   3 120.015 96.7099   7
   4   2  -2 2537.17 418.029   4
   4   2  -1 12235.3 953.195   4
   4   2   0 6481.62 679.036   4
   4   2   1 228.093 113.425   4
  -4  -2  -1 568.983 169.817   1
   4   2   2 11478.4 569.891   5
   4   2   2 12687.4 990.051   4
   4   2   3 4.98920 63.7130   4
   4   2   3 7.57215 15.8254   5
  -4  -2  -3-11.1812 12.8191   2
  -4  -2  -3 9.14016 39.4054   6
   4   2   4 44624.1 1590.59   5
  -4  -2  -4 39561.8 1516.72   5
   4   2   4 45611.6 2176.53   4
  -4  -2  -4 44269.6 1936.05   6
   4   2   5 8091.59 730.960   7
  -4  -2  -5 7174.08 772.815   1
   4   2   5 7616.01 819.449   4
  -4  -2  -5 6995.76 700.692   6
   4   2   6 5668.99 679.200   7
  -4  -2  -6 6656.83 765.850   1
   4   2   6 6848.39 796.599   4
   4   2   7-91.4444 97.7971   7
  -4  -2  -7-15.6603 45.6258   1
   4   2   7-28.9884 99.9198   3
   4   2   8-97.5358 163.233   3
   4   2   8 104.176 106.300   7
  -4  -2  -8-14.7166 82.7569   1
   4   2   9-54.9136 150.857   3
  -4  -2  -9 218.419 136.333   1
   4   2   9-18.9623 59.9845   7
   4   2  10 281.637 251.144   3
  -4  -2 -10 598.132 244.080   1
   4   2  10 918.619 394.530   7
   4   2  11 2045.02 613.348   3
   4   2  11 1643.91 545.901   7
   4   2  12 1172.95 512.262   3
   4   2  12 894.007 444.944   7
  -4  -3   8 28.5463 220.432   7
  -4  -3   7 274.615 232.075   7
  -4  -3   6 1681.94 583.792   7
  -4  -3   5 23.3847 103.376   7
   4   3  -4 1020.34 282.028   4
  -4  -3   4 1330.10 424.255   7
  -4  -3   3 6015.74 941.575   7
   4   3  -3 5634.13 694.241   4
   4   3  -2 659.775 236.210   4
  -4  -3   2 645.350 265.479   7
   4   3  -1 731.129 241.493   4
   4   3   0 120.140 82.6900   4
  -4  -3   0 296.040 123.404   1
   4   3   0 104.536 47.2989   2
  -4  -3  -1 27394.2 1452.48   1
   4   3   1 30537.6 1719.83   4
   4   3   2 294.030 154.565   4
   4   3   2 70.1409 62.2032   5
   4   3   3 16301.0 846.526   5
   4   3   3 17003.8 1266.33   4
   4   3   4 59589.8 2169.68   5
   4   3   4 63880.5 2863.38   4
  -4  -3  -4 62221.3 2378.36   6
   4   3   5 56763.4 2224.41   5
  -4  -3  -5 61518.4 2751.30   1
   4   3   5 58803.5 2816.06   4
  -4  -3  -5 58524.9 2357.47   6
   4   3   6 43686.1 1966.89   5
  -4  -3  -6 48645.6 2434.36   1
   4   3   6 45895.2 2062.10   7
   4   3   6 43376.0 2401.78   4
  -4  -3  -6 46199.0 2079.75   6
  -4  -3  -7 135.032 120.733   1
   4   3   7-40.4470 88.8609   7
  -4  -3  -8 3365.63 607.583   1
   4   3   8 3100.24 564.028   7
   4   3   8 3337.02 638.466   3
   4   3   9 314.535 255.623   3
  -4  -3  -9 44.2033 53.4930   1
   4   3   9 250.285 140.952   7
   4   3  10 583.257 358.435   3
   4   3  10 459.029 233.871   7
  -4  -3 -10 230.969 149.993   1
   4   3  11 166.886 158.049   3
   4   3  11 9.15139 77.7757   7
  -4  -3 -11 49.1549 69.3537   1
   4   3  12 515.263 331.388   3
   4   3  12 402.961 259.612   7
   4   3  13-71.1113 125.820   7
  -4  -4   7-78.6701 157.383   7
  -4  -4   6 90.2921 181.083   7
  -4  -4   5 222.109 193.456   7
  -4  -4   4 3831.99 824.666   7
  -4  -4   3 25595.4 2108.86   7
   4   4  -3 22721.9 1561.67   4
   4   4  -2 3879.80 605.449   4
  -4  -4   2 4788.08 808.970   7
   4   4  -1 162.423 128.233   4
  -4  -4   1 104.313 113.520   7
   4   4   0 2689.14 497.028   4
  -4  -4   0 2161.09 348.691   1
   4   4   1 30859.4 1860.62   4
   4   4   2 10965.7 755.350   5
   4   4   2 12681.8 1137.97   4
   4   4   3 10086.4 708.661   5
   4   4   3 10118.4 1040.36   4
   4   4   4 1809.30 302.089   5
   4   4   4 3483.58 619.745   4
   4   4   5 1989.32 332.887   5
  -4  -4  -5 1927.84 308.822   6
   4   4   5 1754.95 421.808   4
   4   4   6 1810.34 331.944   5
  -4  -4  -6 1871.78 413.571   1
  -4  -4  -6 1776.86 318.838   6
  -4  -4  -7 2353.56 391.897   6
   4   4   7 1657.94 349.568   5
   4   4   7 2326.62 397.216   7
  -4  -4  -7 2107.88 491.726   1
  -4  -4  -8 4131.79 740.702   1
   4   4   8 2419.96 458.850   7
  -4  -4  -9 465.270 243.949   1
   4   4   9 216.403 143.670   7
   4   4   9 38.3389 104.048   3
   4   4  10-20.5290 40.5058   7
   4   4  10 117.858 173.071   3
   4   4  11-153.967 169.975   3
  -4  -4 -11 4.25337 46.4751   1
   4   4  11 105.617 126.547   7
   4   4  12 1239.49 526.581   3
  -4  -5   6-239.490 258.494   7
  -4  -5   5 35.7443 212.671   7
  -4  -5   4 1714.27 598.483   7
  -4  -5   3 11585.0 1464.18   7
   4   5  -3 10420.0 1077.49   4
   4   5  -2 4589.28 703.576   4
  -4  -5   2 5404.56 907.223   7
  -4  -5   1 1088.20 228.244   1
  -4  -5   1 1813.18 471.208   7
   4   5  -1 1316.60 376.673   4
  -4  -5   0 118.482 94.6886   7
   4   5   0-9.20092 112.847   4
  -4  -5  -1 4703.79 660.113   7
   4   5   1 4642.72 720.751   4
   4   5   2 29175.6 1491.65   5
  -4  -5  -2 29204.1 1199.82   2
   4   5   2 32099.6 2031.58   4
   4   5   3 4923.63 535.186   5
  -4  -5  -3 4778.73 667.511   1
   4   5   3 5794.48 821.620   4
  -4  -5  -4 143.276 155.422   1
   4   5   4 78.8226 88.4563   5
   4   5   4 31.1868 59.4129   4
   4   5   5 3334.13 458.354   5
   4   5   6 15570.9 1116.99   5
  -4  -5  -7 1400.80 378.994   1
   4   5   7 1940.45 395.135   5
  -4  -5  -7 1298.77 263.912   6
   4   5   8 1693.10 335.828   7
  -4  -5  -8 2226.36 380.991   6
   4   5   8 1048.84 312.104   5
  -4  -5  -8 1488.66 421.784   1
   4   5   9 3261.74 563.138   5
   4   5   9 3272.30 527.621   7
  -4  -5  -9 3498.40 702.549   1
  -4  -5 -10 415.391 245.044   1
   4   5  10 958.607 389.516   3
  -4  -5 -11 226.517 166.560   1
   4   5  11-4.92907 58.6204   3
  -4  -5 -12 451.494 344.404   1
   4   5  12 1527.51 570.545   3
  -4  -6   6 2281.25 834.600   7
  -4  -6   5-180.035 221.909   7
  -4  -6   4 92.0570 84.6923   7
  -4  -6   3 2642.32 719.174   7
  -4  -6   2 24371.1 2121.98   7
  -4  -6   1 1825.30 495.938   7
   4   6   0 690.232 276.840   4
  -4  -6   0 481.163 226.877   7
   4   6   1 112.359 100.792   5
   4   6   1 82.2233 122.122   4
  -4  -6  -1 98.6428 126.852   7
  -4  -6  -2 499.728 145.660   2
  -4  -6  -2 653.841 238.917   1
  -4  -6  -2 496.919 193.598   7
   4   6   2 255.093 155.631   5
   4   6   3 526.288 174.171   5
  -4  -6  -3 544.456 140.359   2
  -4  -6  -3 950.805 246.119   7
   4   6   4 148.341 110.922   5
   4   6   5 1890.88 370.532   5
   4   6   6 11505.2 989.576   5
   4   6   7 2890.49 505.008   5
   4   6   8 767.423 274.917   5
   4   6   9 5686.12 799.942   5
   4   6  10 1144.20 365.073   5
  -4  -6 -10 1759.94 533.168   1
  -4  -6 -11 52.2199 74.8878   1
   4   6  12 66.3909 184.251   3
  -4  -6 -12 256.357 294.265   1
  -4  -6 -13 272.379 203.189   1
  -4  -7   5 302.441 299.227   7
  -4  -7   4 526.639 368.440   7
  -4  -7   3 278.253 182.448   7
  -4  -7   2 316.629 247.263   7
  -4  -7   1 1017.80 416.019   7
  -4  -7   0 5314.35 854.269   7
  -4  -7  -1 4189.58 679.950   7
   4   7   1 3606.24 588.505   5
  -4  -7  -1 5095.42 683.396   1
  -4  -7  -2 1335.22 280.814   2
  -4  -7  -2 764.240 264.454   1
  -4  -7  -2 1252.32 331.616   7
   4   7   2 1233.54 326.712   5
   4   7   3 1072.95 299.468   5
  -4  -7  -3 1009.25 234.391   2
  -4  -7  -3 984.170 247.646   7
   4   7   4 849.027 254.901   5
   4   7   5 926.550 278.087   5
   4   7   6 23215.3 1539.92   5
   4   7   7 575.318 235.548   5
   4   7   8 566.940 227.701   5
   4   7   9 1331.62 394.043   5
   4   7  10 2050.48 515.536   5
   4   7  11-53.1821 112.919   5
  -4  -7 -12-385.231 280.423   1
  -4  -7 -13 569.837 349.189   1
  -4  -8   4 347.099 298.998   7
  -4  -8   3 131.276 152.688   7
  -4  -8   2 4152.43 900.305   7
  -4  -8   1 2016.94 584.865   7
   4   8   0 1096.99 337.830   5
  -4  -8   0 1149.54 406.980   7
   4   8   1 1389.33 387.195   5
  -4  -8  -1 1110.75 335.606   1
  -4  -8  -2-136.275 101.243   2
   4   8   2 48.6629 86.9257   5
   4   8   3 772.862 257.854   5
  -4  -8  -3 573.100 192.132   2
   4   8   4 1734.81 404.422   5
   4   8   5 1460.82 356.635   5
   4   8   6 15376.3 1296.80   5
   4   8   7 7169.90 891.803   5
   4   8   8 1704.33 448.287   5
   4   8   9 1392.31 419.067   5
   4   8  10 643.728 293.941   5
   4   8  11 1502.44 474.285   5
   4   8  12-35.7557 83.7498   5
  -4  -8 -13 521.873 298.192   1
   4   9  -1 238.323 205.683   5
   4   9   0 3129.43 658.478   5
   4   9   1 192.645 140.574   5
  -4  -9  -2 21.5354 33.8143   2
   4   9   2 93.1707 61.5243   5
   4   9   3 4356.58 713.372   5
  -4  -9  -3 4207.05 588.043   2
   4   9   4 6431.98 859.879   5
  -4  -9  -4 4928.61 612.294   2
   4   9   5 5122.17 769.882   5
   4   9   6 306.865 211.688   5
   4   9   7 2322.89 519.537   5
   4   9   8 56.5100 89.1870   5
   4   9   9 1277.82 422.010   5
   4   9  10 251.318 166.965   5
   4   9  11 389.494 240.282   5
   4   9  12-182.930 177.509   5
   4   9  13 25.0653 184.191   5
   4  10  -1 453.519 301.147   5
   4  10   0 578.151 281.458   5
   4  10   1 1155.28 413.140   5
   4  10   2 488.765 268.433   5
   4  10   3 5022.78 825.137   5
   4  10   4 2039.20 518.744   5
   4  10   5 3328.65 656.381   5
   4  10   6 96.1005 70.5465   5
   4  10   7 752.877 319.176   5
   4  10   8-56.1379 97.1987   5
   4  10   9-242.846 189.919   5
   4  10  10-13.5655 54.6305   5
   4  10  11 881.554 371.103   5
   4  10  12 130.233 158.041   5
   4  11   1 120.874 140.940   5
   4  11   2 3234.48 721.038   5
   4  11   3 1378.54 460.044   5
   4  11   4 4151.88 793.853   5
   4  11   5 191.718 163.880   5
   4  11   6 51.4783 58.7582   5
   4  11   7 404.433 263.039   5
   4  11   8 61.5934 89.3888   5
   4  11   9-26.8628 59.1299   5
   4  11  10 461.847 255.603   5
   4  11  11-52.5300 114.847   5
   4  11  12 556.584 334.445   5
   4  12   4 420.864 266.769   5
   4  12   5 250.950 177.295   5
   4  12   6 68.8204 83.4543   5
   4  12   7 598.104 315.575   5
   4  12   8 88.6215 83.7566   5
   4  12   9 312.106 273.284   5
   4  12  10 141.833 174.477   5
  -5  12   5 65.5973 121.250   5
  -5  12   4 0.45263 48.5932   5
  -5  11   8-169.829 187.629   5
  -5  11   7 75.0769 152.645   5
  -5  11   6 537.811 297.636   5
  -5  11   5 280.346 200.803   5
  -5  11   4 3100.53 710.915   5
  -5  11   3 367.242 259.897   5
  -5  11   2 50.8700 99.7444   5
  -5  11   1 70.7877 169.539   5
  -5  10   9 1759.53 596.668   5
  -5  10   8 99.1225 142.594   5
  -5  10   7 1037.39 429.460   5
  -5  10   6-154.718 174.642   5
  -5  10   5 825.124 333.885   5
  -5  10   4 1874.45 522.896   5
  -5  10   3 581.669 286.916   5
  -5  10   2 54.1101 94.4109   5
  -5  10   1 97.4135 121.258   5
   5 -10  -1 106.777 73.4154   2
   5 -10  -1 71.2615 73.8475   4
  -5  10   0 176.059 149.117   5
   5 -10   0 31.9573 143.774   2
  -5  10   0-41.6075 86.6671   6
  -5  10  -1-45.2123 92.3190   6
  -5  10  -2 2415.18 658.851   6
  -5   9   9 332.835 250.417   5
  -5   9   8 158.813 172.165   5
  -5   9   7-227.036 192.519   5
  -5   9   6 463.073 288.488   5
  -5   9   5 400.891 224.380   5
  -5   9   4-36.9836 81.6489   5
  -5   9   3 263.784 155.130   5
  -5   9   2-3.63592 41.8679   5
  -5   9   2 106.594 112.515   6
   5  -9  -1 776.262 362.230   2
  -5   9   1 1221.55 389.350   5
  -5   9   1 1086.32 365.611   6
  -5   9   0 1182.50 369.663   5
   5  -9   0 893.538 297.815   4
   5  -9   0 1411.70 444.911   2
  -5   9   0 1068.49 382.348   6
  -5   9  -1 367.999 231.792   6
  -5   9  -1 912.811 334.289   5
   5  -9   1 727.844 261.989   2
  -5   9  -2 15.5683 66.7940   6
   5  -9   2 229.500 250.089   2
  -5   9  -3 539.462 326.365   6
  -5   8   9 701.769 351.976   5
  -5   8   8 148.214 187.076   5
  -5   8   7 1190.61 424.312   5
  -5   8   6 280.365 169.630   5
  -5   8   5 135.320 176.924   5
  -5   8   4 2066.02 506.544   5
  -5   8   3 2762.12 553.738   5
  -5   8   2 139.828 155.444   5
  -5   8   1 631.026 265.027   5
  -5   8   1 326.379 187.951   6
  -5   8   0-37.9565 68.1491   5
   5  -8   0 116.022 99.6416   4
   5  -8   0 26.3381 47.9826   2
  -5   8   0 228.559 158.049   6
  -5   8  -1-1.74003 37.4725   6
  -5   8  -1-26.9662 112.472   5
   5  -8   1 76.9588 104.367   4
   5  -8   1-44.8984 117.648   2
  -5   8  -2 185.344 148.797   6
   5  -8   2 116.057 138.261   2
  -5   8  -2-54.6034 92.1094   5
  -5   8  -3 5000.16 933.908   6
   5  -8   3 5690.09 1006.74   2
   5  -8   4 4897.15 955.495   7
   5  -7 -11 535.979 287.875   4
  -5   7  10 122.649 168.892   7
   5  -7 -10 247.055 177.811   4
  -5   7   9 745.742 393.650   7
  -5   7   8-77.9633 114.838   5
  -5   7   7 84.6365 141.966   5
  -5   7   6 701.564 281.627   5
  -5   7   5 692.719 267.536   5
  -5   7   4 10510.7 1092.23   5
  -5   7   3 3798.68 620.765   5
  -5   7   2 1202.13 328.055   5
  -5   7   1 187.013 141.378   5
   5  -7  -1 63.4198 51.1197   4
  -5   7   1 44.0565 49.5124   6
  -5   7   0 1787.06 396.391   5
   5  -7   0 1830.17 460.273   2
   5  -7   0 2553.00 463.728   4
  -5   7   0 1689.04 445.666   6
  -5   7  -1 666.276 316.662   6
  -5   7  -1 193.994 142.306   5
   5  -7   1 446.573 171.231   4
   5  -7   1 242.301 169.140   2
   5  -7   2 3611.25 696.560   2
  -5   7  -2 2769.69 620.695   6
  -5   7  -2 2911.40 531.358   5
   5  -7   3 738.835 352.453   2
  -5   7  -3 757.595 272.092   5
   5  -7   4-28.0703 162.874   7
   5  -7   5 979.536 422.262   7
  -5   6  11 281.007 270.495   7
  -5   6  10-42.7097 106.434   7
   5  -6 -10 260.330 184.257   4
   5  -6  -9 85.6734 76.7161   4
  -5   6   9-326.615 263.255   7
   5  -6  -8 7.88503 67.5729   4
  -5   6   7 783.174 312.486   5
  -5   6   6 236.017 220.664   5
  -5   6   5 6719.57 870.784   5
  -5   6   4 30813.9 1890.75   5
  -5   6   3 31119.6 1826.39   5
  -5   6   2 1668.20 374.049   5
   5  -6  -2 1233.13 350.717   4
  -5   6   1 22829.7 1433.02   5
   5  -6  -1 21811.5 1419.58   4
  -5   6   1 20607.6 1520.36   6
  -5   6   0 6670.37 724.404   5
   5  -6   0 5760.31 670.472   4
  -5   6   0 5888.13 801.813   6
  -5   6  -1 1099.03 344.138   6
  -5   6  -1 1551.98 343.386   5
   5  -6   1 1142.21 276.681   4
   5  -6   1 1957.15 458.206   2
   5  -6   2 66.4137 45.7917   4
  -5   6  -2 93.4713 60.4248   5
   5  -6   2 104.529 62.8047   2
   5  -6   3 1682.58 474.696   2
  -5   6  -3 1556.54 366.476   5
  -5   6  -4 1041.76 308.456   5
   5  -6   4 1488.08 473.133   7
   5  -6   5 355.678 229.896   7
   5  -6   6 403.723 271.988   7
  -5   5  11-254.106 261.919   7
  -5   5  10-211.367 229.007   7
   5  -5 -10-4.29096 92.7285   4
   5  -5  -9 1181.93 354.820   4
  -5   5   9 280.318 244.275   7
   5  -5  -8 81.5783 64.3774   4
  -5   5   8 0.47606 98.4169   7
   5  -5  -7 1334.44 357.797   4
  -5   5   6 7089.93 919.758   5
   5  -5  -6 8189.87 908.905   4
  -5   5   5 3252.90 579.360   5
   5  -5  -5 3423.66 547.988   4
  -5   5   4 7257.93 829.875   5
   5  -5  -4 9288.96 900.367   4
  -5   5   3 15020.6 1148.87   5
   5  -5  -3 15023.5 1169.11   4
  -5   5   2 4849.10 594.898   5
   5  -5  -2 4988.14 629.704   4
  -5   5   1 4842.15 567.456   5
   5  -5  -1 5824.09 669.424   4
  -5   5   0 5404.03 590.038   5
   5  -5   0 5485.56 635.863   4
  -5   5   0 5721.36 752.396   6
  -5   5  -1 309.170 167.339   6
  -5   5  -1 174.358 107.053   5
   5  -5   1 229.182 130.151   4
   5  -5   1 337.790 227.531   2
  -5   5  -2 3650.83 660.863   6
  -5   5  -2 4795.48 564.072   5
   5  -5   2 4093.37 637.875   2
   5  -5   2 4855.46 567.715   4
  -5   5  -3-12.9009 50.2051   5
   5  -5   3 167.289 162.342   2
   5  -5   3 64.7624 80.0118   4
  -5   5  -4 5586.82 676.069   5
   5  -5   4 6018.98 910.343   7
   5  -5   5-91.4839 186.451   7
   5  -5   6 1117.14 433.006   7
   5  -5   7 737.931 414.122   7
  -5   4  10 356.223 280.864   7
   5  -4  -9 294.052 168.399   4
  -5   4   9 818.826 462.796   7
   5  -4  -8 479.932 226.516   4
  -5   4   8 150.962 145.376   7
   5  -4  -7-57.6330 117.874   4
   5  -4  -6 47.2291 73.8312   4
  -5   4   5 1826.69 407.188   5
   5  -4  -5 1662.98 377.476   4
  -5   4   4 18449.3 1339.38   5
   5  -4  -4 21332.8 1392.02   4
  -5   4   3 1214.53 296.823   5
   5  -4  -3 1815.47 364.112   4
  -5   4   2 1543.59 314.183   5
   5  -4  -2 1712.99 370.059   4
  -5   4   1 6216.62 600.390   5
   5  -4  -1 6156.58 663.567   4
  -5   4   0 48.2101 35.9880   5
   5  -4   0 120.528 105.131   4
  -5   4   0 9.07653 129.362   6
  -5   4  -1 560.754 163.278   5
   5  -4   1 576.067 197.457   4
   5  -4   1 708.031 226.702   2
  -5   4  -1 847.295 284.631   6
  -5   4  -2 939.836 320.713   6
   5  -4   2 1017.13 247.546   4
  -5   4  -2 626.993 171.975   5
   5  -4   2 1050.12 294.707   2
  -5   4  -3 7195.68 651.813   5
   5  -4   3 7167.63 841.513   2
   5  -4   3 6623.67 668.743   4
  -5   4  -3 7803.31 949.561   6
  -5   4  -4 18397.2 1179.40   5
   5  -4   4 19438.1 1607.10   7
   5  -4   4 17275.6 1151.77   4
   5  -4   5 3162.00 665.016   7
   5  -4   6 1872.08 563.702   7
   5  -4   7 5461.01 1005.47   7
   5  -4   8 260.837 209.199   7
  -5   3  10-153.747 206.558   7
   5  -3  -9-22.1315 71.1823   4
  -5   3   9-210.379 228.196   7
   5  -3  -8 346.829 157.583   4
  -5   3   8-102.445 158.087   7
   5  -3  -7 350.038 171.454   4
  -5   3   7 125.458 64.6898   7
   5  -3  -6 2219.28 426.968   4
   5  -3  -5 29.0921 70.5966   4
   5  -3  -4-75.3161 154.037   4
  -5   3   3 117.906 78.1495   5
   5  -3  -3 297.374 151.386   4
  -5   3   2 13296.7 918.534   5
   5  -3  -2 13266.3 1010.57   4
  -5   3   1 8401.06 656.354   5
   5  -3  -1 8246.41 750.818   4
  -5   3   0 722.352 164.368   5
   5  -3   0 681.437 204.669   4
  -5   3   0 557.849 226.513   6
  -5   3  -1 9148.36 622.256   5
   5  -3   1 9427.96 804.345   4
  -5   3  -1 10993.0 996.024   6
  -5   3  -2 9794.43 648.257   5
   5  -3   2 9612.25 842.582   2
   5  -3   2 9450.27 799.440   4
  -5   3  -2 10567.2 1024.56   6
   5  -3   3 357.961 181.190   2
   5  -3   3 346.090 126.004   4
  -5   3  -3 330.189 117.272   5
   5  -3   4 2212.86 387.522   4
   5  -3   4 1990.66 477.106   7
   5  -3   5 5432.84 839.992   7
   5  -3   6 3598.54 737.609   7
   5  -3   7 1808.69 556.764   7
   5  -3   8 182.285 51.9494   7
   5  -3   9 1231.14 488.649   7
  -5   2  10 258.727 270.903   7
  -5   2   9 766.908 452.599   7
   5  -2  -8 1032.51 304.258   4
  -5   2   8 701.239 426.620   7
   5  -2  -7 146.054 148.201   4
  -5   2   7 48.9292 103.339   7
   5  -2  -6 2678.77 472.377   4
   5  -2  -5 9642.45 887.866   4
   5  -2  -4 964.490 277.015   4
   5  -2  -3 5773.40 634.674   4
   5  -2  -2 91.9751 89.2510   4
  -5   2   1 4506.92 429.497   5
   5  -2  -1 4837.51 558.446   4
  -5   2   0 931.208 164.873   5
   5  -2   0 866.629 229.345   4
   5  -2   0 957.172 156.410   5
  -5   2  -1 5987.39 393.683   5
   5  -2   1 6247.26 634.383   4
  -5   2  -1 5972.93 705.729   6
  -5   2  -2 7703.45 460.082   5
   5  -2   2 7042.31 694.465   4
  -5   2  -3 23783.7 1016.73   5
   5  -2   3 23067.0 1368.02   4
  -5   2  -3 25068.1 1642.80   6
   5  -2   4 51391.1 2555.10   7
   5  -2   4 43226.8 2070.29   4
   5  -2   5 1289.76 305.571   4
   5  -2   5 2197.96 514.530   7
   5  -2   6 157.025 166.902   7
   5  -2   7 4663.75 844.863   7
   5  -2   7 5545.99 782.816   3
   5  -2   8-245.783 200.464   7
   5  -2   9 2471.77 698.507   7
  -5   1   9-9.84900 191.566   7
  -5   1   8-201.379 226.056   7
   5  -1  -7 158.568 145.698   4
  -5   1   7 236.922 194.146   7
   5  -1  -6 72.5767 79.8609   4
  -5   1   6 35.0189 291.308   7
   5  -1  -5 879.861 265.259   4
   5  -1  -4 91.9348 95.3687   4
   5  -1  -3 4544.94 573.565   4
   5  -1  -2 1372.82 298.608   4
   5  -1  -1 1257.53 292.985   4
   5  -1   0 3505.28 295.795   5
   5  -1   0 4665.89 555.637   4
   5  -1   1 1517.86 320.672   4
   5  -1   2 755.502 215.964   4
   5  -1   2 499.725 148.455   2
  -5   1  -2 485.135 208.581   6
  -5   1  -3 787.298 258.798   6
  -5   1  -3 610.673 100.734   5
  -5   1  -3 704.872 98.8746   5
   5  -1   3 919.345 248.692   4
   5  -1   4 4190.51 554.922   4
  -5   1  -4 4899.27 685.508   6
   5  -1   5 163.810 124.062   4
   5  -1   5 258.530 156.730   7
   5  -1   6 1363.23 327.322   4
   5  -1   6 2136.07 504.252   7
   5  -1   7 47.3404 41.3447   7
   5  -1   7 115.453 72.0702   3
   5  -1   8 358.372 239.994   7
   5  -1   8 196.817 164.258   3
   5  -1   9 184.015 223.571   7
   5  -1   9 64.1741 95.6447   3
   5  -1  10 344.663 175.284   7
  -5   0   9 147.611 219.069   7
  -5   0   8 743.858 418.494   7
  -5   0   7 1325.34 568.609   7
  -5   0   6 6827.51 1177.19   7
   5   0  -6 7245.69 816.926   4
   5   0  -5 70.6419 93.5322   4
  -5   0   5 442.506 239.044   7
   5   0  -4 14112.1 1105.62   4
   5   0  -3 6818.61 732.045   4
   5   0  -2 289.323 132.847   4
   5   0  -1 523.567 178.838   4
   5   0   0 10929.9 636.153   5
   5   0   0 14542.2 1040.61   4
   5   0   1 2966.12 457.130   4
   5   0   2 16938.2 832.154   2
   5   0   2 18162.6 1216.50   4
  -5   0  -2 18414.0 1239.43   6
   5   0   3 59762.2 2624.41   4
  -5   0  -3 65645.7 2752.30   6
  -5   0  -4 2444.66 468.340   6
  -5   0  -4 1924.75 202.180   5
   5   0   4 2487.20 448.355   4
  -5   0  -5 291.261 121.530   6
   5   0   5 428.819 198.573   4
   5   0   5 581.898 243.148   7
   5   0   6 633.399 234.959   4
   5   0   6 518.851 238.802   7
   5   0   7 5060.74 798.722   7
   5   0   7 4273.19 630.260   4
   5   0   8-187.762 163.566   7
   5   0   8-99.9604 116.639   3
   5   0   9 186.478 155.879   7
   5   0   9 357.607 218.880   3
   5   0  10 156.851 268.313   7
   5   0  10 236.407 201.176   3
   5   0  11 571.279 316.307   7
   5   0  11 404.672 238.041   3
  -5  -1   8 86.8602 267.657   7
  -5  -1   7 33.1665 207.840   7
   5   1  -6 4662.27 675.483   4
  -5  -1   6 5194.00 1049.88   7
   5   1  -5 1282.79 336.720   4
  -5  -1   5 1138.87 456.093   7
  -5  -1   4 40496.4 2734.34   7
   5   1  -4 35940.9 1995.25   4
   5   1  -3 34751.1 1900.16   4
   5   1  -2 7734.16 806.783   4
   5   1  -1 1684.19 361.287   4
   5   1   0 4114.43 564.028   4
   5   1   1 11182.7 556.096   5
   5   1   1 11347.2 444.867   2
   5   1   1 12808.7 1015.99   4
   5   1   2 11053.2 956.394   4
   5   1   3 1119.20 296.385   4
  -5  -1  -3 1619.64 346.279   6
   5   1   4 1457.55 349.804   4
  -5  -1  -4 1354.95 132.545   5
  -5  -1  -4 1826.41 376.577   6
  -5  -1  -5 481.227 205.393   6
   5   1   5 352.264 177.163   4
  -5  -1  -5 200.289 145.152   1
   5   1   6 5761.89 736.236   7
   5   1   6 4389.66 657.618   4
  -5  -1  -6 6259.75 756.489   1
  -5  -1  -7-0.67737 28.2014   1
   5   1   7-1.31903 30.2236   7
   5   1   7 119.747 121.937   4
   5   1   8-3.70243 38.9754   7
   5   1   8-47.3299 78.1674   3
   5   1   9 458.533 261.578   7
   5   1   9 876.234 343.545   3
   5   1  10-17.8825 73.9018   7
   5   1  10 28.1624 207.660   3
   5   1  11 875.562 405.716   7
   5   1  11 778.220 356.165   3
   5   1  12-83.4354 139.419   3
  -5  -2   8 475.969 378.150   7
  -5  -2   7-196.338 227.424   7
  -5  -2   6 587.109 344.880   7
   5   2  -5 3382.15 577.767   4
  -5  -2   5 3087.79 788.948   7
   5   2  -4 3087.39 525.827   4
  -5  -2   4 2983.25 721.111   7
   5   2  -3 340.482 196.349   4
  -5  -2   3 124.040 210.285   7
   5   2  -2 26241.1 1639.78   4
   5   2  -1 5790.73 712.454   4
   5   2   0 17547.3 1295.26   4
   5   2   1 1866.46 395.422   4
   5   2   2 6952.26 414.491   5
   5   2   2 8299.18 872.523   4
   5   2   3 19781.5 778.007   5
   5   2   3 21023.3 1470.23   4
  -5  -2  -4 6144.51 373.560   5
  -5  -2  -4 6707.85 430.459   2
   5   2   4 8448.69 895.684   4
  -5  -2  -4 8020.17 768.732   6
  -5  -2  -5 26168.0 1608.91   1
   5   2   5 23652.1 1646.49   4
  -5  -2  -5 22984.9 1471.49   6
  -5  -2  -6 5006.32 686.160   1
   5   2   6 4620.02 696.560   4
  -5  -2  -6 4408.88 626.179   6
  -5  -2  -7 946.868 296.898   1
   5   2   7 1620.44 397.233   7
   5   2   7 721.687 270.852   4
   5   2   8 109.709 151.901   7
  -5  -2  -8 287.372 193.108   1
   5   2   9-13.3325 126.599   7
   5   2   9 353.020 246.791   3
  -5  -2  -9 181.519 133.867   1
   5   2  10 695.713 295.172   7
  -5  -2 -10 970.104 345.085   1
   5   2  10 997.413 399.750   3
   5   2  11 379.776 197.084   7
   5   2  11 975.621 428.273   3
   5   2  12 134.368 165.291   7
   5   2  12 298.243 255.586   3
  -5  -3   7 1554.28 716.812   7
  -5  -3   6-120.905 186.022   7
  -5  -3   5-137.978 207.237   7
   5   3  -4 2986.16 568.797   4
  -5  -3   4 2167.43 648.943   7
  -5  -3   3 57964.7 3408.97   7
   5   3  -3 51764.3 2677.56   4
   5   3  -2 1055.94 337.521   4
  -5  -3   2 426.673 260.240   7
   5   3  -1 1036.03 306.852   4
   5   3   0 732.274 261.677   4
   5   3   0 597.778 116.717   2
   5   3   1 24508.1 1663.23   4
   5   3   2 3310.33 565.436   4
   5   3   2 2140.55 275.218   5
  -5  -3  -2 3059.47 471.462   1
   5   3   3 1273.63 341.580   4
   5   3   3 1214.39 197.988   5
   5   3   4 7346.60 527.386   5
  -5  -3  -4 6429.24 356.970   2
   5   3   4 8141.45 939.391   4
   5   3   5 7029.10 568.663   5
  -5  -3  -5 8592.75 903.024   1
   5   3   5 7056.45 894.393   4
  -5  -3  -5 7939.17 768.066   6
  -5  -3  -6-53.6366 59.3372   1
   5   3   6 30.0959 152.282   4
  -5  -3  -6-41.8955 110.576   6
  -5  -3  -7 7945.11 959.419   1
   5   3   7 7499.07 971.397   4
  -5  -3  -7 9140.08 911.077   6
   5   3   8 67.8514 101.212   7
  -5  -3  -8-8.28353 46.0649   1
  -5  -3  -9 1319.87 438.961   1
   5   3   9 1008.24 344.779   7
  -5  -3 -10 101.586 120.133   1
   5   3  10 156.917 131.908   7
  -5  -3 -11 9.13313 50.8239   1
   5   3  11-107.690 130.969   7
   5   3  11 33.2014 86.1270   3
   5   3  12 372.019 199.034   7
   5   3  12 699.195 396.372   3
  -5  -4   6-101.569 174.234   7
  -5  -4   5-68.4265 132.754   7
  -5  -4   4 179.541 140.884   7
   5   4  -3 971.337 316.730   4
  -5  -4   3 943.989 382.049   7
  -5  -4   2 15204.3 1575.38   7
   5   4  -2 12183.5 1203.50   4
   5   4  -1 279.379 166.286   4
  -5  -4   1 638.697 282.894   7
   5   4   0 292.388 138.008   4
  -5  -4  -1 4729.41 585.293   1
   5   4   1 4706.39 717.446   4
   5   4   2 4446.94 468.343   5
  -5  -4  -2 4615.20 622.313   1
   5   4   2 4781.59 735.883   4
   5   4   3 53.3527 56.6838   4
   5   4   3 25.9637 54.9073   5
  -5  -4  -3 36.4417 88.0643   1
   5   4   4 115.077 117.896   4
   5   4   4 65.1671 60.3921   5
  -5  -4  -4 101.424 81.6910   1
   5   4   5 34531.0 1607.92   5
  -5  -4  -5 37934.4 2161.52   1
   5   4   5 38262.0 2352.81   4
   5   4   6 107701. 3768.31   5
  -5  -4  -6 109038. 4457.30   1
   5   4   6 110692. 4688.97   4
  -5  -4  -6 112081. 3929.69   6
   5   4   7 59.6333 49.4828   5
  -5  -4  -7 249.870 226.196   1
  -5  -4  -7 288.937 144.311   6
  -5  -4  -8 14463.3 1409.08   1
  -5  -4  -8 13477.2 1141.92   6
  -5  -4  -9 953.897 318.576   6
  -5  -4  -9 1660.46 472.589   1
   5   4   9 1556.27 390.710   7
   5   4  10 2159.48 506.903   7
  -5  -4 -10 1813.94 507.338   1
   5   4  11 241.470 174.066   7
  -5  -4 -11-110.066 134.123   1
   5   4  12 1126.06 506.621   3
  -5  -5   6-54.6246 138.216   7
  -5  -5   5 116.355 211.983   7
  -5  -5   4 43.8166 79.5615   7
  -5  -5   3 12316.6 1583.65   7
   5   5  -3 14181.1 1359.19   4
   5   5  -2 4173.98 739.463   4
  -5  -5   2 3852.97 814.913   7
  -5  -5   1 7640.37 1072.59   7
   5   5  -1 6876.52 932.951   4
   5   5   0 63.8695 170.237   4
  -5  -5   0 2.48225 67.2962   7
  -5  -5  -1 17795.1 1259.14   1
   5   5   1 19624.3 1630.80   4
   5   5   2 1115.99 261.100   5
  -5  -5  -2 1502.20 372.111   1
   5   5   2 1650.47 460.346   4
   5   5   3 3390.98 443.842   5
  -5  -5  -3 4095.29 640.542   1
   5   5   3 4472.55 772.905   4
  -5  -5  -4 486.817 219.488   1
   5   5   4 457.632 158.531   5
   5   5   4 685.904 290.838   4
   5   5   5 61335.0 2544.40   5
  -5  -5  -5 70922.8 3280.80   1
   5   5   5 70934.7 3530.01   4
  -5  -5  -6 2537.60 535.945   1
   5   5   6 1960.11 361.508   5
  -5  -5  -7 190.604 103.029   1
   5   5   7 342.652 149.921   5
  -5  -5  -7 423.956 179.893   6
   5   5   8 9050.16 913.165   5
  -5  -5  -8 10647.7 1254.93   1
  -5  -5  -8 10824.9 932.162   6
  -5  -5  -9 267.393 147.229   6
  -5  -5  -9 602.787 309.436   1
  -5  -5 -10 476.424 277.674   1
  -5  -5 -11 49.7807 105.154   1
  -5  -5 -12 152.307 176.620   1
  -5  -6   5 78.2062 125.672   7
  -5  -6   4 109.447 223.528   7
  -5  -6   3-262.815 239.027   7
  -5  -6   2 2060.22 601.803   7
   5   6  -2 1708.89 465.898   4
  -5  -6   1 237.208 195.512   7
   5   6  -1 85.7824 77.5235   4
  -5  -6   0 6889.90 984.672   7
  -5  -6   0 6173.89 691.396   1
   5   6   0 7721.37 1050.30   4
   5   6   1 2030.78 409.462   5
  -5  -6  -1 1983.02 407.730   1
  -5  -6  -1 2273.61 521.072   7
   5   6   1 2547.65 584.194   4
   5   6   2 4918.66 604.713   5
  -5  -6  -2 5083.21 708.702   1
  -5  -6  -2 4910.16 709.651   7
   5   6   2 4791.01 832.721   4
   5   6   3 9847.88 862.013   5
  -5  -6  -3 10628.0 1094.20   1
   5   6   3 10860.0 1279.61   4
  -5  -6  -4 1486.93 421.642   1
  -5  -6  -4 1597.28 207.420   2
   5   6   4 1538.41 324.856   5
   5   6   4 1157.51 438.007   4
   5   6   5 1594.06 342.384   5
  -5  -6  -5 1390.47 396.566   1
   5   6   6 51692.9 2428.56   5
  -5  -6  -6 59376.6 3123.96   1
   5   6   7 153.060 109.673   5
  -5  -6  -7 395.757 233.559   1
   5   6   8 319.895 172.177   5
  -5  -6  -8 431.664 227.945   1
   5   6   9 2510.39 504.712   5
  -5  -6  -9 2042.99 579.897   1
  -5  -6 -10 3900.04 820.482   1
   5   6  10 3652.78 638.068   5
  -5  -6 -11 353.717 249.596   1
  -5  -6 -12-263.494 228.083   1
  -5  -6 -13 721.976 378.046   1
  -5  -7   4-330.363 299.545   7
  -5  -7   3 121.246 175.507   7
  -5  -7   2 196.849 165.302   7
  -5  -7   1 1446.58 499.955   7
  -5  -7   0-18.5049 111.337   7
  -5  -7  -1 1449.78 372.366   1
   5   7   1 1778.88 425.355   5
  -5  -7  -1 1424.71 420.832   7
  -5  -7  -2 1010.02 317.233   1
   5   7   2 624.786 231.947   5
  -5  -7  -2 716.986 273.027   7
  -5  -7  -3 131.114 133.966   1
   5   7   3 219.412 134.711   5
  -5  -7  -3 94.6612 132.594   7
   5   7   4 261.496 150.079   5
  -5  -7  -4 73.0569 108.504   1
   5   7   5 4702.74 633.275   5
  -5  -7  -5 5133.86 831.235   1
  -5  -7  -6-38.6090 170.643   1
   5   7   6 2.74115 72.7294   5
  -5  -7  -7 3703.30 744.594   1
   5   7   7 3004.75 532.896   5
   5   7   8 103.039 135.114   5
  -5  -7  -8-214.091 188.223   1
   5   7   9 790.126 301.267   5
  -5  -7  -9 580.031 309.489   1
   5   7  10 34.3275 92.6397   5
  -5  -7 -10-120.100 72.2858   1
  -5  -7 -11 88.4589 144.130   1
  -5  -7 -12 194.225 205.268   1
  -5  -7 -13 2133.63 680.586   1
  -5  -8   3 1378.43 591.162   7
  -5  -8   2 623.190 371.056   7
  -5  -8   1-99.3049 141.678   7
   5   8   0 615.990 253.436   5
   5   8   1 849.467 304.597   5
  -5  -8  -2 1360.94 400.285   1
   5   8   2 1701.83 428.735   5
   5   8   3 2863.99 535.282   5
  -5  -8  -3 1829.01 502.537   1
   5   8   4 52.8664 65.4101   5
  -5  -8  -4 82.0279 74.0520   1
  -5  -8  -5-139.807 145.740   1
   5   8   5 10.4315 41.8405   5
   5   8   6 2516.22 497.717   5
   5   8   7 194.686 136.277   5
   5   8   8-20.3737 109.720   5
  -5  -8  -9 98.4246 145.252   1
   5   8   9-91.9769 107.975   5
   5   8  10 4478.08 771.588   5
  -5  -8 -10 4185.50 918.920   1
  -5  -8 -11 203.677 212.924   1
  -5  -8 -12 79.4910 143.682   1
   5   9  -1 289.952 268.208   5
   5   9   0 189.039 178.188   5
   5   9   1 394.952 216.319   5
   5   9   2 379.110 198.939   5
   5   9   3 668.941 274.924   5
  -5  -9  -3 727.853 316.729   1
   5   9   4 3280.82 613.852   5
  -5  -9  -4 2676.46 642.223   1
  -5  -9  -5 1869.95 537.527   1
   5   9   5 1313.96 394.752   5
   5   9   6 480.019 259.729   5
   5   9   7 217.671 159.074   5
   5   9   8 671.399 287.866   5
   5   9   9 1836.78 496.654   5
   5   9  10 312.822 209.966   5
  -5  -9 -11-117.237 162.705   1
   5   9  11 140.806 160.364   5
   5  10   0-26.2842 80.5225   5
   5  10   1 322.575 181.001   5
   5  10   2 184.289 133.311   5
   5  10   3 7041.46 984.729   5
   5  10   4 164.386 162.904   5
  -5 -10  -4 30.6043 97.4187   1
   5  10   5 4623.79 777.922   5
   5  10   6 3047.32 634.288   5
   5  10   7 1100.32 368.241   5
   5  10   8-30.0981 85.5032   5
   5  10   9-80.1817 154.922   5
   5  10  10 801.303 347.186   5
   5  10  11 206.736 185.127   5
   5  11   2 1204.00 415.350   5
   5  11   3 1682.32 521.693   5
   5  11   4 1386.30 460.180   5
   5  11   5 129.496 135.635   5
   5  11   6 1466.18 473.857   5
   5  11   7 1111.58 411.969   5
   5  11   8 167.020 158.923   5
   5  11   9 100.237 101.161   5
   5  11  10-43.3053 91.7423   5
   5  11  11 213.716 183.586   5
   5  12   4 1793.91 551.670   5
   5  12   5 679.808 340.396   5
   5  12   6 310.260 209.988   5
   5  12   7-45.7485 92.5263   5
   5  12   8-61.4989 104.879   5
   5  12   9 1923.13 576.942   5
   5  12  10 127.048 154.038   5
  -6  11   7 573.297 330.374   5
  -6  11   6 65.4920 118.059   5
  -6  11   5 1610.99 526.398   5
   6 -11  -3 150.205 156.323   4
   6 -11  -2 132.748 134.262   4
  -6  10   8 111.629 104.583   5
  -6  10   7-243.928 213.116   5
  -6  10   6-41.5704 90.8178   5
  -6  10   5 2626.97 641.228   5
  -6  10   4 960.939 385.833   5
   6 -10  -3 577.729 316.929   4
   6 -10  -2 318.436 216.984   4
   6 -10  -1 1069.64 348.368   4
   6 -10  -1 1554.06 545.005   2
  -6  10   0 121.729 145.746   6
  -6   9   9-286.881 238.550   5
  -6   9   8 1210.09 449.815   5
  -6   9   7 341.302 215.206   5
  -6   9   6 884.679 374.916   5
  -6   9   5-17.1624 63.5120   5
  -6   9   4 1096.15 390.006   5
   6  -9  -4 1136.89 384.136   4
  -6   9   3 1060.91 364.763   5
   6  -9  -3 2110.53 514.035   4
   6  -9  -2 1174.97 374.690   4
   6  -9  -1 311.954 224.233   2
   6  -9  -1 309.128 185.056   4
  -6   9   1 245.003 169.375   6
   6  -9   0 156.244 171.373   4
   6  -9   0 369.401 279.874   2
  -6   9   0 24.0160 51.4476   6
   6  -9   1-16.1059 74.2245   2
  -6   9  -1 78.8612 118.482   6
  -6   9  -2 532.766 291.649   6
   6  -8  -9 1529.68 514.442   4
  -6   8   8 214.418 193.180   5
   6  -8  -8 372.373 237.938   4
  -6   8   7 651.601 296.562   5
   6  -8  -7 1157.25 392.643   4
  -6   8   6 37.4657 70.6024   5
   6  -8  -6-88.3483 132.875   4
  -6   8   5 1048.17 359.585   5
   6  -8  -5 698.905 275.108   4
  -6   8   4 6246.86 892.048   5
   6  -8  -4 7199.09 939.303   4
  -6   8   3 389.428 211.293   5
   6  -8  -3 295.133 180.792   4
  -6   8   2 803.294 282.494   5
   6  -8  -2 1519.10 395.071   4
   6  -8  -1 239.862 162.046   4
  -6   8   1 281.639 191.829   6
   6  -8   0 151.710 154.088   4
   6  -8   0 65.0176 165.078   2
  -6   8   0 1.37982 50.2613   6
   6  -8   1 176.933 169.053   2
  -6   8  -1 407.297 276.204   6
  -6   8  -2 650.048 313.740   6
   6  -8   2 672.201 356.743   2
  -6   8  -3 1923.50 595.785   6
   6  -8   3 2074.93 641.188   2
   6  -7 -10 173.142 196.088   4
  -6   7  10-109.773 170.158   7
   6  -7  -9 80.1555 123.130   4
   6  -7  -8 415.704 261.489   4
  -6   7   7 167.770 184.110   5
   6  -7  -7 2.45982 114.677   4
  -6   7   6 1556.24 460.948   5
   6  -7  -6 1942.28 470.495   4
  -6   7   5 53.9845 88.2962   5
   6  -7  -5 563.970 233.523   4
  -6   7   4 146.745 149.788   5
   6  -7  -4-8.20297 79.6247   4
  -6   7   3 1229.64 355.269   5
   6  -7  -3 1647.32 409.208   4
  -6   7   2 275.295 145.554   5
   6  -7  -2 367.232 199.747   4
  -6   7   1 101.701 113.476   5
   6  -7  -1 27.9411 81.5245   4
   6  -7   0 1219.09 336.567   4
   6  -7   0 1068.83 370.483   2
  -6   7   0 880.123 345.958   6
   6  -7   1-17.6545 49.4043   4
   6  -7   1 94.1105 115.663   2
  -6   7  -1-41.7836 84.0921   6
  -6   7  -2 332.515 248.850   6
   6  -7   2 53.8834 97.1288   2
  -6   7  -3 67.7847 111.570   6
   6  -7   3 458.641 268.576   2
  -6   7  -4 3360.32 801.760   6
   6  -6 -10-88.7026 111.532   4
  -6   6  10 233.629 246.649   7
   6  -6  -9 636.494 313.108   4
  -6   6   9 622.878 319.008   7
   6  -6  -8 770.047 324.195   4
   6  -6  -7 1752.10 452.409   4
  -6   6   6 301.185 214.147   5
   6  -6  -6 542.163 250.945   4
  -6   6   5 43.2319 113.738   5
   6  -6  -5 167.565 130.484   4
  -6   6   4 2056.33 463.686   5
   6  -6  -4 2440.00 507.544   4
  -6   6   3 6401.95 793.819   5
   6  -6  -3 6673.04 829.610   4
  -6   6   2 17526.1 1307.77   5
   6  -6  -2 21134.1 1486.07   4
  -6   6   1 12945.0 1064.20   5
   6  -6  -1 14283.8 1193.29   4
  -6   6   0 253.686 142.828   5
   6  -6   0 341.603 176.543   4
  -6   6   0 298.921 212.641   6
   6  -6   1 58.9932 87.9446   4
  -6   6  -1-4.36828 82.8418   6
  -6   6  -2 483.974 254.104   6
   6  -6   2 729.031 246.017   4
   6  -6   2 314.889 214.617   2
  -6   6  -3 355.282 235.927   6
   6  -6   3 95.9489 68.5380   2
  -6   6  -4 179.202 203.908   6
  -6   6  -5 225.839 213.786   6
   6  -5 -10 87.8114 51.4282   4
  -6   5  10 295.305 329.175   7
   6  -5  -9 34.9571 93.3355   4
  -6   5   9 126.116 203.862   7
   6  -5  -8 62.0161 80.1462   4
   6  -5  -7 8.76054 141.827   4
   6  -5  -6 135.538 55.2465   4
  -6   5   5 229.171 154.246   5
   6  -5  -5 235.992 171.852   4
  -6   5   4 1835.61 419.051   5
   6  -5  -4 1903.25 427.738   4
  -6   5   3 2911.68 509.126   5
   6  -5  -3 3617.94 578.085   4
  -6   5   2 324.545 140.362   5
   6  -5  -2 697.541 269.955   4
  -6   5   1 27960.1 1544.52   5
   6  -5  -1 30014.0 1758.13   4
  -6   5   0 1397.68 292.730   5
   6  -5   0 1789.47 389.671   4
  -6   5   0 2019.44 482.002   6
   6  -5   1 13955.7 1204.90   2
   6  -5   1 14615.5 1153.79   4
  -6   5  -1 16501.3 1440.78   6
  -6   5  -2 86.9437 154.312   6
   6  -5   2 106.731 88.5764   4
   6  -5   2 190.507 143.680   2
  -6   5  -3-69.0055 137.142   6
   6  -5   3-33.8933 29.5734   4
  -6   5  -4 1251.05 450.819   6
  -6   5  -5 4447.21 869.652   6
   6  -5   6 783.327 383.465   7
  -6   4  10 355.953 318.007   7
   6  -4  -9-197.352 116.982   4
  -6   4   9 274.913 257.982   7
   6  -4  -8 208.153 151.365   4
  -6   4   8 483.479 359.214   7
   6  -4  -7 822.704 292.081   4
   6  -4  -6 435.670 209.224   4
   6  -4  -5-90.1750 127.803   4
   6  -4  -4 14206.4 1188.66   4
  -6   4   3 11000.1 956.845   5
   6  -4  -3 12709.4 1077.00   4
  -6   4   2 10789.2 885.164   5
   6  -4  -2 11930.6 1030.86   4
  -6   4   1 50.4314 19.8124   5
   6  -4  -1 324.593 134.747   4
  -6   4   0 349.364 128.746   5
   6  -4   0 229.095 118.645   4
  -6   4  -1 9847.91 729.956   5
   6  -4   1 11577.7 987.868   2
   6  -4   1 11760.9 998.570   4
  -6   4  -1 10174.0 1088.96   6
   6  -4   2 2290.21 426.747   4
   6  -4   2 1139.93 303.698   2
  -6   4  -2 1651.46 435.731   6
  -6   4  -3 42.3423 114.959   6
   6  -4   3-118.410 160.765   2
   6  -4   3 89.0743 107.323   4
  -6   4  -4-85.8077 145.113   6
   6  -4   4 81.0688 96.6324   4
  -6   4  -5-87.9720 166.787   6
   6  -4   6 101.798 139.829   7
   6  -4   7 3994.90 857.939   7
  -6   3   9 828.193 480.212   7
   6  -3  -8 934.950 320.175   4
  -6   3   8 612.171 391.662   7
   6  -3  -7 268.478 158.946   4
   6  -3  -6 2120.02 458.876   4
   6  -3  -5 96.8993 57.6200   4
   6  -3  -4 2983.67 515.439   4
   6  -3  -3 1962.35 410.845   4
   6  -3  -2 5204.39 663.618   4
  -6   3   1 1795.50 296.361   5
   6  -3  -1 1601.60 342.086   4
  -6   3   0 1772.57 268.318   5
   6  -3   0 1325.46 337.642   4
  -6   3  -1 5774.01 457.323   5
   6  -3   1 6283.25 657.492   2
   6  -3   1 5421.72 680.191   4
  -6   3  -1 6598.14 830.329   6
   6  -3   2 1937.43 400.933   4
   6  -3   2 1737.09 360.174   2
  -6   3  -2 2342.14 505.545   6
  -6   3  -3 3704.60 659.563   6
   6  -3   3 2530.19 469.137   2
   6  -3   3 2679.82 480.023   4
  -6   3  -4 221.874 87.5033   6
   6  -3   4 188.623 123.920   4
  -6   3  -5 135.483 174.731   6
   6  -3   6 3529.75 722.929   7
   6  -3   7 143.170 167.107   7
   6  -3   8 349.381 247.990   7
  -6   2   9 133.210 129.868   7
   6  -2  -8-58.5916 106.606   4
  -6   2   8-162.236 209.728   7
   6  -2  -7-12.9604 93.3322   4
  -6   2   7-52.0216 204.562   7
   6  -2  -6 480.200 214.365   4
   6  -2  -5 213.925 141.350   4
   6  -2  -4 524.586 196.149   4
   6  -2  -3 3400.55 546.720   4
   6  -2  -2 961.621 254.910   4
   6  -2  -1 9813.92 908.400   4
   6  -2   0 912.175 274.863   4
   6  -2   1-56.1984 64.4679   4
   6  -2   2 869.697 263.466   4
  -6   2  -2 992.455 327.946   6
   6  -2   3 1133.93 269.708   2
   6  -2   3 1578.23 369.860   4
  -6   2  -3 1694.30 407.522   6
   6  -2   4 9108.25 906.926   4
  -6   2  -4 9890.83 1105.86   6
  -6   2  -5 2310.07 565.209   6
   6  -2   5 1922.98 411.270   4
   6  -2   6 2395.02 571.857   7
   6  -2   7 142.136 102.644   7
   6  -2   8 4610.63 897.236   7
   6  -2   9 1885.18 608.068   7
  -6   1   8 1282.61 576.997   7
   6  -1  -7 836.743 298.913   4
  -6   1   7 1830.36 673.637   7
   6  -1  -6 587.232 241.959   4
  -6   1   6 845.216 426.686   7
   6  -1  -5 10.5365 74.1944   4
   6  -1  -4 4273.05 634.940   4
   6  -1  -3 187.329 172.337   4
   6  -1  -2 126.688 106.190   4
   6  -1  -1 679.234 247.227   4
   6  -1   0 83.8175 123.710   4
   6  -1   1 1641.95 375.291   4
   6  -1   2 30696.2 1439.19   2
   6  -1   2 34837.9 1909.92   4
  -6   1  -2 34253.3 1962.23   6
   6  -1   3 70.7524 55.5825   4
  -6   1  -3-60.1916 93.4126   6
   6  -1   4 11676.5 1067.85   4
  -6   1  -4 14164.8 1276.34   6
   6  -1   5 5101.00 710.466   4
  -6   1  -5 4458.74 733.271   6
   6  -1   6 5602.22 847.515   7
   6  -1   6 4037.43 634.999   4
  -6   1  -6 5250.30 830.600   6
   6  -1   7 148.564 114.405   7
   6  -1   8 637.499 307.853   7
   6  -1   9 337.356 248.580   7
   6  -1  10 178.240 246.562   7
  -6   0   8-19.8542 99.5833   7
  -6   0   7 249.034 222.498   7
   6   0  -6 307.819 201.394   4
  -6   0   6 453.092 276.165   7
   6   0  -5 288.325 156.178   4
   6   0  -4 7762.53 893.535   4
   6   0  -3 1007.03 322.330   4
   6   0  -2 2260.58 463.336   4
   6   0  -1 6629.76 773.612   4
   6   0   0 14666.9 1181.11   4
   6   0   1 27826.5 1696.25   4
   6   0   2 3221.74 534.131   4
   6   0   2 2539.01 287.938   2
   6   0   3 1081.71 324.148   4
  -6   0  -3 952.610 322.060   6
   6   0   4 149.866 119.269   4
  -6   0  -4-32.8782 126.215   6
  -6   0  -5 1709.56 438.892   6
   6   0   5 1153.77 349.377   4
   6   0   6 4910.24 718.971   4
  -6   0  -6 6117.63 874.560   6
   6   0   7 146.736 145.863   4
  -6   0  -7-21.8889 151.751   6
   6   0   7 128.300 145.435   7
   6   0   8 792.561 350.870   7
   6   0   9 339.613 234.665   7
   6   0  10-9.83184 86.7936   7
  -6  -1   7 736.069 432.371   7
   6   1  -6 479.867 219.162   4
  -6  -1   6 447.847 270.840   7
   6   1  -5 46.7261 43.5447   4
  -6  -1   5 82.9433 237.684   7
   6   1  -4 43017.5 2402.43   4
   6   1  -3 4044.57 645.522   4
   6   1  -2 18866.4 1439.15   4
   6   1  -1 432.405 204.546   4
   6   1   0 23837.4 1606.68   4
   6   1   1 1629.02 146.156   2
   6   1   1 1425.70 184.774   5
   6   1   2 5910.16 760.887   4
   6   1   3 836.921 276.671   4
   6   1   4 4660.85 704.729   4
  -6  -1  -4 4710.98 667.964   6
   6   1   5 562.541 239.829   4
  -6  -1  -5 241.500 164.123   6
  -6  -1  -6 109.843 62.5467   6
   6   1   6 64.2286 60.6755   4
   6   1   7-39.0813 70.7217   4
  -6  -1  -7-4.64197 46.0183   6
  -6  -1  -8 1380.77 417.454   6
   6   1   8 1694.54 472.781   7
   6   1   9-173.226 162.165   7
   6   1  10 252.408 205.512   7
   6   1  11 398.664 303.252   7
  -6  -2   7 1435.18 694.339   7
  -6  -2   6 387.584 314.530   7
   6   2  -5 357.163 155.493   4
  -6  -2   5 591.718 391.923   7
   6   2  -4 1524.38 416.968   4
  -6  -2   4 1764.33 624.343   7
   6   2  -3 29839.5 1969.95   4
   6   2  -2 31371.0 1992.58   4
   6   2  -1 977.940 328.664   4
   6   2   0 1880.84 448.464   4
   6   2   1 8803.52 984.390   4
   6   2   2 804.365 125.754   5
   6   2   2 1012.96 296.638   4
   6   2   3 1647.91 428.520   4
  -6  -2  -4 6737.83 782.421   1
   6   2   4 4983.98 747.785   4
  -6  -2  -5 9598.87 986.440   1
   6   2   5 9877.48 1088.14   4
  -6  -2  -5 9687.94 978.507   6
   6   2   6 4032.18 698.852   4
  -6  -2  -6 3812.41 619.237   1
  -6  -2  -6 3247.00 565.613   6
  -6  -2  -7 792.463 299.547   6
  -6  -2  -7 1014.58 320.664   1
   6   2   7 1352.38 413.195   4
  -6  -2  -8 952.874 341.957   6
   6   2   8 1185.37 375.674   7
  -6  -2  -8 985.407 350.965   1
   6   2   8 1009.04 365.330   4
  -6  -2  -9 453.531 250.602   6
   6   2   9 220.984 170.998   7
  -6  -2  -9 296.928 146.930   1
   6   2  10 26.5857 70.2982   7
   6   2  11 503.788 290.606   7
   6   2  12 73.3851 63.2843   7
  -6  -3   6 226.611 269.496   7
  -6  -3   5 1784.62 672.035   7
   6   3  -4 5162.42 814.584   4
  -6  -3   4 5034.42 1046.59   7
   6   3  -3 2713.41 588.286   4
  -6  -3   3 2718.53 704.064   7
   6   3  -2 76.4959 129.540   4
   6   3  -1 336.307 193.615   4
   6   3   0 985.339 362.086   4
   6   3   1 32.6402 69.4483   4
   6   3   2 338.232 208.879   4
   6   3   2 187.162 76.6941   5
  -6  -3  -2 408.638 188.265   1
   6   3   3 5867.01 446.805   5
  -6  -3  -3 7076.67 811.393   1
   6   3   4 16917.5 810.452   5
  -6  -3  -4 17807.2 1377.39   1
   6   3   4 18355.5 1556.20   4
  -6  -3  -5 13403.0 1215.99   1
   6   3   5 13951.7 1366.12   4
   6   3   6 2587.70 600.106   4
  -6  -3  -6 3128.14 589.273   1
  -6  -3  -6 2627.86 496.849   6
  -6  -3  -7 128.039 116.433   1
   6   3   7 206.357 159.367   4
  -6  -3  -7 121.316 85.8230   6
  -6  -3  -8 1342.44 387.024   6
  -6  -3  -8 1838.64 489.865   1
   6   3   8 1551.39 475.328   4
  -6  -3  -9 3937.71 703.207   6
   6   3   9 2980.44 600.300   7
  -6  -3  -9 3299.97 669.432   1
  -6  -3 -10 190.343 147.942   6
  -6  -3 -10 145.645 146.128   1
   6   3  10 329.411 204.472   7
   6   3  11 78.7741 112.329   7
  -6  -3 -11 243.651 113.021   1
   6   3  12 76.1012 115.174   7
  -6  -4   6-197.282 244.306   7
  -6  -4   5 592.282 384.763   7
  -6  -4   4 1917.97 651.638   7
  -6  -4   3 12116.3 1591.57   7
   6   4  -3 11327.7 1261.85   4
   6   4  -2 1379.25 420.117   4
  -6  -4   2 1416.76 530.933   7
   6   4  -1 1206.62 375.490   4
   6   4   0-437.354 235.286   4
   6   4   1 2495.95 562.237   4
   6   4   2 641.917 286.770   4
  -6  -4  -2 1203.56 333.320   1
   6   4   2 924.249 210.374   5
   6   4   3 1208.49 385.988   4
   6   4   3 1109.57 220.967   5
  -6  -4  -3 1371.09 356.653   1
   6   4   4 159.295 71.8217   4
  -6  -4  -4 350.843 192.219   1
   6   4   4 249.111 93.6450   5
   6   4   5 45100.4 1871.60   5
  -6  -4  -5 50647.3 2651.16   1
   6   4   5 48899.5 2870.23   4
  -6  -4  -6 7425.44 951.410   1
   6   4   6 7102.18 1031.32   4
   6   4   7 172.619 167.678   4
  -6  -4  -7 300.749 141.963   6
  -6  -4  -8 1502.97 450.764   1
  -6  -4  -8 1253.57 347.397   6
  -6  -4  -9 6372.26 976.500   1
  -6  -4  -9 5716.61 804.314   6
  -6  -4 -10-22.2284 107.557   6
  -6  -4 -10-225.867 188.214   1
  -6  -4 -11-97.3395 130.987   1
  -6  -4 -12 31.8233 152.983   1
  -6  -5   5-2.78975 81.3945   7
  -6  -5   4 122.995 71.7960   7
   6   5  -3 1268.80 415.273   4
  -6  -5   3 2550.59 750.174   7
   6   5  -2 15.3534 135.643   4
  -6  -5   2-49.4063 164.310   7
   6   5  -1 3204.50 676.287   4
  -6  -5   1 2323.48 636.708   7
   6   5   0 4984.72 850.098   4
  -6  -5   0 5037.17 876.427   7
  -6  -5  -1 43.0689 136.725   1
   6   5   1 70.1862 166.845   4
   6   5   1-0.67813 54.3372   5
   6   5   2 1419.89 446.309   4
  -6  -5  -2 1407.22 376.653   1
   6   5   2 1329.03 290.252   5
   6   5   3 1383.26 433.476   4
  -6  -5  -3 1522.16 395.755   1
   6   5   3 1385.54 279.206   5
   6   5   4 17925.4 1119.82   5
  -6  -5  -4 21349.1 1606.99   1
   6   5   4 19724.5 1772.20   4
   6   5   5 293.642 121.486   5
   6   5   5 123.344 69.3344   4
   6   5   6 3256.14 462.413   5
  -6  -5  -6 4581.90 767.500   1
   6   5   6 3940.03 788.335   4
  -6  -5  -7 114.248 92.8338   1
   6   5   7 369.495 236.344   4
  -6  -5  -8 2279.34 592.292   1
  -6  -5  -8 1926.91 405.746   6
  -6  -5  -9 1925.06 534.927   1
  -6  -5  -9 1227.87 346.640   6
  -6  -5 -10 349.297 206.504   1
  -6  -5 -11 1015.21 440.584   1
  -6  -5 -12 328.731 232.440   1
  -6  -6   4-81.4035 160.319   7
  -6  -6   3-150.832 192.801   7
  -6  -6   2 261.364 223.938   7
   6   6  -2-103.244 134.771   4
  -6  -6   1-13.8525 92.9359   7
   6   6  -1 23.8610 176.407   4
  -6  -6   0 159.866 90.1936   7
   6   6   0 641.545 344.511   4
   6   6   1-37.9772 60.4597   5
  -6  -6  -1 39.6611 113.232   7
   6   6   1 127.264 97.6108   4
  -6  -6  -1 75.9176 97.8077   1
  -6  -6  -2 196.925 123.692   1
   6   6   2 157.867 113.920   5
   6   6   3 5958.26 677.683   5
  -6  -6  -3 7068.27 904.556   1
   6   6   3 8036.99 1159.51   4
   6   6   4 165.416 79.6145   5
  -6  -6  -4 327.017 182.102   1
   6   6   4 184.626 173.024   4
   6   6   5 4086.68 548.551   5
  -6  -6  -5 5073.29 814.460   1
   6   6   5 4586.98 892.580   4
   6   6   6 4466.01 594.190   5
  -6  -6  -6 5307.84 867.622   1
   6   6   6 6492.79 1079.05   4
  -6  -6  -7 4785.75 836.142   1
  -6  -6  -8-209.705 243.769   1
  -6  -6  -9 616.916 311.038   1
  -6  -6 -10 1948.01 591.825   1
  -6  -6 -11 424.247 287.528   1
  -6  -6 -12 733.048 399.255   1
  -6  -7   4 914.955 475.198   7
  -6  -7   3 1592.53 638.507   7
  -6  -7   2 731.760 403.984   7
   6   7  -1 535.256 305.293   4
  -6  -7   1 260.834 227.842   7
   6   7   0-7.00229 133.647   4
  -6  -7   0 290.842 244.016   7
   6   7   1 2430.65 490.811   5
  -6  -7  -1 1908.05 431.796   1
  -6  -7  -1 2947.95 652.561   7
   6   7   1 2627.04 679.118   4
   6   7   2 212.864 158.390   5
  -6  -7  -2 185.091 139.729   7
   6   7   2 247.520 248.318   4
  -6  -7  -2 432.409 205.303   1
   6   7   3 4073.01 597.581   5
  -6  -7  -3 4616.56 752.860   1
   6   7   3 4210.99 875.126   4
  -6  -7  -4 67.7283 102.217   1
   6   7   4 95.4394 47.2652   5
   6   7   4 35.3356 221.003   4
  -6  -7  -5 352.662 219.736   1
   6   7   5 737.195 244.522   5
  -6  -7  -6 682.447 281.673   1
   6   7   6 763.425 266.782   5
  -6  -7  -7 2667.31 647.813   1
   6   7   7 2356.68 467.352   5
  -6  -7  -8 952.921 396.683   1
  -6  -7  -9 217.322 157.083   1
  -6  -7 -10-340.974 316.102   1
  -6  -7 -11 318.123 272.234   1
  -6  -7 -12 866.817 421.085   1
   6   8   0 5313.47 835.217   5
   6   8   1 243.282 166.151   5
   6   8   2 46.5739 115.165   5
  -6  -8  -2 89.5196 138.279   1
  -6  -8  -3 677.775 284.334   1
   6   8   3 552.702 237.432   5
  -6  -8  -4 5.99793 162.486   1
   6   8   4 203.995 150.460   5
  -6  -8  -5 420.235 258.633   1
   6   8   5 287.591 161.358   5
  -6  -8  -6 115.481 184.934   1
   6   8   6 248.544 165.166   5
   6   8   7 83.7294 136.237   5
  -6  -8  -7 36.9920 182.898   1
  -6  -8  -8 400.507 286.463   1
  -6  -8  -9 272.021 227.698   1
  -6  -8 -10 293.072 258.238   1
  -6  -8 -11 629.644 357.192   1
   6   9  -1 2519.37 640.300   5
   6   9   0 358.787 248.990   5
   6   9   1 259.026 187.395   5
   6   9   2-276.205 187.904   5
  -6  -9  -3 2194.91 571.108   1
   6   9   3 1286.87 391.133   5
  -6  -9  -4-272.744 206.082   1
   6   9   4-74.0352 132.766   5
  -6  -9  -5 244.271 217.685   1
   6   9   5 284.286 194.333   5
   6   9   6 40.5753 56.3968   5
  -6  -9  -6-124.443 55.9031   1
   6   9   7-108.111 112.409   5
  -6  -9  -7 452.592 245.582   1
  -6  -9  -8 105.960 155.023   1
  -6  -9  -9 338.548 217.208   1
  -6  -9 -10-44.0413 167.871   1
   6  10   1 473.860 277.548   5
   6  10   2 63.3388 125.918   5
   6  10   3 1878.33 507.537   5
  -6 -10  -4-249.228 204.763   1
   6  10   4 12.4703 73.6603   5
  -6 -10  -5 738.721 348.429   1
   6  10   5 782.878 313.113   5
   6  10   6 1068.12 359.293   5
  -6 -10  -6 1236.88 522.243   1
   6  10   7-126.909 131.470   5
  -6 -10  -7-321.820 258.842   1
  -6 -10  -8 1492.62 549.257   1
  -6 -10  -9-511.401 345.701   1
   6  11   2-172.619 172.310   5
   6  11   3-37.6853 85.0187   5
   6  11   4 634.586 319.342   5
  -6 -11  -5 418.584 286.154   1
   6  11   5-170.956 164.016   5
   6  11   6 4673.16 841.375   5
  -6 -11  -6 6170.03 1148.38   1
   6  11   7 1985.75 540.002   5
  -6 -11  -7 2618.96 772.053   1
  -6 -11  -8 1239.05 552.662   1
   6  12   5-5.48460 46.0122   5
   6  12   6 1015.77 410.736   5
  -6 -12  -6 786.013 417.802   1
   6  12   7 44.2913 104.888   5
   7 -10  -3 670.701 311.730   4
   7 -10  -2 1464.35 448.644   4
   7  -9  -5 646.109 302.651   4
   7  -9  -4 273.703 209.283   4
   7  -9  -3-110.053 156.723   4
   7  -9  -2 181.946 148.275   4
   7  -9  -1 250.646 219.836   4
   7  -9  -1-250.640 207.121   2
   7  -9   0 368.669 290.562   2
  -7   9   0 552.547 305.803   6
  -7   9  -1-26.0235 179.898   6
  -7   8   7 19.4593 70.2486   5
   7  -8  -7 169.012 196.997   4
   7  -8  -6 519.346 284.805   4
   7  -8  -5 2575.23 623.855   4
   7  -8  -4 956.945 363.424   4
   7  -8  -3 97.6488 165.612   4
   7  -8  -2 264.265 175.798   4
   7  -8  -1 409.075 227.959   2
   7  -8  -1 100.149 111.149   4
   7  -8   0 57.5236 126.521   4
   7  -8   0-42.5258 88.8010   2
  -7   8   0 66.0900 45.6572   6
   7  -8   1-20.7258 74.2056   2
  -7   8  -1 83.8661 54.5820   6
   7  -8   2 719.051 371.089   2
  -7   8  -2 114.663 138.627   6
   7  -7  -8-161.370 132.667   4
   7  -7  -7 1877.12 525.391   4
  -7   7   6 170.632 177.137   5
   7  -7  -6-164.846 152.165   4
   7  -7  -5 114.300 144.543   4
   7  -7  -4 1108.36 364.812   4
   7  -7  -3 1618.53 453.968   4
   7  -7  -2-13.8333 77.5792   4
   7  -7  -1 222.159 165.880   4
   7  -7   0 539.713 246.782   4
   7  -7   0 401.534 235.602   2
  -7   7   0 736.762 339.877   6
   7  -7   1 101.731 128.404   4
   7  -7   1 126.234 159.420   2
  -7   7  -1 319.293 219.162   6
   7  -7   2 749.679 326.757   2
  -7   7  -2 1933.15 559.596   6
   7  -7   3 14.8659 63.5107   2
  -7   7  -3 231.361 171.310   6
   7  -6  -9 185.531 210.620   4
  -7   6   9 618.198 413.780   7
   7  -6  -8 1250.08 435.899   4
   7  -6  -7 178.718 165.011   4
   7  -6  -6 1276.86 399.920   4
  -7   6   5-176.430 143.704   5
   7  -6  -5 168.299 199.415   4
   7  -6  -4 1587.22 425.491   4
   7  -6  -3 444.786 240.150   4
   7  -6  -2 181.633 151.091   4
   7  -6  -1 344.377 209.290   4
   7  -6   0 533.578 244.511   2
   7  -6   0 695.762 272.959   4
   7  -6   1 83.8093 77.1076   4
   7  -6   1-188.555 151.883   2
  -7   6  -1 50.5453 111.398   6
   7  -6   2 356.516 177.999   4
   7  -6   2 163.056 134.366   2
  -7   6  -2 399.818 247.132   6
   7  -6   3 292.504 215.194   2
  -7   6  -3 161.284 149.360   6
  -7   6  -4 244.784 211.208   6
   7  -5  -9 3.90980 102.273   4
  -7   5   9 26.4534 97.3265   7
   7  -5  -8 174.210 167.050   4
   7  -5  -7 1802.07 465.575   4
   7  -5  -6-8.33006 64.8424   4
   7  -5  -5 568.685 298.544   4
  -7   5   4 383.646 175.778   5
   7  -5  -4 469.507 233.781   4
   7  -5  -3 5111.20 761.503   4
   7  -5  -2 86.0099 97.4640   4
   7  -5  -1 1360.80 378.454   4
   7  -5   0 6601.01 824.879   4
   7  -5   1 6435.84 821.039   2
   7  -5   1 6700.11 833.740   4
  -7   5  -1 6060.85 922.248   6
   7  -5   2 1223.53 350.604   4
   7  -5   2 589.581 259.878   2
  -7   5  -2 914.198 351.416   6
   7  -5   3 368.137 238.583   2
   7  -5   3 292.881 164.824   4
  -7   5  -3 238.097 96.0754   6
  -7   5  -4 2130.08 602.246   6
  -7   5  -5 865.131 395.659   6
   7  -4  -9 263.050 186.365   4
   7  -4  -8-85.8458 112.649   4
  -7   4   8 132.948 219.071   7
   7  -4  -7 65.9815 126.503   4
   7  -4  -6 3165.72 620.255   4
   7  -4  -5 404.448 258.900   4
   7  -4  -4 2667.10 556.132   4
   7  -4  -3 63.6909 92.5535   4
   7  -4  -2-6.48833 109.729   4
   7  -4  -1-4.93620 74.4059   4
   7  -4   0 15961.2 1315.70   4
   7  -4   1 7947.22 851.329   2
   7  -4   1 9134.76 964.493   4
  -7   4  -1 8606.62 1059.50   6
   7  -4   2 11365.6 1084.74   2
   7  -4   2 12242.5 1132.44   4
  -7   4  -2 11093.2 1244.98   6
   7  -4   3 1926.31 456.526   2
   7  -4   3 1992.54 436.622   4
  -7   4  -3 2923.04 636.198   6
  -7   4  -4 618.903 311.642   6
   7  -4   4 554.675 222.696   4
  -7   4  -5-172.825 174.600   6
  -7   4  -6 706.958 347.328   6
   7  -3  -8-145.225 143.136   4
  -7   3   8-214.099 241.858   7
   7  -3  -7-16.9394 100.713   4
   7  -3  -6 437.834 245.125   4
   7  -3  -5 1891.23 463.961   4
   7  -3  -4 2179.05 489.190   4
   7  -3  -3 526.350 246.867   4
   7  -3  -2 11686.0 1114.58   4
   7  -3  -1 204.101 116.527   4
   7  -3   0 3611.77 593.181   4
   7  -3   1-53.8240 68.5132   4
   7  -3   1-46.6236 42.6452   2
   7  -3   2 191.496 162.556   4
   7  -3   2 138.076 103.980   2
  -7   3  -2 442.856 232.915   6
   7  -3   3 189.625 112.928   2
   7  -3   3 151.330 70.6995   4
  -7   3  -3 13.9309 157.741   6
   7  -3   4-14.5553 75.0593   4
  -7   3  -4 235.504 167.880   6
  -7   3  -5 241.815 181.354   6
  -7   3  -6-68.6485 104.139   6
  -7   3  -7 1189.29 464.376   6
   7  -2  -8 1622.49 472.836   4
  -7   2   8 1028.23 522.058   7
   7  -2  -7 2152.85 529.441   4
  -7   2   7 2349.83 783.848   7
   7  -2  -6-87.0711 132.090   4
   7  -2  -5 1456.72 403.182   4
   7  -2  -4-16.0900 97.8789   4
   7  -2  -3 2740.16 533.988   4
   7  -2  -2 12893.1 1177.29   4
   7  -2  -1 862.894 291.513   4
   7  -2   0 133.429 147.495   4
   7  -2   1 86.6630 130.525   4
   7  -2   2 18518.7 1443.90   4
   7  -2   3 886.663 300.743   4
  -7   2  -3 174.879 74.9308   6
   7  -2   4 8760.98 977.485   4
  -7   2  -4 8651.80 1086.61   6
  -7   2  -5 1278.28 414.449   6
   7  -2   5 1812.53 447.586   4
  -7   2  -6-82.3118 145.570   6
  -7   2  -7-13.3778 154.216   6
  -7   2  -8 1852.86 593.529   6
   7  -1  -7 414.629 229.459   4
  -7   1   7 883.332 439.768   7
   7  -1  -6-36.9644 68.9939   4
   7  -1  -5 9.70717 119.540   4
   7  -1  -4 3588.84 649.949   4
   7  -1  -3 2858.35 563.730   4
   7  -1  -2 236.242 191.283   4
   7  -1  -1 6298.13 815.849   4
   7  -1   0 4241.76 662.981   4
   7  -1   1 11.4472 42.9962   4
   7  -1   1 8.36135 29.4269   2
   7  -1   2 242.255 141.409   4
   7  -1   2 83.0742 54.2558   2
   7  -1   3 1299.48 369.698   4
  -7   1  -3 1535.66 410.845   6
   7  -1   4 2559.72 519.972   4
  -7   1  -4 2207.49 511.247   6
   7  -1   5-24.0356 39.1318   4
  -7   1  -5 91.9112 73.3538   6
  -7   1  -6 791.658 341.567   6
   7  -1   6 679.686 283.497   4
  -7   1  -7 997.336 368.760   6
  -7   1  -8 65.1518 170.725   6
  -7   1  -9 192.470 230.413   6
   7  -1   9 411.048 272.340   7
  -7   0   7 2736.70 870.862   7
   7   0  -6 145.579 191.128   4
  -7   0   6 394.883 275.261   7
   7   0  -5 1250.06 397.020   4
   7   0  -4 190.699 171.688   4
   7   0  -3 1446.21 414.445   4
   7   0  -2 792.951 304.085   4
   7   0  -1 191.819 169.982   4
   7   0   0 6430.54 836.963   4
   7   0   1 594.354 261.683   4
   7   0   2 41.6967 59.7267   4
   7   0   3 1941.27 467.359   4
   7   0   4 3322.00 638.347   4
  -7   0  -4 4587.04 714.950   6
   7   0   5 10668.6 1158.18   4
  -7   0  -5 10630.0 1150.91   6
   7   0   6 5488.58 828.027   4
  -7   0  -6 7107.34 972.288   6
  -7   0  -7 4045.92 761.146   6
   7   0   7 2532.34 575.067   4
  -7   0  -8 378.968 268.280   6
  -7   0  -9 2918.68 716.992   6
  -7   0 -10-223.688 209.219   6
   7   0  10 46.0595 98.1471   7
  -7  -1   6-99.9009 169.559   7
   7   1  -5-55.9071 133.220   4
  -7  -1   5 101.779 283.604   7
   7   1  -4 8565.03 1069.24   4
   7   1  -3 7137.51 962.001   4
   7   1  -2-86.7346 123.067   4
   7   1  -1 6872.94 896.583   4
   7   1   0 2.17791 118.562   4
   7   1   1 86.7899 79.4032   4
   7   1   2 9915.43 1092.71   4
   7   1   3 195.720 158.755   4
   7   1   4 2724.12 571.717   4
   7   1   5 3825.01 711.425   4
  -7  -1  -5 4005.09 678.962   6
   7   1   6 1109.94 380.410   4
  -7  -1  -6 1655.47 477.451   6
  -7  -1  -7 3210.20 647.613   6
   7   1   7 2713.04 601.672   4
  -7  -1  -8 52.0812 83.1048   6
  -7  -1  -9 405.865 233.024   6
  -7  -1 -10 566.718 324.132   6
   7   1  10 927.551 404.736   7
   7   1  11 260.102 231.237   7
  -7  -2   6 518.622 381.067   7
   7   2  -5-203.653 193.452   4
  -7  -2   5 125.852 170.118   7
   7   2  -4 1823.14 499.625   4
  -7  -2   4 1322.63 586.378   7
   7   2  -3 1923.72 514.760   4
   7   2  -2 8978.37 1097.23   4
   7   2  -1 9652.85 1136.71   4
   7   2   0 34.9293 133.901   4
   7   2   1 4867.38 781.856   4
   7   2   2 788.741 292.277   4
   7   2   3 3059.38 628.465   4
   7   2   4 503.861 227.476   4
   7   2   5 25934.0 1973.86   4
   7   2   6 577.328 290.001   4
  -7  -2  -6 1003.45 327.018   6
   7   2   7 121.110 156.326   4
  -7  -2  -7-42.9318 64.5624   6
  -7  -2  -8 65.6075 95.9285   6
   7   2   8 76.8988 147.145   4
  -7  -2  -9 665.843 277.339   6
  -7  -2 -10-71.9786 166.758   6
  -7  -2 -11-161.481 174.622   6
   7   2  11 274.842 208.040   7
  -7  -3   5 1071.40 448.100   7
   7   3  -4 812.458 324.369   4
  -7  -3   4 896.880 468.577   7
   7   3  -3 419.937 267.781   4
  -7  -3   3 347.556 264.772   7
   7   3  -2 6581.26 997.238   4
   7   3  -1 2705.22 629.133   4
   7   3   0 6166.81 926.120   4
   7   3   1 3937.85 732.352   4
   7   3   2-2.93874 115.571   4
   7   3   3 416.622 228.369   4
   7   3   4 6147.69 939.148   4
   7   3   5 4530.94 818.128   4
  -7  -3  -5 4023.48 689.611   1
   7   3   6 533.536 261.095   4
  -7  -3  -6 801.112 274.191   1
  -7  -3  -7 1235.38 390.378   1
  -7  -3  -7 1345.18 385.910   6
   7   3   7 1061.12 415.458   4
  -7  -3  -8 585.478 284.923   1
   7   3   8 401.593 229.239   4
  -7  -3  -8 418.442 219.448   6
  -7  -3  -9 36.2891 152.575   1
  -7  -3  -9 183.396 208.918   6
  -7  -3 -10 33.5194 78.8296   6
  -7  -3 -10 269.795 130.264   1
  -7  -3 -11 55.3001 117.248   6
  -7  -4   5 993.314 552.075   7
  -7  -4   4 82.4408 92.2198   7
   7   4  -3 91.4630 100.250   4
  -7  -4   3 195.287 162.365   7
   7   4  -2 2041.66 553.061   4
  -7  -4   2 1954.53 634.299   7
   7   4  -1 49.5346 86.0705   4
   7   4   0-57.6785 125.186   4
   7   4   1 155.296 120.029   4
   7   4   1 261.259 130.671   5
   7   4   2-33.1972 80.4166   4
   7   4   3 404.596 232.629   4
  -7  -4  -3 303.766 185.192   1
   7   4   4 246.108 148.702   4
  -7  -4  -4 803.457 315.364   1
  -7  -4  -5 15793.0 1425.69   1
   7   4   5 15376.8 1593.17   4
  -7  -4  -6 5456.03 829.124   1
   7   4   6 3654.25 778.331   4
  -7  -4  -7 319.208 236.762   1
   7   4   7-379.296 253.209   4
  -7  -4  -8 882.344 359.641   1
   7   4   8 1021.04 394.058   4
  -7  -4  -8 1032.13 317.501   6
  -7  -4  -9 293.663 229.558   1
  -7  -4  -9 120.562 119.681   6
  -7  -4 -10 256.248 215.770   1
  -7  -4 -10 21.4079 86.9914   6
  -7  -4 -11-233.266 203.204   1
  -7  -4 -12-249.290 211.071   1
  -7  -5   4 117.921 179.723   7
  -7  -5   3-29.6059 158.435   7
   7   5  -2 609.262 317.383   4
  -7  -5   2 811.191 437.239   7
   7   5  -1 424.700 240.385   4
  -7  -5   1 1038.28 441.374   7
   7   5   0 1736.23 552.158   4
   7   5   1 33.6679 122.556   4
   7   5   1 236.543 133.025   5
   7   5   2 1023.00 401.794   4
  -7  -5  -2 1844.23 440.526   1
   7   5   3 158.120 202.724   4
  -7  -5  -3 64.5453 51.5749   1
   7   5   4 21.1410 73.8500   4
  -7  -5  -4 104.089 80.0762   1
  -7  -5  -5-77.5908 104.414   1
   7   5   5 197.835 157.721   4
  -7  -5  -6 4382.52 775.334   1
   7   5   6 4139.19 875.380   4
  -7  -5  -7 1995.19 531.969   1
   7   5   7 2462.40 674.994   4
  -7  -5  -8 2973.66 672.963   1
  -7  -5  -9 6810.71 1083.90   1
  -7  -5 -10 163.212 174.110   1
  -7  -5 -11 749.598 370.625   1
  -7  -5 -12 484.876 330.289   1
  -7  -6   4 41.7459 119.170   7
  -7  -6   3-0.64577 58.1558   7
  -7  -6   2 121.125 174.267   7
   7   6  -2-41.8658 100.201   4
  -7  -6   1 32.6476 129.651   7
   7   6  -1-203.141 195.149   4
  -7  -6   0 534.249 302.288   7
   7   6   0 308.274 236.004   4
   7   6   1 2864.25 509.439   5
  -7  -6  -1 3928.76 803.612   7
   7   6   1 3113.57 755.269   4
   7   6   2 732.609 248.847   5
  -7  -6  -2 1209.58 362.240   1
   7   6   2 1437.18 535.732   4
  -7  -6  -3 1705.15 448.257   1
   7   6   3 1355.51 471.513   4
  -7  -6  -4 1501.75 450.217   1
   7   6   4 1665.89 561.321   4
  -7  -6  -5 662.292 303.526   1
   7   6   5 1349.29 491.613   4
  -7  -6  -6 7449.55 1065.61   1
   7   6   6 8177.75 1263.28   4
   7   6   7 2153.64 629.618   4
  -7  -6  -7 2921.24 676.830   1
  -7  -6  -8 337.171 239.907   1
  -7  -6  -9 3807.71 812.711   1
  -7  -6 -10 62.9053 120.707   1
  -7  -6 -11 2007.43 663.913   1
  -7  -7   3-288.479 284.554   7
  -7  -7   2-76.6196 161.686   7
  -7  -7   1 1921.55 647.896   7
   7   7  -1 2186.06 652.694   4
   7   7   0 412.127 235.447   5
  -7  -7   0 675.469 341.842   7
   7   7   0 562.499 340.034   4
   7   7   1 1751.53 424.615   5
   7   7   1 2719.15 741.170   4
  -7  -7  -2 2141.85 516.004   1
   7   7   2 1550.05 380.707   5
   7   7   2 1667.38 591.851   4
  -7  -7  -3 491.307 260.437   1
   7   7   3 94.2664 167.434   4
  -7  -7  -4-9.53001 115.184   1
   7   7   4 20.8576 52.3892   4
   7   7   5 1517.03 585.682   4
  -7  -7  -5 1145.37 413.531   1
  -7  -7  -6 9475.24 1240.58   1
  -7  -7  -7 5496.83 978.139   1
  -7  -7  -8 241.519 136.203   1
  -7  -7  -9 432.077 331.197   1
  -7  -7 -10-343.484 266.972   1
  -7  -7 -11 53.8560 138.335   1
   7   8  -1 1725.74 497.887   5
   7   8   0 669.465 304.746   5
   7   8   1-73.7188 97.7482   5
   7   8   2 435.306 217.732   5
  -7  -8  -3 214.133 130.803   1
  -7  -8  -4 127.386 145.362   1
  -7  -8  -5 284.499 203.698   1
  -7  -8  -6 162.817 149.225   1
  -7  -8  -7-419.048 276.937   1
  -7  -8  -8 1778.30 628.055   1
  -7  -8  -9-309.609 254.626   1
  -7  -8 -10 242.267 215.743   1
   7   9   0 1436.61 481.514   5
   7   9   1 30.2651 55.8871   5
   7   9   2-51.5715 91.7641   5
  -7  -9  -4 292.690 225.853   1
  -7  -9  -5 630.732 328.316   1
  -7  -9  -6 322.309 246.327   1
  -7  -9  -7 273.881 127.862   1
  -7  -9  -8-424.369 300.971   1
  -7  -9  -9-20.1860 85.5464   1
   7  10   2-94.5844 124.606   5
  -7 -10  -5-84.1664 131.880   1
  -7 -10  -6 289.815 261.177   1
  -7 -10  -7 562.465 361.054   1
  -7 -10  -8 662.468 403.075   1
  -7 -11  -6 1967.15 678.051   1
  -7 -11  -7 165.838 173.560   1
   8  -9  -2 892.930 372.051   4
   8  -9  -1-114.755 133.160   4
   8  -9  -1 268.270 259.845   2
   8  -8  -4 3296.71 717.081   4
   8  -8  -3 1959.90 527.232   4
   8  -8  -2 249.445 164.311   4
   8  -8  -1 125.497 153.605   2
   8  -8  -1-23.6594 100.575   4
   8  -8   0 1762.89 482.001   4
   8  -8   0 1169.05 441.213   2
  -8   8  -1 1278.74 513.788   6
   8  -8   1 398.389 201.619   2
   8  -8   2 171.923 52.2779   2
   8  -7  -5 182.260 185.278   4
   8  -7  -4 496.316 274.027   4
   8  -7  -3 48.7419 77.4011   4
   8  -7  -2 63.3455 120.244   4
   8  -7  -1-75.5827 142.002   4
   8  -7   0 96.1979 115.297   4
   8  -7   0 385.960 237.423   2
   8  -7   1 266.798 205.156   4
   8  -7   1 231.116 178.817   2
  -8   7  -1 339.112 229.493   6
   8  -7   2-41.7051 86.9935   2
  -8   7  -2 87.1327 161.620   6
   8  -6  -6 131.694 134.374   4
   8  -6  -5 376.215 227.131   4
   8  -6  -4 110.968 140.225   4
   8  -6  -3 3731.71 725.534   4
   8  -6  -2 656.110 284.560   4
   8  -6  -1 571.325 275.284   4
   8  -6   0 181.730 154.353   4
   8  -6   0 508.635 246.118   2
   8  -6   1 173.064 160.761   4
   8  -6   1-4.12190 41.7871   2
   8  -6   2 68.2529 103.606   2
   8  -6   2-104.328 118.128   4
  -8   6  -2 136.080 176.810   6
   8  -6   3 456.448 262.375   2
  -8   6  -3 242.668 146.820   6
   8  -5  -7-65.7697 131.393   4
   8  -5  -6-154.374 155.102   4
   8  -5  -5 352.640 189.870   4
   8  -5  -4 96.8915 157.178   4
   8  -5  -3 1404.04 441.912   4
   8  -5  -2 117.001 105.985   4
   8  -5  -1 691.635 301.889   4
   8  -5   0 86.2555 99.3212   2
   8  -5   0-14.8457 137.093   4
   8  -5   1 2122.77 504.575   4
   8  -5   1 1896.27 453.291   2
   8  -5   2-57.4468 95.5439   4
  -8   5  -2 96.5944 138.092   6
   8  -5   2 36.7736 97.6236   2
   8  -5   3-219.842 170.376   2
   8  -5   3 168.425 132.117   4
  -8   5  -3-565.157 309.101   6
  -8   5  -4 588.002 347.954   6
   8  -4  -8 4.73585 136.012   4
   8  -4  -7 40.6757 92.9305   4
   8  -4  -6-81.8081 160.285   4
   8  -4  -5 61.4306 85.5522   4
   8  -4  -4 159.162 89.7241   4
   8  -4  -3 596.959 274.797   4
   8  -4  -2 1790.16 458.265   4
   8  -4  -1 1214.37 369.692   4
   8  -4   0 15704.4 1423.85   4
   8  -4   1 90.0416 132.271   4
   8  -4   1 89.4327 147.923   2
   8  -4   2 1825.41 484.675   4
  -8   4  -2 1972.01 539.247   6
   8  -4   2 1323.42 362.030   2
   8  -4   3 342.354 168.415   2
   8  -4   3 472.567 248.007   4
  -8   4  -3 907.299 383.593   6
   8  -4   4 1160.91 380.534   4
  -8   4  -4 1634.03 523.808   6
  -8   4  -5 1226.55 463.137   6
   8  -3  -8 987.932 385.645   4
   8  -3  -7-53.3901 194.811   4
   8  -3  -6 362.767 199.399   4
   8  -3  -5 2058.90 525.197   4
   8  -3  -4 936.843 358.795   4
   8  -3  -3 3696.00 695.785   4
   8  -3  -2 1732.41 442.909   4
   8  -3  -1 5455.41 817.388   4
   8  -3   0 2123.09 532.681   4
   8  -3   1 1490.43 422.050   4
   8  -3   2 4130.77 714.591   4
   8  -3   3 1513.44 429.886   4
  -8   3  -3 1767.22 528.678   6
   8  -3   4 2566.90 566.951   4
  -8   3  -4 3908.39 788.857   6
  -8   3  -5 16.0796 144.901   6
  -8   3  -6 544.565 305.238   6
   8  -2  -7-93.0716 106.344   4
   8  -2  -6-0.73557 93.6015   4
   8  -2  -5 332.483 272.291   4
   8  -2  -4 1080.73 382.304   4
   8  -2  -3 9049.15 1107.92   4
   8  -2  -2 211.426 187.928   4
   8  -2  -1 1037.51 354.786   4
   8  -2   0 3559.00 671.930   4
   8  -2   1 4600.02 751.495   4
   8  -2   2 582.775 300.455   4
   8  -2   3 2392.29 538.565   4
  -8   2  -3 2914.46 641.957   6
   8  -2   4 743.983 308.110   4
  -8   2  -4 769.930 327.647   6
   8  -2   5 166.230 154.359   4
  -8   2  -5 172.774 176.299   6
  -8   2  -6 103.499 139.426   6
  -8   2  -7-35.3899 125.319   6
   8  -1  -7 63.9959 80.1415   4
   8  -1  -6 226.635 165.591   4
   8  -1  -5 6228.90 959.250   4
   8  -1  -4 290.861 153.965   4
   8  -1  -3 136.585 120.524   4
   8  -1  -2 1561.51 445.051   4
   8  -1  -1 180.710 141.017   4
   8  -1   0 91.7577 66.0432   4
   8  -1   1 2702.92 579.484   4
   8  -1   2-222.869 168.227   4
   8  -1   3-178.209 152.678   4
   8  -1   4 639.004 278.631   4
  -8   1  -4 808.919 326.783   6
   8  -1   5 1855.57 500.369   4
  -8   1  -5 1485.73 477.531   6
   8  -1   6 991.785 363.334   4
  -8   1  -6 673.362 321.502   6
  -8   1  -7 1320.01 484.964   6
  -8   1  -8-506.773 309.483   6
   8   0  -6 676.705 304.352   4
  -8   0   6 1210.99 601.408   7
   8   0  -5-53.7443 137.329   4
   8   0  -4 7662.93 1076.50   4
   8   0  -3-48.2345 126.683   4
   8   0  -2 967.043 354.913   4
   8   0  -1 1273.87 421.834   4
   8   0   0 771.099 310.590   4
   8   0   1 1294.29 418.516   4
   8   0   2 224.833 182.890   4
   8   0   3 112.077 144.658   4
   8   0   4 4641.49 799.303   4
   8   0   5 7782.14 1070.47   4
  -8   0  -5 9291.48 1153.82   6
   8   0   6 152.390 193.901   4
  -8   0  -6 568.691 284.198   6
   8   0   7-34.9462 117.963   4
  -8   0  -7-234.658 222.697   6
  -8   0  -8 2974.64 713.505   6
  -8   0  -9 1909.40 602.834   6
   8   1  -5 1616.83 495.301   4
  -8  -1   5 1653.02 652.468   7
   8   1  -4-24.8718 132.489   4
   8   1  -3-19.4440 139.053   4
   8   1  -2 835.065 361.586   4
   8   1  -1-42.5865 66.2572   4
   8   1   0 42.9237 85.4482   4
   8   1   1-5.19135 59.2821   4
   8   1   2 107.085 141.520   4
   8   1   3 1882.81 493.531   4
   8   1   4 2783.88 646.537   4
   8   1   5 303.968 241.262   4
   8   1   6 234.957 151.002   4
  -8  -1  -6 585.411 267.665   6
   8   1   7 29.9164 77.1655   4
  -8  -1  -7 36.2411 64.0755   6
  -8  -1  -8-46.4027 126.648   6
  -8  -1  -9 979.208 431.095   6
  -8  -1 -10 241.983 259.667   6
  -8  -2   5-196.566 266.666   7
   8   2  -4 4363.93 845.259   4
  -8  -2   4 3557.45 956.318   7
   8   2  -3 32.5821 116.367   4
   8   2  -2 114.929 139.830   4
   8   2  -1 2394.71 587.010   4
   8   2   0 869.282 401.264   4
   8   2   1 4994.22 858.951   4
   8   2   2 1545.02 477.453   4
   8   2   3 192.013 219.646   4
   8   2   4 24264.8 2018.80   4
   8   2   5 126.539 131.265   4
   8   2   6 1079.50 399.504   4
   8   2   7 150.323 159.726   4
  -8  -2  -7 127.820 136.711   6
  -8  -2  -8 951.587 371.942   6
   8   2   8-78.5536 142.171   4
  -8  -2  -9 214.518 150.182   6
  -8  -2 -10 47.6784 96.6155   6
   8   3  -4 37.7211 142.529   4
  -8  -3   4-4.73972 80.3959   7
   8   3  -3 862.177 381.863   4
  -8  -3   3 1153.31 540.255   7
   8   3  -2 606.688 321.429   4
   8   3  -1 1781.06 535.722   4
   8   3   0 2657.74 663.369   4
   8   3   1 20724.2 1884.37   4
   8   3   2 466.149 266.900   4
   8   3   3 9311.24 1224.83   4
   8   3   4 250.084 245.986   4
   8   3   5 2872.73 669.205   4
   8   3   6 44.9965 108.138   4
   8   3   7 132.745 166.845   4
  -8  -3  -8 345.567 214.647   6
   8   3   8 403.021 341.835   4
   8   3   9-182.134 187.721   4
  -8  -3  -9 127.998 141.406   6
  -8  -3 -10 112.949 181.828   6
  -8  -3 -11 385.503 259.000   6
  -8  -4   4 1087.47 556.785   7
   8   4  -3 71.3393 171.359   4
  -8  -4   3-3.88492 124.674   7
   8   4  -2 3507.71 808.711   4
  -8  -4   2 5560.02 1147.82   7
   8   4  -1 3616.08 805.655   4
   8   4   0 535.533 359.588   4
   8   4   1-144.704 217.772   4
   8   4   2 230.532 216.552   4
   8   4   3 2923.43 693.774   4
   8   4   4 9036.92 1271.16   4
   8   4   5 888.936 423.140   4
   8   4   6-140.684 163.630   4
  -8  -4  -6 160.023 198.032   1
  -8  -4  -7-23.1845 114.249   1
   8   4   7-33.4657 91.1574   4
  -8  -4  -8 682.032 307.305   1
   8   4   8 381.837 286.875   4
  -8  -4  -9 2752.82 675.165   1
   8   4   9 1943.79 657.891   4
  -8  -4  -9 1836.02 504.305   6
  -8  -4 -10-703.334 354.633   1
  -8  -5   3-14.2760 87.7112   7
   8   5  -2 4847.64 965.944   4
  -8  -5   2 5733.22 1205.88   7
   8   5  -1 1400.14 536.962   4
  -8  -5   1 1951.99 675.579   7
   8   5   0 223.469 198.621   4
   8   5   1 2891.87 718.804   4
   8   5   2 802.485 368.750   4
   8   5   3 144.150 208.214   4
   8   5   4 969.451 422.001   4
  -8  -5  -4 792.853 338.781   1
   8   5   5 5012.77 993.618   4
  -8  -5  -5 5567.10 889.106   1
  -8  -5  -6-6.88224 55.3746   1
   8   5   6 257.496 149.281   4
  -8  -5  -7 302.180 253.800   1
   8   5   7-84.9105 211.703   4
  -8  -5  -8 290.280 83.1383   1
   8   5   8 914.419 445.862   4
  -8  -5  -9 3971.03 848.201   1
  -8  -5 -10 201.339 167.170   1
  -8  -6   3 456.544 368.181   7
  -8  -6   2 119.200 270.730   7
   8   6  -1 3127.26 796.742   4
  -8  -6   1 2024.94 680.039   7
   8   6   0-121.244 74.1528   4
  -8  -6   0 142.122 158.174   7
   8   6   1 103.744 154.945   4
   8   6   2 1888.84 646.634   4
  -8  -6  -3 511.827 274.484   1
   8   6   3 9.96261 126.955   4
  -8  -6  -4-247.742 186.501   1
   8   6   4 37.1884 71.9445   4
  -8  -6  -5 260.535 176.873   1
   8   6   5 438.676 362.377   4
  -8  -6  -6 2787.11 672.062   1
   8   6   6 2482.66 726.223   4
  -8  -6  -7 1587.84 515.582   1
   8   6   7 1726.17 604.298   4
  -8  -6  -8 291.315 217.398   1
  -8  -6  -9 905.300 426.006   1
  -8  -6 -10 1860.38 605.705   1
   8   7  -1 1487.49 586.245   4
   8   7   0 255.780 209.789   4
   8   7   1 260.304 300.785   4
   8   7   2 144.277 188.635   4
  -8  -7  -3 115.190 120.538   1
   8   7   3-305.171 264.778   4
  -8  -7  -4-161.912 157.612   1
   8   7   4-550.414 351.707   4
  -8  -7  -5 416.395 235.726   1
   8   7   5 474.675 355.775   4
  -8  -7  -6 6187.92 1042.07   1
   8   7   6 7199.04 1324.68   4
  -8  -7  -7 217.590 210.695   1
  -8  -7  -8 1043.12 439.350   1
  -8  -7  -9 1828.85 610.487   1
   8   8   0 749.436 445.044   4
   8   8   1-182.676 221.411   4
   8   8   2 255.852 255.108   4
   8   8   3 186.749 235.493   4
  -8  -8  -3 136.775 141.876   1
   8   8   4 2344.62 736.121   4
  -8  -8  -4 1629.87 514.074   1
  -8  -8  -5 126.164 133.549   1
  -8  -8  -6 588.179 326.383   1
  -8  -8  -7 5434.78 1050.41   1
  -8  -8  -8 3327.25 811.370   1
  -8  -8  -9 318.446 262.805   1
  -8  -9  -4 179.885 192.754   1
  -8  -9  -5 399.773 335.251   1
  -8  -9  -6 1659.46 538.637   1
  -8  -9  -7 420.526 293.831   1
  -8  -9  -8 231.682 139.128   1
  -8 -10  -5 640.511 346.889   1
  -8 -10  -6 78.8974 207.971   1
   9  -7  -2-32.9012 68.1654   4
   9  -7  -1 276.256 206.930   4
   9  -7   0 225.239 154.086   4
   9  -7   1 253.510 210.037   4
   9  -6  -3 45.5080 118.949   4
   9  -6  -2-15.7253 103.383   4
   9  -6  -1 4.32588 53.8514   4
   9  -6   0 236.849 193.028   4
   9  -6   1 80.0856 125.852   4
   9  -6   2-39.2223 83.6318   4
   9  -5  -4-136.188 158.124   4
   9  -5  -3-20.9844 95.3577   4
   9  -5  -2 1730.99 490.283   4
   9  -5  -1-29.9050 130.704   4
   9  -5   0 86.8637 142.185   4
   9  -5   1-3.22305 80.1504   4
   9  -5   2 333.688 238.148   4
   9  -5   3 69.7386 105.280   4
  -9   5  -3 79.7967 77.3181   6
   9  -4  -5 372.343 280.189   4
   9  -4  -4 313.284 237.535   4
   9  -4  -3 304.521 233.558   4
   9  -4  -2 105.127 119.353   4
   9  -4  -1-181.753 165.091   4
   9  -4   0 2280.72 582.151   4
   9  -4   1 2611.94 608.003   4
   9  -4   2 138.962 101.283   4
   9  -4   3 540.278 276.205   4
  -9   4  -4-68.3326 72.6639   6
   9  -3  -6 15.6653 90.6574   4
   9  -3  -5 888.386 364.311   4
   9  -3  -4 131.023 122.699   4
   9  -3  -3 533.442 292.423   4
   9  -3  -2 1471.29 455.645   4
   9  -3  -1 60.6121 139.947   4
   9  -3   0 86.3261 134.486   4
   9  -3   1 1089.02 422.283   4
   9  -3   2 3136.50 671.303   4
   9  -3   3 298.963 205.126   4
   9  -3   4 222.186 170.765   4
  -9   3  -4 324.255 276.683   6
  -9   3  -5 450.982 265.111   6
   9  -2  -6 611.943 326.009   4
   9  -2  -5 559.209 308.652   4
   9  -2  -4 186.391 166.786   4
   9  -2  -3 701.326 352.692   4
   9  -2  -2 50.3078 98.5248   4
   9  -2  -1 155.546 89.8739   4
   9  -2   0 3416.41 717.834   4
   9  -2   1 11692.1 1340.96   4
   9  -2   2 4826.26 845.839   4
   9  -2   3 238.492 154.296   4
   9  -2   4 2452.10 602.279   4
   9  -2   5 274.067 223.032   4
  -9   2  -5 163.582 209.287   6
  -9   2  -6 467.275 327.876   6
   9  -1  -6 504.906 321.375   4
   9  -1  -5 1787.30 565.976   4
   9  -1  -4 1199.20 440.608   4
   9  -1  -3 664.431 332.578   4
   9  -1  -2 49.1997 100.596   4
   9  -1  -1 1143.50 424.775   4
   9  -1   0 405.516 254.919   4
   9  -1   1 127.793 48.4742   4
   9  -1   2 222.823 103.380   4
   9  -1   3 2955.95 656.536   4
   9  -1   4 726.859 347.545   4
   9  -1   5 1758.25 568.791   4
  -9   1  -5 2318.36 615.434   6
   9  -1   6 828.061 365.827   4
  -9   1  -6 1562.72 524.662   6
  -9   1  -7 229.194 241.184   6
   9   0  -5 318.602 252.606   4
   9   0  -4-2.59567 50.2904   4
   9   0  -3 134.071 131.265   4
   9   0  -2 117.765 143.386   4
   9   0  -1 838.386 363.704   4
   9   0   0-62.2811 97.5140   4
   9   0   1 235.276 209.876   4
   9   0   2 1948.83 546.896   4
   9   0   3 2058.07 572.601   4
   9   0   4 3804.57 799.259   4
   9   0   5 374.745 237.670   4
   9   0   6 260.417 197.531   4
  -9   0  -6 562.385 318.051   6
  -9   0  -7-267.472 222.557   6
  -9   0  -8-56.8958 116.525   6
   9   1  -5 324.847 253.328   4
   9   1  -4 488.906 283.239   4
   9   1  -3 200.724 133.646   4
   9   1  -2-298.105 226.373   4
   9   1  -1-106.985 173.509   4
   9   1   0 495.674 274.181   4
   9   1   1 21.0531 161.197   4
   9   1   2 1678.00 513.573   4
   9   1   3 4482.43 858.284   4
   9   1   4 462.051 245.979   4
   9   1   5 227.209 160.271   4
   9   1   6 76.0936 108.974   4
   9   1   7-7.58744 62.2121   4
  -9  -1  -7 47.9748 85.6478   6
  -9  -1  -8 869.282 377.829   6
  -9  -1  -9 63.6758 123.499   6
   9   2  -4 217.247 240.167   4
   9   2  -3 311.306 194.954   4
   9   2  -2 351.435 223.581   4
   9   2  -1-86.9664 75.6103   4
   9   2   0 2306.34 628.113   4
   9   2   1-301.792 233.672   4
   9   2   2 90.4703 185.863   4
   9   2   3 2281.67 651.120   4
   9   2   4 6865.81 1106.72   4
   9   2   5 35.7469 73.2531   4
   9   2   6 542.433 329.282   4
   9   2   7 929.483 394.143   4
  -9  -2  -8 485.986 297.845   6
   9   2   8 98.8016 144.038   4
  -9  -2  -9 12.2811 68.0106   6
   9   3  -4-186.447 200.854   4
   9   3  -3-42.6128 106.539   4
  -9  -3   3-32.0133 117.765   7
   9   3  -2 343.215 218.145   4
   9   3  -1 700.922 354.717   4
   9   3   0 6002.97 1071.61   4
   9   3   1 332.804 297.286   4
   9   3   2 1374.72 503.890   4
   9   3   3 369.655 289.341   4
   9   3   4 839.062 365.019   4
   9   3   5 894.705 456.781   4
   9   3   6 715.119 384.885   4
   9   3   7 231.004 216.348   4
   9   3   8 1057.75 456.472   4
  -9  -3  -9 274.863 211.573   6
   9   3   9 408.204 319.621   4
  -9  -3 -10 38.5321 90.2382   6
   9   4  -3 12.3059 65.6269   4
   9   4  -2 3126.90 833.923   4
  -9  -4   2 2461.16 823.905   7
   9   4  -1 1125.30 429.304   4
   9   4   0 104.301 209.304   4
   9   4   1 309.660 225.406   4
   9   4   2 3757.16 853.899   4
   9   4   3 4762.18 981.854   4
   9   4   4-33.6745 117.672   4
   9   4   5 42.3096 86.1672   4
   9   4   6 280.856 243.403   4
   9   4   7 87.8693 145.834   4
   9   4   8 871.019 436.745   4
   9   4   9 299.632 262.368   4
   9   5  -2 514.560 330.293   4
  -9  -5   2 482.919 362.713   7
   9   5  -1 769.576 393.287   4
  -9  -5   1 308.694 155.667   7
   9   5   0 90.3333 152.022   4
   9   5   1 240.432 163.666   4
   9   5   2 658.414 368.692   4
   9   5   3 1021.10 432.703   4
   9   5   4 434.509 323.013   4
   9   5   5 165.905 138.989   4
   9   5   6-2.73415 59.2612   4
   9   5   7 734.929 466.013   4
   9   5   8 58.5224 69.8809   4
  -9  -5  -8 95.5944 137.586   1
   9   5   9-93.8515 159.836   4
   9   6  -1 2148.88 703.771   4
  -9  -6   1 1164.16 568.407   7
   9   6   0 1026.91 522.993   4
  -9  -6   0 1743.06 649.246   7
   9   6   1-74.8327 106.422   4
   9   6   2-207.608 225.274   4
   9   6   3 2633.82 776.722   4
   9   6   4-36.1707 179.817   4
   9   6   5 323.205 281.822   4
  -9  -6  -6 2434.44 654.791   1
   9   6   6 1635.72 622.694   4
  -9  -6  -7 340.249 245.779   1
   9   6   7-32.0231 184.053   4
   9   6   8-153.508 199.454   4
  -9  -6  -8 295.962 231.237   1
   9   7   0 172.621 137.076   4
   9   7   1-309.380 285.621   4
   9   7   2 94.2359 164.595   4
   9   7   3 39.9815 99.4251   4
   9   7   4 1282.66 566.699   4
   9   7   5 314.192 266.136   4
  -9  -7  -5 1423.60 511.174   1
  -9  -7  -6-199.674 194.030   1
   9   7   6 188.970 128.360   4
  -9  -7  -7 858.766 409.194   1
   9   7   7 854.858 502.295   4
  -9  -8  -4 17.2046 76.3204   1
  -9  -8  -5 275.772 233.918   1
  -9  -8  -6 1309.77 499.514   1
  -9  -9  -5 420.294 294.482   1
  10  -5   0 348.689 282.886   4
  10  -5   1 78.3678 126.016   4
  10  -5   2 293.304 186.080   4
  10  -4  -1 379.974 245.416   4
  10  -4   0 436.871 188.662   4
  10  -4   1 147.357 181.291   4
  10  -4   2 37.9363 139.916   4
  10  -4   3-148.044 162.342   4
  10  -3  -2 67.5836 169.762   4
  10  -3  -1 1.71745 90.7287   4
  10  -3   0 370.975 266.372   4
  10  -3   1 66.2723 155.301   4
  10  -3   2 1233.35 458.802   4
  10  -3   3 562.314 318.482   4
  10  -3   4 210.783 193.815   4
  10  -2  -3 58.7711 76.6659   4
  10  -2  -2 190.026 115.934   4
  10  -2  -1 5.66228 111.530   4
  10  -2   0 798.190 422.596   4
  10  -2   1 2455.24 651.025   4
  10  -2   2 142.428 173.018   4
  10  -2   3 2519.04 655.877   4
  10  -2   4 456.308 255.920   4
  10  -2   5 1153.31 456.405   4
  10  -1  -3 306.871 247.016   4
  10  -1  -2 326.151 272.850   4
  10  -1  -1 65.2682 212.419   4
  10  -1   0 2837.16 714.444   4
  10  -1   1 1333.56 474.825   4
  10  -1   2 5612.72 994.448   4
  10  -1   3-221.449 201.224   4
  10  -1   4 167.027 177.633   4
  10  -1   5 530.907 288.858   4
  10  -1   6 165.706 85.1043   4
  10   0  -3-102.947 137.495   4
  10   0  -2 72.9507 127.795   4
  10   0  -1 87.0613 59.9997   4
  10   0   0-159.817 176.750   4
  10   0   1 1242.14 489.878   4
  10   0   2 6913.52 1141.52   4
  10   0   3 1082.91 451.301   4
  10   0   4 29.7663 76.7280   4
  10   0   5-48.1360 109.084   4
  10   0   6-192.622 196.279   4
  10   1  -3 265.819 261.543   4
  10   1  -2-202.420 210.240   4
  10   1  -1 218.918 286.968   4
  10   1   0 732.624 361.602   4
  10   1   1 577.260 347.016   4
  10   1   2 621.333 343.266   4
  10   1   3-583.148 338.493   4
  10   1   4 2397.48 706.319   4
  10   1   5-222.230 213.182   4
  10   1   6 149.497 202.151   4
  10   1   7 21.9533 84.9579   4
  10   2  -2 647.105 390.088   4
  10   2  -1 47.6245 144.854   4
  10   2   0 377.928 304.435   4
  10   2   1 361.554 227.306   4
  10   2   2-13.0045 141.274   4
  10   2   3 627.407 382.420   4
  10   2   4-133.654 173.654   4
  10   2   5-240.896 226.778   4
  10   2   6 968.622 443.863   4
  10   2   7 237.856 221.599   4
  10   2   8-135.969 177.482   4
  10   3  -2 118.045 173.601   4
  10   3  -1 472.305 310.033   4
  10   3   0-159.635 192.596   4
  10   3   1-304.310 262.953   4
  10   3   2 44.9026 210.018   4
  10   3   3 185.522 247.689   4
  10   3   4 818.713 383.284   4
  10   3   5-35.8436 107.410   4
  10   3   6 439.251 313.123   4
  10   3   7 325.089 272.688   4
  10   3   8 862.150 480.993   4
  10   4   0-14.5557 93.0395   4
  10   4   1 25.2717 101.227   4
  10   4   2 3252.35 864.434   4
  10   4   3-124.045 102.611   4
  10   4   4 258.015 291.778   4
  10   4   5-21.1303 92.6691   4
  10   4   6-222.796 230.733   4
  10   4   7-127.397 182.225   4
  10   4   8 827.237 464.539   4
  10   4   9 435.332 331.497   4
  10   5   1 425.248 291.433   4
  10   5   2 3084.92 848.452   4
  10   5   3 141.780 217.597   4
  10   5   4 993.822 499.787   4
  10   5   5 838.380 445.553   4
  10   5   6-686.564 410.932   4
  10   5   7-45.3367 122.056   4
   0   0   0    0.00    0.00   0
TITL chenzhm_0328 in P-1
REM P-1 (#2 in standard setting)
CELL 0.71073   8.624185  10.298683  10.369101  61.4092  80.6998  86.9034
ZERR    3.00   0.001261   0.001171   0.001426   0.0129   0.0120   0.0105
LATT  1
SFAC C H N O
UNIT 33.00 30.00 3.00 3.00
TREF
HKLF 4
END
;
_shelx_hkl_checksum              5196
#END Tags that were not found in dictionaries
loop_
_space_group_symop_operation_xyz
'x, y, z'
'-x, -y, -z'
loop_
_atom_site_label
_atom_site_type_symbol
_atom_site_fract_x
_atom_site_fract_y
_atom_site_fract_z
_atom_site_U_iso_or_equiv
_atom_site_adp_type
_atom_site_occupancy
_atom_site_site_symmetry_order
_atom_site_calc_flag
_atom_site_refinement_flags_posn
O1 O 0.00335(17) 0.38150(15) 0.22158(17) 0.0465(4) Uani 1 1 d .
O2 O -0.3095(2) 0.18687(19) 0.48915(19) 0.0618(5) Uani 1 1 d .
N1 N -0.1472(3) 0.3434(2) 0.5966(2) 0.0559(6) Uani 1 1 d .
N2 N -0.1919(3) 0.2255(2) 0.7071(3) 0.0572(6) Uani 1 1 d .
N3 N -0.2409(3) 0.1261(3) 0.8145(3) 0.0836(8) Uani 1 1 d .
C1 C -0.4259(3) 0.1688(3) 0.2660(3) 0.0583(7) Uani 1 1 d .
H1 H -0.4531 0.0942 0.3634 0.070 Uiso 1 1 calc R
C2 C -0.4930(3) 0.1692(3) 0.1538(4) 0.0721(9) Uani 1 1 d .
H2 H -0.5643 0.0942 0.1757 0.087 Uiso 1 1 calc R
C3 C -0.4554(3) 0.2795(4) 0.0105(4) 0.0753(9) Uani 1 1 d .
H3 H -0.5030 0.2804 -0.0643 0.090 Uiso 1 1 calc R
C4 C -0.3475(3) 0.3888(3) -0.0231(3) 0.0692(8) Uani 1 1 d .
H4 H -0.3204 0.4626 -0.1209 0.083 Uiso 1 1 calc R
C5 C -0.2792(3) 0.3891(3) 0.0884(3) 0.0555(7) Uani 1 1 d .
H5 H -0.2068 0.4638 0.0651 0.067 Uiso 1 1 calc R
C6 C -0.3170(3) 0.2801(2) 0.2342(3) 0.0442(5) Uani 1 1 d .
C7 C -0.2537(3) 0.2747(2) 0.3625(3) 0.0434(5) Uani 1 1 d .
C8 C -0.1170(3) 0.3797(2) 0.3354(2) 0.0408(5) Uani 1 1 d .
C9 C -0.1750(3) 0.5381(2) 0.2784(2) 0.0416(5) Uani 1 1 d .
C10 C -0.0878(3) 0.6552(2) 0.1583(3) 0.0504(6) Uani 1 1 d .
H10 H 0.0053 0.6373 0.1107 0.061 Uiso 1 1 calc R
C11 C -0.1393(3) 0.7988(3) 0.1092(3) 0.0602(7) Uani 1 1 d .
H11 H -0.0818 0.8766 0.0271 0.072 Uiso 1 1 calc R
C12 C -0.2748(4) 0.8270(3) 0.1811(3) 0.0623(7) Uani 1 1 d .
H12 H -0.3079 0.9236 0.1484 0.075 Uiso 1 1 calc R
C13 C -0.3606(3) 0.7126(3) 0.3007(3) 0.0632(7) Uani 1 1 d .
H13 H -0.4517 0.7317 0.3499 0.076 Uiso 1 1 calc R
C14 C -0.3118(3) 0.5682(3) 0.3488(3) 0.0553(6) Uani 1 1 d .
H14 H -0.3717 0.4908 0.4290 0.066 Uiso 1 1 calc R
C15 C -0.0384(3) 0.3337(2) 0.4751(2) 0.0454(6) Uani 1 1 d .
H15 H 0.0450 0.4084 0.4443 0.054 Uiso 1 1 calc R
C16 C 0.0442(3) 0.1872(2) 0.5233(3) 0.0540(6) Uani 1 1 d .
H16A H 0.0996 0.1673 0.6049 0.065 Uiso 1 1 calc R
H16B H -0.0325 0.1076 0.5571 0.065 Uiso 1 1 calc R
C17 C 0.1597(3) 0.1948(3) 0.3926(3) 0.0610(7) Uani 1 1 d .
H17A H 0.2444 0.2650 0.3678 0.073 Uiso 1 1 calc R
H17B H 0.2049 0.0985 0.4195 0.073 Uiso 1 1 calc R
C18 C 0.0779(3) 0.2416(3) 0.2597(3) 0.0558(6) Uani 1 1 d .
H18A H 0.1538 0.2504 0.1758 0.067 Uiso 1 1 calc R
H18B H -0.0006 0.1669 0.2817 0.067 Uiso 1 1 calc R
loop_
_atom_site_aniso_label
_atom_site_aniso_U_11
_atom_site_aniso_U_22
_atom_site_aniso_U_33
_atom_site_aniso_U_23
_atom_site_aniso_U_13
_atom_site_aniso_U_12
O1 0.0449(9) 0.0403(8) 0.0467(10) -0.0163(8) -0.0017(7) 0.0021(6)
O2 0.0686(12) 0.0555(10) 0.0455(11) -0.0119(9) -0.0012(9) -0.0196(8)
N1 0.0787(16) 0.0382(10) 0.0442(12) -0.0139(10) -0.0097(11) -0.0027(9)
N2 0.0708(15) 0.0489(12) 0.0484(13) -0.0193(11) -0.0126(11) 0.0006(10)
N3 0.106(2) 0.0622(15) 0.0550(16) -0.0088(13) 0.0022(14) -0.0107(13)
C1 0.0516(15) 0.0586(15) 0.0686(18) -0.0342(14) -0.0041(13) -0.0054(11)
C2 0.0526(17) 0.086(2) 0.102(3) -0.065(2) -0.0097(16) -0.0048(14)
C3 0.0590(19) 0.109(3) 0.086(2) -0.067(2) -0.0199(16) 0.0054(17)
C4 0.0711(19) 0.085(2) 0.0562(18) -0.0347(16) -0.0177(14) 0.0006(15)
C5 0.0556(16) 0.0582(15) 0.0537(16) -0.0263(14) -0.0106(12) -0.0040(11)
C6 0.0402(13) 0.0436(12) 0.0503(14) -0.0240(11) -0.0053(10) 0.0019(9)
C7 0.0451(13) 0.0351(11) 0.0424(13) -0.0135(11) -0.0030(10) 0.0006(9)
C8 0.0430(12) 0.0343(11) 0.0404(13) -0.0145(10) -0.0041(9) -0.0006(8)
C9 0.0488(13) 0.0330(10) 0.0407(13) -0.0150(10) -0.0098(10) 0.0002(9)
C10 0.0543(15) 0.0401(12) 0.0488(15) -0.0146(11) -0.0075(11) -0.0014(10)
C11 0.079(2) 0.0359(12) 0.0550(16) -0.0114(12) -0.0157(14) -0.0032(12)
C12 0.085(2) 0.0405(13) 0.0660(19) -0.0249(14) -0.0310(16) 0.0164(13)
C13 0.0659(18) 0.0578(16) 0.0641(18) -0.0279(15) -0.0151(14) 0.0202(13)
C14 0.0525(15) 0.0499(14) 0.0545(16) -0.0195(13) -0.0034(12) 0.0054(11)
C15 0.0524(14) 0.0377(11) 0.0442(14) -0.0168(11) -0.0104(11) -0.0029(9)
C16 0.0579(16) 0.0407(12) 0.0573(16) -0.0154(12) -0.0202(13) 0.0033(10)
C17 0.0492(15) 0.0476(13) 0.079(2) -0.0239(14) -0.0160(14) 0.0094(11)
C18 0.0520(15) 0.0481(13) 0.0650(17) -0.0271(13) -0.0051(12) 0.0084(11)
loop_
_atom_type_symbol
_atom_type_description
_atom_type_scat_dispersion_real
_atom_type_scat_dispersion_imag
_atom_type_scat_source
C C 0.0033 0.0016 'International Tables Vol C Tables 4.2.6.8 and 6.1.1.4'
H H 0.0000 0.0000 'International Tables Vol C Tables 4.2.6.8 and 6.1.1.4'
N N 0.0061 0.0033 'International Tables Vol C Tables 4.2.6.8 and 6.1.1.4'
O O 0.0106 0.0060 'International Tables Vol C Tables 4.2.6.8 and 6.1.1.4'
loop_
_geom_angle_atom_site_label_1
_geom_angle_atom_site_label_2
_geom_angle_atom_site_label_3
_geom_angle
C8 O1 C18 114.41(16)
N2 N1 C15 116.4(2)
N3 N2 N1 172.7(3)
C2 C1 H1 119.8
C2 C1 C6 120.4(3)
C6 C1 H1 119.8
C1 C2 H2 119.8
C3 C2 C1 120.4(3)
C3 C2 H2 119.8
C2 C3 H3 120.0
C2 C3 C4 120.1(3)
C4 C3 H3 120.0
C3 C4 H4 120.0
C3 C4 C5 120.0(3)
C5 C4 H4 120.0
C4 C5 H5 119.5
C4 C5 C6 120.9(2)
C6 C5 H5 119.5
C1 C6 C7 117.1(2)
C5 C6 C1 118.3(2)
C5 C6 C7 124.6(2)
O2 C7 C6 120.1(2)
O2 C7 C8 119.58(19)
C6 C7 C8 120.31(19)
O1 C8 C7 109.86(17)
O1 C8 C9 106.72(16)
O1 C8 C15 106.90(17)
C7 C8 C15 113.34(17)
C9 C8 C7 109.81(17)
C9 C8 C15 109.97(17)
C10 C9 C8 120.4(2)
C14 C9 C8 120.8(2)
C14 C9 C10 118.7(2)
C9 C10 H10 119.9
C11 C10 C9 120.1(2)
C11 C10 H10 119.9
C10 C11 H11 119.8
C12 C11 C10 120.4(2)
C12 C11 H11 119.8
C11 C12 H12 120.0
C13 C12 C11 119.9(2)
C13 C12 H12 120.0
C12 C13 H13 120.0
C12 C13 C14 120.0(3)
C14 C13 H13 120.0
C9 C14 C13 120.7(2)
C9 C14 H14 119.6
C13 C14 H14 119.6
N1 C15 C8 112.20(18)
N1 C15 H15 105.6
N1 C15 C16 114.22(19)
C8 C15 H15 105.6
C16 C15 C8 112.67(18)
C16 C15 H15 105.6
C15 C16 H16A 109.8
C15 C16 H16B 109.8
H16A C16 H16B 108.3
C17 C16 C15 109.17(19)
C17 C16 H16A 109.8
C17 C16 H16B 109.8
C16 C17 H17A 109.6
C16 C17 H17B 109.6
H17A C17 H17B 108.1
C18 C17 C16 110.27(19)
C18 C17 H17A 109.6
C18 C17 H17B 109.6
O1 C18 C17 110.72(19)
O1 C18 H18A 109.5
O1 C18 H18B 109.5
C17 C18 H18A 109.5
C17 C18 H18B 109.5
H18A C18 H18B 108.1
loop_
_geom_bond_atom_site_label_1
_geom_bond_atom_site_label_2
_geom_bond_distance
O1 C8 1.433(3)
O1 C18 1.443(2)
O2 C7 1.217(3)
N1 N2 1.230(3)
N1 C15 1.486(3)
N2 N3 1.127(3)
C1 H1 0.9300
C1 C2 1.379(4)
C1 C6 1.399(3)
C2 H2 0.9300
C2 C3 1.368(4)
C3 H3 0.9300
C3 C4 1.375(4)
C4 H4 0.9300
C4 C5 1.381(3)
C5 H5 0.9300
C5 C6 1.381(3)
C6 C7 1.493(3)
C7 C8 1.543(3)
C8 C9 1.532(3)
C8 C15 1.552(3)
C9 C10 1.389(3)
C9 C14 1.385(3)
C10 H10 0.9300
C10 C11 1.388(3)
C11 H11 0.9300
C11 C12 1.376(4)
C12 H12 0.9300
C12 C13 1.369(4)
C13 H13 0.9300
C13 C14 1.389(3)
C14 H14 0.9300
C15 H15 0.9800
C15 C16 1.521(3)
C16 H16A 0.9700
C16 H16B 0.9700
C16 C17 1.518(4)
C17 H17A 0.9700
C17 H17B 0.9700
C17 C18 1.507(3)
C18 H18A 0.9700
C18 H18B 0.9700
loop_
_geom_torsion_atom_site_label_1
_geom_torsion_atom_site_label_2
_geom_torsion_atom_site_label_3
_geom_torsion_atom_site_label_4
_geom_torsion
O1 C8 C9 C10 -15.4(3)
O1 C8 C9 C14 167.09(19)
O1 C8 C15 N1 173.80(16)
O1 C8 C15 C16 -55.6(2)
O2 C7 C8 O1 134.0(2)
O2 C7 C8 C9 -108.9(2)
O2 C7 C8 C15 14.5(3)
N1 C15 C16 C17 -176.17(19)
N2 N1 C15 C8 110.4(2)
N2 N1 C15 C16 -19.4(3)
C1 C2 C3 C4 1.5(4)
C1 C6 C7 O2 -8.2(3)
C1 C6 C7 C8 171.59(19)
C2 C1 C6 C5 0.0(4)
C2 C1 C6 C7 178.0(2)
C2 C3 C4 C5 -1.3(4)
C3 C4 C5 C6 0.5(4)
C4 C5 C6 C1 0.2(4)
C4 C5 C6 C7 -177.7(2)
C5 C6 C7 O2 169.6(2)
C5 C6 C7 C8 -10.5(3)
C6 C1 C2 C3 -0.9(4)
C6 C7 C8 O1 -45.8(2)
C6 C7 C8 C9 71.2(2)
C6 C7 C8 C15 -165.33(18)
C7 C8 C9 C10 -134.4(2)
C7 C8 C9 C14 48.1(3)
C7 C8 C15 N1 -65.0(2)
C7 C8 C15 C16 65.6(2)
C8 O1 C18 C17 -62.0(2)
C8 C9 C10 C11 -178.6(2)
C8 C9 C14 C13 177.3(2)
C8 C15 C16 C17 54.3(3)
C9 C8 C15 N1 58.3(2)
C9 C8 C15 C16 -171.10(19)
C9 C10 C11 C12 1.6(4)
C10 C9 C14 C13 -0.3(4)
C10 C11 C12 C13 -0.8(4)
C11 C12 C13 C14 -0.5(4)
C12 C13 C14 C9 1.1(4)
C14 C9 C10 C11 -1.0(3)
C15 C8 C9 C10 100.2(2)
C15 C8 C9 C14 -77.3(3)
C15 C16 C17 C18 -53.5(3)
C16 C17 C18 O1 56.6(3)
C18 O1 C8 C7 -64.1(2)
C18 O1 C8 C9 176.94(16)
C18 O1 C8 C15 59.3(2)
