#------------------------------------------------------------------------------
#$Date: 2016-03-26 14:38:36 +0200 (Sat, 26 Mar 2016) $
#$Revision: 180271 $
#$URL: svn://www.crystallography.net/cod/cif/7/11/57/7115792.cif $
#------------------------------------------------------------------------------
#
# This file is available in the Crystallography Open Database (COD),
# http://www.crystallography.net/
#
# All data on this site have been placed in the public domain by the
# contributors.
#
data_7115792
loop_
_publ_author_name
'Jose A. Souto'
'Willian Lewis'
'Robert A. Stockman'
_publ_section_title
;
 Isolation of stable non cyclic 1,2-disulfoxides. Revisiting the
 thermolysis of S-aryl sulfinimines
;
_journal_name_full               Chem.Commun.
_journal_page_first              12630
_journal_paper_doi               10.1039/C4cc05751A
_journal_volume                  50
_journal_year                    2014
_chemical_formula_moiety         'C18 H22 O2 S2'
_chemical_formula_sum            'C18 H22 O2 S2'
_chemical_formula_weight         334.47
_chemical_name_systematic
;
 ?
;
_space_group_crystal_system      triclinic
_space_group_IT_number           2
_space_group_name_Hall           '-P 1'
_space_group_name_H-M_alt        'P -1'
_symmetry_space_group_name_Hall  '-P 1'
_symmetry_space_group_name_H-M   'P -1'
_atom_sites_solution_hydrogens   geom
_atom_sites_solution_primary     iterative
_atom_sites_solution_secondary   difmap
_audit_creation_date             2013-06-10
_audit_creation_method
;
  Olex2 1.2
  (compiled Apr 23 2013 17:59:47, GUI svn.r4466)
;
_cell_angle_alpha                84.776(10)
_cell_angle_beta                 69.822(12)
_cell_angle_gamma                61.946(15)
_cell_formula_units_Z            1
_cell_length_a                   7.5624(11)
_cell_length_b                   8.0233(11)
_cell_length_c                   8.1209(9)
_cell_measurement_reflns_used    4466
_cell_measurement_temperature    120(2)
_cell_measurement_theta_max      76.9720
_cell_measurement_theta_min      5.7970
_cell_volume                     406.65(12)
_computing_cell_refinement
;
CrysAlisPro, Agilent Technologies,
Version 1.171.36.28a (release 18-03-2013 CrysAlis171 .NET)
(compiled Mar 18 2013,11:47:30)
;
_computing_data_collection
;
CrysAlisPro, Agilent Technologies,
Version 1.171.36.28a (release 18-03-2013 CrysAlis171 .NET)
(compiled Mar 18 2013,11:47:30)
;
_computing_data_reduction
;
CrysAlisPro, Agilent Technologies,
Version 1.171.36.28a (release 18-03-2013 CrysAlis171 .NET)
(compiled Mar 18 2013,11:47:30)
;
_computing_molecular_graphics
;
O. V. Dolomanov, L. J. Bourhis, R. J. Gildea, J. A. K. Howard and H. Puschmann,
OLEX2: a complete structure solution, refinement and analysis program.
J. Appl. Cryst. (2009). 42, 339-341.
;
_computing_publication_material
;
O. V. Dolomanov, L. J. Bourhis, R. J. Gildea, J. A. K. Howard and H. Puschmann,
OLEX2: a complete structure solution, refinement and analysis program.
J. Appl. Cryst. (2009). 42, 339-341.
;
_computing_structure_refinement
;
SHELXL, G.M. Sheldrick, Acta Cryst.
(2008). A64, 112-122
;
_computing_structure_solution
'SUPERFLIP, J. Appl. Cryst. (2007) 40, 786-790'
_diffrn_ambient_temperature      120(2)
_diffrn_detector                 'CCD area detector'
_diffrn_detector_area_resol_mean 10.6296
_diffrn_detector_type            'Agilent Diffraction Atlas detector'
_diffrn_measured_fraction_theta_full 0.9976
_diffrn_measured_fraction_theta_max 0.9845
_diffrn_measurement_details
;
  1 omega  -49.00  -13.00   2.0000    2.0000
omega____ theta____ kappa____ phi______ frames
    -      -38.5000  -61.0000  -30.0000 18

  2 omega -107.00  -53.00   2.0000    2.0000
omega____ theta____ kappa____ phi______ frames
    -      -38.5000  -45.0000  150.0000 27

  3 omega  -50.00   10.00   2.0000    2.0000
omega____ theta____ kappa____ phi______ frames
    -      -38.5000   38.0000  150.0000 30

  4 omega  -66.00   32.00   2.0000    2.0000
omega____ theta____ kappa____ phi______ frames
    -      -38.5000   77.0000 -180.0000 49

  5 omega  -33.00   -3.00   2.0000    2.0000
omega____ theta____ kappa____ phi______ frames
    -      -38.5000  125.0000  -60.0000 15

  6 omega  -42.00  -16.00   2.0000    2.0000
omega____ theta____ kappa____ phi______ frames
    -      -38.5000  -45.0000  150.0000 13

  7 omega  -91.00  -37.00   2.0000    2.0000
omega____ theta____ kappa____ phi______ frames
    -      -38.5000  125.0000  -60.0000 27

  8 omega  -62.00   30.00   2.0000    2.0000
omega____ theta____ kappa____ phi______ frames
    -      -38.5000   57.0000  -60.0000 46

  9 omega   10.00   36.00   2.0000    2.0000
omega____ theta____ kappa____ phi______ frames
    -       42.0000   84.0000   54.1146 13

 10 omega    7.00   33.00   2.0000    2.0000
omega____ theta____ kappa____ phi______ frames
    -       42.0000   89.0000  -72.8750 13

 11 omega    6.00   32.00   2.0000    2.0000
omega____ theta____ kappa____ phi______ frames
    -       42.0000   90.0000  158.4585 13

 12 omega   19.00   45.00   2.0000    2.0000
omega____ theta____ kappa____ phi______ frames
    -       50.0000   80.0000 -150.2471 13

 13 omega   18.00   44.00   2.0000    2.0000
omega____ theta____ kappa____ phi______ frames
    -       50.0000   82.0000  -52.3054 13

 14 omega   20.00   46.00   2.0000    2.0000
omega____ theta____ kappa____ phi______ frames
    -       50.0000   81.0000   72.3629 13

 15 omega   30.00   56.00   2.0000    2.0000
omega____ theta____ kappa____ phi______ frames
    -       58.0000   71.0000   21.5915 13

 16 omega   29.00   55.00   2.0000    2.0000
omega____ theta____ kappa____ phi______ frames
    -       58.0000   73.0000 -115.5614 13

 17 omega   32.00   68.00   2.0000    2.0000
omega____ theta____ kappa____ phi______ frames
    -       62.0000   76.0000  148.4010 18

 18 omega   35.00   63.00   2.0000    2.0000
omega____ theta____ kappa____ phi______ frames
    -       62.0000   63.0000  -37.3554 14

 19 omega   34.00   64.00   2.0000    2.0000
omega____ theta____ kappa____ phi______ frames
    -       62.0000   77.0000  -31.4658 15

 20 omega   34.00   84.00   2.0000    2.0000
omega____ theta____ kappa____ phi______ frames
    -       62.0000   72.0000   95.1257 25

 21 omega   37.00   85.00   2.0000    2.0000
omega____ theta____ kappa____ phi______ frames
    -       66.0000   76.0000   34.0855 24

 22 omega   45.00   99.00   2.0000    2.0000
omega____ theta____ kappa____ phi______ frames
    -       74.0000   72.0000 -130.0588 27

 23 omega   49.00   93.00   2.0000    4.0000
omega____ theta____ kappa____ phi______ frames
    -       78.0000   76.0000  174.0776 22

 24 omega   96.00  148.00   2.0000    4.0000
omega____ theta____ kappa____ phi______ frames
    -       78.0000   76.0000  174.0776 26

 25 omega   63.00   89.00   2.0000    4.0000
omega____ theta____ kappa____ phi______ frames
    -       82.0000   48.0000  168.7307 13

 26 omega   61.00  111.00   2.0000    4.0000
omega____ theta____ kappa____ phi______ frames
    -       86.0000   55.0000  -45.5361 25

 27 omega  111.00  137.00   2.0000    4.0000
omega____ theta____ kappa____ phi______ frames
    -      102.0000   71.0000   45.7548 13

 28 omega   73.00  107.00   2.0000    4.0000
omega____ theta____ kappa____ phi______ frames
    -      102.0000   71.0000   45.7548 17

 29 omega   49.00  135.00   2.0000    4.0000
omega____ theta____ kappa____ phi______ frames
    -      110.0000  -61.0000    0.0000 43

 30 omega   87.00  177.00   2.0000    4.0000
omega____ theta____ kappa____ phi______ frames
    -      110.0000   61.0000    0.0000 45

 31 omega  120.00  176.00   2.0000    4.0000
omega____ theta____ kappa____ phi______ frames
    -      110.0000   77.0000 -150.0000 28

 32 omega   80.00  118.00   2.0000    4.0000
omega____ theta____ kappa____ phi______ frames
    -      110.0000   77.0000 -150.0000 19

 33 omega   84.00  120.00   2.0000    4.0000
omega____ theta____ kappa____ phi______ frames
    -      110.0000   61.0000   90.0000 18

 34 omega   88.00  140.00   2.0000    4.0000
omega____ theta____ kappa____ phi______ frames
    -      110.0000   61.0000  -60.0000 26

 35 omega   50.00   96.00   2.0000    4.0000
omega____ theta____ kappa____ phi______ frames
    -      110.0000  -94.0000  -90.0000 23

 36 omega   83.00  177.00   2.0000    4.0000
omega____ theta____ kappa____ phi______ frames
    -      110.0000   77.0000  -60.0000 47

 37 omega   81.00  107.00   2.0000    4.0000
omega____ theta____ kappa____ phi______ frames
    -      110.0000   77.0000 -120.0000 13

 38 omega   84.00  178.00   2.0000    4.0000
omega____ theta____ kappa____ phi______ frames
    -      110.0000   61.0000   30.0000 47

 39 omega   80.00  172.00   2.0000    4.0000
omega____ theta____ kappa____ phi______ frames
    -      110.0000   77.0000  150.0000 46

 40 omega   78.00  108.00   2.0000    4.0000
omega____ theta____ kappa____ phi______ frames
    -      110.0000 -125.0000  150.0000 15

 41 omega   89.00  115.00   2.0000    4.0000
omega____ theta____ kappa____ phi______ frames
    -      110.0000   45.0000  -90.0000 13

 42 omega   77.00  105.00   2.0000    4.0000
omega____ theta____ kappa____ phi______ frames
    -      110.0000  -94.0000 -150.0000 14

 43 omega   43.00  135.00   2.0000    4.0000
omega____ theta____ kappa____ phi______ frames
    -      110.0000  -61.0000  120.0000 46

 44 omega   30.00   58.00   2.0000    4.0000
omega____ theta____ kappa____ phi______ frames
    -      110.0000  -94.0000 -150.0000 14

 45 omega   44.00  122.00   2.0000    4.0000
omega____ theta____ kappa____ phi______ frames
    -      110.0000 -125.0000    0.0000 39

 46 omega   81.00  167.00   2.0000    4.0000
omega____ theta____ kappa____ phi______ frames
    -      110.0000   77.0000  120.0000 43

 47 omega   48.00  108.00   2.0000    4.0000
omega____ theta____ kappa____ phi______ frames
    -      110.0000  -94.0000    0.0000 30

 48 omega   85.00  175.00   2.0000    4.0000
omega____ theta____ kappa____ phi______ frames
    -      110.0000   61.0000  -90.0000 45

 49 omega   80.00  122.00   2.0000    4.0000
omega____ theta____ kappa____ phi______ frames
    -      110.0000 -125.0000 -180.0000 21

 50 omega  129.00  175.00   2.0000    4.0000
omega____ theta____ kappa____ phi______ frames
    -      110.0000   77.0000   60.0000 23

 51 omega   81.00  123.00   2.0000    4.0000
omega____ theta____ kappa____ phi______ frames
    -      110.0000   77.0000   60.0000 21

 52 omega  132.00  158.00   2.0000    4.0000
omega____ theta____ kappa____ phi______ frames
    -      110.0000   61.0000  -30.0000 13

 53 omega  124.00  164.00   2.0000    4.0000
omega____ theta____ kappa____ phi______ frames
    -      110.0000   77.0000 -120.0000 20

 54 omega   80.00  120.00   2.0000    4.0000
omega____ theta____ kappa____ phi______ frames
    -      110.0000   77.0000  -30.0000 20

 55 omega   79.00  171.00   2.0000    4.0000
omega____ theta____ kappa____ phi______ frames
    -      110.0000   80.0000  177.8772 46

 56 omega   86.00  112.00   2.0000    4.0000
omega____ theta____ kappa____ phi______ frames
    -      110.0000   61.0000  -30.0000 13

 57 omega  128.00  154.00   2.0000    4.0000
omega____ theta____ kappa____ phi______ frames
    -      110.0000   61.0000   90.0000 13

 58 omega   84.00  112.00   2.0000    4.0000
omega____ theta____ kappa____ phi______ frames
    -      110.0000   61.0000   60.0000 14

 59 omega   81.00  153.00   2.0000    4.0000
omega____ theta____ kappa____ phi______ frames
    -      110.0000   77.0000   90.0000 36

 60 omega   79.00  105.00   2.0000    4.0000
omega____ theta____ kappa____ phi______ frames
    -      110.0000   85.0000  -16.6325 13
;
_diffrn_measurement_device       '\k-geometry diffractometer'
_diffrn_measurement_device_type  'GV1000, Atlas'
_diffrn_measurement_method       '\w scans'
_diffrn_orient_matrix_UB_11      0.1775278000
_diffrn_orient_matrix_UB_12      0.0585967000
_diffrn_orient_matrix_UB_13      -0.0487245000
_diffrn_orient_matrix_UB_21      -0.1305980000
_diffrn_orient_matrix_UB_22      0.1480899000
_diffrn_orient_matrix_UB_23      0.1603348000
_diffrn_orient_matrix_UB_31      0.1088780000
_diffrn_orient_matrix_UB_32      -0.1494228000
_diffrn_orient_matrix_UB_33      0.1143240000
_diffrn_radiation_collimation    'focusing mirrors'
_diffrn_radiation_monochromator  mirror
_diffrn_radiation_probe          x-ray
_diffrn_radiation_type           'Cu K\a'
_diffrn_radiation_wavelength     1.5418
_diffrn_radiation_xray_symbol    K-L~2,3~
_diffrn_reflns_av_R_equivalents  0.0342
_diffrn_reflns_av_unetI/netI     0.0223
_diffrn_reflns_Laue_measured_fraction_full 0.998
_diffrn_reflns_Laue_measured_fraction_max 0.984
_diffrn_reflns_limit_h_max       9
_diffrn_reflns_limit_h_min       -9
_diffrn_reflns_limit_k_max       10
_diffrn_reflns_limit_k_min       -10
_diffrn_reflns_limit_l_max       10
_diffrn_reflns_limit_l_min       -10
_diffrn_reflns_number            7093
_diffrn_reflns_point_group_measured_fraction_full 0.998
_diffrn_reflns_point_group_measured_fraction_max 0.984
_diffrn_reflns_theta_full        67.684
_diffrn_reflns_theta_max         77.827
_diffrn_reflns_theta_min         5.826
_diffrn_source                   'microfocus sealed tube'
_diffrn_source_target            Cu
_diffrn_source_type              'Agilent Diffraction microfocus tube'
_exptl_absorpt_coefficient_mu    2.995
_exptl_absorpt_correction_T_max  1.499
_exptl_absorpt_correction_T_min  0.702
_exptl_absorpt_correction_type   gaussian
_exptl_absorpt_process_details
;
CrysAlisPro, Agilent Technologies,
Version 1.171.36.28a (release 18-03-2013 CrysAlis171 .NET)
(compiled Mar 18 2013,11:47:30)
Numerical absorption correction based on gaussian integration over
            a multifaceted crystal model
;
_exptl_crystal_colour            'clear colourless'
_exptl_crystal_colour_lustre     clear
_exptl_crystal_colour_primary    colourless
_exptl_crystal_density_diffrn    1.366
_exptl_crystal_description       block
_exptl_crystal_F_000             178
_exptl_crystal_size_max          0.4824
_exptl_crystal_size_mid          0.1558
_exptl_crystal_size_min          0.1068
_refine_diff_density_max         0.686
_refine_diff_density_min         -0.447
_refine_diff_density_rms         0.129
_refine_ls_extinction_method     none
_refine_ls_goodness_of_fit_ref   1.148
_refine_ls_hydrogen_treatment    constr
_refine_ls_matrix_type           full
_refine_ls_number_parameters     113
_refine_ls_number_reflns         1709
_refine_ls_number_restraints     0
_refine_ls_restrained_S_all      1.148
_refine_ls_R_factor_all          0.0584
_refine_ls_R_factor_gt           0.0568
_refine_ls_shift/su_max          0.000
_refine_ls_shift/su_mean         0.000
_refine_ls_structure_factor_coef Fsqd
_refine_ls_weighting_details
;
 w=1/[\s^2^(Fo^2^)+(0.1101P)^2^+0.3759P]
 where P=(Fo^2^+2Fc^2^)/3
;
_refine_ls_weighting_scheme      calc
_refine_ls_wR_factor_gt          0.1733
_refine_ls_wR_factor_ref         0.1748
_reflns_Friedel_coverage         0.000
_reflns_number_gt                1627
_reflns_number_total             1709
_reflns_threshold_expression     'I > 2\s(I)'
_cod_data_source_file            c4cc05751a2.cif
_cod_data_source_block           jsrscc
_cod_original_cell_volume        406.64(11)
_cod_database_code               7115792
#BEGIN Tags that were not found in dictionaries:
_nottingham_internal_coll_name   JSRSCC
_nottingham_internal_coll_number 12536
_nottingham_internal_coll_client JAS/RS
_nottingham_internal_coll_type   CUSTOM
_nottingham_internal_coll_frame_time '2 AND 4'
_nottingham_internal_coll_frame_width 2
_nottingham_internal_coll_frame_method '\w scans'
_nottingham_internal_coll_user   WL
_nottingham_internal_coll_date   6/6/2013
_nottingham_internal_coll_location NOTTS
_nottingham_internal_process_user WL
_nottingham_internal_process_date 6/6/2013
_nottingham_internal_solution_user WL
_nottingham_internal_solution_date 6/6/2013
_nottingham_internal_refinement_user WL
_nottingham_internal_refinement_date 10/6/2013
_nottingham_internal_validation_user WL
_nottingham_internal_validation_date 10/6/2013
_nottingham_internal_archive_date 10/6/2013
_chemical_oxdiff_formula         'C16 H14 S'
_chemical_oxdiff_usercomment
'JSRCCC #12536 IN FOMBLIN FIML ON MICROMOUNT FOR JS/RS'
_reflns_odcompleteness_completeness 99.76
_reflns_odcompleteness_iscentric 1
_reflns_odcompleteness_theta     74.33
_olex2_refinement_description
;
1. Fixed Uiso
 At 1.2 times of:
  All C(H) groups
 At 1.5 times of:
  All C(H,H,H) groups
2. Others
 Sof(O2A)=1-FVAR(1)
 Sof(O2)=FVAR(1)
3.a Aromatic/amide H refined with riding coordinates:
 C5(H5), C7(H7)
3.b Idealised Me refined as rotating group:
 C9(H9A,H9B,H9C), C10(H10A,H10B,H10C), C11(H11A,H11B,H11C)
;
_shelx_res_file
;
TITL CF solution in P-1
CELL 1.54184 7.562369 8.023286 8.120879 84.7757 69.8223 61.9457
ZERR 1 0.001147 0.001089 0.000944 0.0103 0.0123 0.0146
LATT 1
 
SFAC C H O S
UNIT 18 22 2 2
 
L.S. 9
PLAN  20
TEMP -153(2)
BOND
fmap 2
acta
OMIT -2 -1 1
REM <HKL>C:/Dropbox/Organic/JSRSCC/JSRSCC.hkl</HKL>
 
WGHT    0.110100    0.375900
FVAR       8.88020   0.54512
S1    4    0.603201    0.062332    0.452509    11.00000    0.02369    0.02214 =
         0.02193   -0.00764    0.00025   -0.01089
PART 1
O2    3    0.817284   -0.060569    0.460321    21.00000    0.03562    0.04547 =
         0.06090   -0.01363   -0.01251   -0.01141
PART 0
PART 2
O2A   3    0.614438    0.121003    0.284177   -21.00000    0.07813    0.05477 =
         0.04812    0.00283   -0.01937   -0.03936
PART 0
C3    1    0.458655    0.251982    0.621871    11.00000    0.01748    0.01695 =
         0.01863   -0.00426   -0.00129   -0.00778
C4    1    0.500248    0.223909    0.781141    11.00000    0.02003    0.01801 =
         0.02356    0.00112   -0.00708   -0.00970
C5    1    0.379048    0.373335    0.912503    11.00000    0.02125    0.02076 =
         0.01937   -0.00055   -0.00714   -0.01009
AFIX  43
H5    2    0.403771    0.355795    1.021336    11.00000   -1.20000
AFIX   0
C6    1    0.222766    0.547633    0.889266    11.00000    0.01837    0.01881 =
         0.01994   -0.00183   -0.00509   -0.00858
C7    1    0.188719    0.571932    0.728362    11.00000    0.01734    0.01667 =
         0.02314    0.00061   -0.00686   -0.00635
AFIX  43
H7    2    0.084179    0.691020    0.710471    11.00000   -1.20000
AFIX   0
C8    1    0.303667    0.426541    0.593370    11.00000    0.02024    0.02180 =
         0.01905    0.00044   -0.00631   -0.01196
C9    1    0.673497    0.042214    0.813430    11.00000    0.02849    0.01925 =
         0.03593    0.00093   -0.01469   -0.00577
AFIX 137
H9A   2    0.652265   -0.064732    0.793634    11.00000   -1.50000
H9B   2    0.667563    0.049714    0.935149    11.00000   -1.50000
H9C   2    0.813072    0.023770    0.732455    11.00000   -1.50000
AFIX   0
C10   1    0.093819    0.707906    1.032237    11.00000    0.02532    0.02175 =
         0.02326   -0.00579   -0.00605   -0.00754
AFIX 137
H10A  2   -0.049176    0.719513    1.089400    11.00000   -1.50000
H10B  2    0.082332    0.826393    0.980871    11.00000   -1.50000
H10C  2    0.164315    0.682202    1.119562    11.00000   -1.50000
AFIX   0
C11   1    0.260833    0.465358    0.422099    11.00000    0.02554    0.02972 =
         0.01959    0.00266   -0.00871   -0.01317
AFIX 137
H11A  2    0.390209    0.451943    0.326957    11.00000   -1.50000
H11B  2    0.145271    0.594609    0.431742    11.00000   -1.50000
H11C  2    0.219177    0.374751    0.396280    11.00000   -1.50000
AFIX   0
HKLF 4
 
REM  CF solution in P-1
REM R1 =  0.0568 for    1627 Fo > 4sig(Fo)  and  0.0584 for all    1709 data
REM    113 parameters refined using      0 restraints
 
END  
     
WGHT      0.1101      0.3759 

REM Highest difference peak  0.686,  deepest hole -0.447,  1-sigma level  0.129
Q1    1   0.4274  0.2371  0.2764  11.00000  0.05    0.69
Q2    1   0.7690 -0.1066  0.6103  11.00000  0.05    0.67
Q3    1   0.3674  0.2916  0.2167  11.00000  0.05    0.66
Q4    1  -0.0315  0.6992  0.8077  11.00000  0.05    0.65
Q5    1   0.8248 -0.1592  0.6683  11.00000  0.05    0.64
Q6    1  -0.0728  0.7446  0.7662  11.00000  0.05    0.63
Q7    1   0.6781 -0.0227  0.5382  11.00000  0.05    0.62
Q8    1   0.2734  0.3965  1.1135  11.00000  0.05    0.62
Q9    1   0.3238  0.3422  1.1686  11.00000  0.05    0.59
Q10   1   0.0254  0.6379  0.8725  11.00000  0.05    0.57
Q11   1   0.1271  0.5423  0.9721  11.00000  0.05    0.57
Q12   1   0.4926  0.2168  0.6925  11.00000  0.05    0.56
Q13   1   0.6014  0.1233  0.7823  11.00000  0.05    0.55
Q14   1   0.0417  0.6716  1.1961  11.00000  0.05    0.55
Q15   1   0.2954  0.4188  0.5010  11.00000  0.05    0.54
Q16   1   0.2025  0.5549  0.8118  11.00000  0.05    0.53
Q17   1   0.3014  0.4618  0.9049  11.00000  0.05    0.52
Q18   1  -0.0080  0.7122  1.1567  11.00000  0.05    0.52
Q19   1   0.5154  0.1309  0.3799  11.00000  0.05    0.51
Q20   1  -0.0971  0.8229  1.0452  11.00000  0.05    0.50

REM The information below was added by Olex2.
REM
REM R1 = 0.0568 for 1627 Fo > 4sig(Fo) and 0.0584 for all 7095 data
REM n/a parameters refined using n/a restraints
REM Highest difference peak 0.69, deepest hole -0.45
REM Mean Shift 0, Max Shift 0.

REM +++ Tabular Listing of Refinement Information +++
REM R1_all = 0.0584
REM R1_gt = 0.0568
REM wR_ref = 0.1748
REM GOOF = 1.148
REM Shift_max = 0
REM Shift_mean = 0
REM Reflections_all = 7095
REM Reflections_gt = 1627
REM Parameters = n/a
REM Hole = 0.69
REM Peak = -0.45
REM Flack = n/a

;
_shelx_space_group_comment
;
The symmetry employed for this shelxl refinement is uniquely defined
by the following loop, which should always be used as a source of
symmetry information in preference to the above space-group names.
They are only intended as comments.
;
_shelxl_version_number           2013-2
#END Tags that were not found in dictionaries
loop_
_space_group_symop_operation_xyz
'x, y, z'
'-x, -y, -z'
loop_
_atom_site_label
_atom_site_type_symbol
_atom_site_fract_x
_atom_site_fract_y
_atom_site_fract_z
_atom_site_U_iso_or_equiv
_atom_site_adp_type
_atom_site_occupancy
_atom_site_site_symmetry_order
_atom_site_calc_flag
_atom_site_refinement_flags_posn
_atom_site_refinement_flags_adp
_atom_site_refinement_flags_occupancy
_atom_site_disorder_assembly
_atom_site_disorder_group
S1 S 0.60320(9) 0.06233(8) 0.45251(8) 0.0242(3) Uani 1 1 d . . . . .
O2 O 0.8173(7) -0.0606(7) 0.4603(7) 0.0505(15) Uani 0.545(8) 1 d . . P A 1
O2A O 0.6144(12) 0.1210(9) 0.2842(8) 0.057(2) Uani 0.455(8) 1 d . . P A 2
C3 C 0.4587(4) 0.2520(3) 0.6219(3) 0.0188(5) Uani 1 1 d . . . . .
C4 C 0.5002(4) 0.2239(3) 0.7811(3) 0.0203(5) Uani 1 1 d . . . . .
C5 C 0.3790(4) 0.3733(4) 0.9125(3) 0.0201(5) Uani 1 1 d . . . . .
H5 H 0.4038 0.3558 1.0213 0.024 Uiso 1 1 calc R U . . .
C6 C 0.2228(4) 0.5476(3) 0.8893(3) 0.0193(5) Uani 1 1 d . . . . .
C7 C 0.1887(4) 0.5719(3) 0.7284(3) 0.0197(5) Uani 1 1 d . . . . .
H7 H 0.0842 0.6910 0.7105 0.024 Uiso 1 1 calc R U . . .
C8 C 0.3037(4) 0.4265(4) 0.5934(3) 0.0195(5) Uani 1 1 d . . . . .
C9 C 0.6735(4) 0.0422(4) 0.8134(4) 0.0290(6) Uani 1 1 d . . . . .
H9A H 0.6523 -0.0647 0.7936 0.044 Uiso 1 1 calc R U . . .
H9B H 0.6676 0.0497 0.9351 0.044 Uiso 1 1 calc R U . . .
H9C H 0.8131 0.0238 0.7325 0.044 Uiso 1 1 calc R U . . .
C10 C 0.0938(4) 0.7079(4) 1.0322(3) 0.0251(6) Uani 1 1 d . . . . .
H10A H -0.0492 0.7195 1.0894 0.038 Uiso 1 1 calc R U . . .
H10B H 0.0823 0.8264 0.9809 0.038 Uiso 1 1 calc R U . . .
H10C H 0.1643 0.6822 1.1196 0.038 Uiso 1 1 calc R U . . .
C11 C 0.2608(4) 0.4654(4) 0.4221(3) 0.0246(6) Uani 1 1 d . . . . .
H11A H 0.3902 0.4519 0.3270 0.037 Uiso 1 1 calc R U . . .
H11B H 0.1453 0.5946 0.4317 0.037 Uiso 1 1 calc R U . . .
H11C H 0.2192 0.3748 0.3963 0.037 Uiso 1 1 calc R U . . .
loop_
_atom_site_aniso_label
_atom_site_aniso_U_11
_atom_site_aniso_U_22
_atom_site_aniso_U_33
_atom_site_aniso_U_23
_atom_site_aniso_U_13
_atom_site_aniso_U_12
S1 0.0237(4) 0.0221(4) 0.0219(4) -0.0076(2) 0.0003(3) -0.0109(3)
O2 0.036(2) 0.045(3) 0.061(3) -0.014(2) -0.013(2) -0.011(2)
O2A 0.078(5) 0.055(4) 0.048(3) 0.003(3) -0.019(3) -0.039(3)
C3 0.0175(11) 0.0169(11) 0.0186(11) -0.0043(9) -0.0013(9) -0.0078(9)
C4 0.0200(11) 0.0180(12) 0.0236(12) 0.0011(9) -0.0071(9) -0.0097(10)
C5 0.0212(12) 0.0208(12) 0.0194(11) -0.0005(9) -0.0071(9) -0.0101(10)
C6 0.0184(11) 0.0188(12) 0.0199(11) -0.0018(9) -0.0051(9) -0.0086(9)
C7 0.0173(11) 0.0167(11) 0.0231(12) 0.0006(9) -0.0069(9) -0.0064(9)
C8 0.0202(11) 0.0218(12) 0.0191(11) 0.0004(9) -0.0063(9) -0.0120(10)
C9 0.0285(13) 0.0193(13) 0.0359(15) 0.0009(11) -0.0147(11) -0.0058(11)
C10 0.0253(13) 0.0218(12) 0.0233(12) -0.0058(10) -0.0060(10) -0.0075(10)
C11 0.0255(12) 0.0297(14) 0.0196(12) 0.0027(10) -0.0087(10) -0.0132(11)
loop_
_atom_type_symbol
_atom_type_description
_atom_type_scat_dispersion_real
_atom_type_scat_dispersion_imag
_atom_type_scat_source
C C 0.0181 0.0091 'International Tables Vol C Tables 4.2.6.8 and 6.1.1.4'
H H 0.0000 0.0000 'International Tables Vol C Tables 4.2.6.8 and 6.1.1.4'
O O 0.0492 0.0322 'International Tables Vol C Tables 4.2.6.8 and 6.1.1.4'
S S 0.3331 0.5567 'International Tables Vol C Tables 4.2.6.8 and 6.1.1.4'
loop_
_exptl_crystal_face_index_h
_exptl_crystal_face_index_k
_exptl_crystal_face_index_l
_exptl_crystal_face_perp_dist
_exptl_oxdiff_crystal_face_indexfrac_h
_exptl_oxdiff_crystal_face_indexfrac_k
_exptl_oxdiff_crystal_face_indexfrac_l
_exptl_oxdiff_crystal_face_x
_exptl_oxdiff_crystal_face_y
_exptl_oxdiff_crystal_face_z
-1 -1 0 0.0601 -1.0002 -0.9996 0.0005 -0.2362 -0.0173 0.0405
1 4 -2 0.1616 1.0049 3.9978 -2.0012 0.5102 0.1399 -0.7167
-5 -2 -3 0.2197 -4.9956 -1.9994 -2.9986 -0.8579 -0.1245 -0.5880
-1 2 4 0.0478 -0.9989 1.9971 4.0035 -0.2554 1.0681 0.0505
1 -2 -4 0.0590 0.9989 -1.9971 -4.0035 0.2554 -1.0681 -0.0505
2 -3 0 0.1739 1.9944 -2.9971 -0.0020 0.1785 -0.7046 0.6648
0 0 -5 0.1450 0.0029 0.0013 -5.0031 0.2444 -0.8024 -0.5718
1 1 0 0.0873 1.0002 0.9996 -0.0005 0.2362 0.0173 -0.0405
2 4 3 0.0674 2.0010 3.9969 3.0011 0.4432 0.8118 -0.0363
3 0 5 0.2055 2.9941 -0.0003 5.0009 0.2878 0.4108 0.8978
1 -4 1 0.1855 0.9937 -3.9969 0.9992 -0.1065 -0.5615 0.8197
-2 3 -4 0.2345 -1.9921 2.9981 -4.0005 0.0169 0.0627 -1.1222
4 2 -2 0.0742 3.9995 2.0003 -2.0037 0.9249 -0.5474 -0.0925
-2 -3 4 0.1229 -2.0038 -2.9994 4.0033 -0.7266 0.4594 0.6877
4 -1 2 0.1979 3.9936 -0.9984 1.9982 0.5531 -0.3490 0.8124
-3 -5 -2 0.0581 -3.0017 -4.9967 -2.0000 -0.7282 -0.6686 0.1912
loop_
_geom_angle_atom_site_label_1
_geom_angle_atom_site_label_2
_geom_angle_atom_site_label_3
_geom_angle
_geom_angle_site_symmetry_3
O2 S1 S1 112.7(2) 2_656
O2 S1 C3 109.8(2) .
O2A S1 S1 112.4(3) 2_656
O2A S1 C3 114.1(3) .
C3 S1 S1 96.16(8) 2_656
C4 C3 S1 119.73(19) .
C8 C3 S1 118.87(19) .
C8 C3 C4 121.4(2) .
C3 C4 C9 123.1(2) .
C5 C4 C3 118.0(2) .
C5 C4 C9 118.9(2) .
C6 C5 C4 122.0(2) .
C5 C6 C7 118.4(2) .
C5 C6 C10 121.4(2) .
C7 C6 C10 120.2(2) .
C8 C7 C6 121.9(2) .
C3 C8 C11 123.1(2) .
C7 C8 C3 118.2(2) .
C7 C8 C11 118.7(2) .
loop_
_geom_bond_atom_site_label_1
_geom_bond_atom_site_label_2
_geom_bond_distance
_geom_bond_site_symmetry_2
S1 S1 2.1282(12) 2_656
S1 O2 1.468(5) .
S1 O2A 1.392(6) .
S1 C3 1.784(2) .
C3 C4 1.408(3) .
C3 C8 1.405(4) .
C4 C5 1.393(3) .
C4 C9 1.510(3) .
C5 C6 1.393(4) .
C6 C7 1.396(3) .
C6 C10 1.505(3) .
C7 C8 1.393(3) .
C8 C11 1.508(3) .
loop_
_refln_index_h
_refln_index_k
_refln_index_l
_refln_F_squared_meas
_refln_F_squared_sigma
_refln_scale_group_code
0 0 -1 47184 333.827 7
0 0 1 48445.7 395.981 4
0 0 -1 47933.4 424.747 14
0 0 1 48281.8 415.054 3
0 0 2 38147.7 517.366 4
0 0 2 39793.7 553.401 3
0 0 -2 40258.8 570.685 20
0 0 -2 38190.7 451.245 2
0 0 3 9828.44 330.148 4
0 0 3 9945.99 356.747 3
0 0 -3 10294.3 374.583 20
0 0 -3 10221.4 291.286 2
0 0 -4 755.952 159.17 20
0 0 4 676.869 124.626 3
0 0 -5 1925.23 238.239 20
0 0 5 1931.91 230.073 3
0 0 6 14702.9 691.289 3
0 0 -6 15012.6 573.32 11
0 0 6 15419.6 574.739 53
0 0 6 15317.3 536.638 31
0 0 -6 16296.5 768.519 20
0 0 6 15466.2 468.774 29
0 0 6 14444.7 512.025 48
0 0 7 3769.22 298.018 53
0 0 7 3644.34 276.903 31
0 0 7 3563.19 240.001 29
0 0 -7 3608.98 328.543 17
0 0 7 3499.34 261.427 48
0 0 -7 3347.38 373.281 20
0 0 -7 3718.66 242.015 33
0 0 8 2916.36 222.464 31
0 0 8 2893.18 246.601 53
0 0 8 2918.75 203.978 29
0 0 -8 3021.96 199.271 33
0 0 9 2402.87 147.348 29
0 0 -9 2625.72 144.639 59
0 -1 9 3231.6 174.791 29
0 1 -9 3006.38 141.946 59
0 -1 8 4910.61 319.617 53
0 -1 8 4969.7 268.52 29
0 1 -7 612.732 163.401 17
0 -1 7 773.338 119.611 29
0 -1 7 842.849 144.84 31
0 -1 7 541.044 105.893 48
0 1 -7 812.406 179.78 20
0 -1 7 879.767 151.859 53
0 1 -6 2315.08 261.114 11
0 -1 6 1842.41 173.577 48
0 1 -6 2295.11 291.367 20
0 -1 6 2201.13 273.598 3
0 -1 6 2440.87 225.776 31
0 -1 6 2220.13 178.884 29
0 -1 6 2360.72 236.492 53
0 -1 5 2466.32 242.878 4
0 -1 5 2402.29 245.227 3
0 1 -5 2241.62 247.582 20
0 1 -4 20245.7 471.436 2
0 -1 4 20347.2 624.428 3
0 1 -3 65780.9 858.241 14
0 -1 3 68534.4 905.22 3
0 1 -3 69219.1 756.719 2
0 -1 3 65520.7 905.883 4
0 1 -3 67834.8 893.441 20
0 1 -2 1360.09 98.0051 14
0 -1 2 1453.96 116.077 4
0 1 -2 1398.8 92.3783 2
0 -1 2 1462.27 104.756 3
0 1 -2 1435.36 88.8048 9
0 -1 1 91172.5 677.18 7
0 1 -1 91643 629.32 6
0 -1 1 92527.6 597.087 8
0 1 0 813.146 31.6394 3
0 -1 0 868.005 31.5543 3
0 -1 0 804.664 50.9614 7
0 -1 0 848.414 58.3696 8
0 1 0 839.904 42.7291 11
0 -1 0 851.23 46.69 4
0 1 0 917.378 53.021 12
0 1 1 10222.2 222.028 3
0 -1 -1 9758.44 227.111 8
0 -1 -2 20357.2 471.959 20
0 -1 -2 20367.6 394.026 8
0 1 2 20467.4 427.096 3
0 1 3 11664.5 406.15 3
0 -1 -3 12056.4 355.258 8
0 1 4 28987 770.982 3
0 -1 -4 28413.8 625.681 8
0 1 5 351.42 119.54 3
0 -1 -5 307.374 137.734 20
0 -1 -6 41653.2 766.785 51
0 -1 -6 47454.8 1333.01 20
0 1 6 42405.6 1188.23 3
0 1 6 46491.5 815.67 29
0 1 6 45972.8 943.273 48
0 -1 -7 1174.7 151.524 33
0 1 7 882.093 140.134 31
0 -1 -7 938.223 125.844 51
0 1 7 1008 135.251 29
0 1 7 932.019 155.596 53
0 -1 -7 1003.63 218.197 20
0 1 7 1028.68 147.401 48
0 1 8 5145.79 275.427 31
0 1 8 4880.23 247.191 48
0 1 8 4768.67 244.608 29
0 -1 -8 4943.17 257.795 59
0 -1 -8 5198.52 269.247 33
0 1 8 5098.38 305.756 53
0 -1 -9 2053.74 125.369 59
0 -1 -9 1716.41 107.677 33
0 1 9 1737.41 111.178 29
0 -1 -9 1828.59 102.924 46
0 -2 9 1618.08 120.463 29
0 -2 8 7330.37 318.423 29
0 2 -7 17246.6 750.127 17
0 -2 7 16658.1 633.268 53
0 -2 7 17415.5 517.317 29
0 2 -6 10124.9 549.161 11
0 -2 6 8721.25 380.458 47
0 2 -6 8678.39 517.812 20
0 -2 6 8246.42 395.344 48
0 -2 6 9473.95 368.066 29
0 -2 6 10087.4 455.027 31
0 -2 6 9572.91 498.173 53
0 2 -5 1556.51 213.643 11
0 2 -5 1246.56 180.54 20
0 -2 5 1413.76 202.076 4
0 -2 5 1416.8 188.607 3
0 -2 4 1318.47 156.382 3
0 2 -4 1256.45 141.351 14
0 2 -4 1182.03 140.889 20
0 -2 4 1330.73 171.51 4
0 2 -4 1395.93 131.732 2
0 2 -3 149.561 54.4523 2
0 -2 3 202.843 66.0051 3
0 2 -3 128.753 48.97 14
0 2 -3 162.99 50.9694 9
0 2 -2 1466.04 120.334 6
0 -2 2 1535.98 96.9737 3
0 -2 2 1445.18 128.825 4
0 -2 1 63977 733.051 7
0 -2 1 65911.7 699.775 4
0 2 -1 64521.3 378.515 1
0 -2 1 65041.3 686.603 8
0 2 -1 64550.5 676.551 11
0 2 0 71955.8 661.242 12
0 -2 0 71094.7 664.442 7
0 -2 0 73083 464.553 1
0 -2 0 72676.8 741.623 8
0 -2 0 70715.6 616.818 4
0 -2 -1 53828.4 437.474 7
0 -2 -1 54679.1 700.898 8
0 2 1 53534.9 659.787 10
0 2 2 46910.8 789.22 22
0 2 2 47862.9 711.113 3
0 2 2 50362.4 607.609 13
0 -2 -2 48942.2 863.811 20
0 -2 -2 45767.4 710.808 8
0 -2 -3 122419 1599.86 20
0 -2 -3 121967 1295.1 8
0 2 3 120736 1096.48 18
0 2 3 123626 1382.08 3
0 -2 -4 1492.26 165.312 8
0 2 4 1715.4 199.007 3
0 -2 -4 1775.66 229.729 20
0 -2 -5 20159.7 831.18 20
0 2 5 19323.5 767.384 3
0 2 6 268.815 88.8149 31
0 -2 -6 44.2198 67.9075 33
0 -2 -6 92.6839 112.096 20
0 2 6 65.1053 50.198 29
0 -2 -6 198.844 84.56 51
0 -2 -7 2294.91 198.299 59
0 2 7 2264.66 199.027 31
0 -2 -7 2112.02 183.221 51
0 -2 -7 2235.59 205.783 33
0 2 7 2158.68 198.198 48
0 2 7 2102.39 173.057 29
0 2 7 2172.65 226.848 53
0 -2 -8 1686.94 132.749 51
0 -2 -8 1831.12 154.957 59
0 2 8 1859.55 145.133 31
0 -2 -8 1813.64 163.821 33
0 2 8 1580.44 126.973 29
0 2 8 1720.59 172.458 53
0 -2 -9 1668.11 98.309 33
0 -2 -9 1821.74 104.124 59
0 -3 9 2436.08 133.053 49
0 -3 9 2765.88 139.826 40
0 -3 8 2437.56 175.562 43
0 -3 8 3196.7 193.523 29
0 3 -7 77.097 91.9895 17
0 -3 7 298.42 73.6795 29
0 -3 6 1672.26 175.5 47
0 3 -6 2245.81 281.912 11
0 -3 6 1837.27 194.327 48
0 -3 6 1805.15 160.611 29
0 3 -6 2171.06 283.343 17
0 -3 5 11823.1 591.537 4
0 -3 5 11616.3 385.399 45
0 3 -5 11052.1 568.471 11
0 3 -4 568.436 130.146 11
0 -3 4 596.49 130.399 4
0 -3 3 236.976 89.0688 4
0 3 -3 262.506 93.6794 11
0 3 -2 204.495 86.0288 11
0 -3 2 154.961 54.2669 8
0 3 -2 239.909 75.3525 6
0 -3 2 153.197 83.3282 4
0 3 -1 42109.5 628.803 11
0 -3 1 43761.6 692.814 4
0 3 -1 43904.3 696.364 12
0 -3 0 9016.27 337.527 8
0 -3 0 9317.92 283.884 4
0 3 0 9626.29 345.315 16
0 3 1 19925.8 502.919 10
0 -3 -1 20195.1 405.148 4
0 3 1 18019.6 520.812 16
0 3 1 18770 530.502 22
0 -3 -1 19715.8 526.838 8
0 3 1 20918 380.388 3
0 -3 -2 39234.4 797.064 8
0 3 2 41645.3 863.875 22
0 3 2 41506.6 681.991 13
0 3 2 40615 704.271 3
0 3 3 12734.3 548.247 22
0 -3 -3 12526.5 483.232 8
0 3 3 13724 493.905 3
0 -3 -3 13906.2 591.584 20
0 -3 -4 7694.63 405.439 8
0 3 4 8377.73 442.36 3
0 -3 -4 8934.8 532.389 20
0 3 5 14768.5 490.764 31
0 -3 -5 15262.5 508.995 33
0 -3 -5 15407.7 527.418 58
0 -3 -5 15935 525.748 51
0 3 5 15969 512.493 48
0 3 5 14762.5 494.107 41
0 3 5 14504.8 645.285 3
0 -3 -5 15580.5 512.062 27
0 3 6 9650.62 405.393 31
0 -3 -6 10219.3 406.25 59
0 -3 -6 10859.3 441.758 51
0 3 6 10547.9 432.874 48
0 -3 -6 9802.48 402.154 27
0 -3 -6 10945.7 445.741 33
0 3 7 2719.38 189.618 31
0 -3 -7 3135.91 229.785 33
0 -3 -7 3100.17 213.419 59
0 -3 -7 2807.25 206.525 51
0 3 7 2948.75 209.211 48
0 3 7 2960.61 240.344 53
0 -3 -8 93.9897 54.4873 33
0 -3 -8 37.4582 47.9638 59
0 3 8 20.6373 57.5214 53
0 -4 8 1462.24 135.826 40
0 4 -7 873.133 179.608 17
0 -4 7 828.195 122.43 43
0 -4 7 762.899 125.24 40
0 -4 6 715.504 119.183 43
0 4 -6 749.91 163.967 17
0 -4 6 563.56 117.809 45
0 -4 5 20222.1 637.461 36
0 -4 5 20893.6 601.516 44
0 4 -5 20215.4 803.905 11
0 -4 5 20409.5 594.254 43
0 -4 5 18868.9 500.821 47
0 -4 5 20596.5 528.494 45
0 4 -4 17541.3 685.149 11
0 4 -4 18182.1 641.974 17
0 -4 4 16801.3 707.925 4
0 4 -3 1844.07 205.264 11
0 4 -3 1785.7 195.094 6
0 -4 3 1653.18 204.285 4
0 4 -3 1862.59 178.661 17
0 -4 2 23465.8 669.971 4
0 4 -2 23634.2 697.884 6
0 -4 2 24226 659.029 8
0 4 -2 22843.1 606.75 11
0 4 -2 25218.1 658.063 12
0 4 -1 4608.05 265.822 12
0 -4 1 4590.39 288.563 8
0 -4 1 4690.46 266.22 4
0 -4 0 5305.24 314.232 8
0 4 0 5248.2 317.759 16
0 -4 0 5160.34 246.453 4
0 4 0 5728.02 338.496 22
0 4 1 111.292 68.9395 22
0 4 1 121.446 71.9252 10
0 -4 -1 159.727 116.75 8
0 4 2 15749.3 614.155 22
0 4 2 15860.9 499.8 13
0 -4 -2 15829.8 595.459 8
0 4 3 6344.45 424.848 22
0 -4 -3 6064 326.815 27
0 -4 -3 5967.56 383.49 8
0 -4 -4 23948.3 628.309 33
0 -4 -4 23592.4 594.697 43
0 -4 -4 23853 664.363 51
0 4 4 24689.9 644.754 37
0 -4 -4 21304.6 540.985 59
0 -4 -4 23681.4 686.722 27
0 -4 -4 20963.9 735.497 8
0 -4 -4 21380.6 615.036 38
0 4 4 23583.3 617.992 41
0 -4 -5 146.363 80.2681 33
0 4 5 52.8156 56.621 48
0 4 5 99.1555 66.605 41
0 -4 -5 204.668 74.5783 59
0 -4 -5 240.359 73.6866 27
0 -4 -5 169.447 78.1335 51
0 4 5 93.6148 84.8883 37
0 -4 -5 231.751 89.6329 38
0 -4 -6 6788.84 343.752 33
0 -4 -6 6433.86 331.863 27
0 -4 -6 6560.07 347.437 51
0 -4 -6 6606.2 310.225 59
0 4 6 6063.53 315.826 48
0 4 7 4527.64 230.852 48
0 -4 -7 5309.7 261.112 33
0 -4 -7 5429.84 265.467 51
0 4 7 4713.63 261.396 53
0 -4 -7 4984.88 230.125 59
0 -4 -8 5070.68 157.549 50
0 4 8 3594.62 152.355 53
0 -5 8 404.614 74.6499 49
0 -5 8 415.977 53.3754 40
0 -5 7 151.76 67.9176 40
0 -5 7 95.4839 87.154 49
0 -5 6 24820.5 626.2 43
0 -5 6 26175 660.268 40
0 -5 5 9332.15 400.712 43
0 5 -5 9856.31 553.863 12
0 -5 5 9237.61 358.803 45
0 -5 5 9077.81 398.056 40
0 5 -4 1564.45 212.055 12
0 -5 4 1500.71 162.507 43
0 -5 4 1465.25 185.808 36
0 -5 4 1631.57 196.112 44
0 -5 4 1539.29 145.029 45
0 -5 4 1419.03 158.152 40
0 -5 3 7902.89 477.913 4
0 -5 3 10695.8 399.704 43
0 5 -3 8462.66 463.111 12
0 -5 3 10636.7 409.205 40
0 -5 3 8490.34 421.64 44
0 -5 3 10596.1 397.855 49
0 5 -2 7371.19 459.78 6
0 -5 2 7278.61 427.982 8
0 5 -2 7348.48 402.012 12
0 5 -1 1664.34 210.197 16
0 -5 1 1523.3 201.575 8
0 -5 0 454.916 125.512 8
0 5 0 291.163 111.827 22
0 5 0 319.48 101.067 10
0 5 0 345.748 126.061 16
0 -5 -1 1103.72 154.464 27
0 5 1 1021.46 182.888 22
0 5 1 1096.02 164.478 10
0 -5 -1 815.485 155.123 8
0 -5 -2 4978.93 311.644 51
0 -5 -2 5277.64 388.292 8
0 -5 -2 5058.6 277.392 43
0 -5 -2 5865.85 343.933 38
0 5 2 5697.47 337.465 13
0 -5 -2 5010.59 334.063 27
0 -5 -2 4925.87 300.62 30
0 5 2 5549.44 409.787 22
0 5 3 8762.28 536.473 22
0 -5 -3 10026.2 480.246 27
0 5 3 9575.87 404.241 37
0 -5 -3 9184.22 431.875 51
0 -5 -3 8808.67 401.667 30
0 -5 -3 9322.8 440.049 38
0 -5 -3 9317.82 376.825 43
0 -5 -4 352.809 86.1138 33
0 -5 -4 314.889 91.2171 51
0 5 4 287.455 84.7338 41
0 -5 -4 187.968 72.7386 38
0 -5 -4 427.999 131.189 27
0 5 4 396.085 109.747 37
0 -5 -5 16157.9 554.691 51
0 -5 -5 14386.8 477.945 33
0 5 5 15616 507.268 41
0 5 5 16170.3 505.709 48
0 -5 -5 15576.5 562.814 27
0 -5 -5 14629.6 497.848 38
0 -5 -6 16466.5 495.762 51
0 5 6 15797.4 441.001 48
0 -5 -6 15715.6 444.632 33
0 5 7 3850.1 179.246 53
0 -6 7 1177.2 111.815 49
0 -6 6 658.702 112.726 49
0 -6 6 818.987 107.31 40
0 -6 5 354.553 88.5735 40
0 -6 5 306.024 94.5436 49
0 -6 5 201.111 63.6175 45
0 -6 5 411.347 83.3894 43
0 -6 4 1302.41 153.798 49
0 6 -4 1577.89 248.946 16
0 -6 4 1252.14 145.603 43
0 6 -4 1428.37 207.024 12
0 -6 4 1330.73 147.507 40
0 -6 3 5312.53 364.523 44
0 6 -3 4483.75 351.036 12
0 6 -3 5961.08 447.288 16
0 -6 3 4935.11 286.232 43
0 -6 3 5255.51 302.194 35
0 -6 3 5414.28 289.92 49
0 6 -2 13865.9 682.2 22
0 6 -2 14152.7 681.954 16
0 6 -2 11594.6 659.399 10
0 -6 2 11811.9 438.037 43
0 -6 2 14449.2 437.274 49
0 -6 2 12105.9 517.085 44
0 -6 2 10195.5 504.844 30
0 6 -1 1208.31 207.852 16
0 6 -1 977.502 194.224 22
0 6 -1 990.733 190.356 10
0 -6 1 1089.32 164.24 30
0 -6 1 1116.01 162.18 38
0 -6 1 957.219 129.881 43
0 6 0 26352.7 925.042 22
0 -6 0 27971.5 809.327 30
0 -6 0 26837.5 800.09 38
0 -6 0 25745.2 626.169 43
0 6 0 24915 846.507 10
0 -6 -1 32204.2 705.374 43
0 6 1 35616 1063.77 22
0 6 1 33330.3 917.128 13
0 -6 -1 34084.5 879.978 30
0 -6 -1 33669.7 909.062 38
0 -6 -2 1942.72 237.118 27
0 -6 -2 1712.57 205.75 38
0 -6 -2 2011.89 217.12 30
0 6 2 1867.7 252.336 22
0 -6 -2 1579.78 164.831 43
0 -6 -3 407.4 98.4355 43
0 -6 -3 472.72 131.838 38
0 6 3 538.419 109.629 37
0 -6 -3 395.413 137.792 27
0 6 4 438.533 88.7277 48
0 6 4 541.335 107.184 37
0 6 4 302.054 85.9738 41
0 -6 -4 352.848 91.9579 38
0 -6 -5 4108.06 230.607 38
0 6 5 4343.05 234.643 41
0 6 5 4446.17 232.342 48
0 6 6 6236.71 208.36 48
0 -6 -6 5839.05 226.681 50
0 -7 6 332.607 51.101 49
0 -7 5 557.761 85.238 49
0 7 -4 1836.96 230.293 22
0 -7 4 1577.75 147.71 43
0 -7 4 1508.7 137.074 49
0 -7 3 24527.6 582.18 43
0 7 -3 25984.4 881.72 22
0 -7 3 24629.2 516.482 49
0 -7 3 24041.4 594.637 35
0 7 -2 5856.5 439.161 22
0 -7 2 7002.86 324.433 43
0 7 -2 5772.25 434.632 16
0 7 -1 9295.11 544.415 22
0 -7 1 7501.42 412.14 38
0 7 0 2534.09 285.238 22
0 -7 0 2442.63 202.698 43
0 -7 0 2620.19 249.602 38
0 -7 -1 1579.42 160.188 43
0 -7 -1 1459.52 197.808 38
0 7 1 1258.87 201.877 22
0 7 2 598.398 108.15 37
0 -7 -2 485.898 101.607 50
0 7 2 681.916 153.901 22
0 -7 -2 607.191 127.953 38
0 -7 -2 546.336 93.7692 43
0 -7 -3 98.0336 78.4616 38
0 7 3 183.91 66.9792 41
0 7 3 140.517 64.5197 37
0 -7 -3 212.099 65.9786 50
0 7 4 21.7436 42.6239 48
0 -7 -4 -58.7371 71.2237 38
0 7 4 61.932 46.7356 41
0 7 4 31.9768 53.6425 37
0 -7 -4 9.32631 52.1208 50
0 7 5 312.476 48.9752 48
0 -7 -5 207.19 44.6054 50
0 -8 4 473.756 82.535 42
0 -8 2 2849.85 169.469 43
0 -8 2 2410.36 174.611 35
0 -8 1 3189.04 186.002 43
0 -8 1 2994.03 196.088 42
0 -8 0 11069.5 336.138 43
0 -8 0 6307.7 303.288 38
0 -8 -1 7301.87 261.387 43
0 8 1 7094.65 260.431 41
0 8 1 6883.27 269.689 37
0 8 2 3597.46 171.318 41
0 -8 -2 3653.32 215.847 38
0 8 2 3432.95 173.791 37
0 -8 -3 13044.4 330.703 38
0 8 3 13069.4 290.721 48
1 -8 -1 398.953 61.6059 35
-1 8 1 612.875 61.811 48
-1 8 0 345.556 54.8932 48
1 -8 0 284.302 61.9924 35
1 -8 1 5034.09 160.138 42
1 -8 1 5541.09 239.593 35
1 -8 2 3777.16 172.805 42
1 -8 2 3217.75 172.877 35
1 -8 3 3371.12 166.387 42
1 -8 4 543.87 64.3243 42
-1 7 4 232.969 37.7074 48
-1 7 3 6379.17 237.127 48
-1 7 3 5982.15 212.713 41
-1 7 2 176.993 54.0893 37
-1 7 2 48.2362 48.0417 48
1 -7 -2 25.084 82.1481 38
-1 7 2 96.2563 48.7676 41
1 -7 -2 118.385 55.9212 50
1 -7 -1 1482.02 179.151 38
-1 7 1 1471.92 134.519 37
-1 7 1 1511.4 131.735 41
1 -7 -1 1458.7 132.199 43
1 -7 0 2559.29 176.951 42
1 -7 0 2531.62 236.439 38
-1 7 0 2781.55 181.052 41
1 -7 0 2647.62 178.248 43
1 -7 1 1610.76 144.115 43
1 -7 1 1632.35 167.71 42
1 -7 2 3444.99 192.562 43
1 -7 2 3235.22 260.638 35
1 -7 2 3663.18 260.238 42
1 -7 3 6612.64 318.511 35
1 -7 4 6073.55 323.801 42
1 -7 4 6009.28 247.695 49
1 -7 5 1164.39 131.895 42
1 -7 5 1215.66 112.739 49
1 -6 -5 2051.44 137.044 50
-1 6 5 1991.27 126.212 48
1 -6 -4 12267.2 402.453 38
-1 6 4 12672.2 385.417 48
-1 6 4 12472.3 383.724 41
1 -6 -4 11901.9 405.957 50
-1 6 4 13130.3 331.275 26
1 -6 -3 10298.8 427.577 50
-1 6 3 10310.8 389.364 48
1 -6 -3 10411.4 445.506 38
-1 6 3 10581.8 389.548 41
-1 6 3 10735.2 384.004 37
-1 6 2 8877.94 488.964 18
-1 6 2 9561.69 384.589 41
1 -6 -2 8501.3 414.532 50
-1 6 2 9159.39 374.483 37
1 -6 -2 9208.43 359.36 43
1 -6 -2 9938.28 478.626 38
1 -6 -1 2451.85 251.151 38
1 -6 -1 2437.79 232.064 50
1 -6 -1 2337.58 193.643 43
1 -6 0 4236.75 278.318 50
-1 6 0 4642.84 374.239 13
1 -6 0 4730.36 347.288 38
1 -6 0 4766.86 286.485 42
1 -6 0 4290.03 253.834 43
1 -6 1 46.2857 97.216 38
1 -6 1 163.479 59.6028 43
1 -6 2 14934.6 453.067 43
1 -6 2 16880 481.545 49
1 -6 3 3175.69 208.834 43
-1 6 -3 3182.26 310.768 16
1 -6 3 3359.88 261.023 35
1 -6 3 3413.77 231.195 49
1 -6 4 4704.17 264.756 35
1 -6 4 4717.17 239.352 45
1 -6 4 5403.65 290.188 49
1 -6 5 7390.36 288.796 45
1 -6 5 8635.76 354.157 49
1 -6 6 4770.79 244.524 49
1 -6 6 4559.06 244.153 42
1 -6 7 713.467 84.2737 49
-1 5 6 16476.7 357.266 53
1 -5 -6 16449.5 335.292 57
1 -5 -6 17423.4 396.899 50
-1 5 5 10313.9 368.924 48
1 -5 -5 8776.56 319.298 38
1 -5 -4 8297.26 391.117 38
-1 5 4 8947.07 380.282 37
-1 5 4 8579.96 374.263 41
-1 5 4 8460.21 327.054 26
-1 5 4 8556.7 372.818 48
-1 5 3 11285.6 439.892 37
-1 5 3 11751.2 467.703 41
1 -5 -3 11037.4 489.035 38
1 -5 -2 860.803 148.435 38
-1 5 2 740.558 147.132 22
1 -5 -2 711.473 114.658 43
1 -5 -1 19738.5 653.812 30
-1 5 1 21371.3 742.889 13
1 -5 -1 19970.4 521.993 43
-1 5 1 21021.7 760.895 22
1 -5 -1 21110.9 686.245 38
1 -5 0 10039 359.4 43
1 -5 0 10624.5 564.663 8
-1 5 0 10752.2 540.789 22
1 -5 0 11034.8 494.266 38
1 -5 0 10605.5 444.196 50
-1 5 0 10157.2 532.102 10
1 -5 0 10212.9 468.915 30
-1 5 -1 3539.66 341.085 10
-1 5 -1 3284.77 305.311 22
-1 5 -1 3372.76 320 16
1 -5 1 3407.33 272.741 30
1 -5 1 3511.82 317.02 8
1 -5 1 3264.01 199.362 43
1 -5 1 3540.93 274.041 38
1 -5 1 3601.76 212.796 49
1 -5 2 904.671 104.033 43
-1 5 -2 1014.57 200.686 10
-1 5 -2 1431.71 210.428 22
1 -5 2 1258.01 128.718 45
-1 5 -2 1163.12 189.003 16
1 -5 2 1103.22 182.396 8
1 -5 2 1292.06 144.32 49
1 -5 3 411.674 95.7799 49
1 -5 3 248.742 55.7427 45
-1 5 -3 441.479 131.721 16
-1 5 -3 366.144 115.317 12
1 -5 3 516.311 111.104 40
1 -5 3 614.056 88.5776 43
1 -5 3 300.572 81.7085 35
1 -5 4 1244.8 155.932 35
1 -5 4 1303.93 158.911 40
-1 5 -4 1493.33 202.125 12
1 -5 4 1282.89 135.93 45
1 -5 4 1184.56 154.534 49
1 -5 5 701.55 111.669 45
1 -5 5 719.96 128.716 40
-1 5 -5 708.575 151.877 12
1 -5 5 752.221 139.677 49
1 -5 6 9014.79 391.765 40
1 -5 6 9825.67 428.029 49
1 -5 6 8641.7 347.93 45
1 -5 7 1884.19 177.579 49
1 -5 7 1918.86 166.989 40
1 -5 8 2892.95 159.79 49
1 -5 8 3654.14 160.594 40
-1 4 7 1942.51 124.808 53
1 -4 -7 2128.16 115.845 59
-1 4 7 2269.47 127.833 48
1 -4 -7 2404.67 131.483 50
-1 4 6 3194.81 213.576 48
1 -4 -6 3256.09 218.659 33
1 -4 -6 3298.32 200.078 59
-1 4 5 1140.92 152.266 41
1 -4 -5 1358.48 165.896 33
-1 4 5 1411.85 163.157 48
1 -4 -5 1527.89 161.095 59
1 -4 -5 1275.52 163.253 51
-1 4 4 4892.27 300.569 37
1 -4 -4 4617.54 301.578 38
-1 4 4 4983.95 301.59 41
1 -4 -4 5292.87 340.531 27
1 -4 -4 5304.4 321.578 33
-1 4 4 5079 301.807 48
-1 4 4 5375.65 274.966 26
1 -4 -4 5166.57 331.729 51
1 -4 -4 5296.2 295.291 59
1 -4 -3 17409.2 569.619 38
1 -4 -3 18130.8 623.074 27
1 -4 -3 19096.3 619.722 51
-1 4 3 16773.6 525.975 41
1 -4 -3 16236.6 699.853 8
-1 4 3 17159.6 639.232 18
1 -4 -3 16967.5 509.52 59
1 -4 -3 17666 555.918 33
1 -4 -3 17838.6 505.166 43
-1 4 3 18062.8 534.871 37
-1 4 2 7231.36 437.484 22
1 -4 -2 7680.43 502.973 8
1 -4 -2 8625.21 416.558 27
-1 4 2 9320.57 452.006 13
-1 4 1 63009.5 1156.48 13
-1 4 1 65419.4 1206.85 22
1 -4 -1 65321.2 1111.76 27
-1 4 0 12018.8 529.046 10
1 -4 0 11709.7 529.36 8
-1 4 0 11008.1 491.439 22
-1 4 -1 1741.92 193.175 22
-1 4 -1 1715.34 219.741 10
-1 4 -1 1709.36 201.696 16
1 -4 1 1655.23 196.203 8
-1 4 -2 56.8363 41.9245 12
1 -4 2 138.655 61.9434 8
-1 4 -2 190.579 77.5279 16
-1 4 -3 1959.7 202.547 12
-1 4 -3 1860.76 197.925 11
1 -4 4 6011.78 307.851 40
1 -4 4 5998.26 399.259 4
1 -4 4 6287.95 283.411 45
-1 4 -4 5760.82 391.015 11
1 -4 5 80330.6 1208.4 40
1 -4 5 76160.9 971.219 47
-1 4 -5 79170 1542.05 11
1 -4 5 78172.7 1063.17 45
1 -4 6 2175.1 180.301 47
1 -4 6 2286.73 223.511 40
-1 4 -6 2409.59 267.006 17
1 -4 6 2118.21 185.239 45
1 -4 7 1652.95 189.281 40
1 -4 8 2374.84 182.168 40
1 -4 8 2410.34 195.904 49
1 -3 -8 127.89 33.8878 59
-1 3 8 18.5335 24.7363 53
1 -3 -7 -0.32635 57.5133 33
-1 3 7 -77.6129 65.6649 48
-1 3 7 119.668 76.2121 53
1 -3 -7 -15.627 56.0205 59
1 -3 -6 278.376 93.1083 51
1 -3 -6 401.958 88.672 59
1 -3 -6 365.742 102.33 33
-1 3 6 259.233 81.808 48
1 -3 -5 7967.78 384.092 51
-1 3 5 7231.53 366.659 48
1 -3 -5 7987.65 368.589 59
1 -3 -5 7373.85 378.597 33
-1 3 5 7062.43 362.948 41
1 -3 -5 7344.82 359.444 27
-1 3 4 15433 510.115 48
1 -3 -4 14072.1 466.412 59
1 -3 -4 13871.7 503.918 27
-1 3 4 14839.4 498.069 41
1 -3 -4 13918.3 616.591 8
-1 3 4 15282.7 506.997 37
1 -3 -4 14313.8 502.811 33
1 -3 -4 14513.6 508.944 51
-1 3 4 16344.2 461.056 26
1 -3 -3 7215.81 430.064 8
-1 3 3 7124.21 372.515 18
1 -3 -3 7803.51 354.69 27
1 -3 -2 2759.12 249.914 8
-1 3 2 3149.77 229.489 13
-1 3 2 2764.12 244.692 22
1 -3 -1 19367.4 667.896 8
-1 3 1 19045.3 568.901 22
-1 3 1 18841.6 570.786 10
-1 3 0 10367.8 392.19 22
-1 3 0 9625.38 414.75 10
1 -3 0 10427 424.015 8
-1 3 0 9410.82 384.263 16
1 -3 0 9761.05 353.962 7
-1 3 -1 6420.7 262.401 12
1 -3 1 6745.23 323.974 7
-1 3 -1 7380.17 327.13 16
-1 3 -1 6275.36 220.176 11
1 -3 1 6491.75 216.056 4
1 -3 1 7047.32 331.42 8
1 -3 2 6323.88 275.724 4
1 -3 2 6094.14 330.771 7
1 -3 2 6463.06 305.096 8
-1 3 -2 5953.08 281.737 11
1 -3 3 15921.5 567.842 7
1 -3 3 16999.6 544.175 4
-1 3 -3 16653 494.589 6
-1 3 -4 2863.33 232.027 9
1 -3 4 3112.25 266.777 4
-1 3 -5 3852.59 352.491 11
1 -3 5 3760.76 221.898 45
1 -3 5 3848.97 332.488 4
1 -3 5 3826.57 217.912 47
1 -3 6 100.755 61.0386 45
1 -3 6 89.4471 59.885 47
-1 3 -6 72.4823 80.8734 11
-1 3 -7 2325.78 289.067 17
1 -3 7 2530.8 206.354 47
1 -3 7 2647.58 185.036 29
1 -3 8 2180.16 153.35 29
1 -3 9 3433.52 167.574 49
1 -3 9 4462.67 200.258 40
-1 2 8 7958.68 240.502 48
1 -2 -8 7886.04 267.837 33
-1 2 8 7256.78 274.159 53
1 -2 -7 4062.09 250.46 33
1 -2 -7 4398.21 250.163 59
-1 2 7 3695.86 201.01 29
-1 2 7 4350.88 260.223 48
1 -2 -7 3938.39 218.186 51
-1 2 7 4294.06 273.892 53
-1 2 6 13.9076 49.9941 29
1 -2 -6 -34.2811 84.9422 59
-1 2 6 -40.1611 73.9927 48
-1 2 6 53.5475 78.4411 53
1 -2 -6 -19.9359 88.6743 33
1 -2 -6 145.993 74.988 51
-1 2 5 367.2 84.1407 48
1 -2 -5 234.657 69.1447 51
1 -2 -5 362.652 95.2339 59
1 -2 -5 411.017 109.514 33
1 -2 -4 3697.49 219.198 27
1 -2 -4 3435.54 293.19 8
-1 2 4 3390.58 290.12 3
-1 2 4 3553.69 201.633 26
-1 2 3 10398.5 408.517 18
-1 2 3 10183.4 441.838 3
1 -2 -3 9334.91 441.159 8
1 -2 -2 77012.6 1150.71 8
-1 2 2 75247 1002.85 3
-1 2 2 76945.6 989.849 13
-1 2 2 77152.6 1107.66 22
-1 2 1 22092.2 506.007 13
1 -2 -1 21020.9 404.921 7
-1 2 1 21120.3 418.846 3
1 -2 -1 21945.9 559.04 8
1 -2 0 34576.9 636.274 8
-1 2 0 33168.2 629.988 10
1 -2 0 32202.5 569.079 7
-1 2 0 33616.1 340.241 3
-1 2 0 33794.3 598.516 16
1 -2 1 3758.24 145.905 4
1 -2 1 3656.06 212.455 7
-1 2 -1 3877.64 166.255 12
1 -2 2 28862 624.557 7
1 -2 2 29807.6 542.024 4
1 -2 2 29997.8 515.887 8
1 -2 3 3431.03 235.539 7
1 -2 3 3335.76 225.11 4
-1 2 -4 1906.12 172.447 9
1 -2 4 1801.02 192.636 4
1 -2 4 1696.53 149.242 3
-1 2 -5 907.161 156.028 20
1 -2 5 771.277 147.452 4
-1 2 -5 578.769 116.658 9
-1 2 -5 903.388 148.264 14
-1 2 -6 1144.18 225.251 11
1 -2 6 1131.11 126.665 29
1 -2 6 1279.21 164.071 31
-1 2 -6 1602.98 220.608 20
1 -2 6 1327.53 141.566 47
1 -2 6 1117.67 134.304 45
1 -2 7 3479.92 246.127 47
-1 2 -7 3096.31 321.24 20
1 -2 7 3594.41 234.176 29
1 -2 8 12396.2 409.755 29
-1 2 -8 10885.4 587.956 17
1 -2 9 14.8081 43.9839 29
1 -1 -8 8037.56 287.93 33
-1 1 8 7375.96 278.576 48
1 -1 -8 7699.08 252.424 46
-1 1 8 7442.1 310.12 53
1 -1 -8 7687.71 282.413 59
-1 1 8 7010.68 254.85 29
1 -1 -7 6551.93 326.771 33
-1 1 7 7350.4 399.751 53
-1 1 7 6843.5 316.179 29
1 -1 -7 6654.99 321.051 59
-1 1 7 7416.94 325.752 31
-1 1 7 6962.08 355.313 48
1 -1 -6 328.299 93.6443 59
-1 1 6 373.299 113.158 53
-1 1 6 590.518 100.42 29
-1 1 6 404.533 96.1455 31
-1 1 6 401.616 91.287 48
1 -1 -6 402.95 109.202 33
-1 1 5 399.878 95.0338 48
-1 1 5 243.288 68.9647 29
1 -1 -5 262.686 140.383 20
1 -1 -5 292.253 93.6806 33
-1 1 5 89.6056 80.7204 3
-1 1 4 923.072 156.021 3
1 -1 -4 716.577 130.309 8
1 -1 -4 1019.98 182.44 20
1 -1 -4 914.078 123.902 17
-1 1 4 856.043 95.0502 26
1 -1 -3 2341.22 249.598 20
-1 1 3 2169.97 197.754 3
1 -1 -3 2297.14 203.728 8
1 -1 -3 2187.78 161.998 17
-1 1 3 2112 166.626 18
-1 1 2 58719.4 781.423 18
1 -1 -2 56207.3 865.9 8
1 -1 -2 58796.1 1004.05 20
-1 1 2 56390.9 815.654 3
1 -1 -2 56701 609.249 5
1 -1 -1 6457.86 101.139 4
-1 1 1 6592.18 234.69 13
1 -1 -1 6616.05 264.435 8
1 -1 -1 6534.74 212.597 5
1 -1 0 70003.6 691.478 7
1 -1 0 71714.5 735.064 8
1 -1 1 1927.59 91.3455 4
1 -1 1 1755.56 124.16 7
-1 1 -1 1894.04 109.343 1
-1 1 -1 1862.53 65.9229 3
1 -1 1 1967.87 106.587 8
1 -1 2 54228.4 498.278 8
1 -1 2 51223.3 641.692 4
1 -1 2 53673.7 510.839 3
1 -1 2 51188.4 705.266 7
-1 1 -2 54781.4 487.173 6
1 -1 3 25263.7 538.029 7
1 -1 3 25153.9 486.058 3
1 -1 3 23917.4 538.4 4
-1 1 -4 80020.2 1141.87 14
1 -1 4 83594.7 1113.12 3
1 -1 4 81215.5 1162.36 4
-1 1 -4 80756.9 1080.31 9
-1 1 -5 3806.3 301.098 14
1 -1 5 3814.46 293.028 3
-1 1 -5 3991.11 309.445 20
1 -1 6 68.8325 59.6596 47
1 -1 6 262.978 78.4823 45
1 -1 6 146.886 52.6416 29
1 -1 6 187.408 55.7356 3
1 -1 6 131.755 69.2545 31
-1 1 -6 57.3648 109.669 20
1 -1 6 275.525 85.5016 53
-1 1 -7 2450.91 304.206 20
-1 1 -7 2676.16 300.934 11
1 -1 7 2842.46 260.205 31
1 -1 7 2607.56 209.042 47
1 -1 7 2988.09 215.683 29
1 -1 7 2441.63 248.503 53
1 -1 8 39.334 57.1727 29
-1 1 -8 0.24398 148.092 20
-1 1 -8 -115.429 134.061 17
1 -1 9 1445.48 128.816 29
1 0 -9 2965.31 111.225 46
-1 0 9 2999.4 119.454 29
1 0 -8 7094.55 268.719 33
-1 0 8 7656.1 340.976 53
-1 0 8 7192.76 299.583 48
-1 0 8 6987.84 290.335 29
1 0 -8 7652.69 288.05 59
-1 0 7 1160.13 156.436 48
-1 0 7 1079.5 133.353 31
-1 0 7 1068.39 163.886 53
1 0 -7 1142.85 140.302 33
1 0 -7 1158.94 143.863 59
-1 0 7 1158 140.876 29
-1 0 6 33199.3 863.99 53
1 0 -6 32506.2 1112.79 20
-1 0 6 31570.6 807.319 48
1 0 -6 30140.5 682.821 33
-1 0 6 31583.3 700.44 29
1 0 -6 31766.7 914.798 17
1 0 -5 13966 569.089 17
1 0 -5 15136.5 711.262 20
-1 0 5 13801.1 637.254 3
1 0 -4 690.289 108.709 11
-1 0 4 570.421 111.986 3
1 0 -4 647.398 150.199 20
1 0 -3 14.784 83.5109 20
-1 0 3 47.5196 58.7948 3
-1 0 3 25.9157 49.3762 4
1 0 -3 45.4078 54.9797 11
1 0 -2 3841.96 196.485 2
1 0 -2 3824.04 232.002 20
-1 0 2 3601.87 165.938 4
1 0 -2 3724.31 162.507 11
1 0 -1 18233.8 360.864 2
-1 0 1 19059.4 267.112 4
1 0 0 139134 746.095 2
-1 0 0 137470 786.641 13
-1 0 -1 153954 444.115 2
1 0 1 152997 527.812 8
-1 0 -2 9149.85 109.848 8
1 0 2 9085.26 243.97 3
1 0 2 9133.77 244.757 7
1 0 3 70490.6 739.654 7
-1 0 -3 68959.5 694.735 15
-1 0 -3 64520.7 849.831 9
-1 0 -3 71871.9 916.568 14
1 0 3 65670.2 843.903 3
-1 0 -4 2114.58 161.333 21
-1 0 -4 2073.05 198.716 14
1 0 4 2011.27 188.931 3
-1 0 -5 2441.71 252.881 20
1 0 5 2287.75 233.985 3
-1 0 -6 8751.63 539.436 20
1 0 6 8025.69 491.122 3
1 0 6 7578.37 315.701 29
1 0 6 8082.29 393.531 31
1 0 7 104.198 89.243 31
1 0 7 140.658 57.1128 29
-1 0 -7 39.0068 122.827 20
1 0 7 93.4777 82.6442 53
-1 0 -7 413.405 127.217 11
1 0 8 16.1055 57.8683 29
-1 0 -8 51.2262 121.446 20
-1 0 -8 142.677 86.2098 17
1 0 8 4.83673 80.486 53
1 0 8 37.5232 75.1352 31
1 0 9 698.347 91.581 29
-1 0 -9 777.492 84.8589 33
1 1 -9 5215.53 175.101 46
-1 -1 9 4721.56 173.006 29
-1 -1 8 1098.65 128.287 29
-1 -1 8 1087.11 147.499 53
-1 -1 8 1065.22 126.176 48
1 1 -8 1199.9 116.38 59
-1 -1 7 28933.4 799.649 53
1 1 -7 27325.1 882.467 17
-1 -1 7 30241.7 686.827 29
-1 -1 7 28076.8 751.022 48
1 1 -7 27831.1 615.211 59
-1 -1 6 18856 544.691 29
-1 -1 6 18025.7 605.323 48
1 1 -6 20526.3 839.869 20
-1 -1 6 19587 603.397 31
-1 -1 6 19183.6 655.493 53
1 1 -6 19068.6 754.758 17
1 1 -5 28266.8 846.833 17
1 1 -5 26308.6 875.944 20
1 1 -5 27040.1 766.41 11
-1 -1 5 28666.2 913.009 3
1 1 -4 8940.27 392.717 11
1 1 -4 9241.32 464.803 20
1 1 -4 10669.9 414.464 2
-1 -1 4 9380.36 454.03 3
-1 -1 4 10262.7 434.605 4
1 1 -3 3534.8 226.626 11
-1 -1 3 3595.28 223.957 4
1 1 -3 4046.43 228.688 2
1 1 -3 3162 236.835 20
1 1 -2 27588.5 506.294 11
-1 -1 2 25816.6 486.461 4
1 1 -2 25091.4 516.422 20
1 1 -2 28074.8 520.462 2
1 1 -1 202661 1172.63 2
-1 -1 1 202943 1078.89 4
1 1 0 42684.8 361.515 12
-1 -1 0 42978.7 410.734 1
1 1 1 11269.1 155.779 8
-1 -1 -1 11701.4 161.683 8
-1 -1 -1 10991.6 237.36 9
-1 -1 -2 87748.3 485.767 8
-1 -1 -2 90066.2 877.204 14
1 1 2 89224.1 530.402 7
1 1 3 65113.4 895.33 3
-1 -1 -3 64322.7 544.012 8
-1 -1 -4 13682.4 299.978 8
1 1 4 14919 511.77 3
-1 -1 -4 13838.3 459.347 21
-1 -1 -4 15087.8 533.318 20
-1 -1 -5 20268.7 726.71 20
1 1 5 19166.7 680.439 3
-1 -1 -5 18125.3 596.752 21
1 1 6 12280.9 399.154 29
1 1 6 12216.7 497.634 53
-1 -1 -6 11998.7 649.153 20
1 1 6 12149.5 485.962 31
1 1 6 12957.7 632.14 3
1 1 7 24622.7 607.109 29
1 1 7 23893.4 723.091 31
1 1 7 25481 755.746 53
-1 -1 -7 22326.6 582.193 51
-1 -1 -7 22768.6 959.195 20
1 1 8 651.333 102.177 29
-1 -1 -8 637.745 105.831 33
-1 -1 -8 780.868 181.449 20
-1 -1 -8 850.828 107.425 51
1 1 8 797.34 136.605 53
1 1 8 790.611 140.083 31
-1 -1 -9 997.929 108.241 59
1 1 9 923.335 111.193 31
1 1 9 847.648 96.9981 29
1 1 9 753.003 115.174 53
-1 -1 -9 896.395 97.5032 33
-1 -2 9 1214.42 89.18 29
1 2 -9 1492.64 96.5177 46
-1 -2 8 3170.68 206.333 29
-1 -2 8 3057.98 201.16 48
1 2 -7 3278.56 332.489 17
-1 -2 7 3753.77 251.109 29
-1 -2 7 3575.85 278.996 48
1 2 -7 3080.55 196.851 59
-1 -2 7 3944.94 307.477 53
-1 -2 6 13349.6 461.031 29
-1 -2 6 12784.1 519.293 48
1 2 -6 14488.9 669.525 20
-1 -2 6 14196.8 570.102 53
1 2 -6 14662.7 682.219 17
1 2 -5 6292.16 412.69 20
-1 -2 5 6135.28 422.044 3
-1 -2 5 6343.35 413.838 4
1 2 -5 5803.57 408.229 17
1 2 -5 6338.8 400.921 11
1 2 -4 2319.3 223.05 20
-1 -2 4 2453.84 242.582 3
1 2 -4 2471.9 209.703 2
1 2 -4 2805.35 282.735 11
-1 -2 3 26907.6 657.102 4
1 2 -3 28165.1 620.763 2
1 2 -3 27162.4 650.716 11
1 2 -2 252.493 80.4561 11
-1 -2 2 335.646 79.1405 4
1 2 -1 47321.1 634.761 11
1 2 -1 47695.3 593.281 17
-1 -2 1 47195 638.91 4
1 2 -1 47800.7 669.635 6
1 2 0 7827.67 220.599 12
-1 -2 0 7863.34 222.431 8
1 2 1 1108.51 95.0322 16
-1 -2 -1 1030.01 83.8749 8
1 2 2 31809.9 548.094 3
-1 -2 -2 31855.9 463.48 8
-1 -2 -2 31278.5 644.96 21
-1 -2 -3 39937.2 574.274 8
1 2 3 40115.2 748.877 3
1 2 3 40505.6 817.372 22
-1 -2 -3 40531.8 782.375 20
-1 -2 -4 15346.8 394.772 8
-1 -2 -4 16661.9 598.821 20
1 2 4 16411.8 564.609 3
-1 -2 -5 49200.4 1206.55 20
1 2 5 50508.9 1135.53 3
1 2 6 52695.6 1296.06 3
1 2 6 53866 833.345 29
1 2 6 56962.2 1058.95 31
-1 -2 -6 54636.9 1434.41 20
-1 -2 -6 53191.6 895.527 58
-1 -2 -6 54143.4 901.829 28
-1 -2 -7 293.719 97.5028 51
-1 -2 -7 451.643 84.3615 58
-1 -2 -7 153.417 124.399 20
1 2 7 215.749 73.0735 29
1 2 7 320.161 123.002 53
1 2 7 390.077 101.342 31
-1 -2 -8 2486.98 187.07 51
-1 -2 -8 2434.19 196.962 33
1 2 8 2182.98 196.092 31
1 2 8 2374.68 174.131 29
1 2 8 2176.88 211.205 53
1 2 9 530.248 90.442 53
1 2 9 695.546 84.8685 31
1 2 9 676.185 73.6617 29
-1 -2 -9 836.975 93.0003 59
-1 -2 -9 721.221 92.8947 33
1 3 -8 6885.13 277.832 25
-1 -3 8 6469.72 269.694 29
1 3 -7 780.146 165.024 17
-1 -3 7 1116.22 135.353 29
-1 -3 7 1052.64 149.704 48
-1 -3 6 7447.22 409.041 48
-1 -3 6 8128.87 353.68 29
1 3 -6 7472.79 516.6 17
1 3 -5 18087.9 710.524 11
-1 -3 5 17032.7 720.995 4
1 3 -5 18737.8 746.778 17
-1 -3 5 16181 549.502 48
-1 -3 5 16151.2 454.884 29
-1 -3 4 56226.9 1187.63 4
1 3 -4 60343.8 1171.54 17
1 3 -4 57943.8 1165.94 11
-1 -3 4 54241.3 1096.21 3
1 3 -4 61184 1076.24 2
1 3 -3 14239.9 482.421 2
-1 -3 3 14608.7 553.797 4
1 3 -3 13866.8 495.807 17
-1 -3 3 13321.4 451.209 3
1 3 -3 14724.8 524.26 11
1 3 -2 12021.8 391.863 17
1 3 -2 11500.5 415.235 11
-1 -3 2 12605.1 443.418 4
1 3 -1 362.129 80.5923 6
-1 -3 1 325.786 73.7512 4
1 3 -1 454.481 71.1328 17
-1 -3 1 369.61 72.4004 8
-1 -3 0 5463.69 246.457 4
-1 -3 0 4877.73 225.689 8
1 3 0 4952.63 219.788 12
-1 -3 -1 3204.53 183.312 8
1 3 1 3343.28 210.605 22
1 3 1 3260.71 197.249 16
-1 -3 -2 274516 1898.77 20
1 3 2 281137 1775.74 3
1 3 2 281036 2106.91 22
-1 -3 -2 278056 1782.97 8
-1 -3 -3 9151.81 427.294 20
-1 -3 -3 9570.59 354.133 8
1 3 3 9375.87 440.427 22
1 3 3 9784.59 398.103 3
-1 -3 -4 15716.8 481.443 8
-1 -3 -4 15617.9 639.308 20
1 3 4 16024 586.232 3
-1 -3 -5 6986.88 482.389 20
1 3 5 7832.58 520.852 3
-1 -3 -5 6395.7 327.089 28
1 3 6 5270.78 289.579 48
-1 -3 -6 5129.52 313.617 28
1 3 6 4953.69 283.16 41
1 3 6 4990.76 320.483 31
-1 -3 -6 4918.82 304.414 51
-1 -3 -6 4878.46 442.906 20
-1 -3 -6 5158.8 306.704 58
1 3 7 5782.45 362.069 53
-1 -3 -7 5884.69 299.806 27
-1 -3 -7 6148.11 329.603 51
1 3 7 6335.67 276.999 29
1 3 7 6386.8 350.569 31
-1 -3 -7 6343.39 335.919 33
-1 -3 -7 6668.6 510.129 20
-1 -3 -8 5774.68 263.091 59
1 3 8 5506.66 296.668 53
1 3 8 5592.38 274.454 31
-1 -3 -8 5684.96 281.773 33
1 3 8 5094.87 208.208 29
-1 -3 -8 5461.63 263.156 51
-1 -3 -9 1137.33 88.0073 59
-1 -3 -9 1167.1 98.0032 33
-1 -4 8 973.075 90.184 40
-1 -4 8 1055.1 105.951 43
-1 -4 7 83.9495 59.6502 29
-1 -4 7 -25.1893 67.1171 43
1 4 -7 138.682 60.3598 25
1 4 -6 933.172 186.496 17
-1 -4 6 611.414 127.539 36
-1 -4 5 2010.38 221.657 36
-1 -4 5 2372.87 234.927 48
1 4 -5 2515.1 288.088 17
1 4 -4 7082.42 449.145 11
-1 -4 4 7092.01 461.111 4
1 4 -4 7677.47 442.481 17
1 4 -4 6695.62 394.732 2
-1 -4 3 8047.87 453.922 4
1 4 -3 7986.13 429.684 11
1 4 -3 8250.6 399.004 17
1 4 -2 48613.5 933.859 12
1 4 -2 46985.2 803.694 17
-1 -4 2 47317.9 996.705 4
1 4 -2 46360.9 972.298 6
-1 -4 1 5385.53 294.313 8
1 4 -1 5373.04 287.28 12
1 4 -1 5224.49 318.546 6
-1 -4 1 5668.39 317.534 4
-1 -4 0 10318.3 408.679 4
1 4 0 11023.4 423.592 16
-1 -4 0 10412.7 401.239 8
1 4 1 469.008 126.701 22
-1 -4 -1 455.253 96.1601 8
-1 -4 -1 493.744 99.7554 4
1 4 1 543.666 118.663 16
1 4 2 9434.25 458.489 22
1 4 2 9198.91 333.677 10
-1 -4 -2 9363.35 400.602 8
1 4 3 7507.14 440.565 22
-1 -4 -3 7625.01 417.358 20
-1 -4 -3 7018.41 365.777 8
1 4 4 5536.96 415.013 22
-1 -4 -4 5998.24 407.47 20
-1 -4 -4 5401.8 318.412 28
1 4 5 16756.3 503.871 48
-1 -4 -5 15171 496.085 38
1 4 5 15957.8 506.296 41
-1 -4 -5 16905.2 762.415 20
-1 -4 -5 16685.9 554.668 51
1 4 5 16361.1 543.958 37
-1 -4 -5 15927 559.853 58
-1 -4 -6 8895.08 396.714 33
-1 -4 -6 8944.68 359.842 59
1 4 6 8434.14 386.081 41
-1 -4 -6 8330.85 418.505 58
1 4 6 8584.98 372.342 48
1 4 6 8378.19 403.193 31
-1 -4 -6 8717.49 408.58 51
-1 -4 -6 8819.38 412.506 27
-1 -4 -7 13623.3 470.426 51
-1 -4 -7 12481.6 444.367 33
-1 -4 -7 12777.5 405.246 59
1 4 7 12389.1 435.479 31
-1 -4 -7 12708.1 436.305 27
1 4 7 12094.9 389.905 48
-1 -4 -8 21549.7 415.723 59
-1 -4 -8 20918.5 460.469 51
1 4 8 20657.8 482.879 53
-1 -4 -8 21546.1 476.321 33
-1 -5 8 209.55 52.0911 49
-1 -5 7 43.1753 61.3305 43
-1 -5 7 12.5637 36.9189 40
-1 -5 6 3175.21 269.123 36
1 5 -6 4062.8 340.418 17
-1 -5 6 3766.01 264.342 43
-1 -5 6 3768.65 236.054 40
-1 -5 5 23549.5 762.488 36
-1 -5 5 25710.6 707.311 43
-1 -5 5 27195.7 743.693 44
1 5 -5 30582.6 989.86 12
-1 -5 5 25594.2 632.037 40
1 5 -5 28195.2 890.085 17
1 5 -4 1422.53 228.61 12
1 5 -4 1106.94 175.843 17
-1 -5 4 1569.28 248.285 36
-1 -5 4 1469.26 193.379 44
-1 -5 4 1561.03 166.987 45
-1 -5 3 30512.8 772.855 36
-1 -5 3 33028.8 811.086 44
-1 -5 3 29468.9 690.595 43
1 5 -3 33746.6 935.154 12
-1 -5 3 30417.1 988.044 4
1 5 -2 649.491 86.4039 23
1 5 -2 560.013 125.222 12
-1 -5 2 519.113 131.148 4
1 5 -2 496.627 134.886 6
1 5 -1 28.6974 42.1093 23
1 5 -1 89.2804 73.424 12
1 5 -1 84.8862 68.8202 6
-1 -5 1 40.5201 60.1865 4
-1 -5 1 62.3818 43.7309 8
-1 -5 0 5390.86 343.348 4
1 5 0 6264.47 397.16 22
-1 -5 0 5571.32 349.681 8
1 5 0 6504.57 385.309 16
1 5 1 2082.6 246.079 22
1 5 1 2165.41 209.594 10
-1 -5 -1 2303.26 237.052 8
1 5 1 1879.04 234.063 16
-1 -5 -2 -155.446 74.6605 27
1 5 2 30.6422 47.342 10
-1 -5 -2 -82.2151 57.5659 8
1 5 2 -70.095 93.1721 22
-1 -5 -3 989.239 124.492 43
-1 -5 -3 1061.23 143.578 58
-1 -5 -3 1029.97 161.178 38
-1 -5 -3 769.892 129.05 8
1 5 3 901.926 178.94 22
1 5 4 410.974 149.573 22
-1 -5 -4 215.264 108.876 27
-1 -5 -4 284.485 111.364 38
-1 -5 -4 282.793 82.9024 51
1 5 4 289.023 73.4777 32
1 5 4 431.552 101.021 37
-1 -5 -4 454.483 103.522 43
-1 -5 -4 259.876 98.7968 58
-1 -5 -5 676.221 129.348 38
1 5 5 707.742 123.26 37
1 5 5 770.043 113.688 48
-1 -5 -5 735.534 145.699 27
-1 -5 -5 790.942 129.463 33
1 5 5 608.575 113.013 41
-1 -5 -5 762.113 138.531 51
-1 -5 -6 4801.73 303.743 27
1 5 6 4638.36 267.495 31
1 5 6 4553.06 264.509 41
-1 -5 -6 4893.5 276.111 33
-1 -5 -6 5171.22 310.286 51
1 5 6 4692.64 258.559 48
-1 -5 -6 4458.79 261.215 38
-1 -5 -7 7469.96 315.486 51
1 5 7 6832.7 251.166 31
-1 -5 -7 7030.6 284.575 33
-1 -5 -7 7177.09 305.144 27
1 5 8 799.965 74.5203 53
-1 -6 7 -67.0638 54.325 49
1 6 -6 502.158 83.0876 23
-1 -6 6 292.651 81.3445 43
-1 -6 6 324.2 85.0905 49
-1 -6 6 366.592 68.4593 40
-1 -6 5 16444.5 591.594 44
-1 -6 5 15251.1 512.819 49
-1 -6 5 16026.8 528.126 43
-1 -6 5 16706.1 456.446 40
-1 -6 4 145.33 59.2324 40
1 6 -4 230.2 73.77 23
-1 -6 4 111.714 86.7326 36
-1 -6 4 255.672 103.568 44
-1 -6 4 167.128 85.1359 43
1 6 -4 180.428 78.7865 12
-1 -6 4 253.457 87.4469 49
1 6 -3 3100.24 310.461 12
1 6 -3 3051.22 199.918 23
-1 -6 3 3476.38 353.057 36
-1 -6 3 3856.68 332.827 43
-1 -6 3 3051.41 291.363 44
1 6 -2 4418.65 383.954 6
-1 -6 2 5273.42 338.75 36
-1 -6 2 4999.4 294.944 43
-1 -6 2 4844.1 334.03 44
1 6 -2 4807.07 368.487 12
-1 -6 2 4608.11 325.195 30
1 6 -2 5799.59 432.59 16
1 6 -1 7746.26 484.486 16
-1 -6 1 6796.05 388.805 30
1 6 -1 7585.31 501.319 22
-1 -6 1 6637.37 323.611 43
-1 -6 1 7456.53 379.037 44
1 6 -1 6730.06 483.315 6
1 6 0 13602 662.26 22
1 6 0 14054.5 649.679 16
-1 -6 0 12601.4 603.554 8
-1 -6 0 12076.3 431.471 43
-1 -6 0 13224.7 535.233 30
-1 -6 0 13838.5 476.747 44
1 6 0 13961.8 619.502 10
1 6 0 12981.5 669.451 6
-1 -6 0 12004.4 499.173 38
1 6 1 71443.2 1516.8 22
1 6 1 64894.7 1223.97 10
-1 -6 -1 69234.9 1412.26 8
-1 -6 -1 66620.1 996.777 43
-1 -6 -1 70243.1 1214.7 30
-1 -6 -1 72527.2 1242.55 38
-1 -6 -1 65158.4 1172.21 27
1 6 2 2276.72 285.396 22
1 6 2 2471.26 194.902 32
-1 -6 -2 2228.77 240.26 27
-1 -6 -2 1955.91 179.117 43
-1 -6 -2 2296.62 236.707 30
-1 -6 -2 1813.27 186.838 51
-1 -6 -2 2183.48 228.466 38
-1 -6 -3 5749.25 370.126 27
-1 -6 -3 5674.31 339.808 30
1 6 3 5644.01 291.23 32
-1 -6 -3 5582.34 333.123 51
1 6 3 5422.85 442.886 22
-1 -6 -3 5707.12 308.811 43
-1 -6 -3 6086.63 375.644 38
1 6 4 260.415 95.6355 37
-1 -6 -4 161.032 71.6402 43
-1 -6 -4 31.2154 57.0826 30
-1 -6 -4 119.993 75.3751 51
-1 -6 -4 54.2599 96.5927 27
-1 -6 -4 228.136 107.504 38
1 6 4 166.492 53.6862 32
1 6 5 7070.22 339.999 37
1 6 5 5774.87 285.452 31
-1 -6 -5 6576.05 369.209 27
1 6 5 6789.85 327.551 41
-1 -6 -5 6850.39 352.339 51
-1 -6 -5 6261.93 336.82 38
1 6 5 6447.28 302.546 48
1 6 6 1822.05 146.902 41
-1 -6 -6 1900.6 180.617 27
-1 -6 -6 1943.88 171.118 51
1 6 6 2014.11 143.828 48
-1 -6 -6 1636.06 137.742 38
1 6 7 1742.29 114.858 53
-1 -7 6 648.677 70.1724 49
-1 -7 5 69.2872 56.0325 43
-1 -7 5 -6.41072 55.7505 49
-1 -7 4 353.655 76.7271 49
-1 -7 4 420.784 104.625 43
1 7 -3 3418.05 337.861 16
1 7 -3 3869.18 382.188 22
-1 -7 3 3441.49 298.545 44
-1 -7 3 3364.84 243.124 43
-1 -7 2 6332.48 337.526 43
-1 -7 2 5155.32 353.75 44
1 7 -2 5935.97 455.712 16
1 7 -2 5142.81 447.832 22
-1 -7 1 1045.21 150.158 43
-1 -7 1 1129.51 177.893 30
1 7 -1 1114.91 220.821 16
-1 -7 1 1227.33 174.16 44
1 7 -1 1284.89 235.875 22
1 7 0 28777.9 1012.67 22
-1 -7 0 31376 884.889 30
-1 -7 0 30415 711.226 43
1 7 1 3624.17 364.933 22
1 7 1 3540 234.568 32
-1 -7 -1 3983.31 314.468 30
-1 -7 -1 3869.86 256.554 43
-1 -7 -1 3334.24 287.574 38
-1 -7 -2 1031.61 176.416 38
1 7 2 876.795 115.762 32
-1 -7 -2 919.615 138.182 43
-1 -7 -2 911.305 167.457 30
1 7 2 1074 201.037 22
-1 -7 -3 5572.13 343.199 30
1 7 3 5386.13 261.995 32
1 7 3 6164.57 324.944 37
1 7 3 5414.66 415.987 22
-1 -7 -3 5854.3 363.358 38
-1 -7 -3 6082.11 375.505 27
-1 -7 -3 6171.25 309.015 43
1 7 4 1907.66 161.162 48
1 7 4 1849.26 164.343 37
1 7 4 1771.09 163.725 41
-1 -7 -4 1939.59 202.567 27
-1 -7 -4 1861.23 195.886 38
-1 -7 -5 1169.74 123.192 50
1 7 5 1224.6 109.598 48
1 7 5 1291.23 120.574 41
-1 -7 -5 1102.63 125.016 38
-1 -7 -6 140.675 37.0945 50
-1 -8 4 -7.71915 49.5317 43
-1 -8 3 313.006 81.5974 43
-1 -8 2 421.175 82.8544 35
1 8 -2 664.292 157.676 22
-1 -8 2 488.91 94.2314 43
1 8 -1 2464.11 278.19 22
-1 -8 1 3272.17 238.569 43
1 8 0 995.823 115.219 32
-1 -8 0 1285.87 184.467 30
-1 -8 0 1251.48 143.387 43
1 8 0 829.201 166.008 22
-1 -8 0 843.776 132.665 38
1 8 1 6074.61 410.717 22
-1 -8 -1 6113.88 337.197 38
1 8 1 5831.69 247.889 32
1 8 2 11482 382.333 37
-1 -8 -2 11683.1 372.607 43
-1 -8 -2 10825.5 435.898 38
-1 -8 -3 9959.57 377.726 38
1 8 3 10263.8 332.642 37
1 8 3 10213.9 331.268 41
1 8 4 12254.2 308.58 37
1 8 4 12140.3 291.884 48
-1 -8 -4 12488.7 353.492 38
-1 -9 3 422.91 58.2803 42
-1 -9 2 98.0231 39.1398 42
-1 -9 2 52.3425 39.5955 43
-1 -9 1 653.961 75.7336 43
-1 -9 1 572.656 68.2645 42
-1 -9 0 142.082 51.0595 43
-1 -9 -1 1192.57 93.4007 43
1 9 1 1166.64 86.9263 41
1 9 2 4112.02 150.414 48
1 9 2 3701.5 131.376 41
-2 7 2 3774.39 133.309 48
-2 7 1 1774.01 113.877 48
2 -7 -1 1607.13 119.707 35
2 -7 0 74.1646 53.7475 35
-2 7 0 96.939 36.2957 48
2 -7 1 1128.86 134.735 35
2 -7 1 934.251 94.8396 42
2 -7 2 31.3182 64.8097 35
2 -7 2 -52.9382 58.9691 42
2 -7 3 9.52498 51.804 42
2 -7 3 -22.8947 53.9999 35
2 -7 4 2094.05 151.805 42
2 -7 5 1156.37 97.6059 42
-2 6 4 10437.1 245.34 48
2 -6 -4 10130.8 252.16 50
2 -6 -3 19826.8 470.581 50
-2 6 3 20065.3 439.548 48
-2 6 2 7504.6 276.724 41
-2 6 2 8138.77 316.65 26
2 -6 -2 7911.4 344.527 50
2 -6 -2 8057.55 365.059 38
-2 6 2 8289.72 316.344 48
2 -6 -1 4867.31 291.966 50
-2 6 1 5160.38 239.377 41
-2 6 1 5020.54 239.584 37
2 -6 -1 5655.96 340.538 38
2 -6 0 6685.42 394.152 38
-2 6 0 6126.43 432.217 18
2 -6 0 6253.95 259.806 43
2 -6 0 6414.37 290.532 42
-2 6 0 5820.46 273.143 37
2 -6 1 1.34787 58.4381 50
2 -6 1 69.8868 73.2039 42
2 -6 2 147.011 98.407 35
2 -6 2 41.4853 81.6266 42
2 -6 3 5514.35 340.446 35
2 -6 3 5853.43 307.795 49
2 -6 3 5062.36 244.915 45
2 -6 3 5992.47 346.696 42
2 -6 4 1064.44 153.253 42
2 -6 4 1191.13 152.764 49
2 -6 4 963.99 110.342 45
2 -6 4 1085.15 137.694 35
2 -6 5 2158.12 193.917 42
2 -6 5 1927.81 139.873 45
2 -6 5 2337.51 177.964 49
2 -6 6 1581.75 128.807 42
2 -6 6 1622.16 133.833 49
2 -6 7 3247.38 131.192 49
2 -5 -5 4119.11 186.661 50
-2 5 5 4121.13 181.23 48
-2 5 4 5845.17 233.784 26
2 -5 -4 6340.89 302.342 50
-2 5 4 6019.68 276.214 48
2 -5 -3 11358 384.792 57
-2 5 3 11934.6 424.358 48
-2 5 3 11124.2 395.825 41
2 -5 -3 12101.9 475.898 50
2 -5 -3 10973.9 449.987 38
-2 5 3 11494.3 397.399 26
-2 5 2 8559.31 345.62 37
2 -5 -2 8208.22 425.362 50
-2 5 2 7790.23 464.947 18
-2 5 2 8906.5 381.747 48
2 -5 -2 8308.37 453.109 38
-2 5 2 8472.8 361.472 41
-2 5 1 933.264 122.424 37
2 -5 -1 727.171 152.806 50
-2 5 1 961.493 189.908 18
2 -5 -1 1046.01 123.1 43
2 -5 -1 789.185 161.246 38
-2 5 1 935.795 126.395 41
-2 5 1 528.251 116.038 13
2 -5 0 3415.28 238.663 42
2 -5 0 3121.6 218.821 45
-2 5 0 3489.55 334.438 13
2 -5 0 3129.25 203.454 43
2 -5 0 3357.4 284.719 50
2 -5 0 3209.22 297.39 38
2 -5 1 3840.81 277.333 42
2 -5 1 3717.07 240.733 45
2 -5 1 3666.51 290.472 50
2 -5 1 3717.47 328.485 38
-2 5 -1 3494.85 347.014 13
-2 5 -2 1963.26 269.464 10
2 -5 2 2196.64 204.559 49
2 -5 2 1938.99 178.301 45
-2 5 -2 1913.28 273.182 13
2 -5 3 10134.3 395.05 45
2 -5 3 10650.4 412.961 49
2 -5 3 9490.43 454.828 35
2 -5 4 330.857 100.13 49
2 -5 4 344.844 101.267 35
2 -5 4 300.524 85.2888 45
2 -5 5 1691.27 181.766 49
2 -5 5 1692.14 162.624 45
2 -5 5 1579.32 178.321 40
2 -5 5 1663.46 157.186 35
2 -5 6 513.716 115.512 49
2 -5 6 521.665 105.693 42
2 -5 6 331.338 85.8192 40
2 -5 6 427.984 86.2815 45
2 -5 7 3596.39 210.491 40
2 -5 7 3669.93 212.799 49
2 -5 8 1487.03 98.8947 49
2 -4 -6 1296.17 105.648 57
2 -4 -6 1277.69 91.3629 59
-2 4 6 1527.15 115.433 48
2 -4 -6 1293.27 99.9384 50
2 -4 -5 829.359 119.69 50
2 -4 -5 628.078 92.6327 59
-2 4 5 765.495 114.088 48
-2 4 5 768.901 94.7679 34
2 -4 -4 4508.95 266.935 59
-2 4 4 4532.16 277.112 48
2 -4 -4 4836.56 304.712 50
2 -4 -4 4170.92 261.634 38
-2 4 4 4248.2 239.637 26
-2 4 3 8437.9 395.273 41
-2 4 3 7926.7 374.699 48
2 -4 -3 7885.65 370.882 59
-2 4 3 7878.82 350.782 37
2 -4 -3 6857.67 380.894 38
-2 4 3 7439.26 451.378 18
2 -4 -2 66.7269 68.2467 59
2 -4 -2 128.597 93.9429 38
-2 4 2 223.093 71.6457 37
2 -4 -2 203.705 69.8456 43
-2 4 2 148.637 113.989 18
-2 4 2 227.636 67.4364 41
2 -4 -1 61416.5 1160.59 50
2 -4 -1 57954.7 830.983 43
2 -4 -1 57908.1 1362.28 8
-2 4 1 59259.9 1246.88 13
2 -4 0 35181.6 1033.02 8
2 -4 0 34310.8 708.394 42
2 -4 0 36226.1 855.266 50
-2 4 0 36408.6 1000.59 13
2 -4 0 38181.4 863.466 38
2 -4 1 2391.12 236.193 7
2 -4 1 2689.67 280.172 8
-2 4 -1 2491.29 276.917 10
-2 4 -1 2454.71 275.791 13
-2 4 -2 6325.3 451.973 10
2 -4 2 6241.52 398.949 8
-2 4 -2 6393.74 388.707 16
2 -4 2 7372.17 323.778 49
2 -4 2 5980.88 402.747 7
2 -4 3 2733.17 224.917 35
2 -4 3 2809.5 213.689 49
-2 4 -3 2999.54 324.882 10
2 -4 3 2648.78 204.159 40
2 -4 3 2687.29 200.904 45
-2 4 -3 2534.08 249.824 16
2 -4 4 421.202 97.6738 40
-2 4 -4 255.461 117.613 10
2 -4 4 165.041 78.5404 35
2 -4 4 188.046 71.6901 49
2 -4 4 270.261 77.9351 45
2 -4 5 4885.6 275.557 35
2 -4 5 4764.6 246.842 47
2 -4 5 5165.11 313.674 40
2 -4 5 5044.54 284.212 45
2 -4 5 5108.18 315.597 49
-2 4 -5 3925.32 400.761 10
2 -4 6 11117.9 458.84 49
2 -4 6 10760.2 449.619 40
2 -4 6 9748.65 361.33 47
2 -4 6 11186.7 413.24 45
2 -4 6 10654.5 419.603 42
2 -4 7 158.948 67.6612 47
2 -4 7 155.474 83.5764 45
2 -4 7 136.606 92.3745 49
2 -4 7 111.866 76.2351 40
2 -4 8 3832.72 214.91 40
2 -4 8 3422.57 211.254 49
2 -3 -7 1498.68 104.065 57
2 -3 -7 1472.14 95.4013 59
-2 3 7 1535.59 99.5182 48
2 -3 -6 4040.78 223.119 59
-2 3 6 3786.26 227.602 48
-2 3 6 3536.14 204.052 53
2 -3 -6 3827.27 207.44 50
-2 3 5 2703.97 198.196 34
2 -3 -5 2338.06 218.063 33
-2 3 5 2763.05 227.738 48
2 -3 -5 2458.13 204.647 59
-2 3 4 8950.94 362.436 26
2 -3 -4 8957.65 428.931 33
-2 3 4 8559.14 399.844 48
-2 3 4 7959.33 383.738 41
2 -3 -4 9430.91 413.783 59
-2 3 3 274.928 83.1567 37
-2 3 3 225.598 65.5154 41
-2 3 3 161.102 87.8631 18
2 -3 -3 262.045 86.0493 59
-2 3 3 419.974 95.1643 48
2 -3 -3 288.849 89.1212 51
2 -3 -3 242.021 97.1501 33
2 -3 -3 231.714 95.3428 38
2 -3 -2 38200.9 1064.31 8
-2 3 2 39463.9 988.959 18
2 -3 -1 23161 784.226 8
-2 3 1 23597.6 718.478 13
-2 3 0 24529.1 732.237 10
2 -3 0 24784.3 764.269 8
2 -3 0 24863 657.953 7
-2 3 0 25021.6 737.787 13
-2 3 -1 9052.81 454.493 10
-2 3 -1 8341.61 383.782 16
2 -3 1 9157.9 435.78 7
2 -3 2 9962.81 423.533 8
-2 3 -2 9440.24 483.509 10
-2 3 -2 10177.7 412.508 16
2 -3 2 10157.8 482.78 7
2 -3 3 9433.36 399.675 8
-2 3 -3 9337.43 386.819 12
2 -3 3 8636.11 471.152 7
2 -3 4 3109.69 298.371 7
2 -3 5 555.736 81.3179 35
2 -3 5 460.607 107.524 40
2 -3 5 498.101 95.2817 47
-2 3 -5 371.995 148.493 11
2 -3 5 420.529 83.26 45
-2 3 -6 9406.09 575.46 11
2 -3 6 9915.21 395.117 47
2 -3 6 9897.89 389.264 45
2 -3 6 8674.68 420.944 40
2 -3 7 5041.66 326.867 40
2 -3 7 5438.58 289.02 47
2 -3 7 5399.21 287.505 45
2 -3 7 5171.75 336.281 49
2 -3 8 1211.44 157.695 49
2 -3 8 1278.48 155.886 40
2 -3 9 744.376 81.3215 49
2 -3 9 1157.88 109.881 40
-2 2 7 3706.92 201.579 48
2 -2 -7 3786.13 197.123 59
-2 2 6 1954.3 186.457 48
-2 2 6 1827.31 175.241 53
2 -2 -6 2006.99 177.593 59
2 -2 -6 1931.45 185.167 33
2 -2 -5 1688.4 181.852 59
-2 2 5 1744.51 171.003 34
2 -2 -5 1800.34 195.789 33
-2 2 5 1662.76 186.63 48
2 -2 -5 1654.65 177.41 51
2 -2 -4 205.184 71.6975 59
2 -2 -4 304.672 84.7382 51
-2 2 4 249.452 77.3648 48
-2 2 4 82.9469 72.2642 3
2 -2 -4 232.535 88.0779 33
-2 2 4 203.015 73.5014 41
-2 2 4 269.968 77.267 26
-2 2 3 747.092 139.006 3
2 -2 -3 775.163 154.913 8
-2 2 3 670.918 121.532 18
2 -2 -3 742.776 110.461 27
-2 2 3 689.391 100.289 26
-2 2 2 1560.37 163.215 3
2 -2 -2 1768.77 214.375 8
-2 2 2 1890.74 192.182 19
-2 2 2 1581 187.903 18
2 -2 -1 22518.4 685.61 8
2 -2 -1 22110.2 546.773 7
-2 2 1 22699.7 638.365 13
-2 2 1 21826.8 513.81 3
2 -2 0 3212.27 244.377 8
-2 2 0 3248.71 242.305 10
2 -2 0 3349.99 231.253 7
-2 2 0 3426.14 241.773 13
-2 2 -1 2138.75 200.832 10
-2 2 -1 2255.47 166.129 16
2 -2 1 2477.44 195.097 8
2 -2 1 2472.85 208.94 7
-2 2 -2 58422.6 871.924 1
2 -2 2 58320.8 1054.43 7
-2 2 -2 57078.6 1008.45 10
2 -2 3 3231.75 184.383 8
2 -2 3 3550.23 272.242 7
-2 2 -3 3657.75 242.198 1
-2 2 -4 23818.9 746.795 1
2 -2 4 18337.7 637.972 7
-2 2 -5 14419.6 587.372 9
-2 2 -6 652.861 163.005 20
2 -2 6 632.981 104.957 47
2 -2 6 771.244 97.82 29
-2 2 -6 444.202 134.17 14
2 -2 6 582.522 99.4921 45
2 -2 7 758.055 116.932 45
2 -2 7 810.942 107.942 29
-2 2 -7 874.454 172.607 20
2 -2 7 770.544 120.747 47
2 -2 8 677.697 100.323 29
2 -2 8 607.453 110.484 47
2 -2 9 698.959 84.9488 49
2 -2 9 810.07 84.7267 29
2 -2 9 836.744 117.406 40
2 -1 -8 3442.58 145.615 59
-2 1 8 3886.22 149.174 48
-2 1 7 8182.78 332.106 53
-2 1 7 8248.96 345.132 48
2 -1 -7 8546.28 288.989 46
2 -1 -7 8915.53 329.425 59
2 -1 -7 8264.58 324.039 33
2 -1 -6 15496.1 499.064 59
-2 1 6 14475.5 522.125 53
-2 1 6 14635.2 533.732 48
2 -1 -6 15118.9 506.265 33
2 -1 -6 15753.9 470.25 46
-2 1 6 13825.8 453.171 29
-2 1 5 5218.59 288.842 29
-2 1 5 5508.76 335.797 48
-2 1 5 5160.29 286.366 34
2 -1 -5 5558.16 318.151 33
2 -1 -5 5715.38 309.903 59
-2 1 5 5292.21 323.568 53
2 -1 -4 1774.68 173.488 33
-2 1 4 1582.49 217.709 3
-2 1 4 1874.13 186.382 48
-2 1 4 1714.75 151.551 26
2 -1 -4 1770.89 167.295 59
2 -1 -4 1403.18 219.725 8
-2 1 3 11187.9 500.724 3
2 -1 -3 11217 524.291 8
2 -1 -2 4669.77 247.396 5
2 -1 -2 5026.08 322.973 8
-2 1 2 4792.83 269.427 19
-2 1 2 4518.94 279.282 18
-2 1 1 6817.1 318.373 18
2 -1 -1 7258.06 315.936 5
2 -1 -1 7658.09 359.496 8
-2 1 1 6810.64 312.242 13
2 -1 0 7039.83 310.002 8
-2 1 0 7297.88 297.743 13
-2 1 -1 129824 1227.24 10
2 -1 1 133962 1340.67 7
-2 1 -1 131741 1230.38 1
-2 1 -1 131561 888.9 16
2 -1 2 23408.4 589.941 7
2 -1 2 24189.7 430.608 8
-2 1 -2 23744.8 542.347 1
2 -1 3 7909.94 358.374 7
2 -1 3 7781.25 201.984 8
-2 1 -4 817.256 134.915 9
2 -1 4 892.189 133.528 7
-2 1 -5 16109.1 629.793 9
-2 1 -5 13207.8 516.258 21
2 -1 6 181.754 60.2558 45
2 -1 6 235.182 95.5225 31
-2 1 -6 162.829 125.772 20
2 -1 6 136.566 50.2437 29
2 -1 6 312.061 76.4726 47
-2 1 -6 200.319 102.216 14
2 -1 7 3707.71 292.04 31
2 -1 7 3152.32 224.072 45
2 -1 7 3755.2 243.073 47
2 -1 7 3909.31 245.088 29
-2 1 -7 4266.18 399.312 20
-2 1 -8 -67.6983 74.2364 20
2 -1 8 -1.84851 65.5384 47
2 -1 8 10.3716 55.3021 29
2 -1 9 117.489 59.1124 29
2 -1 10 182.971 36.4546 40
2 0 -8 972.314 86.5299 59
-2 0 8 1042.18 96.3944 48
-2 0 8 824.205 83.5221 29
2 0 -8 1042.01 89.6005 46
2 0 -7 -27.1106 75.9558 33
-2 0 7 165.022 70.8138 29
2 0 -7 48.7167 52.2631 59
2 0 -7 54.064 58.4784 46
-2 0 7 151.238 73.2692 48
-2 0 7 42.0071 67.3736 53
2 0 -6 500.89 107.098 33
2 0 -6 490.325 102.579 59
-2 0 6 412.412 114.899 48
-2 0 6 388.548 98.2844 29
-2 0 6 460.72 118.508 53
2 0 -5 19860.7 747.651 8
-2 0 5 20378.4 565.909 29
2 0 -5 20932.6 569.556 33
-2 0 5 19672.7 631.212 48
-2 0 5 20204.7 624.901 53
2 0 -5 20343.3 704.106 17
-2 0 5 20165.1 574.439 34
2 0 -5 20865.8 556.678 59
2 0 -4 187.568 84.9633 17
2 0 -4 227.738 100.321 8
-2 0 4 213.081 82.0668 3
-2 0 4 222.095 61.3402 26
-2 0 3 55710 1073.26 3
-2 0 3 55291.4 746.82 26
-2 0 2 24588.4 435.161 4
2 0 -2 23048.4 560.114 17
2 0 -1 5382.8 243.543 17
-2 0 1 4708.37 236.959 18
2 0 -1 4929 244.437 2
-2 0 1 4834.78 236.226 19
-2 0 1 5011.5 148.892 4
2 0 0 8577.18 327.876 5
-2 0 0 9215.12 161.026 4
2 0 0 9099.07 283.284 2
-2 0 0 8724.37 290.738 13
-2 0 0 8252.27 278.45 18
-2 0 -1 50.9106 45.898 1
-2 0 -1 40.6278 32.1209 18
-2 0 -1 90.2997 40.9056 10
2 0 1 75.3159 53.3116 5
2 0 1 125.832 40.9381 8
-2 0 -1 58.4379 38.3618 13
-2 0 -2 18960.4 361.489 10
2 0 2 19955.4 246.831 8
2 0 2 19057 460.371 7
-2 0 -2 18786.9 364.358 13
2 0 3 48468 776.669 7
-2 0 -4 17549.3 483.58 15
2 0 4 16899.8 501.758 3
-2 0 -4 16435.6 527.249 9
2 0 4 17643 482.564 7
-2 0 -5 10905.8 456.869 21
-2 0 -5 10168.4 478.409 9
2 0 5 10908.5 477.835 3
-2 0 -5 10423.2 502.992 14
2 0 6 14430.4 622.665 3
-2 0 -6 15512.3 708.091 20
2 0 7 12311.5 437.364 29
2 0 7 11634.8 516.592 31
2 0 7 12124.2 416.406 47
-2 0 -7 12941.1 692.885 20
2 0 8 1693.8 212.403 31
2 0 8 1422.71 185.234 53
-2 0 -8 1906.56 281.835 20
2 0 8 1803.92 169.723 29
-2 0 -9 71.6302 42.9099 33
2 0 9 13.3958 51.5735 29
-2 0 -10 620.365 60.4032 59
2 0 10 778.636 71.1152 29
-2 -1 8 29.5457 38.9518 29
2 1 -8 -28.6781 35.0255 59
-2 -1 8 53.0886 37.9431 48
2 1 -8 26.3162 41.4275 46
-2 -1 7 10319.5 435.526 48
2 1 -7 10561.1 357.545 59
-2 -1 7 10207.8 395.274 29
-2 -1 7 10672.6 437.856 53
-2 -1 6 60432.3 1050.51 29
2 1 -6 59839.9 924.286 33
2 1 -6 59985.4 930.237 59
2 1 -5 12328.4 578.716 17
-2 -1 5 11182.4 611.076 3
2 1 -5 11303.7 384.831 59
-2 -1 5 11199.3 422.696 29
-2 -1 5 11534 480.589 48
-2 -1 5 10929.1 428.442 34
2 1 -5 11344.2 388.231 33
-2 -1 5 11747.4 480.262 53
2 1 -4 19396.8 734.608 20
-2 -1 4 17124.2 674.241 3
-2 -1 4 16994.5 462.946 26
-2 -1 4 16570.3 571.774 4
2 1 -4 18328.4 634.076 2
2 1 -4 18921.8 655.537 17
2 1 -3 13859.6 549.112 20
-2 -1 3 12118.5 414.742 4
2 1 -3 12750.8 479.227 17
2 1 -3 12552.7 474.113 2
2 1 -2 5913.04 290.283 2
-2 -1 2 5550.7 247.175 4
2 1 -2 6452.71 298.922 17
2 1 -1 4279.98 217.682 2
2 1 -1 4349.09 216.514 17
2 1 0 117416 988.714 2
2 1 0 119860 605.788 12
-2 -1 -1 22037.3 447.655 1
2 1 1 23286.6 352.89 2
-2 -1 -2 69820.6 803.487 9
2 1 2 70658.8 418.014 2
-2 -1 -3 12773.9 414.325 9
2 1 3 13133.9 344.515 7
-2 -1 -3 14126.4 410.211 15
-2 -1 -3 14445.5 446.153 21
2 1 3 13741.2 405.071 3
2 1 4 2095.33 192.291 3
-2 -1 -4 2264.29 200.751 21
2 1 4 2135.68 140.498 7
-2 -1 -4 1858.56 197.3 14
2 1 4 2141.65 159.82 24
-2 -1 -5 9268.3 439.093 21
-2 -1 -5 8979.36 483.762 14
2 1 5 9689.63 466.973 3
2 1 6 8451.72 496.024 3
-2 -1 -6 8896.84 530.757 20
-2 -1 -7 2534.09 331.221 20
2 1 7 2573.75 215.008 55
2 1 7 2794.27 258.35 31
2 1 7 2565.97 189.238 47
2 1 7 2627.33 245.629 53
2 1 7 2518.25 199.434 29
-2 -1 -8 3782.38 395.692 20
2 1 8 3957.25 288.932 53
2 1 8 4140.42 303.198 31
2 1 8 4333.6 255.577 29
-2 -1 -9 2621.11 174.885 33
2 1 9 2379.63 196.036 31
2 1 9 2324.62 166.615 29
-2 -1 -10 2245.65 111.672 59
2 1 10 2369.46 111.187 29
2 2 -8 634.704 87.5001 46
-2 -2 8 553.387 85.4654 48
-2 -2 8 511.319 83.7953 29
-2 -2 7 232.256 87.742 48
-2 -2 7 261.136 76.3944 29
-2 -2 6 770.282 128.608 29
-2 -2 6 964.657 158.717 53
2 2 -6 665.975 102.428 59
-2 -2 6 733.284 145.648 48
2 2 -6 727.539 171.448 17
-2 -2 5 5079.99 418.247 3
-2 -2 5 4690.15 286.411 36
-2 -2 5 5262.85 290.736 29
-2 -2 5 6288.37 436.563 4
-2 -2 5 4750.8 316.647 48
2 2 -5 5696.89 419.154 17
2 2 -5 3637.1 298.385 2
-2 -2 5 6048.61 371.081 53
-2 -2 5 4461.76 287.455 34
2 2 -4 8111.92 443.319 20
2 2 -4 7365.66 403.903 2
-2 -2 4 6836.66 428.82 3
2 2 -4 7955.09 437.237 17
-2 -2 4 6494.11 395.798 4
2 2 -3 21111.6 618.424 2
-2 -2 3 20100.9 593.85 4
2 2 -3 22098.1 644.599 17
2 2 -3 21861.1 631.397 20
2 2 -2 26324.8 617.889 2
2 2 -2 26959.4 626.12 17
2 2 -1 10056.9 342.487 17
2 2 -1 10222.3 344.006 2
-2 -2 1 10265.9 324.592 4
2 2 0 999999 2533.94 12
-2 -2 0 971322 2937.84 4
-2 -2 -1 11014.1 279.033 9
-2 -2 -1 11005.1 300.675 1
2 2 1 11836.4 306.053 6
2 2 2 557.392 72.6117 5
-2 -2 -2 679.628 101.722 21
-2 -2 -2 517.016 79.9554 14
2 2 3 2680.63 198.869 22
-2 -2 -3 2750.03 207.53 14
-2 -2 -3 2698.85 100.071 8
2 2 3 2636.04 123.831 7
-2 -2 -3 2641.49 213.781 21
-2 -2 -4 10809.6 486.676 14
-2 -2 -4 11260.2 486.854 21
2 2 4 11298.8 345.05 24
2 2 4 11913 464.999 3
2 2 5 21337.6 714.638 3
-2 -2 -5 20754.7 729.347 21
2 2 6 71577.2 955.732 29
-2 -2 -6 75446.1 1054.87 28
2 2 6 72654.8 1035.89 55
2 2 6 72218.4 1475.64 3
2 2 6 73846.5 1213.27 31
-2 -2 -7 8522.55 377.443 28
2 2 7 9046.58 383.026 55
-2 -2 -7 8661 371.849 58
-2 -2 -7 8383.39 587.109 20
2 2 7 8505.03 430.91 53
2 2 7 8829.63 358.635 29
2 2 7 8979.48 453.903 31
2 2 8 7563.33 393.705 31
2 2 8 7072.36 376.618 53
-2 -2 -8 6597.59 503.91 20
2 2 8 7051.96 312.41 29
-2 -2 -8 6759.33 327.761 51
2 2 9 1674.53 129.553 29
2 2 9 1695.45 158.655 31
2 2 9 1670.18 149.219 53
-2 -2 -9 1748.08 130.856 51
-2 -2 -9 1834.95 151.67 33
-2 -2 -10 75.0489 26.7486 59
2 3 -8 27.7265 41.3503 46
-2 -3 8 -12.4401 47.6145 29
-2 -3 7 1857.7 174.716 29
-2 -3 7 2057.67 200.103 48
2 3 -7 2285.67 191.571 25
-2 -3 6 1254.07 158.39 36
-2 -3 6 1509.33 173.896 29
2 3 -6 1564.4 236.459 17
-2 -3 6 1196.82 179.772 48
-2 -3 5 1366.71 181.384 48
2 3 -5 1163.69 203.044 17
-2 -3 5 1369.31 151.204 29
-2 -3 5 1414.45 182.094 53
-2 -3 5 1696.35 227.995 3
-2 -3 5 1231.55 161.817 36
2 3 -4 28087.7 810.377 2
2 3 -4 30567.1 898.731 17
-2 -3 4 28406.4 878.366 3
2 3 -3 49222.2 990.232 2
-2 -3 3 48644 1017.45 4
2 3 -3 48985.8 1012.74 17
2 3 -2 14901.8 495.633 2
-2 -3 2 14697.6 504.941 4
2 3 -2 15047.8 493.508 17
2 3 -1 45008 757.802 17
-2 -3 1 45219.8 796.205 4
2 3 0 9258.24 307.163 12
-2 -3 0 9658.66 347.093 4
2 3 0 9278.3 348.467 6
-2 -3 -1 2986.37 217.847 21
-2 -3 -1 2836.05 147.644 1
-2 -3 -1 2939.48 168.62 8
2 3 1 3203.09 176.332 16
2 3 1 2558.35 178.641 6
2 3 2 714.182 111.661 22
-2 -3 -2 512.497 122.613 21
-2 -3 -2 456.323 65.1699 8
2 3 2 458.15 46.2358 10
2 3 3 5106.96 310.816 22
-2 -3 -3 4594.93 202.558 8
-2 -3 -3 5329.5 286.693 20
-2 -3 -3 4751.37 335.426 21
2 3 3 4777.85 205.384 24
-2 -3 -4 1074.59 192.772 21
2 3 4 1158.03 170.972 22
-2 -3 -4 1178.35 169.614 20
2 3 4 1018.69 108.908 24
2 3 5 21919.9 754.796 3
-2 -3 -5 21643.7 571.029 28
-2 -3 -5 23789.7 821.771 20
-2 -3 -6 10019.3 415.894 58
-2 -3 -6 9715.1 599.379 20
2 3 6 10641.3 479.994 31
2 3 6 9973.86 379.335 55
-2 -3 -6 10527.2 439.141 28
2 3 6 9839.12 349.734 29
2 3 7 2024.91 216.715 31
2 3 7 2170 176.826 55
-2 -3 -7 2096.6 301.001 20
-2 -3 -7 2111.79 197.599 58
2 3 7 2272.61 232.596 53
-2 -3 -7 2140.21 208.506 51
2 3 7 2078.16 167.748 29
-2 -3 -7 2035.31 203.183 28
-2 -3 -8 11755.7 408.018 58
2 3 8 12314 458.676 53
2 3 8 11429.4 354.427 29
2 3 8 11630 458.963 31
-2 -3 -8 12061.7 433.49 51
-2 -3 -9 4709.27 201.687 51
2 3 9 4456.94 217.76 31
-2 -3 -9 5016.83 224.08 33
2 3 9 4383.21 162.606 29
-2 -3 -9 4460.42 196.686 59
2 4 -8 1776.19 94.8263 46
-2 -4 8 1840.21 119.193 43
-2 -4 7 3315.73 202.527 29
2 4 -7 3861.79 219.528 25
-2 -4 6 206.797 83.3873 36
-2 -4 6 121.364 66.1313 29
-2 -4 6 94.7633 72.1498 48
2 4 -6 119.402 110.147 17
2 4 -6 171.347 70.9581 25
-2 -4 5 4632.78 327.777 36
-2 -4 5 5401.65 284.056 29
2 4 -5 5709.01 434.229 17
-2 -4 5 5047.29 337.036 48
-2 -4 4 4373.45 303.865 36
-2 -4 4 5202.36 408.256 4
2 4 -4 5737.17 411.488 17
-2 -4 4 4774.35 305.235 48
2 4 -4 5482.29 371.156 2
2 4 -3 15981.6 605.692 17
-2 -4 3 15590.4 661.443 4
2 4 -3 15928.5 610.018 2
2 4 -3 16448.1 436.212 25
2 4 -2 18030.4 569.927 12
-2 -4 2 17048.7 620.247 4
2 4 -2 16441.5 382.025 25
2 4 -2 17004.2 554.657 17
2 4 -1 64813.5 989.156 12
2 4 -1 63603.4 714.47 23
2 4 -1 65361.3 1124.7 6
2 4 -1 64879.4 950.125 17
-2 -4 1 67337.5 1129.51 4
2 4 0 43475.2 547.681 23
2 4 0 41559.7 767.308 12
2 4 0 41506.8 853.165 6
2 4 1 15315.1 520.018 22
-2 -4 -1 14563.2 452.498 8
2 4 1 15574.1 479.863 16
-2 -4 -1 14648.6 494.668 4
2 4 1 14008.6 316.707 23
-2 -4 -2 15583.3 463.988 8
2 4 2 14764.4 366.973 24
2 4 2 14463 348.927 10
-2 -4 -3 32805.3 683.322 8
2 4 3 34818.5 577.742 24
2 4 4 2134.22 252.287 22
-2 -4 -4 1585.84 205.319 20
-2 -4 -4 2200.95 190.165 28
2 4 4 2061.11 155.71 24
-2 -4 -5 -52.8926 91.5268 38
2 4 5 -0.60508 97.8147 37
2 4 5 79.2585 51.3808 32
-2 -4 -5 27.3165 112.653 20
-2 -4 -5 95.8704 102.021 28
2 4 5 -65.8247 83.725 41
-2 -4 -5 18.94 82.0008 58
-2 -4 -6 6003.54 345.527 51
2 4 6 7273.35 395.878 31
-2 -4 -6 6810.93 382.159 28
-2 -4 -6 6619.97 364.573 58
-2 -4 -6 7199 512.206 20
2 4 6 6789.96 317.942 41
-2 -4 -7 15224 530.662 58
-2 -4 -7 14969.7 519.909 51
-2 -4 -7 14330.4 699.174 20
2 4 7 14585.2 540.965 31
2 4 8 11897.3 403.251 53
-2 -4 -8 12230.9 400.874 33
-2 -4 -8 11473.3 343.543 59
2 4 8 11715.4 408.244 31
-2 -4 -8 11927.4 397.19 51
-2 -4 -8 10885.8 351.266 27
-2 -4 -9 10439.4 257.684 51
2 4 9 10430.8 248.021 31
-2 -5 7 92.6976 60.8151 43
-2 -5 6 129.337 100.494 36
2 5 -6 -101.013 91.0676 17
-2 -5 6 122.959 77.6549 43
2 5 -5 -18.0806 82.663 12
-2 -5 5 -109.942 122.663 36
2 5 -5 -152.574 107.615 17
-2 -5 5 127.284 92.5137 43
-2 -5 5 -156.347 75.5275 44
2 5 -5 138.531 62.6846 25
-2 -5 4 2801.35 272.023 36
2 5 -4 3303.93 319.713 12
-2 -5 4 3258.09 265.855 43
2 5 -4 3321.38 210.34 25
2 5 -4 3560.3 330.676 17
2 5 -3 10785.4 527.572 12
-2 -5 3 9445.83 443.015 36
-2 -5 3 9122.42 407.061 43
-2 -5 3 9076.83 555.942 4
2 5 -3 10048.7 494.235 17
2 5 -3 9263.55 505.833 2
2 5 -2 16263.9 607.791 12
2 5 -2 15469.9 545.403 17
2 5 -2 17112.8 441.214 23
-2 -5 2 15715.3 684.199 4
2 5 -1 294.996 100.62 6
2 5 -1 313.3 67.316 23
2 5 -1 375.792 99.7153 12
-2 -5 1 177.018 85.1391 4
2 5 0 16021.2 379.803 23
-2 -5 0 16682.5 627.705 4
2 5 0 15597.5 612.31 6
2 5 1 29287.7 843.924 22
2 5 1 29094.9 780.195 16
-2 -5 -1 26711.6 759.38 4
-2 -5 -1 28382.4 749.839 8
2 5 1 25335.4 480.616 23
2 5 2 21848.3 757.73 22
-2 -5 -2 21296.2 673.538 4
-2 -5 -2 22905.2 674.75 8
2 5 3 10879.3 559.998 22
-2 -5 -3 9316.36 442.391 4
-2 -5 -3 9961.26 448.355 8
-2 -5 -3 11549.1 459.107 28
-2 -5 -4 73.3595 64.9395 38
2 5 4 161.67 62.5946 37
-2 -5 -4 122.368 80.1293 51
2 5 4 125.038 62.8794 32
2 5 4 205.373 99.5568 22
-2 -5 -4 89.6203 59.3778 58
-2 -5 -4 181.686 77.4656 28
-2 -5 -4 190.255 65.32 43
-2 -5 -5 2697.83 238.478 58
2 5 5 2741.92 222.593 32
-2 -5 -5 2632.17 235.209 51
2 5 5 2889.8 224.81 37
-2 -5 -5 2596.61 220.759 38
-2 -5 -5 2866.79 267.377 28
2 5 5 2876.04 205.035 48
-2 -5 -6 8.46157 56.5646 38
-2 -5 -6 39.5586 77.6859 51
-2 -5 -6 -43.6406 76.174 33
-2 -5 -6 67.3512 80.7912 58
2 5 6 37.9563 53.3725 31
2 5 6 59.0189 68.9712 41
2 5 7 2112.27 187.813 31
-2 -5 -7 2116.49 189.822 51
-2 -5 -7 2230.38 181.269 33
-2 -5 -7 2403.79 205.837 27
2 5 8 10454.3 302.487 31
2 5 8 10544.8 310.518 53
-2 -5 -8 9791.15 289.806 27
-2 -5 -8 10423.4 302.798 33
-2 -6 7 494.827 69.6287 43
-2 -6 7 463.98 61.6754 49
2 6 -6 1262.36 125.621 23
-2 -6 6 1232.74 138.55 43
2 6 -5 5894.04 292.421 23
-2 -6 5 5798.83 333.227 44
-2 -6 5 5188.54 318.399 43
-2 -6 4 998.028 198.994 36
2 6 -4 168.88 97.3105 12
-2 -6 4 1025.41 175.691 43
-2 -6 4 365.024 116.157 44
2 6 -4 597.634 110.152 23
2 6 -3 1346.36 211.528 12
2 6 -3 1258.48 143.592 23
-2 -6 3 1262.08 195.602 36
-2 -6 3 1295.94 199.412 44
-2 -6 3 1236.82 172.206 43
2 6 -2 229.798 197.753 12
2 6 -2 182.638 64.8423 23
-2 -6 2 52.1977 74.6255 36
-2 -6 2 74.3235 58.1215 43
-2 -6 2 203.087 93.0323 44
-2 -6 2 -26.7341 59.3097 4
2 6 -1 11105.1 602.816 6
2 6 -1 11733.5 373.366 23
-2 -6 1 11491.2 468.063 36
-2 -6 1 10611.4 463.088 30
-2 -6 1 10206.6 584.392 4
-2 -6 1 10698.5 416.286 43
-2 -6 0 14814.7 677.935 4
2 6 0 20384.5 795.891 22
-2 -6 0 16828.2 501.307 43
2 6 0 20253.3 743.127 16
2 6 0 17930.5 754.068 6
-2 -6 -1 6988.29 319.453 43
-2 -6 -1 7358.76 381.456 30
-2 -6 -1 7286.52 443.215 8
2 6 1 7375.31 473.163 16
2 6 1 7264.61 478.814 6
2 6 1 7131.35 488.285 22
-2 -6 -2 26014.1 710.663 30
2 6 2 27505 946.449 22
-2 -6 -2 24887.3 704.239 38
-2 -6 -2 25328.6 813.061 8
-2 -6 -2 25062.1 604.838 43
-2 -6 -2 26075 706.803 27
2 6 3 8238.81 530.903 22
2 6 3 7382.06 348.927 32
-2 -6 -3 7236.86 350.53 51
-2 -6 -3 7450.19 343.417 43
-2 -6 -3 7167.29 373.426 30
-2 -6 -3 7253.99 375.677 58
-2 -6 -3 7626.27 399.264 38
2 6 4 14495.8 504.857 37
2 6 4 13099.7 696.184 22
2 6 4 13248.9 479.916 32
-2 -6 -4 13830.3 547.33 38
-2 -6 -4 13286.8 495.38 30
-2 -6 -4 14697 548.833 58
-2 -6 -4 14343.2 513.374 51
-2 -6 -4 14052.7 474.23 43
2 6 5 1609.58 177.987 37
2 6 5 1294.77 153.668 32
-2 -6 -5 1441.64 171.439 51
2 6 5 1384.69 141.214 48
-2 -6 -5 1485.06 192.673 27
2 6 5 1533.44 158.391 41
-2 -6 -5 1426.97 180.252 38
-2 -6 -6 -2.4957 70.1053 38
-2 -6 -6 78.9947 70.9083 51
2 6 6 84.7706 46.2295 48
-2 -6 -6 76.8135 82.8643 27
2 6 6 28.004 46.3488 41
-2 -6 -6 32.8173 49.6171 33
2 6 6 187.43 69.4273 31
2 6 7 62.7778 39.3391 31
-2 -6 -7 -15.0614 56.4473 51
-2 -6 -7 54.2592 52.2031 27
-2 -7 6 17049.9 369.495 43
-2 -7 5 5182.22 265.902 43
-2 -7 5 4546.81 205.782 49
2 7 -5 5191.8 230.961 23
2 7 -4 388.873 77.7257 23
-2 -7 4 393.368 111.366 44
-2 -7 4 671.361 125.075 43
-2 -7 3 128.147 104.349 36
2 7 -3 77.1659 45.8471 23
2 7 -3 69.5392 86.7118 16
-2 -7 3 45.653 93.2037 44
-2 -7 3 81.967 77.2016 43
-2 -7 2 137.469 87.7418 44
2 7 -2 116.916 86.7956 16
-2 -7 2 154.691 84.6909 30
-2 -7 2 8.57944 64.2329 43
-2 -7 1 2426.84 250.886 30
2 7 -1 3013.04 343.217 22
-2 -7 1 2835.15 259.759 44
2 7 -1 2938.14 324.197 16
-2 -7 1 2709.72 231.12 43
2 7 0 16690.2 785.453 22
-2 -7 0 16282 532.088 43
2 7 0 16753.7 752.012 16
-2 -7 0 18697 593.249 44
-2 -7 0 17113.5 641.409 30
2 7 1 5335.44 452.5 22
-2 -7 -1 5188.08 300.867 43
-2 -7 -1 5707.53 372.888 30
-2 -7 -1 5167.33 343.983 38
-2 -7 -2 324.513 126.719 38
-2 -7 -2 439.111 108.459 43
2 7 2 391.098 96.9574 32
2 7 2 355.643 135.041 22
-2 -7 -2 623.515 154.119 30
-2 -7 -2 456.128 131.345 27
2 7 3 18202 792.985 22
-2 -7 -3 17613.4 609.078 30
2 7 3 17220.2 531.594 32
-2 -7 -3 17946.1 532.4 43
-2 -7 -3 17135.1 620.134 27
-2 -7 -3 17769.4 635.403 38
2 7 4 1531.85 163.448 37
-2 -7 -4 1576.35 169.184 30
-2 -7 -4 1517.23 166.067 51
2 7 4 1650.72 162.445 32
-2 -7 -4 1619.7 156.074 43
-2 -7 -4 1576.85 196.663 27
-2 -7 -4 1819.65 205.539 38
2 7 5 5046.03 266.574 37
2 7 5 4929.63 231.928 48
-2 -7 -5 5114.88 299.156 38
-2 -7 -5 4848.46 263.291 51
2 7 5 4704.93 253.333 31
-2 -7 -5 5079.76 307.462 27
2 7 5 5399.77 261.988 41
2 7 6 5875.98 217.345 31
-2 -7 -6 6147.43 252.039 38
-2 -7 -6 6149.75 283.439 27
2 7 6 5913.38 223.227 41
-2 -8 5 671.615 74.2535 43
-2 -8 4 314.409 73.04 43
-2 -8 3 25.1994 66.5751 43
2 8 -3 1.84737 84.5948 22
-2 -8 3 -58.4361 93.1534 44
2 8 -2 1956.74 272.173 22
-2 -8 2 1335.93 178.276 30
-2 -8 2 2159.38 220.591 44
-2 -8 2 2148.8 189.468 43
2 8 -1 2676.12 313.13 22
-2 -8 1 3510.6 262.096 44
-2 -8 1 2902.56 263.471 30
-2 -8 1 3369.9 237.753 43
2 8 0 3838.89 367.656 22
-2 -8 0 3412.67 293.922 30
-2 -8 0 3370.53 239.065 43
2 8 1 3900.85 359.833 22
-2 -8 -1 3791.48 303.444 30
2 8 1 3851.4 242.47 32
-2 -8 -1 3763.29 246.562 43
-2 -8 -1 2932.96 242.585 38
2 8 2 6111.01 432.288 22
2 8 2 6702.94 300.588 32
-2 -8 -2 7089.26 319.426 43
-2 -8 -2 6743.92 379.682 30
-2 -8 -2 6401.44 362.509 38
2 8 3 8339.01 334.179 37
2 8 3 7090.52 446.575 22
2 8 3 7285.92 293.9 32
-2 -8 -3 8434.36 325.281 43
-2 -8 -3 7114.2 358.592 30
-2 -8 -3 7935.6 384.688 38
2 8 4 4067.4 213.889 37
2 8 4 3682.83 184.728 48
2 8 4 3891.34 209.03 41
-2 -8 -4 3737.7 239.158 38
-2 -8 -5 5864.65 236.42 38
2 8 5 6022.34 205.75 41
-2 -9 3 13113.6 298.058 43
-2 -9 2 1711.93 132.731 43
2 9 -1 1498.92 121.354 32
-2 -9 1 1975.56 149.414 43
2 9 0 212.952 55.4831 32
-2 -9 0 375.543 77.2673 43
2 9 1 463.085 68.2299 32
-2 -9 -1 594.653 85.5533 43
2 9 2 3105.58 166.44 37
2 9 2 2156.53 114.037 32
-2 -9 -2 3147.75 166.425 43
-2 -9 -2 2442.67 164.658 38
2 9 3 7273.11 217.95 37
2 9 3 7615.45 206.597 48
2 9 3 7835.86 229.371 41
-2 -9 -3 7010.28 246.687 38
3 -7 2 1134.59 78.6437 35
3 -6 -2 2749.93 135.609 50
-3 6 1 3285.75 146.374 48
3 -6 -1 3063.84 173.742 50
3 -6 -1 2942.34 143.898 35
3 -6 0 70.191 52.0065 35
3 -6 0 22.1038 57.2458 50
-3 6 0 139.947 49.8712 26
-3 6 -1 3830.05 213.844 26
3 -6 1 4366.56 255.186 35
3 -6 2 2110.46 168.279 42
3 -6 2 2192.6 194.864 35
3 -6 3 464.911 100.122 35
3 -6 3 594.518 102.049 42
3 -6 4 388.157 61.3875 45
3 -6 4 327.955 82.2438 42
3 -6 4 329.86 78.7411 35
3 -6 5 840.428 80.4547 35
3 -6 5 736.244 98.2066 42
-3 5 4 6549.07 177.89 48
3 -5 -4 6692.26 195.638 50
3 -5 -3 446.021 85.9563 50
-3 5 3 487.084 69.3229 26
-3 5 3 495.804 76.5472 48
-3 5 2 5850.21 265.019 48
-3 5 2 5487.77 261.601 26
3 -5 -2 5768.05 304.71 50
3 -5 -1 10846.8 386.823 35
3 -5 -1 12100.7 483.987 50
-3 5 1 11404.7 386.73 48
-3 5 1 11959.1 423.822 26
-3 5 0 5830.08 282.009 48
3 -5 0 5816.04 275.324 42
3 -5 0 5520.82 345.805 50
-3 5 0 4997.91 395.483 18
3 -5 0 5570.88 318.968 35
3 -5 0 5126.79 274.471 45
-3 5 0 5417.13 412.824 19
3 -5 1 4643.49 312.636 35
-3 5 -1 4164.29 371.199 18
3 -5 1 4567.69 279.185 42
3 -5 1 4084.22 255.736 45
3 -5 1 3928.02 289.881 50
3 -5 2 1571.1 196.019 35
3 -5 2 1692.58 182.216 50
3 -5 2 1759 197.358 42
3 -5 2 1542.21 161.775 45
-3 5 -2 1319.51 242.302 18
-3 5 -3 5017.07 403.963 18
3 -5 3 5503.56 333.307 42
3 -5 3 5519.74 296.734 45
3 -5 3 5739.43 353.183 35
3 -5 4 1181.27 162.282 35
3 -5 4 1021.12 127.217 45
3 -5 4 1076.25 166.936 49
3 -5 4 1188.44 166.771 42
3 -5 5 -72.0121 74.3663 35
3 -5 5 -13.5929 49.748 45
3 -5 5 36.6194 90.8136 49
3 -5 5 11.8455 65.587 42
3 -5 6 4543.42 235.133 49
3 -5 6 4349.91 215.04 45
3 -5 6 4074.12 224.713 42
3 -5 7 393.005 86.1378 49
3 -5 7 332.692 64.7705 45
3 -4 -5 -19.1332 30.8096 50
-3 4 5 76.1723 32.5014 48
3 -4 -5 -9.49271 36.238 57
3 -4 -4 255.974 65.179 57
-3 4 4 226.882 61.7497 34
3 -4 -4 214.435 68.2915 50
-3 4 4 317.473 75.4578 48
-3 4 4 401.894 63.7092 26
3 -4 -4 269.735 63.9453 59
3 -4 -3 442.524 93.7624 59
-3 4 3 445.566 96.1051 48
3 -4 -3 466.589 113.18 50
-3 4 3 479.237 89.3871 26
3 -4 -3 448.984 88.7997 57
3 -4 -2 475.803 101.767 57
3 -4 -2 784.8 119.948 59
3 -4 -2 563.246 123.606 50
-3 4 2 858.823 146.763 18
-3 4 2 652.752 117.29 48
-3 4 2 579.595 94.2994 41
-3 4 2 600.826 114.239 26
3 -4 -2 653.722 158.204 38
3 -4 -1 378.981 115.275 50
3 -4 -1 69.9706 56.8824 59
-3 4 1 290.846 124.561 19
-3 4 1 300.054 72.0832 48
-3 4 1 388.013 134.668 18
3 -4 -1 -8.33724 87.7717 38
3 -4 -1 184.129 68.7019 57
3 -4 0 23480.3 606.974 42
3 -4 0 23021.5 653.361 45
3 -4 0 25724.8 790.922 50
-3 4 0 23733.8 883.444 18
-3 4 0 22859.7 834.766 13
3 -4 0 24030.2 758.82 38
3 -4 1 2553.61 254.53 50
-3 4 -1 2669.37 302.707 18
3 -4 1 2915.41 241.178 45
3 -4 1 2921.17 235.148 42
-3 4 -1 2709.73 304.336 13
3 -4 2 27733.7 714.305 45
3 -4 2 28536 753.556 50
3 -4 2 30240.3 757.961 42
3 -4 2 29095 669.308 49
3 -4 2 28615.3 776.787 35
-3 4 -2 28959.9 980.189 13
3 -4 3 6106.55 363.268 35
-3 4 -3 6158.36 450.44 18
3 -4 3 6352.75 341.931 45
3 -4 3 6662.33 370.44 42
3 -4 3 6354.32 321.428 49
-3 4 -3 6661.31 486.557 13
-3 4 -3 5885.98 453.219 10
3 -4 4 5698.1 332.416 49
3 -4 4 6114.69 332.14 45
3 -4 4 5888.39 350.866 42
3 -4 4 5419.14 326.519 35
3 -4 5 6118.81 321.961 35
3 -4 5 6430.6 338.054 49
3 -4 5 6317.91 325.023 45
3 -4 5 6664.46 343.232 40
3 -4 5 5527.93 268.143 47
3 -4 5 6602.06 367.093 42
3 -4 6 525.53 147.279 35
3 -4 6 437.282 94.1365 45
3 -4 6 438.363 98.9375 42
3 -4 6 539.911 125.351 40
3 -4 6 572.908 121.111 49
3 -4 6 558.269 97.3645 47
3 -4 7 172.168 74.9238 40
3 -4 7 214.077 60.9432 47
3 -4 7 222.959 73.4287 45
3 -4 7 233.251 85.2537 49
3 -4 8 929.744 98.0695 49
3 -3 -6 14180.4 277.398 59
3 -3 -6 14646.6 296.234 57
3 -3 -5 4984.23 242.19 59
3 -3 -5 4849.55 227.442 50
-3 3 5 4835.01 244.974 48
3 -3 -5 4637.63 244.608 57
-3 3 5 4670.13 210.738 34
-3 3 4 1200.83 122.531 36
-3 3 4 1148.37 127.949 26
3 -3 -4 1291.15 155.178 59
-3 3 4 1321.9 153.239 48
-3 3 4 1292.97 147.971 34
3 -3 -4 1286.55 153.668 50
-3 3 3 1444.23 164.935 48
3 -3 -3 1220.45 172.628 50
-3 3 3 1261.62 147.832 26
3 -3 -3 1210.06 163.956 59
-3 3 2 4940.6 278.937 41
3 -3 -2 5677.11 350.346 50
-3 3 2 4846.09 353.034 19
-3 3 2 5115.64 294.435 48
-3 3 2 4590.02 373.854 18
3 -3 -2 4602.06 308.224 59
-3 3 2 5055.25 299.93 26
3 -3 -2 4130.52 300.86 38
-3 3 1 72205.3 1516.89 18
3 -3 -1 69763.1 1220.92 50
-3 3 1 71966.1 1466.69 19
3 -3 -1 72320.3 1203.73 38
3 -3 0 1502.48 150.817 42
3 -3 0 2034.61 209.981 50
3 -3 0 1674.43 231.836 8
-3 3 0 1891.96 247.659 18
-3 3 0 1938.34 246.531 13
3 -3 0 1874.1 204.483 38
3 -3 0 1745.39 178.701 59
3 -3 1 21385.9 750.877 7
-3 3 -1 20425 759.821 13
3 -3 1 21716.5 772.838 8
-3 3 -2 14303.6 636.067 10
3 -3 2 14557.6 449.398 49
3 -3 2 14903.1 590.863 8
3 -3 2 13714.9 473.627 42
3 -3 2 14587.1 654.92 7
-3 3 -2 14798.3 658.606 13
-3 3 -3 3099.6 313.236 10
3 -3 3 3183.33 216.834 49
3 -3 3 3461.85 235.202 50
3 -3 3 3451.12 245.305 35
-3 3 -3 3299.28 319.687 13
3 -3 3 3244.3 229.161 45
3 -3 3 3425.95 249.03 42
3 -3 3 3399.28 221.104 40
3 -3 3 2897.3 311.127 7
3 -3 4 1141.42 147.786 49
3 -3 4 1073.39 145.214 35
-3 3 -4 837.106 166.348 10
3 -3 4 1253.25 135.374 47
3 -3 4 1012.47 138.127 45
3 -3 4 1309.32 163.474 42
3 -3 4 1100.42 135.255 40
-3 3 -4 907.373 181.948 13
3 -3 5 759.839 124.41 42
-3 3 -5 621.311 145.4 9
3 -3 5 623.933 100.981 47
3 -3 5 836.761 125.11 45
3 -3 5 842.402 139.302 49
3 -3 5 813.378 132.684 40
3 -3 5 728.345 115.388 35
3 -3 6 8370.8 335.649 35
3 -3 6 7817.46 382.772 49
3 -3 6 8174.99 367.107 45
3 -3 6 8032.21 347.231 47
3 -3 6 7713.53 347.966 42
3 -3 6 8318.67 392.912 40
3 -3 7 17.353 79.8964 40
3 -3 7 41.4085 64.2353 45
3 -3 7 71.167 70.3812 49
3 -3 7 -16.7745 62.4677 47
3 -3 8 1542.46 146.99 49
3 -3 8 1544.3 136.45 47
3 -3 8 1187.3 140.372 40
3 -3 9 380.949 64.3048 40
3 -2 -6 9734.06 316.906 59
3 -2 -6 9669.38 320.716 57
-3 2 6 9044.89 317.493 48
-3 2 5 1096.07 125.175 34
-3 2 5 964.326 119.136 53
3 -2 -5 908.555 114.804 50
-3 2 5 1009.28 139.093 48
-3 2 5 1170.44 117.036 26
3 -2 -5 920.491 128.249 59
-3 2 4 3189.14 211.843 36
3 -2 -4 3037.17 233.829 50
-3 2 4 2844.27 233.344 48
-3 2 4 3406 248.426 34
-3 2 4 3241.46 225.069 26
3 -2 -4 3534.73 260.262 59
-3 2 3 2836.04 230.024 48
3 -2 -3 3600.93 268.78 59
-3 2 3 3382.73 242.134 26
3 -2 -2 875.271 132.267 59
3 -2 -2 619.43 102.449 50
-3 2 2 512.348 121.657 19
-3 2 2 565.16 96.84 48
-3 2 2 535.012 135.927 18
-3 2 2 727.009 91.9529 41
-3 2 2 602.788 104.21 26
3 -2 -2 607.298 170.973 8
3 -2 -2 486.566 108.836 38
3 -2 -1 2741.42 284.384 8
-3 2 1 2923.03 274.681 19
-3 2 1 2874.59 274.571 18
3 -2 0 269.807 97.4212 8
3 -2 0 209.532 71.1622 7
-3 2 0 193.064 85.2774 13
3 -2 1 4212.22 301.448 8
-3 2 -1 4151.98 315.103 18
3 -2 1 3877.5 308.363 7
-3 2 -1 3855.18 297.06 13
3 -2 2 16079.2 531.367 8
3 -2 2 14751.4 620.913 7
-3 2 -2 15402.9 584.27 10
-3 2 -2 14308.8 573.491 13
-3 2 -3 14412.6 579.553 10
3 -2 3 14818.2 640.937 7
-3 2 -3 15646.9 600.739 13
-3 2 -4 14393.7 595.72 10
3 -2 4 15299.1 667.472 7
-3 2 -4 14509.8 580.995 13
3 -2 5 110618 1221.34 35
-3 2 -5 111750 1833.69 9
3 -2 5 109609 1291.82 49
3 -2 5 112603 1269.13 45
3 -2 5 117929 1279.74 47
3 -2 5 111644 1255.76 42
3 -2 5 108530 1314.77 40
3 -2 5 115341 1845.49 7
3 -2 6 3426.43 214.524 35
3 -2 6 3155.6 246.133 49
3 -2 6 3433.78 239.89 45
3 -2 6 3612.72 265.749 40
-3 2 -6 3298.68 337.172 9
-3 2 -6 3590.62 362.544 14
3 -2 6 3812.89 242.034 47
3 -2 7 416.9 98.3623 49
3 -2 7 605.883 109.635 47
3 -2 7 528.765 103.6 45
3 -2 7 460.024 116.168 40
3 -2 8 447.925 110.669 40
3 -2 8 463.097 103.028 49
3 -2 8 443.463 98.9055 47
3 -2 8 565.847 102.538 45
3 -2 8 399.304 75.7436 29
3 -2 9 532.659 88.4358 40
3 -1 -7 4870.94 185.644 59
-3 1 7 4978.69 199.228 48
3 -1 -7 4348.02 167.838 57
3 -1 -6 4283.24 242.379 59
-3 1 6 3946.04 203.492 34
-3 1 6 4153.52 252.276 48
3 -1 -6 4050.99 208.712 46
-3 1 5 15143.7 438.072 36
-3 1 5 13173.1 440.212 29
-3 1 5 14193.4 474.262 53
-3 1 5 14626.6 533.356 48
-3 1 5 15025.9 490.945 34
3 -1 -5 15960.5 479.352 46
-3 1 5 14473.5 439.708 26
3 -1 -5 15450.1 511.512 59
3 -1 -5 15457 527.477 33
-3 1 4 9588.18 383.374 36
-3 1 4 9594.63 434.081 48
-3 1 4 8853.5 380.135 53
3 -1 -4 8267.85 397.027 33
-3 1 4 9800.93 418.812 34
3 -1 -4 8159.15 363.944 46
3 -1 -4 8260.02 388.942 59
-3 1 4 10000.6 401.154 26
-3 1 3 4304.77 342.621 3
3 -1 -3 4894.18 394.391 8
-3 1 3 4813.97 287.64 48
3 -1 -3 5330.31 305.699 33
3 -1 -3 5163.41 279.608 46
3 -1 -3 5337.39 300.797 59
-3 1 3 4982.87 278.244 26
-3 1 2 531.209 113.2 19
3 -1 -2 726.074 150.511 8
-3 1 2 440.447 107.273 18
-3 1 2 608.377 95.6587 26
-3 1 2 741.575 141.849 3
-3 1 1 1364.83 178.319 19
-3 1 1 1503.51 190.641 18
3 -1 -1 1554.69 205.112 8
-3 1 1 1470.04 134.114 26
-3 1 0 363.334 114.503 18
3 -1 0 464.278 106.307 8
-3 1 0 372.002 102.522 13
3 -1 1 36824.2 790.699 8
3 -1 1 35173.6 868.575 7
-3 1 -1 36217.2 796.424 13
-3 1 -2 44722.5 848.525 10
3 -1 2 46653 759.662 8
-3 1 -2 45011.9 848.981 18
3 -1 2 46528.7 1002.16 7
-3 1 -2 45512.4 871.411 13
-3 1 -3 104.364 67.7531 10
-3 1 -3 72.8423 55.7979 1
-3 1 -3 221.588 77.2427 18
3 -1 3 43.9523 67.6585 7
-3 1 -3 91.672 51.6488 13
-3 1 -4 18558 576.934 10
3 -1 4 19301.5 682.205 7
-3 1 -4 17923 535.133 13
-3 1 -5 2634.19 276.128 9
-3 1 -5 2757.74 300.844 1
3 -1 5 2759.76 264.783 7
-3 1 -5 2799.48 257.125 15
3 -1 6 2271.27 181.695 29
-3 1 -6 2844.42 329.967 1
3 -1 6 2457.84 189.417 47
-3 1 -6 2427.19 291.435 9
3 -1 6 2229.09 173.74 45
3 -1 6 2099.06 191.854 31
-3 1 -6 2440.7 298.387 14
3 -1 7 2115.81 180.92 29
3 -1 7 2408.72 196.215 47
3 -1 7 2087.55 176.809 45
3 -1 7 2125.95 212.622 31
-3 1 -7 1894.67 278.599 14
-3 1 -7 2312.6 288.96 20
-3 1 -8 794.85 182.244 20
3 -1 8 564.092 87.9833 49
3 -1 8 864.761 121.617 47
3 -1 8 870.632 120.433 29
3 -1 9 2571.24 162.725 29
3 -1 9 2487.01 197.146 40
3 0 -7 486.312 72.5573 46
-3 0 7 551.056 88.9213 48
3 0 -7 551.752 70.0637 57
3 0 -7 607.354 79.0212 59
3 0 -6 4837.98 263.799 59
-3 0 6 4634.37 244.236 34
-3 0 6 4583.24 260.417 29
-3 0 6 4431.98 255.479 53
-3 0 6 4792.15 295.455 48
3 0 -6 4942.9 266.454 46
3 0 -6 4600.87 237.653 25
-3 0 5 5160.44 280.079 36
3 0 -5 5483.94 304.96 59
-3 0 5 5500.11 312.619 34
3 0 -5 5279.9 310.478 33
-3 0 5 5011.36 297.771 53
-3 0 5 5192.07 329.485 48
-3 0 5 4646.45 294.664 29
3 0 -5 5768.4 307.459 46
-3 0 5 4957.56 272.904 26
3 0 -4 8392.72 379.04 33
-3 0 4 7919.41 349.788 36
3 0 -4 8307.81 367.296 59
-3 0 4 8016.88 375.362 34
-3 0 4 7408.68 345.818 53
-3 0 4 7676.83 387.794 48
-3 0 4 7516.68 358.657 29
3 0 -4 8501.44 370.243 46
-3 0 4 7969.7 358.682 26
3 0 -3 31166.6 948.082 8
-3 0 3 30501.3 895.962 3
3 0 -2 39882.1 937.77 5
-3 0 2 42373.1 906.418 19
-3 0 2 39933.3 688.163 26
3 0 -1 5561.91 344.709 5
-3 0 1 5240.39 314.045 19
-3 0 1 5214.73 313.412 18
-3 0 1 5628.88 233.683 26
3 0 0 68.7905 94.2213 5
3 0 0 255.057 85.898 8
-3 0 0 58.7396 57.6118 19
-3 0 0 83.897 70.7092 18
3 0 1 2956.36 252.614 5
-3 0 -1 2964.69 205.857 13
3 0 1 3074.36 205.948 8
-3 0 -1 2970.89 205.369 18
-3 0 -1 2933.33 220.811 19
-3 0 -2 4561.39 232.253 18
-3 0 -2 4880.52 291.025 1
3 0 2 5258.85 214.996 8
-3 0 -2 4974.17 250.846 13
-3 0 -3 5541.51 338.686 1
-3 0 -3 5571.42 282.587 19
-3 0 -3 5301.66 220.909 18
3 0 3 5646.59 330.599 7
-3 0 -3 5793.34 245.597 10
3 0 3 5374.28 218.966 24
-3 0 -3 5900.98 257.655 13
-3 0 -4 37376.1 885.06 9
3 0 4 38186.9 866.252 7
-3 0 -4 37565.6 881.937 15
-3 0 -5 12562.7 510.527 15
3 0 5 13342.6 513.698 7
-3 0 -6 7658.55 456.067 21
3 0 6 7690.29 371.301 55
3 0 6 7692.38 314.468 47
3 0 6 7428.89 323.815 29
3 0 6 7293.09 285.949 45
-3 0 -6 7386.09 492.818 14
3 0 7 4940.15 280.466 29
3 0 7 3984.4 299.677 31
-3 0 -7 5229.9 450.542 20
3 0 7 4084.56 232.201 45
3 0 7 4494.76 257.442 47
-3 0 -7 4059.74 393.693 14
3 0 7 4554.13 300.376 55
3 0 8 15226.8 573.871 31
3 0 8 15999 492.402 29
-3 0 -8 15770.6 773.014 20
3 0 8 17183.2 491.577 47
3 0 9 115.086 52.5874 29
3 0 10 409.63 55.1224 40
3 0 10 850.401 74.3556 29
3 1 -7 619.044 91.53 46
-3 -1 7 517.333 83.5893 29
-3 -1 7 566.417 101.123 48
3 1 -7 527.664 75.5719 59
3 1 -7 589.308 86.2143 25
3 1 -6 14615 448.305 59
-3 -1 6 15044.1 467.59 34
-3 -1 6 14722 492.88 53
-3 -1 6 14535.5 537.48 48
-3 -1 6 14530.8 489.681 29
3 1 -6 15667.1 488.431 46
3 1 -6 14956.2 473.787 25
-3 -1 5 4048.94 261.729 36
-3 -1 5 4108.97 279.38 34
-3 -1 5 4053.69 275.233 53
3 1 -5 3983.07 250.742 59
-3 -1 5 3790.71 265.523 29
-3 -1 5 3504.25 277.176 48
3 1 -5 3930.33 252.139 33
-3 -1 4 14474.7 478.424 36
-3 -1 4 14754.4 493.793 29
-3 -1 4 14643.1 488.566 53
-3 -1 4 14467.5 524.757 48
3 1 -4 16309.6 655.077 17
-3 -1 4 14565 501.105 34
3 1 -4 14931.1 457.981 33
-3 -1 4 15428.3 495.088 26
3 1 -4 16011 465.609 59
-3 -1 4 14114.6 670.768 3
3 1 -3 15061.8 591.658 17
-3 -1 3 13095.9 430.506 26
3 1 -3 14366.6 586.339 2
-3 -1 2 1014.95 110.049 26
3 1 -2 858.812 141.808 2
-3 -1 2 925.548 107.413 4
3 1 -2 754.224 135.41 17
3 1 -1 5593.24 303.016 2
-3 -1 1 5010.67 212.042 4
3 1 0 24251.1 559.643 2
-3 -1 0 23186.4 412.24 4
3 1 1 1106.18 162.631 5
3 1 1 1091.54 107.044 2
-3 -1 -1 1185.91 136.562 19
-3 -1 -1 1207.92 144.006 1
-3 -1 -2 460.752 107.854 1
-3 -1 -2 383.099 82.3922 19
3 1 2 571.276 61.3933 2
3 1 2 518.567 112.711 5
-3 -1 -3 1242.98 154.339 9
-3 -1 -3 1302.02 122.28 19
3 1 3 1262.12 147.145 7
-3 -1 -3 1354.8 162.963 15
3 1 3 1113.54 105.41 24
3 1 4 20247.9 556.77 7
-3 -1 -4 19778.2 634.27 9
-3 -1 -4 19429.3 608.544 15
3 1 4 19673.2 489.276 24
-3 -1 -5 4963.84 365.585 9
3 1 5 5268.06 281.504 7
-3 -1 -5 5519.81 382.95 14
-3 -1 -5 5583.64 379.706 21
-3 -1 -6 8389.92 486.762 21
3 1 6 8173.15 376.118 55
3 1 6 8099.21 338.089 29
3 1 7 13423 454.401 29
3 1 7 11892.4 528.326 31
-3 -1 -7 13074 694.607 20
3 1 7 12378.9 485.552 55
3 1 7 13161.1 414.952 47
3 1 8 4260.99 252.626 29
3 1 8 4480.91 321.202 31
-3 -1 -8 4484.71 423.94 20
3 1 8 4142.31 233.698 47
3 1 9 2195.5 196.449 31
3 1 9 2078.19 157.796 29
-3 -1 -9 1740.7 141.44 51
3 1 10 5512.24 181.399 29
3 2 -8 957.287 69.6732 46
3 2 -7 10267.3 336.133 46
-3 -2 7 10034.9 374.569 48
-3 -2 7 9314.75 338.655 29
3 2 -7 10024.2 335.896 25
-3 -2 6 731.229 101.427 36
-3 -2 6 906.692 131.773 34
-3 -2 6 740.249 132.64 53
3 2 -6 760.502 102.366 59
-3 -2 6 813.042 127.437 29
3 2 -6 821.805 127.369 25
-3 -2 6 648.222 129.478 48
3 2 -5 859.621 105.695 59
-3 -2 5 1131.62 156.75 36
-3 -2 5 885.406 137.297 34
-3 -2 5 901.195 144.653 53
-3 -2 5 934.783 155.401 48
-3 -2 5 944.115 142.684 29
3 2 -5 1025.2 192.741 17
-3 -2 4 7100.68 355.043 36
-3 -2 4 7108.48 358.878 34
3 2 -4 8017.48 480.511 17
-3 -2 4 6937.03 345.119 53
-3 -2 4 6134.72 347.449 48
-3 -2 4 6764.83 333.396 29
3 2 -4 7932.85 464.694 2
-3 -2 4 6814.09 461.229 3
-3 -2 3 10810.7 456.821 4
-3 -2 3 10604.2 390.633 26
3 2 -3 11135.2 513.945 2
-3 -2 2 3069.28 190.191 26
3 2 -2 3452.48 262.577 2
-3 -2 2 3180.76 222.741 4
3 2 -2 3837.38 280.795 17
3 2 -1 2938.37 143.784 23
3 2 -1 2876.98 157.621 12
3 2 -1 3374.32 236.923 2
-3 -2 1 3191.36 201.889 4
3 2 -1 3055.34 159.898 25
3 2 0 105706 1166.45 2
-3 -2 0 102640 1037.44 4
-3 -2 -1 50877.2 827.656 1
-3 -2 -1 51340.5 844.471 15
3 2 2 1587.36 167.176 5
-3 -2 -2 1604.86 161.621 1
-3 -2 -2 1639.76 147.709 9
3 2 2 1703.38 121.272 2
-3 -2 -2 1504.63 163.148 15
-3 -2 -3 10423.9 447.288 21
-3 -2 -3 10792.4 424.617 9
3 2 3 10317.9 226.8 2
-3 -2 -3 10610.7 436.661 15
3 2 3 10814 389.585 5
3 2 3 10808.2 332.431 24
-3 -2 -4 7704.91 421.25 21
3 2 4 6888.84 285.309 7
-3 -2 -4 7437.89 394.872 14
3 2 4 7348.18 302.68 24
-3 -2 -5 5624.1 395.974 21
-3 -2 -5 4900.56 374.388 14
3 2 5 5792.23 296.009 24
-3 -2 -6 533.445 154.722 21
3 2 6 395.889 99.7259 55
3 2 6 453.76 104.756 31
3 2 6 302.552 70.1922 29
-3 -2 -6 474.366 159.778 20
-3 -2 -7 12746.8 644.222 21
-3 -2 -7 13456.1 485.26 28
3 2 7 13077.2 553.836 31
-3 -2 -7 14327.4 744.915 20
3 2 7 13708.6 455.187 29
3 2 7 13843.6 502.789 55
3 2 8 1961.44 188.149 53
-3 -2 -8 1817.33 284.929 20
3 2 8 2231.18 227.66 31
-3 -2 -8 2094.01 181.831 58
3 2 8 2470.37 188.808 29
-3 -2 -9 5873.66 262.164 51
3 2 9 6337.68 315.921 31
3 2 9 5934.66 251.832 29
-3 -2 -10 373.795 54.8954 59
3 2 10 256.783 38.6431 29
-3 -2 -10 274.771 48.3692 33
-3 -3 8 266.163 41.8816 43
-3 -3 7 7369.89 321.243 48
-3 -3 7 6830.77 287.189 29
3 3 -7 7528.72 282.323 46
3 3 -7 7274.43 285.183 25
3 3 -6 2281.04 170.018 23
-3 -3 6 2330.67 201.097 36
-3 -3 6 2267.5 223.141 48
-3 -3 6 2404.53 207.571 29
3 3 -6 2308.51 269.759 17
3 3 -6 2649.84 213.765 25
-3 -3 5 3274.13 262.541 36
-3 -3 5 3483.57 269.703 34
-3 -3 5 3527.39 283.041 48
-3 -3 5 3463.37 257.037 29
3 3 -5 3338.52 337.021 17
3 3 -5 4234.26 277.696 25
-3 -3 4 66.175 86.7115 36
-3 -3 4 -96.0723 93.8763 34
-3 -3 4 20.1225 66.056 53
-3 -3 4 79.9564 64.1995 48
-3 -3 4 87.0095 60.3156 29
3 3 -4 96.046 99.0064 17
-3 -3 4 207.294 104.639 4
-3 -3 4 -219.656 93.9888 3
3 3 -4 46.3175 91.8043 2
3 3 -3 14302.2 593.216 2
-3 -3 3 13464.8 555.849 4
3 3 -3 14831.7 620.016 17
-3 -3 2 605.969 117.381 4
3 3 -2 451.227 116.821 17
3 3 -2 456.408 82.7533 25
3 3 -2 437.737 105.595 2
3 3 -1 168323 1164.15 23
3 3 -1 167972 1413.72 12
-3 -3 1 168399 1636.67 4
3 3 -1 165076 1705.27 2
3 3 -1 167852 1184.22 25
3 3 0 73680.2 731.554 23
-3 -3 0 77623.4 1053.98 4
3 3 1 4280.63 183.771 23
-3 -3 -1 4724.4 244.523 1
3 3 1 4906.46 196.856 16
-3 -3 -1 4030.21 167.807 14
-3 -3 -1 4511.44 259.045 21
-3 -3 -2 30596.4 737.983 21
-3 -3 -2 28990.2 639.613 1
-3 -3 -2 30641.4 589.976 14
3 3 2 30386.5 606.741 6
3 3 3 17681.1 548.711 22
3 3 3 16537.2 439.648 5
-3 -3 -3 15832 586.885 21
-3 -3 -3 15624.9 514.047 14
3 3 3 16151.1 429.675 24
3 3 3 16669.7 424.75 6
-3 -3 -4 322.08 128.993 21
3 3 4 414.656 85.5565 24
-3 -3 -5 554.841 146.373 21
-3 -3 -5 689.19 154.339 20
3 3 5 737.612 116.026 24
-3 -3 -6 218.069 147.867 21
3 3 6 306.391 79.6094 55
3 3 6 604.987 133.846 31
-3 -3 -6 227.834 153.69 20
-3 -3 -6 138.672 72.08 28
3 3 6 201.269 69.2717 29
3 3 7 3516.94 293.82 31
-3 -3 -7 3673.82 267.52 58
3 3 7 3955.65 277.918 53
-3 -3 -7 3520.37 378.273 20
3 3 7 3548.65 229.967 29
-3 -3 -7 3414.15 259.15 28
3 3 7 3669.16 252.966 55
-3 -3 -8 10785.4 409.534 58
3 3 8 11448.3 397.225 55
3 3 8 10187.9 399.56 53
3 3 8 10874.2 469.185 31
-3 -3 -8 9441 594.396 20
3 3 8 10578.4 364.804 29
-3 -3 -8 10309.7 401.373 28
-3 -3 -9 621.011 97.3624 33
3 3 9 571.054 95.559 31
-3 -3 -9 554.661 87.4347 51
3 3 9 636.834 76.3417 29
3 4 -7 2113.1 136.897 46
3 4 -6 2913.61 194.13 23
-3 -4 6 2795.61 227.908 36
-3 -4 6 2432.84 201.421 29
-3 -4 6 2875.76 239.312 48
3 4 -6 2803.23 193.743 46
3 4 -6 3219.99 223.273 25
3 4 -5 -27.0459 90.9902 12
-3 -4 5 109.601 82.6801 36
-3 -4 5 48.9255 69.2517 48
-3 -4 5 228.767 85.5951 29
3 4 -5 334.576 129.976 17
3 4 -5 270.259 85.7258 25
-3 -4 4 11007 497.323 36
-3 -4 4 11553.1 497.536 48
-3 -4 4 12966.6 453.438 29
3 4 -4 13607.1 656.64 17
3 4 -4 14117 484.93 25
3 4 -3 100.977 70.4149 12
3 4 -3 29.9058 81.1229 17
3 4 -3 70.7829 59.1307 25
-3 -4 3 65.4341 101.909 4
3 4 -3 84.8613 60.3545 2
3 4 -2 9795.79 428.007 12
-3 -4 2 9765.43 491.374 4
3 4 -2 9832.06 479.7 17
3 4 -2 9700.72 339.885 25
3 4 -2 10075.5 486.117 2
3 4 -1 172.742 56.6712 23
3 4 -1 261.814 81.1045 12
-3 -4 1 249.049 92.7111 4
3 4 -1 224.122 56.2216 25
3 4 0 7765.55 343.627 12
3 4 0 7875.7 268.945 23
-3 -4 0 8234.79 399.046 4
3 4 1 15648.2 380.898 23
3 4 1 17658.2 538.763 22
-3 -4 -1 16595.5 553.009 4
3 4 1 16996.9 468.25 16
3 4 1 15747.4 530.325 6
3 4 2 11860.8 468.168 22
-3 -4 -2 12212 550.218 21
-3 -4 -2 11593.1 394.128 1
3 4 2 12623.8 460.642 6
-3 -4 -3 28484 904.157 21
3 4 3 29042.9 692.566 6
3 4 3 30505.7 612.924 24
3 4 4 1758.28 221.609 22
-3 -4 -4 1334.4 232.796 21
-3 -4 -4 1540.58 193.703 20
3 4 4 1725.51 157.449 24
-3 -4 -5 28151.4 894.793 20
3 4 5 26013.7 666.366 32
-3 -4 -5 27253.6 698.763 28
3 4 5 27497.4 649.558 24
-3 -4 -6 18932.8 812.534 20
3 4 6 21103.5 684.534 31
-3 -4 -6 20328 625.216 58
3 4 6 20317.2 569.897 55
3 4 6 20027.9 492.946 29
-3 -4 -6 20264.9 638.841 28
-3 -4 -6 19652.9 548.309 38
3 4 7 4051.21 243.442 55
3 4 7 4239.07 310.973 31
3 4 7 3685.26 209.972 29
-3 -4 -7 3733.2 280.677 28
-3 -4 -7 3709.12 269.806 58
-3 -4 -7 3169.66 344.379 20
-3 -4 -8 1920.8 179.779 58
3 4 8 2015.06 170.814 53
3 4 8 1864.53 189.645 31
-3 -4 -8 1907.32 180.496 51
3 4 8 1806.93 129.027 29
-3 -4 -9 1189.17 91.3899 59
3 4 9 1126.41 109.745 31
-3 -4 -9 1261.85 113.807 51
-3 -4 -9 1386.38 116.474 33
-3 -5 7 2224.65 150.516 43
3 5 -6 4563.92 235.092 23
-3 -5 6 4159.8 266.634 36
-3 -5 6 4324.58 272.076 43
3 5 -6 4564.23 238.342 25
3 5 -5 6869.67 322.02 23
-3 -5 5 4968.02 351.207 36
-3 -5 5 4860.8 269.814 29
3 5 -5 6590.44 320.256 25
3 5 -4 9068.16 491.446 12
3 5 -4 9869.12 394.624 23
-3 -5 4 7695.91 431.912 36
-3 -5 4 7956.63 421.65 48
3 5 -4 7735.03 504.499 17
3 5 -4 10810.2 410.336 25
3 5 -3 129.893 71.1968 23
3 5 -3 20.4942 78.3198 12
-3 -5 3 91.2487 88.0192 36
-3 -5 3 72.941 64.1661 48
3 5 -3 54.3026 98.2107 17
3 5 -3 122.731 79.113 2
3 5 -3 123.513 75.1585 25
-3 -5 3 153.707 145.569 4
3 5 -2 3999.42 305.936 12
3 5 -2 4002.79 234.746 23
-3 -5 2 3561.58 337.972 4
3 5 -2 3401.03 308.888 2
3 5 -2 3525.42 216.047 25
3 5 -1 5342.16 335.76 12
3 5 -1 5705.08 260.395 23
-3 -5 1 5621.88 397.546 4
3 5 0 5491.64 248.629 23
3 5 0 5657.28 373.116 6
-3 -5 0 5296.52 368.9 4
-3 -5 -1 18427.9 661.401 4
3 5 1 19147.9 663.432 22
3 5 1 19570.8 602.068 16
3 5 1 17797.9 643.434 6
3 5 1 17665.1 447.454 23
-3 -5 -2 215870 2241.34 4
3 5 2 197516 2125.77 6
3 5 3 20126.5 737.704 22
-3 -5 -3 19087.5 550.425 28
3 5 3 18678 650.314 6
3 5 3 19253.6 516.969 24
3 5 4 15895.2 706.511 22
-3 -5 -4 14305.2 483.552 58
3 5 4 13829.8 474.215 32
-3 -5 -4 13993 517.898 28
3 5 4 14105.6 447.503 24
-3 -5 -4 14013.2 478.778 38
3 5 5 2613.92 208.158 37
-3 -5 -5 2864.31 237.384 58
3 5 5 2350.72 192.344 55
-3 -5 -5 2503.96 219.594 51
3 5 5 2502.11 222.429 32
-3 -5 -5 2671.16 247.551 28
3 5 5 2656.37 197.423 24
-3 -5 -5 2651.18 223.222 38
-3 -5 -6 1373.31 178.46 58
-3 -5 -6 1352.57 177.957 51
-3 -5 -6 1383.29 190.758 28
-3 -5 -6 1183.04 156.881 38
-3 -5 -7 217.979 77.2008 38
3 5 7 141.135 77.2787 31
-3 -5 -7 168.122 95.4716 51
-3 -5 -7 78.086 70.7603 58
-3 -5 -8 996.467 126.979 51
3 5 8 676.589 87.2317 53
3 5 8 671.707 98.4359 31
-3 -5 -8 721.357 96.7101 33
-3 -5 -8 687.957 105.445 27
3 5 9 643.262 58.7164 31
-3 -5 -9 575.468 63.4526 51
-3 -5 -9 466.043 53.6885 33
-3 -6 7 280.17 43.1688 43
-3 -6 6 1241.3 139.405 36
-3 -6 6 1229.7 132.731 43
3 6 -5 708.067 105.981 23
-3 -6 5 572.438 131.358 36
-3 -6 5 793.357 126.222 44
-3 -6 5 752.69 134.846 43
3 6 -4 3407.11 233.609 23
-3 -6 4 3044.67 286.19 36
-3 -6 4 3331.65 276.266 44
-3 -6 4 3154.64 258.72 43
3 6 -3 97.9126 71.7266 23
3 6 -3 193.732 104.772 12
-3 -6 3 105.28 97.3303 36
-3 -6 3 208.116 97.0969 52
-3 -6 3 73.5533 73.5283 43
3 6 -2 10038.1 525.502 12
3 6 -2 10730.7 401 23
-3 -6 2 10201.8 476.917 36
-3 -6 2 9787.9 449.906 52
-3 -6 2 9934.15 427.211 43
3 6 -1 666.304 112.009 23
-3 -6 1 670.596 131.131 36
-3 -6 1 660.659 123.298 52
-3 -6 1 554.643 125.964 30
-3 -6 1 678.116 109.607 43
-3 -6 1 230.642 97.8637 4
3 6 0 1211.19 135.471 23
3 6 0 1396.88 213.814 6
-3 -6 0 1278.94 161.246 52
3 6 0 1652.74 229.966 22
3 6 0 1304.45 188.831 16
-3 -6 0 1277.85 209.659 4
3 6 1 7411.78 477.367 22
-3 -6 -1 7091.79 462.355 4
3 6 1 7461.38 445.043 16
3 6 1 6709.47 298.786 23
3 6 1 7016.82 458.085 6
3 6 2 3955.19 361.487 22
-3 -6 -2 3660.25 265.291 30
-3 -6 -2 3622.1 223.222 43
-3 -6 -2 3557.07 316.545 4
-3 -6 -2 3693.43 255.267 28
3 6 2 3583.1 235.771 24
3 6 2 3631 326.706 6
-3 -6 -2 3264.77 245.387 38
-3 -6 -3 24845.2 643.09 58
3 6 3 23475.4 878.331 22
3 6 3 22808.5 625.68 32
-3 -6 -3 23823.9 664.439 30
-3 -6 -3 26564.6 737.512 28
-3 -6 -3 23032.6 571.879 43
3 6 3 22568.7 554.463 24
3 6 3 21833 792.816 6
-3 -6 -3 22053.1 782.802 4
-3 -6 -3 24205.8 679.486 38
3 6 4 14841.3 481.367 37
3 6 4 14435.6 715.31 22
3 6 4 14263.4 507.503 32
-3 -6 -4 13076.8 490.656 30
-3 -6 -4 13905.1 475.483 51
-3 -6 -4 13817.4 513.868 58
-3 -6 -4 14404.7 567.369 28
-3 -6 -4 14859.5 462.622 43
-3 -6 -4 13622.8 526.831 38
3 6 5 17228.5 530.8 37
-3 -6 -5 16883.1 583.862 58
-3 -6 -5 16628.9 552.103 51
-3 -6 -5 17560.9 634.585 28
3 6 5 15734.7 546.309 32
-3 -6 -5 15957.4 568.957 38
-3 -6 -6 6211.81 350.845 58
3 6 6 6108.74 340.135 31
-3 -6 -6 6359.91 331.699 51
3 6 6 6098.4 278.785 41
-3 -6 -6 6230.14 281.562 33
-3 -6 -6 6021.32 330.504 38
-3 -6 -7 3000.99 206.86 51
-3 -6 -7 2541.31 165.387 33
-3 -6 -7 2657.63 206.179 27
-3 -6 -7 2830.13 184.121 38
3 6 7 2902.26 207.78 31
3 6 8 8402.02 248.267 31
-3 -6 -8 8556.86 263.343 27
-3 -7 6 6202.51 209.878 43
-3 -7 5 24845.2 633.014 36
-3 -7 5 25960.9 541.262 44
-3 -7 5 25415.7 563.943 43
3 7 -5 25481.1 456.367 39
3 7 -4 1732.91 157.589 23
-3 -7 4 2531.59 260.971 36
-3 -7 4 2597.89 222.879 43
-3 -7 4 1543.6 192.105 44
3 7 -3 12749.3 432.519 23
-3 -7 3 12332.6 543.008 36
-3 -7 3 11834.1 526.328 44
-3 -7 3 12623.6 482.911 43
3 7 -2 61.8042 64.4653 23
-3 -7 2 120.229 110.291 36
-3 -7 2 8.63201 80.2263 44
3 7 -2 151.584 86.0325 16
-3 -7 2 136.639 90.8083 43
3 7 -1 2369.95 191.165 23
-3 -7 1 2227.74 222.917 36
3 7 -1 2372.12 306.192 22
-3 -7 1 1937.49 217.457 30
-3 -7 1 2289.94 239.22 44
3 7 -1 2306.66 276.751 16
-3 -7 1 2223.99 212.978 43
-3 -7 0 1073.93 152.945 36
3 7 0 817.67 113.157 23
-3 -7 0 1083.14 166.617 30
-3 -7 0 1062.04 150.99 44
-3 -7 0 864.063 129.459 43
3 7 0 1064.22 206.941 16
3 7 0 1177.27 230.519 22
3 7 1 6600.42 495.927 22
-3 -7 -1 7987.51 427.707 30
-3 -7 -1 8452.33 373.074 44
-3 -7 -1 7513.33 356.522 43
3 7 1 6638.81 330.594 55
-3 -7 -1 7383.9 390.486 38
3 7 2 7358.52 519.225 22
-3 -7 -2 7313.75 347.255 43
-3 -7 -2 6733.3 356.824 27
-3 -7 -2 7401.37 411.707 30
-3 -7 -2 7243.13 400.868 38
3 7 3 17012.5 776.586 22
-3 -7 -3 16572.3 602.685 30
-3 -7 -3 17525.8 525.664 43
-3 -7 -3 15574.2 573.494 27
3 7 3 17195.9 557.613 32
-3 -7 -3 17379.8 620.042 38
3 7 4 3362.25 235.196 37
3 7 4 2989.24 329.575 22
-3 -7 -4 3252.14 257.884 30
-3 -7 -4 3371.14 228.171 43
-3 -7 -4 3247.84 266.906 27
3 7 4 3038.47 236.49 32
-3 -7 -4 3365.51 274.662 38
3 7 5 3808.2 247.122 32
3 7 5 4480.11 253.41 37
-3 -7 -5 3867.11 234.179 51
-3 -7 -5 4100.7 292.426 27
3 7 5 4089.18 233.322 41
-3 -7 -5 3998 282.607 38
-3 -7 -6 6081.25 267.622 51
3 7 6 5669.27 278.367 31
-3 -7 -6 6615.77 324.374 27
3 7 6 5905.21 233.565 41
-3 -7 -6 5832.65 291.394 38
-3 -7 -7 5484.69 203.157 51
-3 -7 -7 5306.41 232.419 27
3 7 7 4927.84 193.523 31
-3 -8 5 720.877 75.5933 43
-3 -8 4 905.995 125.41 44
-3 -8 4 1120.53 121.242 43
-3 -8 3 3189.45 278.697 44
-3 -8 3 5308.22 299.716 43
3 8 -2 2049.05 272.636 22
-3 -8 2 2346.92 226.096 44
-3 -8 2 2317.8 203.301 43
3 8 -1 416.343 162.395 22
-3 -8 1 398.422 104.038 30
3 8 -1 524.764 105.228 55
-3 -8 1 620.087 131.337 44
3 8 -1 756.865 176.996 16
-3 -8 1 562.185 112.454 43
-3 -8 0 532.691 138.505 30
3 8 0 63.1942 112.4 22
-3 -8 0 399.239 110.153 44
-3 -8 0 194.312 75.7037 43
3 8 1 27375.1 955.45 22
-3 -8 -1 26038.3 769.877 30
-3 -8 -1 25408.9 632.924 43
3 8 2 1717.47 251.857 22
3 8 2 1942.96 188.248 32
-3 -8 -2 1822.55 213.012 30
-3 -8 -2 1749.97 172.082 43
-3 -8 -2 1769.29 196.549 38
-3 -8 -3 710.57 140.126 38
3 8 3 732.561 111.436 37
-3 -8 -3 605.717 123.05 30
3 8 3 541.795 100.978 32
3 8 3 790.361 160.903 22
-3 -8 -3 625.806 119.671 27
-3 -8 -3 515.911 96.2007 43
3 8 4 6318.66 273.138 37
3 8 4 6698.91 297.108 32
-3 -8 -4 6857.48 276.449 43
-3 -8 -4 6348.82 319.946 27
-3 -8 -4 6709.51 349.781 38
3 8 5 22596.3 490.075 31
3 8 5 22988.8 453.23 41
-3 -8 -6 7374.63 228.26 38
3 8 6 6524.05 184.377 31
-3 -9 3 5531.07 207.27 43
-3 -9 2 5471.04 237.891 43
-3 -9 1 1216.01 133.47 30
-3 -9 1 1242.26 128.502 43
3 9 0 13805.5 400.281 32
-3 -9 0 12743.5 455.854 30
-3 -9 0 13408.7 396.471 43
3 9 1 2648.66 179.546 32
-3 -9 -1 2858.6 183.355 43
3 9 2 1301.81 115.767 37
3 9 2 1006.36 107.161 32
-3 -9 -2 1166.96 145.441 30
-3 -9 -2 1397.77 123.537 43
-3 -9 -2 1194.74 128.646 38
3 9 3 140.997 40.0127 37
-3 -9 -3 166.767 60.8961 30
3 9 3 100.754 46.1567 32
-3 -9 -3 227.758 51.7881 43
-3 -9 -3 167.137 71.6924 38
3 9 4 1395.92 90.388 37
3 9 4 1850.64 108.929 41
3 9 4 1609.14 100.622 31
-3 -9 -4 1647.89 127.202 38
-3 -10 0 1441.07 79.7653 43
4 -6 2 4973.58 168.288 35
4 -6 3 705.948 70.8149 35
-4 5 2 86.7965 26.8343 36
-4 5 2 124.157 39.7962 34
4 -5 -2 137.391 44.2736 50
4 -5 -1 366.087 75.8036 50
4 -5 0 3879.98 184.25 35
4 -5 0 4303.47 241.347 50
4 -5 0 3840.71 184.412 45
-4 5 0 4335.13 217.438 26
4 -5 1 3661.18 213.922 35
4 -5 1 3451.27 231.122 50
4 -5 1 3480.7 197.065 45
-4 5 -1 3491.35 202.35 26
4 -5 2 1360.67 134.974 45
4 -5 2 1729.37 168.141 35
4 -5 3 51.0505 65.7961 35
4 -5 3 89.9676 56.1383 45
4 -5 3 25.5368 56.6797 42
4 -5 4 3272.74 217.547 35
4 -5 4 3576.71 200.259 45
4 -5 4 3483.06 218.613 42
4 -5 5 1302.52 121.137 35
4 -5 5 1290.25 115.956 45
4 -5 6 388.935 56.6686 45
-4 4 3 3894.45 157.565 36
4 -4 -3 3352.97 184.198 50
-4 4 3 3465.17 159.379 48
4 -4 -2 840.173 100.779 59
4 -4 -2 759.331 114.374 50
-4 4 2 764.646 91.6916 48
4 -4 -2 826.431 106.355 45
-4 4 2 866.99 106.546 26
4 -4 -1 14.3939 59.805 59
4 -4 -1 16.1016 67.8275 50
4 -4 -1 30.3094 53.3639 45
-4 4 1 0.97476 43.6625 48
-4 4 1 -26.2568 44.1226 26
-4 4 0 -12.6097 82.0793 19
-4 4 0 -3.18257 128.642 18
4 -4 0 119.541 86.4311 50
4 -4 0 43.6619 63.2715 45
-4 4 0 33.3063 52.3936 26
4 -4 0 -10.9457 55.2906 35
4 -4 1 4911.61 292.159 35
4 -4 1 4183.77 308.702 50
-4 4 -1 4745.4 408.183 19
-4 4 -1 4711.38 396.249 18
4 -4 1 3932.21 274.854 45
-4 4 -1 4049.22 261.687 26
4 -4 2 5842.62 356.116 50
-4 4 -2 5530.19 453.234 19
-4 4 -2 5937.45 442.652 18
4 -4 2 6098.8 345.223 45
4 -4 2 6114.21 334.216 42
-4 4 -2 5672.45 297.778 26
4 -4 2 6386.54 352.247 35
-4 4 -3 14204.8 724.796 19
4 -4 3 13691.5 509.701 45
4 -4 3 14494.4 519.755 42
4 -4 3 14501.6 532.938 35
4 -4 4 3663.24 264.49 35
4 -4 4 3613.49 286.804 49
-4 4 -4 3461.24 339.566 19
4 -4 4 3996.86 266.103 45
4 -4 4 3959.02 272.948 42
4 -4 5 2298.06 197.481 35
4 -4 5 2489.62 219.223 49
4 -4 5 2599.25 202.455 45
4 -4 5 2545.87 209.386 42
4 -4 6 773.69 99.5448 35
4 -4 6 860.875 113.079 45
4 -4 6 841.465 109.807 42
4 -4 6 910.069 141.975 49
4 -4 7 1448.16 137.581 49
4 -4 7 1386.24 117.447 45
-4 3 4 4707.24 209.758 34
4 -3 -4 4971.51 222.781 57
4 -3 -4 4537.28 211.342 59
4 -3 -4 4603.15 198.386 50
-4 3 4 4452.91 203.668 48
-4 3 3 8575.56 311.599 36
-4 3 3 8905.61 349.524 34
4 -3 -3 8706.47 353.865 50
-4 3 3 7952.87 321.445 48
4 -3 -3 9080.53 366.886 57
-4 3 3 8524.54 331.265 26
4 -3 -3 8917.2 360.526 59
4 -3 -2 4657 294.702 59
4 -3 -2 5318.92 314.67 57
4 -3 -2 5174.75 317.755 50
-4 3 2 4335.27 250.548 48
-4 3 2 4995.91 303.05 26
-4 3 1 3932.26 350.063 18
4 -3 -1 4255.78 299.077 59
4 -3 -1 5254.75 336.779 50
4 -3 -1 4305.29 296.912 57
-4 3 1 4177.11 353.704 19
-4 3 1 4358.03 249.396 48
-4 3 1 4625.71 286.412 26
4 -3 0 61.1961 62.3403 35
4 -3 0 222.24 105.961 50
-4 3 0 107.373 115.653 19
4 -3 0 140.066 107.495 59
-4 3 0 87.869 127.569 18
4 -3 0 216.254 109.941 57
-4 3 0 212.389 79.429 26
4 -3 1 1174.65 162.101 59
4 -3 1 1493.87 168.052 35
4 -3 1 1533.23 195.032 50
-4 3 -1 1495.86 251.307 19
-4 3 -1 1342.41 226.468 18
4 -3 1 1319.79 182.644 45
4 -3 1 1496.73 167.028 42
-4 3 -2 1696.12 250.704 18
4 -3 2 1643.9 198.741 50
4 -3 2 1999.57 203.367 35
4 -3 2 1918.13 203.448 45
4 -3 2 1871.25 191.59 42
-4 3 -2 1874.39 252.806 13
4 -3 3 319.373 103.22 50
4 -3 3 290.021 151.833 49
4 -3 3 276.742 77.0848 47
-4 3 -3 274.174 145.144 18
4 -3 3 203.119 82.9335 45
4 -3 3 248.697 86.0281 42
4 -3 3 159.983 74.685 35
-4 3 -3 261.355 104.577 13
4 -3 4 3744.83 273.67 35
4 -3 4 3776.03 253.35 49
4 -3 4 4004.65 249.852 47
4 -3 4 3964.92 275.845 45
4 -3 4 4121.49 286.553 42
-4 3 -4 3456.27 329.387 13
4 -3 5 5014.1 298.975 35
4 -3 5 4908.91 288.592 49
4 -3 5 4817.66 272.331 47
4 -3 5 5154.14 302.917 45
4 -3 5 5259.3 313.412 42
4 -3 5 4964.08 281.386 40
4 -3 6 548.757 113.249 49
4 -3 6 538.522 107.613 35
4 -3 6 630.99 100.935 47
4 -3 6 692.341 114.681 45
4 -3 6 562.964 93.859 42
4 -3 6 388.906 93.2196 40
4 -3 7 4654.52 245.037 49
4 -3 7 4329.61 226.453 47
4 -3 7 4397.94 237.66 45
4 -3 7 4606.98 252.058 40
4 -3 8 945.048 96.9288 49
4 -3 8 888.438 93.7953 47
4 -3 8 1089.43 105.905 45
4 -2 -5 7158.61 258.274 59
-4 2 5 6798.01 229.99 34
4 -2 -5 7099.21 258.294 57
-4 2 5 6630.69 247.978 48
-4 2 4 6571.8 268.33 36
4 -2 -4 7195.75 329.452 59
4 -2 -4 6872.65 325.788 57
-4 2 4 6712.74 304.411 34
4 -2 -4 6373.72 275.487 50
-4 2 4 6637.48 305.856 48
-4 2 4 6387.68 281.557 26
4 -2 -3 11802.1 474.457 59
-4 2 3 11551.4 449.269 34
4 -2 -3 12393.1 481.606 57
4 -2 -3 11467.7 444.39 50
-4 2 3 10611.4 424.247 48
-4 2 3 11121.3 422.91 26
4 -2 -2 3651.25 282.538 59
4 -2 -2 3311.83 264.252 57
4 -2 -2 3209.97 255.63 50
-4 2 2 2824.43 275.187 19
-4 2 2 3185.21 231.688 48
-4 2 2 3239.43 245.145 26
4 -2 -1 24204.5 725.708 59
4 -2 -1 25018.8 720.786 57
4 -2 -1 24373.2 705.421 50
-4 2 1 24970.9 885.39 19
-4 2 1 26132.6 681.558 26
4 -2 0 6223.63 363.4 59
4 -2 0 6010.55 340.325 57
4 -2 0 5941.39 344.54 50
4 -2 0 5134.39 408.232 8
-4 2 0 6150.96 450.14 19
-4 2 0 5606 421.427 18
-4 2 0 5772.61 312.149 26
4 -2 1 1025.61 145.955 57
4 -2 1 1118.78 150.142 50
4 -2 1 1389.43 202.139 8
-4 2 -1 830.764 175.072 19
-4 2 -1 913.676 179.863 18
4 -2 1 1176 166.104 59
4 -2 1 1057.5 133.775 42
4 -2 1 998.884 188.831 7
4 -2 2 770.972 113.21 35
4 -2 2 719.195 119.09 50
4 -2 2 763.514 159.48 49
-4 2 -2 763.041 168.11 18
4 -2 2 654.628 117.359 45
4 -2 2 667.178 108.219 42
4 -2 2 801.367 173.017 7
-4 2 -2 828.329 162.903 13
4 -2 3 406.051 83.8419 35
4 -2 3 361.082 84.3326 50
4 -2 3 476.658 103.052 49
-4 2 -3 406.336 114.906 18
4 -2 3 474.732 108.539 45
4 -2 3 319.701 82.7097 42
4 -2 3 386.406 115.443 7
-4 2 -3 322.119 108.391 13
4 -2 4 2781.29 219.429 35
4 -2 4 2912.96 206.917 49
4 -2 4 2861.25 223.191 47
4 -2 4 2597.9 215.114 45
4 -2 4 3077.62 236.238 42
4 -2 4 2940.18 204.818 40
-4 2 -4 2649.76 277.708 13
4 -2 5 20080 575.96 35
-4 2 -5 20217.7 870.819 9
4 -2 5 19729.7 551.866 49
4 -2 5 20368.9 593.541 47
4 -2 5 21374.3 600.172 45
4 -2 5 20086.8 579.745 42
-4 2 -5 20395 850.22 15
4 -2 5 20452 555.724 40
4 -2 6 18773.9 526.741 35
4 -2 6 18407.4 536.648 49
4 -2 6 19840.9 565.027 47
4 -2 6 19319.9 556.236 45
4 -2 6 19175.6 557.629 40
4 -2 7 770.46 114.683 49
4 -2 7 812.434 117.119 47
4 -2 7 872.854 118.596 45
4 -2 7 672.858 113.155 40
4 -2 8 5104.31 222.053 49
4 -2 8 5674.95 256.446 47
4 -2 8 5212.43 240.126 45
4 -2 8 5222.42 262.334 40
4 -2 9 262.145 55.3987 40
4 -1 -6 352.353 56.0895 59
4 -1 -6 261.717 48.3065 57
-4 1 6 324.271 55.8186 48
-4 1 5 1087.16 105.651 36
4 -1 -5 909.321 124.821 59
-4 1 5 1059.47 121.051 34
4 -1 -5 1068.49 130.884 57
-4 1 5 1136.69 133.32 48
-4 1 5 897.472 98.0912 26
-4 1 4 20342.1 536.114 36
-4 1 4 20726 586.543 34
4 -1 -4 22082 611.41 57
-4 1 4 20337.5 598.263 48
4 -1 -4 21460.6 547.247 46
-4 1 4 19462.6 544.581 26
4 -1 -4 22135.3 615.282 59
-4 1 3 5955.85 311.038 36
4 -1 -3 5922.82 338.937 59
4 -1 -3 5524.47 298.461 50
-4 1 3 5154.51 306.216 48
4 -1 -3 5940.96 311.842 46
-4 1 3 5540.08 324.661 34
-4 1 3 5350.74 308.503 26
4 -1 -2 34927.4 814.158 59
4 -1 -2 32129.7 732.256 50
-4 1 2 31808.4 926.061 19
-4 1 2 30991.3 710.757 48
4 -1 -2 34582.4 764.274 46
-4 1 2 31617.5 738.9 26
-4 1 1 18194.4 720.565 18
4 -1 -1 20685.9 616.142 59
4 -1 -1 20457.6 599.058 57
4 -1 -1 19414.5 558.736 50
4 -1 -1 19289 788.198 8
-4 1 1 19409.9 742.385 19
-4 1 1 19357.4 551.786 26
4 -1 0 19322.5 752.655 8
-4 1 0 19122.4 812.111 18
-4 1 0 20577.6 540.276 26
4 -1 1 1519.44 197.2 8
-4 1 -1 1426.11 209.403 19
-4 1 -1 1257.01 189.628 18
4 -1 1 1305.79 206.155 7
-4 1 -1 1344.42 134.457 26
-4 1 -2 1646.87 222.677 19
4 -1 2 1405.62 161.674 8
-4 1 -2 1362.3 182.558 18
4 -1 2 1193.38 200.712 7
-4 1 -2 1395.19 123.788 26
-4 1 -2 1306.27 182.242 13
-4 1 -3 228.249 102.928 19
-4 1 -3 220.533 87.0846 18
4 -1 3 225.554 110.349 7
-4 1 -3 130.428 84.2315 13
-4 1 -4 37133.3 970.632 19
-4 1 -4 39511.7 1093.04 1
4 -1 4 37167.5 1107.6 7
-4 1 -4 35492.3 866.662 13
4 -1 5 8972.12 363.822 35
-4 1 -5 9527.08 575.61 1
-4 1 -5 9190.16 564.759 9
4 -1 5 9756.1 356.465 49
4 -1 5 9722.72 391.983 47
4 -1 5 9749.82 373.277 45
4 -1 5 8870.26 345.023 42
-4 1 -5 9871.17 568.766 15
4 -1 5 8945.23 535.295 7
4 -1 5 9291.08 355.323 40
-4 1 -6 258.602 160.494 21
-4 1 -6 99.6912 91.5352 9
4 -1 6 233.178 74.6275 49
4 -1 6 359.147 99.4557 47
4 -1 6 179.639 55.9905 29
4 -1 6 132.614 71.7915 45
4 -1 6 198.833 69.1949 40
4 -1 7 10665.8 381.875 49
4 -1 7 11868.8 425.887 47
4 -1 7 11199.4 392.498 45
4 -1 7 10537.9 427.643 40
4 -1 7 11561.3 405.191 29
4 -1 8 4674.65 253.055 47
4 -1 8 4360.69 229.729 29
4 -1 8 4476.38 228.709 45
4 -1 8 4489.34 265.767 40
4 -1 9 734.455 89.975 47
4 -1 9 650.779 91.1615 40
4 0 -6 2253.59 145.775 59
4 0 -6 1769.81 123.757 57
-4 0 6 2298.79 162.55 48
4 0 -6 2253.68 138.242 46
-4 0 5 9827.63 349.154 36
4 0 -5 10397.7 383.009 59
4 0 -5 10385.7 375.422 46
-4 0 5 9925.61 406.298 48
-4 0 5 9934.35 385.704 34
4 0 -5 10457.7 383.852 57
-4 0 4 15360.9 500.323 36
4 0 -4 13151.6 479.795 59
-4 0 4 15278.3 534.824 34
-4 0 4 15779.9 554.175 48
4 0 -4 13457.7 479.917 46
-4 0 4 15735.9 514.286 26
-4 0 3 5733.48 312.856 36
4 0 -3 5534.72 320.019 59
-4 0 3 5158.08 312.439 34
-4 0 3 5195.21 313.523 48
4 0 -3 6081.29 331.248 46
-4 0 3 5033.07 302.226 26
4 0 -2 13936 479.576 59
4 0 -2 12221.4 631.896 8
-4 0 2 11405.4 418.907 48
-4 0 2 12834 465.016 34
4 0 -2 14138.4 487.121 46
-4 0 2 13188.1 457.584 26
4 0 -1 18564.8 727.673 5
4 0 -1 17849.4 717.955 8
-4 0 1 17851.5 680.062 19
-4 0 1 16976.9 492.954 26
4 0 0 7332.25 469.36 5
4 0 0 7242.26 423.473 8
-4 0 0 7988.12 444.715 19
-4 0 0 7280.07 299.1 26
4 0 1 8210.96 421.812 8
-4 0 -1 9393.38 470.91 19
4 0 1 8948.13 515.945 5
-4 0 -1 9246.14 453.895 18
-4 0 -1 8871.88 302.238 26
4 0 2 14594 464.926 8
-4 0 -2 13530.1 503.027 18
4 0 2 13952.9 621.203 7
-4 0 -3 578.566 140.409 1
-4 0 -3 717.158 133.491 19
4 0 3 566.039 128.086 7
-4 0 -4 914.559 145.99 19
-4 0 -4 851.146 163.365 15
4 0 4 761.751 160.464 7
-4 0 -5 207.627 137.723 1
-4 0 -5 129.645 120.473 9
-4 0 -5 210.973 127.427 15
4 0 5 66.009 73.532 7
4 0 6 901.662 128.9 55
-4 0 -6 835.244 192.686 9
4 0 6 1116.32 135.392 47
-4 0 -6 1086.81 208.897 21
4 0 6 802.388 101.754 45
4 0 6 1419.51 184.951 7
-4 0 -6 1084.22 211.257 14
4 0 7 6365.92 355.894 55
4 0 7 5141.15 306.643 31
4 0 7 6435.86 310.514 47
4 0 7 6003.42 314.715 29
4 0 7 5922.9 270.561 45
-4 0 -7 5610.28 472.631 14
-4 0 -8 7861.19 537.192 20
4 0 8 8003.79 325.814 47
4 0 8 7836.43 336.342 29
4 0 9 2423.72 155.267 47
4 0 9 2246.99 162.476 40
4 0 10 6456.02 165.696 29
-4 -1 7 1603.95 97.5782 48
4 1 -7 1462.92 80.7233 46
-4 -1 6 1661.61 154.472 48
4 1 -6 1549.14 126.587 59
-4 -1 6 1565.1 130.086 34
4 1 -6 1707.27 143.971 46
-4 -1 5 1152.9 140.025 36
4 1 -5 1194.37 137.607 59
-4 -1 5 1059.07 139.932 34
4 1 -5 1142.65 128.481 57
-4 -1 5 942.919 142.762 48
-4 -1 5 1127.45 150.814 29
4 1 -5 1265.59 146.197 46
4 1 -5 1165.43 133.784 25
-4 -1 4 3684.12 261.472 36
-4 -1 4 3989.22 285.585 34
-4 -1 4 3433.92 269.444 48
-4 -1 4 3495.84 268.87 29
4 1 -4 4051.79 275.993 46
-4 -1 4 3908.2 268.524 26
4 1 -4 3830.33 249.909 59
4 1 -4 4125.47 253.889 25
-4 -1 3 71990.9 1108.1 36
4 1 -3 63689.9 981.343 59
4 1 -3 62861.4 1443.81 8
-4 -1 3 69513.6 1125.61 48
-4 -1 3 77698.3 1201 29
4 1 -3 60496 1026.59 46
-4 -1 3 74324.5 1141.29 26
4 1 -3 61816.5 961.379 25
-4 -1 3 71426.9 1151.59 34
4 1 -2 4523.66 374.726 5
-4 -1 2 4140.25 256.012 26
4 1 -2 4918.54 248.331 25
4 1 -1 22353.7 814.823 5
-4 -1 1 21608.9 531.985 26
4 1 -1 23500.5 499.495 25
4 1 0 23750.6 833.921 5
-4 -1 0 26137 766.785 19
4 1 0 26766.6 704.406 2
-4 -1 0 24259.9 512.882 26
-4 -1 -1 48288 654.256 4
-4 -1 -1 46311.9 978.375 19
4 1 1 46873 835.628 2
4 1 2 5558.5 396.251 5
4 1 2 5383.6 266.561 8
-4 -1 -2 6291.67 362.706 19
-4 -1 -2 5881.56 366.158 1
4 1 2 5303.45 234.482 24
-4 -1 -3 89.5253 67.5973 19
-4 -1 -3 77.3808 81.8542 15
-4 -1 -3 51.1054 65.8723 1
4 1 3 24.2979 36.372 24
-4 -1 -4 1929.52 225.72 9
-4 -1 -4 1951.12 247.192 1
4 1 4 2077.36 223.148 7
-4 -1 -4 2054.82 232.441 15
4 1 4 1829.16 164.906 24
-4 -1 -5 435.729 152.503 1
-4 -1 -5 490.492 216.466 9
-4 -1 -5 66.0696 119.781 21
-4 -1 -5 34.0076 91.7305 15
4 1 5 -14.6463 77.2923 24
4 1 5 52.7532 69.7416 7
4 1 6 4804.03 307.124 55
-4 -1 -6 5434.17 429.622 21
4 1 6 5247.76 264.45 47
4 1 6 5380.79 304.917 39
-4 -1 -6 5367.21 439.168 14
-4 -1 -7 25435.8 912.765 21
4 1 7 27707.7 615.356 47
4 1 7 26649.9 740.074 55
4 1 7 26475.8 663.478 29
4 1 8 3756.76 282.4 31
-4 -1 -8 3762.09 387.972 20
4 1 8 4234.4 261.08 47
4 1 8 3804.98 243.295 29
4 1 9 1453.54 152.979 31
4 1 9 1790.83 147.384 29
4 1 10 1216.91 86.3423 29
-4 -2 7 340.763 68.6877 48
4 2 -7 553.798 70.6563 46
-4 -2 6 1363.6 126.886 36
4 2 -6 1600.88 151.092 46
-4 -2 6 1626.12 163.407 48
4 2 -6 1503.49 134.799 25
-4 -2 5 1554.7 172.177 36
4 2 -5 1532.66 141.821 59
-4 -2 5 1383.18 164.246 34
-4 -2 5 1579.22 185.682 48
-4 -2 5 1540.63 174.285 29
4 2 -5 1601.36 170.09 46
4 2 -5 1686.9 164.546 25
-4 -2 4 5607.24 331.571 36
4 2 -4 5622.78 281.498 59
-4 -2 4 5617.47 340.817 34
-4 -2 4 5613.34 341.838 48
-4 -2 4 5322.53 326.308 29
4 2 -4 5897.95 325.787 46
4 2 -4 6032.59 321.223 25
4 2 -3 865.618 170.066 2
-4 -2 3 1013.42 142.107 36
-4 -2 3 819.699 136.623 34
-4 -2 3 969.597 136.152 56
-4 -2 3 921.115 142.152 48
4 2 -3 1087.72 136.441 46
-4 -2 3 787.682 129.263 29
-4 -2 3 1164.15 151.135 26
4 2 -3 1218.15 146.218 25
4 2 -2 163.433 82.7375 2
4 2 -2 90.2889 39.0732 23
-4 -2 2 92.4497 66.1376 26
4 2 -2 136.481 52.6879 25
4 2 -1 4283.68 208.344 23
4 2 -1 4538.74 314.522 2
-4 -2 1 4003.22 244.374 4
-4 -2 1 3804.91 223.948 26
4 2 -1 4647.62 232.151 25
4 2 0 1388.91 123.093 23
4 2 0 1325.6 161.942 2
-4 -2 0 1251.44 134.392 4
-4 -2 0 1181.41 112.791 26
-4 -2 0 1291.47 157.566 15
4 2 0 973.516 106.97 25
4 2 1 18219.5 734.512 5
4 2 1 22099.1 573.35 2
-4 -2 -1 21295.2 510.206 4
-4 -2 -1 20992.8 639.526 15
4 2 1 19222.8 437.97 23
4 2 2 7648.13 448.712 5
4 2 2 6890.93 284.609 2
-4 -2 -2 7208.96 391.331 1
-4 -2 -2 7385.96 398.071 15
4 2 2 8041.98 316.143 24
4 2 3 40793.1 974.012 5
-4 -2 -3 38046.3 860.086 9
-4 -2 -3 36771.9 929.104 1
-4 -2 -3 42011.9 974.186 15
4 2 3 42045.3 742.033 24
-4 -2 -4 3186.26 303.7 1
-4 -2 -4 3412.86 313.432 21
-4 -2 -4 3542.02 292.531 9
4 2 4 3366.04 260.108 7
-4 -2 -4 3481.4 297.681 15
4 2 4 3518.2 235.299 24
-4 -2 -5 879.632 186.075 21
4 2 5 974.202 139.043 24
-4 -2 -5 921.133 174.937 14
-4 -2 -6 137.194 158.389 21
4 2 6 97.8904 77.1455 55
4 2 6 69.6319 69.1645 31
4 2 6 87.5849 37.4207 47
4 2 6 102.622 97.2597 39
-4 -2 -7 444.451 173.45 21
4 2 7 245.313 97.8822 55
4 2 7 278.441 102.417 31
-4 -2 -7 254.855 160.943 20
4 2 7 261.463 67.9013 47
4 2 7 363.588 91.7141 29
4 2 8 2259.81 202.106 55
4 2 8 2098.65 215.675 31
-4 -2 -8 2130.55 294.559 20
4 2 8 2031.32 147.252 47
4 2 8 2114.66 183.144 29
-4 -2 -8 2306.31 196.921 28
4 2 9 3549.84 235.949 31
4 2 9 3343.51 192.323 29
4 2 10 5528.62 171.035 29
-4 -2 -10 3837.48 147.507 33
-4 -3 7 6407.59 221.168 48
4 3 -7 6217.85 195.131 46
-4 -3 6 23283.3 613.109 48
4 3 -6 23436.6 529.894 46
4 3 -6 23085.2 523.928 25
-4 -3 5 3903.77 277.008 36
-4 -3 5 3361.29 260.784 34
-4 -3 5 3609.2 280.457 48
-4 -3 5 3591.38 261.342 29
4 3 -5 3822.74 247.044 46
4 3 -5 4104.29 261.94 25
4 3 -4 622.397 99.4197 23
-4 -3 4 535.842 130.213 36
-4 -3 4 557.021 116.364 34
-4 -3 4 470.458 110.647 48
-4 -3 4 415.787 106.578 29
4 3 -4 464.271 102.234 46
4 3 -4 589.033 121.654 25
4 3 -3 231.051 75.5075 2
4 3 -3 123.976 63.6697 23
-4 -3 3 90.4886 71.3413 36
-4 -3 3 103.457 79.5847 34
-4 -3 3 -97.73 60.9428 56
-4 -3 3 142.082 69.0667 48
-4 -3 3 79.3546 73.7886 29
4 3 -3 63.5451 51.1497 46
4 3 -3 15.7943 65.0061 25
4 3 -2 1003.49 118.196 23
4 3 -2 971.272 161.354 2
-4 -3 2 1070.7 162.375 4
4 3 -2 1132.87 130.327 25
4 3 -1 32085.5 582.084 23
4 3 -1 34120.9 864.64 2
-4 -3 1 33349.5 788.783 4
4 3 -1 30948.5 611.837 25
4 3 0 127738 1131.27 23
4 3 0 130836 1575.89 2
-4 -3 -1 2174.39 198.736 21
-4 -3 -1 1634.4 141.754 9
-4 -3 -1 1857.28 182.072 4
4 3 1 1837.59 177.454 2
4 3 1 1756.94 146.564 23
4 3 2 49340.1 1084.65 5
-4 -3 -2 49245.6 987.725 1
-4 -3 -2 46556.1 827.241 9
4 3 2 53100.8 847.447 2
-4 -3 -2 51428 1029.69 21
-4 -3 -3 140.538 90.1355 21
4 3 3 140.346 69.6465 5
-4 -3 -3 135.554 86.8531 1
-4 -3 -3 163.337 74.6864 14
4 3 3 139.118 62.0965 24
-4 -3 -4 379.419 120.153 1
-4 -3 -4 316.589 127.842 21
-4 -3 -4 456.261 131.852 14
4 3 4 328.516 91.4398 24
-4 -3 -5 1373.85 232.131 21
-4 -3 -5 867.424 182.093 14
4 3 5 1074.78 150.61 24
-4 -3 -6 172.343 58.1799 38
-4 -3 -6 439.032 190.016 21
4 3 6 239.339 87.8577 55
4 3 6 291.379 87.4115 31
-4 -3 -6 382.058 153.999 20
4 3 6 309.294 90.7678 24
4 3 6 153.286 58.047 39
-4 -3 -7 54.2422 95.5732 21
4 3 7 86.4964 71.6073 55
4 3 7 16.2586 70.8914 31
-4 -3 -7 -23.6854 110.31 20
4 3 7 35.5537 59.5782 29
-4 -3 -7 116.235 76.3784 28
-4 -3 -8 739.383 124.658 58
4 3 8 661.936 111.951 55
4 3 8 597.607 122.953 31
-4 -3 -8 404.032 119.078 20
4 3 8 661.952 105.303 29
-4 -3 -8 880.586 130.006 28
-4 -3 -9 14.4492 42.8509 58
-4 -3 -9 -15.8774 54.4835 51
4 3 9 62.0403 35.3028 29
4 3 9 21.6792 53.5332 31
-4 -3 -10 28.0246 30.7251 33
4 4 -7 1062.29 69.744 46
-4 -4 7 1124.62 85.2945 43
-4 -4 6 3607.44 213.394 36
-4 -4 6 4114.07 247.894 48
4 4 -6 3447.06 194.065 46
4 4 -6 3645.86 207.19 25
4 4 -5 3320.36 206.808 23
-4 -4 5 3633.7 278.125 36
-4 -4 5 3542.55 272.427 48
4 4 -5 3997.82 239.158 46
4 4 -5 4074.47 259.624 25
4 4 -4 345.07 87.4714 23
-4 -4 4 356.873 103.461 36
-4 -4 4 484.426 120.384 48
-4 -4 4 261.255 84.5538 29
4 4 -4 388.814 85.0863 46
4 4 -4 370.202 102.016 25
4 4 -3 1466.57 153.531 23
-4 -4 3 1407.1 187.107 36
-4 -4 3 1208.73 168.389 34
-4 -4 3 1482.79 149.18 54
-4 -4 3 1278.99 160.408 48
-4 -4 3 1398.33 163.11 29
4 4 -3 1691.96 160.039 46
4 4 -3 1606.38 168.577 25
-4 -4 3 1157.08 199.591 4
4 4 -2 203.968 75.3828 23
4 4 -2 137.731 63.0323 12
-4 -4 2 32.0023 81.8272 4
4 4 -2 141.983 75.5493 25
4 4 -2 121.895 81.2098 2
4 4 -1 3485.62 245.781 12
4 4 -1 3591.96 213.873 23
-4 -4 1 3527.84 293.661 4
4 4 -1 3013.95 213.731 25
4 4 -1 3373.02 288.582 2
4 4 0 75810.9 939.525 23
4 4 0 76382.9 1278.63 2
4 4 1 1816.71 177.408 22
-4 -4 -1 2005.49 206.339 21
-4 -4 -1 1653.94 193.472 4
4 4 1 1697.71 183.268 2
4 4 1 1706.4 151.993 23
4 4 2 12833.1 473.773 22
-4 -4 -2 12358.2 556.648 21
-4 -4 -2 12430.6 480.176 1
4 4 3 8397.73 413.343 22
4 4 3 8301.14 388.988 5
-4 -4 -3 7819.55 488.962 21
-4 -4 -3 7609.77 407.547 1
-4 -4 -3 7193.98 364.698 14
4 4 3 8303 360.992 24
4 4 4 12069.2 559.538 22
-4 -4 -4 13008 670.491 21
4 4 4 13259.5 469.548 24
-4 -4 -5 11878 676.944 21
4 4 5 11768.8 450.297 55
-4 -4 -5 13001.6 600.429 20
4 4 5 12111 459.279 32
4 4 5 12770.7 484.266 24
-4 -4 -5 12443.4 433.13 38
-4 -4 -6 66207.2 1664.98 21
4 4 6 67647.9 1109.77 55
-4 -4 -6 66260.4 1479.22 20
4 4 6 69667.9 1245.38 31
4 4 6 64622.5 938.379 29
-4 -4 -6 68004.6 1166.68 28
4 4 6 65847.7 938.111 39
4 4 6 69183.9 1139.75 24
-4 -4 -6 65662.3 1026.53 38
4 4 7 978.519 135.105 55
4 4 7 977.458 162.634 31
-4 -4 -7 888.459 193.951 20
4 4 7 1022.36 118.925 29
-4 -4 -7 899.311 154.882 28
-4 -4 -7 1003.06 130.271 38
4 4 8 649.98 97.3799 55
4 4 8 827.286 134.51 31
-4 -4 -8 905.721 139.989 58
4 4 8 897.171 101.962 29
-4 -4 -8 826.745 128.535 28
4 4 9 647.154 92.7749 31
-4 -4 -9 608.695 95.401 51
4 4 9 540.494 61.2695 29
-4 -4 -9 554.4 80.912 58
-4 -5 6 3865.9 212.695 36
4 5 -6 3884.61 160.079 46
-4 -5 6 4409.9 228.104 43
4 5 -5 1317.56 136.06 23
-4 -5 5 836.346 142.468 36
-4 -5 5 1263.76 167.851 48
4 5 -5 986.943 116.239 46
4 5 -5 1035.75 128.877 25
4 5 -4 12936.6 443.876 23
-4 -5 4 12024.5 512.729 48
4 5 -4 12601.4 463.81 25
4 5 -3 7922 424.458 12
4 5 -3 8851.2 375.634 23
-4 -5 3 7763.89 418.397 36
-4 -5 3 7816.61 405.222 48
4 5 -3 9031.52 385.692 25
4 5 -2 1860.26 209.103 12
4 5 -2 2203.96 190.215 23
-4 -5 2 1649.04 191.448 36
-4 -5 2 1788.09 249.44 4
-4 -5 2 2032.31 193.36 48
4 5 -2 1761.98 175.95 25
4 5 -2 1894.02 241.387 2
4 5 -1 635.515 104.99 23
4 5 -1 627.749 134.041 2
-4 -5 1 598.919 148.779 4
4 5 0 67.8162 59.048 23
4 5 0 125.606 66.2881 2
-4 -5 0 -61.0256 96.0007 4
4 5 1 5108.73 347.528 22
-4 -5 -1 4357.29 352.232 4
4 5 1 4864.04 293.115 16
4 5 1 4271.68 248.656 23
4 5 2 20083.4 695.3 22
-4 -5 -2 19419.7 786.245 21
-4 -5 -2 20018.5 727.564 4
4 5 3 22706.3 700.179 6
4 5 3 22565.5 771.706 22
-4 -5 -3 21374.7 888.379 21
-4 -5 -3 21556.7 573.746 28
4 5 3 22898.7 619.954 24
4 5 4 4466.15 366.205 22
-4 -5 -4 4298.35 454.923 21
4 5 4 4133.03 268.486 32
-4 -5 -4 4077.86 245.131 30
-4 -5 -4 4437.45 289.217 28
4 5 4 4436.17 276.752 55
4 5 4 4588.33 287.082 24
-4 -5 -4 4276.72 272.88 38
4 5 5 32836.4 779.633 32
4 5 5 32595.2 746.371 55
-4 -5 -5 31349.5 798.562 28
4 5 5 33643.9 767.452 24
-4 -5 -5 32328.3 755.576 38
-4 -5 -6 2943.85 249.273 58
4 5 6 2987.51 238.349 55
-4 -5 -6 3115.47 269.462 28
4 5 6 2620.77 216.555 24
-4 -5 -6 2725.03 230.839 38
-4 -5 -7 442.176 93.1595 38
-4 -5 -7 630.816 126.747 58
4 5 7 494.897 93.6466 55
4 5 7 457.355 107.112 31
-4 -5 -7 564.144 136.873 28
-4 -5 -7 540.766 115.058 51
-4 -5 -8 3480.54 226.214 58
4 5 8 3405.3 174.812 55
-4 -5 -8 3448.29 224.253 51
4 5 8 3458.52 231.501 31
-4 -5 -8 3333.33 224.763 28
-4 -5 -9 109.783 41.3668 33
4 5 9 129.19 40.3638 31
-4 -5 -9 116.735 43.872 51
-4 -6 6 1110.72 104.339 36
-4 -6 6 1364.48 110.397 43
4 6 -6 1119.23 99.1865 39
4 6 -5 9533.25 330.493 23
-4 -6 5 9607.43 405.249 36
-4 -6 5 9540.85 372.307 43
4 6 -4 5933.54 300.303 23
-4 -6 4 5162.81 356.717 36
-4 -6 4 5910.15 330.589 43
4 6 -3 8178.34 448.634 12
4 6 -3 10166.4 405.834 23
-4 -6 3 9195.2 474.851 36
-4 -6 3 8699.22 424.261 52
-4 -6 3 9934.44 439.802 43
4 6 -2 5450.75 301.406 23
-4 -6 2 4867.33 343.607 36
-4 -6 2 4729.76 314.54 52
-4 -6 2 4853.02 305.936 43
4 6 -1 14579.5 476.209 23
-4 -6 1 13487.1 520.391 36
-4 -6 1 13014.2 513.423 52
-4 -6 1 11930.3 473.094 30
-4 -6 1 13613.5 471.037 43
4 6 -1 13123.8 439.431 39
4 6 0 3528.99 238.509 23
-4 -6 0 3231.19 238.04 36
4 6 0 4026.51 346.318 22
-4 -6 0 3438.93 258.877 52
-4 -6 0 3273.79 334.653 4
-4 -6 0 3271.22 249.201 30
4 6 0 3705.75 299.745 16
-4 -6 0 3253.7 218.042 43
4 6 1 1702.99 230.069 22
4 6 1 1518.6 167.387 55
-4 -6 -1 1648.42 171.514 52
-4 -6 -1 1901.27 193.109 30
4 6 1 1500.56 194.081 16
-4 -6 -1 1413.66 211.417 4
4 6 1 1576.2 166.93 23
4 6 2 3056.04 305.304 6
4 6 2 3895.45 345.519 22
-4 -6 -2 4560.47 273.32 52
-4 -6 -2 3998.81 281.021 30
-4 -6 -2 4265.27 375.576 4
4 6 2 3837.37 262.308 55
4 6 2 3818.93 273.882 24
-4 -6 -2 4802.07 291.225 38
-4 -6 -3 194.22 99.7478 38
4 6 3 42.4006 47.9688 6
4 6 3 341.379 121.933 22
4 6 3 68.9224 66.1297 32
-4 -6 -3 143.645 83.3736 30
-4 -6 -3 156.566 86.4403 28
-4 -6 -3 36.0414 55.0409 4
4 6 3 192.451 86.1507 55
4 6 3 138.598 78.391 24
4 6 4 13333.3 661.289 22
-4 -6 -4 12858.8 476.19 58
4 6 4 12132 456.392 55
4 6 4 12755.2 487.026 32
-4 -6 -4 11821.5 464.468 30
-4 -6 -4 12727 514.196 28
4 6 4 13740.5 478.826 24
-4 -6 -4 12534.4 493.924 38
4 6 5 9488.42 394.928 55
-4 -6 -5 9161.24 423.313 58
4 6 5 9129.78 427.366 32
-4 -6 -5 8698.72 389.796 51
-4 -6 -5 9247.05 453.804 28
4 6 5 8974.24 375.801 24
-4 -6 -5 9532.49 436.946 38
-4 -6 -6 9284.84 424.745 58
4 6 6 8888.58 349.335 55
-4 -6 -6 9232.13 396.157 51
-4 -6 -6 9145.25 443.335 28
-4 -6 -6 8857.53 404.07 38
-4 -6 -7 10402.5 331.447 33
-4 -6 -7 11138.8 416.341 58
4 6 7 10693.8 419.668 31
-4 -6 -7 11022.7 395.649 51
-4 -6 -7 10490 377.482 38
4 6 8 5954.39 247.669 31
-4 -6 -8 6672.54 248.322 51
-4 -6 -8 6047.35 252.835 27
-4 -7 5 3368.97 213.237 36
4 7 -5 2741.22 154.393 39
4 7 -4 5614.49 265.483 23
-4 -7 4 5173.95 324.054 36
-4 -7 4 5563.78 300.623 44
-4 -7 4 5710.32 288.764 43
4 7 -4 5225.72 248.38 39
4 7 -3 14273 460.941 23
-4 -7 3 12992.1 542.92 36
-4 -7 3 13317.4 480.505 43
4 7 -3 13124.1 420.378 39
4 7 -2 9604.3 396.891 23
-4 -7 2 9078.83 460.494 36
4 7 -2 9669.15 523.878 16
-4 -7 2 9054.61 408.439 43
-4 -7 2 8234.93 437.169 52
4 7 -1 12.7929 77.5236 23
-4 -7 1 90.3855 88.0067 36
4 7 -1 152.086 117.045 22
-4 -7 1 142.733 94.3945 52
-4 -7 1 3.82504 64.8363 30
4 7 -1 91.3479 84.1415 16
-4 -7 1 38.9177 66.5974 43
-4 -7 0 1933.38 200.002 36
4 7 0 2082.17 286.055 22
-4 -7 0 1998.15 220.892 52
-4 -7 0 1865.78 220.592 30
4 7 0 2165.45 248.644 16
-4 -7 0 1996.38 187.517 43
4 7 0 1915.3 183.694 23
4 7 1 3517.65 360.472 22
4 7 1 3321.85 259.524 55
-4 -7 -1 4578.93 309.323 52
-4 -7 -1 4299.49 315.144 30
4 7 1 3598.6 333.12 16
-4 -7 -1 4002.43 254.08 43
-4 -7 -1 3777.91 263.565 38
-4 -7 -2 97.7075 94.1794 38
4 7 2 63.1721 93.9674 22
4 7 2 115.611 62.29 55
-4 -7 -2 102.369 77.6996 30
-4 -7 -2 201.419 69.9758 43
4 7 2 76.4897 71.4051 24
-4 -7 -3 552.134 128.802 38
4 7 3 377.002 91.063 55
4 7 3 531.028 118.61 32
4 7 3 551.535 161.191 22
-4 -7 -3 615.648 128.759 30
-4 -7 -3 595.473 99.0323 43
4 7 3 418.169 86.3956 24
4 7 4 6400.32 295.665 37
4 7 4 6939.99 484.505 22
-4 -7 -4 6664.16 340.752 58
4 7 4 6532.8 314.376 55
4 7 4 6836.64 356.88 32
-4 -7 -4 6471.47 359.274 30
-4 -7 -4 6456.95 374.537 38
-4 -7 -5 856.788 144.915 38
4 7 5 753.838 104.548 37
4 7 5 879.394 132.894 32
-4 -7 -5 773.664 120.125 30
-4 -7 -5 820.003 129.737 58
-4 -7 -6 5212.89 286.193 58
-4 -7 -6 5095.01 245.73 51
4 7 6 5099.48 286.977 31
-4 -7 -6 4416.95 267.975 38
-4 -7 -7 8982.38 270.903 51
-4 -7 -7 9024.8 324.631 27
4 7 7 8509.08 302.28 31
-4 -7 -7 8588.73 284.349 38
4 8 -5 46.2978 30.2433 55
-4 -8 4 2097.47 169.728 44
-4 -8 4 4606.1 214.872 43
-4 -8 3 5282.32 314.039 36
-4 -8 3 5115.25 293.388 44
-4 -8 3 5328.26 263.855 43
4 8 -3 5180.2 246.468 23
-4 -8 2 2583.26 231.296 36
4 8 -2 2374.92 268.534 22
-4 -8 2 2195.73 215.788 44
-4 -8 2 2779.13 208.062 43
4 8 -2 2210.88 177.094 23
-4 -8 1 4842.36 307.123 36
4 8 -1 4487.4 384.73 22
-4 -8 1 3777.89 275.236 30
-4 -8 1 4392.46 305.64 44
-4 -8 1 4536.15 270.019 43
4 8 -1 4777.42 290.717 55
4 8 -1 3973.52 244.04 23
4 8 0 4698.33 400.023 22
4 8 0 4431.89 281.743 55
-4 -8 0 4577.56 322.31 30
4 8 0 3784.34 327.825 16
-4 -8 0 5302.67 325.687 44
-4 -8 0 5495.48 294.82 43
4 8 1 2475.04 206.887 55
4 8 1 2433.41 293.173 22
-4 -8 -1 2533.26 247.739 30
-4 -8 -1 2347.71 202.12 44
-4 -8 -1 2468.9 198.739 43
4 8 2 4197.38 372.732 22
4 8 2 3883.98 237.534 55
4 8 2 3914.59 264.934 32
-4 -8 -2 3648.59 290.648 30
-4 -8 -2 4099.93 242.997 43
-4 -8 -2 3602.92 270.651 38
-4 -8 -3 24.6261 96.4326 38
4 8 3 10.6712 57.455 37
4 8 3 47.5566 69.3493 32
-4 -8 -3 -52.2693 76.3057 30
4 8 3 91.6036 75.2607 22
-4 -8 -3 50.2075 52.341 43
-4 -8 -4 142.611 95.996 38
4 8 4 122.142 48.0946 37
4 8 4 -51.614 72.5713 22
4 8 4 156.755 76.1267 32
-4 -8 -4 135.31 66.5961 30
-4 -8 -4 99.5929 74.0212 27
-4 -8 -4 165.358 61.4887 43
4 8 5 10341.3 352.795 32
-4 -8 -5 9492.91 318.418 30
-4 -8 -5 10527.4 382.7 27
4 8 5 10512.5 299.984 41
-4 -8 -5 10027.2 386.95 38
4 8 6 4936.19 214.333 31
-4 -8 -6 5372.61 234.966 27
-4 -8 -6 5105.59 230.257 38
4 9 -3 938.842 86.5949 55
-4 -9 3 2349.29 129.988 43
4 9 -2 2711.9 158 55
-4 -9 2 2571.2 185.005 44
-4 -9 2 2931.65 167.86 43
4 9 -1 3128.19 180.274 55
-4 -9 1 3306.61 214.371 44
-4 -9 1 3572.52 200.105 43
4 9 0 24254.1 479.064 55
-4 -9 0 25083 627.24 30
-4 -9 0 25107.3 554.729 44
-4 -9 0 26016.8 538 43
4 9 1 5378.98 263.808 32
-4 -9 -1 4967.96 298.065 30
-4 -9 -1 5398.78 244.669 43
4 9 2 199.801 69.1948 32
-4 -9 -2 74.4858 73.5789 30
-4 -9 -2 161.631 56.8467 43
-4 -9 -2 195.513 73.0329 38
4 9 3 3143.4 187.177 32
-4 -9 -3 2648.55 202.775 30
-4 -9 -3 2915.79 153.113 43
-4 -9 -3 2702.08 190.742 38
-4 -9 -4 260.789 77.7357 38
-4 -9 -4 278.004 65.639 30
4 9 4 346.321 63.7594 32
4 9 4 321.768 55.5592 41
4 9 5 1773.16 101.897 31
-4 -9 -5 1872.28 119.68 38
4 10 0 75.7456 29.3775 32
-4 -10 0 82.4206 29.088 43
4 10 1 141.919 39.601 32
-4 -10 -1 177.236 34.3622 43
4 10 2 1736.58 90.2963 32
5 -5 3 6365.05 181.141 35
5 -5 3 4994.8 144.638 45
-5 4 1 164.861 47.5879 34
-5 4 1 138.149 44.6581 36
5 -4 -1 108.515 43.4995 50
5 -4 -1 83.7956 35.636 45
-5 4 0 1728.95 131.793 34
5 -4 0 1799.23 148.354 50
5 -4 0 1541.94 127.08 45
5 -4 1 175.102 49.5276 35
5 -4 1 81.6978 49.4131 45
5 -4 2 119.801 52.0448 35
5 -4 2 27.5737 56.1241 45
5 -4 3 1632.95 153.141 35
5 -4 3 1406.84 150.688 45
5 -4 4 3916.65 221.977 35
5 -4 4 3727.22 219.657 45
5 -4 5 184.029 66.3869 35
5 -4 5 77.7064 47.3324 45
5 -4 6 556.859 73.0017 45
-5 3 3 3675.6 155.093 34
5 -3 -3 3141.31 124.126 45
-5 3 2 5988.22 235.316 36
5 -3 -2 5857.14 245.019 59
-5 3 2 6093.57 251.565 34
5 -3 -2 5778.74 244.059 50
5 -3 -2 6050.85 250.219 45
-5 3 2 5826.42 240.273 26
-5 3 1 8410.47 334.896 34
5 -3 -1 8340.25 337.705 59
5 -3 -1 8640.81 354.129 50
5 -3 -1 7926.22 344.613 45
-5 3 1 7651.78 315.747 26
5 -3 0 309.94 98.2752 50
5 -3 0 197.887 87.7008 45
-5 3 0 212.073 66.344 26
5 -3 1 40.0866 37.4098 35
5 -3 1 115.161 77.2118 50
-5 3 -1 -75.76 135.769 19
5 -3 1 -20.0152 68.4073 45
-5 3 -1 144.887 56.1157 26
5 -3 2 3017.56 218.424 35
5 -3 2 2827.16 247.595 50
-5 3 -2 2466.79 299.725 19
-5 3 -2 2312.6 273.678 18
5 -3 2 2681.94 244.97 45
-5 3 -2 2559.61 191.314 26
5 -3 3 79.616 66.4673 35
-5 3 -3 259.565 135.666 19
5 -3 3 167.534 57.4503 47
5 -3 3 58.6599 70.6567 45
5 -3 4 2329.24 204.746 35
5 -3 4 2107.75 167.304 47
5 -3 4 2173.35 203.124 45
5 -3 5 3008.66 219.253 35
5 -3 5 2674.31 183.76 47
5 -3 5 3221.18 231.115 45
5 -3 6 7799.75 278.99 47
5 -3 6 9422.45 340.794 45
5 -3 7 1457.92 108.886 47
5 -3 7 1769.84 128.793 45
5 -2 -4 3324.28 148.167 59
-5 2 4 3164.72 143.607 34
-5 2 3 1824.35 136.339 36
5 -2 -3 1931.79 159.053 59
-5 2 3 1815.01 150.546 34
5 -2 -3 1526.84 118.343 50
-5 2 3 1553.53 116.735 48
5 -2 -3 1800.22 153.661 57
-5 2 3 1602 134.58 26
-5 2 3 1461.83 107.524 56
-5 2 2 306.313 88.869 36
5 -2 -2 155.454 80.8696 59
5 -2 -2 183.652 92.1811 57
5 -2 -2 234.244 71.4892 50
-5 2 2 171.396 65.4742 26
-5 2 2 308.014 82.1964 34
5 -2 -1 28.2706 82.2809 59
5 -2 -1 64.3467 78.5131 57
5 -2 -1 119.493 78.3853 50
-5 2 1 192.425 96.3406 19
-5 2 1 51.8466 58.0725 26
5 -2 0 16727.6 605.42 59
5 -2 0 17944.7 603.972 50
5 -2 0 17545.8 598.016 57
-5 2 0 15667.5 719.195 19
-5 2 0 16729.4 535.902 26
5 -2 1 122.385 91.8497 59
5 -2 1 97.3255 57.0905 35
5 -2 1 85.784 86.8124 50
-5 2 -1 337.973 121.34 19
-5 2 -1 178.563 73.0138 26
5 -2 2 10624.1 412.397 35
5 -2 2 11156 475.743 50
-5 2 -2 9670.22 608.79 19
-5 2 -2 9095.72 546.692 18
5 -2 2 10326.2 491.133 45
-5 2 -2 9231.08 377.005 26
5 -2 3 1098.32 156.849 35
-5 2 -3 1066.17 220.989 19
-5 2 -3 1341.71 197.603 18
5 -2 3 1050.33 156.031 45
5 -2 4 139.132 87.4511 35
-5 2 -4 107.536 90.5898 19
5 -2 4 74.8249 70.7663 47
5 -2 4 82.5855 61.9965 45
5 -2 4 60.1056 57.7625 42
5 -2 5 553.543 143.281 49
5 -2 5 526.261 110.505 35
5 -2 5 627.414 114.201 47
5 -2 5 539.565 104.6 45
-5 2 -5 774.495 165.62 15
5 -2 6 2585.01 195.44 49
5 -2 6 2798.09 212.099 47
5 -2 6 2790.23 207.713 45
5 -2 7 2480.16 170.112 49
5 -2 7 2512.96 178.723 47
5 -2 7 2713.21 182.453 45
5 -2 8 6151.65 228.873 47
5 -2 8 5687.41 208.618 45
5 -1 -5 37.6072 25.4294 59
-5 1 5 3.14674 22.5374 34
-5 1 4 3103.95 166.725 36
-5 1 4 2915.25 180.379 34
5 -1 -4 3179.62 191.603 57
-5 1 4 2834.42 167.081 48
-5 1 4 2719.34 163.426 26
5 -1 -4 3114.69 189.148 59
-5 1 3 1080.66 136.317 36
5 -1 -3 1142.16 148.288 59
-5 1 3 1006.44 130.897 34
5 -1 -3 977.651 138.848 57
-5 1 3 948.349 119.13 48
5 -1 -3 1004.46 119.999 46
-5 1 3 1189.43 141.074 26
-5 1 2 16217.9 510.676 36
5 -1 -2 16020.8 558.168 59
-5 1 2 16264.2 535.088 34
5 -1 -2 17120.3 564.744 57
5 -1 -2 16333.5 496.215 50
-5 1 2 14435.4 455.535 48
5 -1 -2 15634.6 491.72 46
-5 1 2 15408.1 513.573 26
5 -1 -1 67432.9 1188.58 59
5 -1 -1 71008.3 1201.97 57
5 -1 -1 65598.1 1080.8 50
-5 1 1 67701.8 1475.75 19
5 -1 -1 61966.4 1048.89 46
-5 1 1 62915.4 1113.07 34
-5 1 1 74159.9 1164.37 26
5 -1 0 7823.79 401.645 57
5 -1 0 8268.34 392.263 50
-5 1 0 7992.88 528.155 19
5 -1 0 7655.44 405.612 59
5 -1 0 6682.16 358.82 46
-5 1 0 7696.13 366.631 26
5 -1 1 9074.16 431.604 59
5 -1 1 9845.57 425.776 50
-5 1 -1 8933.19 561.309 19
5 -1 1 8425.04 393.652 46
-5 1 -1 8725.75 378.092 26
5 -1 2 6290.14 299.631 35
5 -1 2 6605.8 346.581 50
-5 1 -2 6641.59 485.9 19
5 -1 2 5629.46 315.195 46
5 -1 2 6373.62 369.394 45
-5 1 -2 5700.68 287.588 26
5 -1 3 327.224 99.4315 35
-5 1 -3 270.995 127.677 19
5 -1 3 175.763 61.8722 46
5 -1 3 204.487 77.7188 45
5 -1 4 2074.05 188.13 35
5 -1 4 1874.73 184.804 49
-5 1 -4 1846.87 252.99 19
5 -1 4 1862.16 184.839 45
5 -1 5 17278.3 527.362 35
-5 1 -5 16280.5 798.286 9
5 -1 5 16415.5 464.046 49
5 -1 5 18584.7 579.127 47
5 -1 5 18442.1 544.138 45
-5 1 -5 16605.7 802.437 15
5 -1 6 1136.52 125.9 49
5 -1 6 1256.82 154.948 47
5 -1 6 1291.94 146.226 45
5 -1 6 930.905 113.351 40
5 -1 7 5517.22 285.732 47
5 -1 7 5193.55 254.403 45
5 -1 7 5238.9 247.544 40
5 -1 8 35.0577 55.0285 47
5 -1 8 56.6616 44.7586 45
5 -1 9 37.7618 35.0054 47
5 0 -5 2437.71 144.262 59
-5 0 5 2947.29 157.888 34
-5 0 5 3076.59 163.496 48
5 0 -5 2311.46 125.543 46
5 0 -5 1952.93 123.4 57
-5 0 4 459.38 87.6285 36
-5 0 4 414.254 95.0761 34
5 0 -4 376.907 85.7115 57
5 0 -4 401.75 90.716 59
-5 0 4 347.851 83.0449 48
5 0 -4 411.606 90.4575 46
-5 0 4 423.272 89.4987 26
-5 0 3 2641.46 211.768 36
5 0 -3 2655.06 221.739 59
-5 0 3 2753.9 199.368 56
-5 0 3 2684.41 225.243 34
5 0 -3 2774.09 225.008 57
-5 0 3 2256.68 192.962 48
5 0 -3 2394.3 202.689 46
-5 0 3 2459.89 210.543 26
5 0 -2 2659.97 231.312 57
-5 0 2 2700.54 220.411 36
5 0 -2 2981.09 244.972 59
-5 0 2 2639.71 226.624 34
-5 0 2 2400.52 196.424 48
5 0 -2 2707.18 230.043 46
-5 0 2 2553.53 222.529 26
5 0 -1 9214.62 429.767 59
-5 0 1 9155.44 405.283 34
5 0 -1 9700.03 421.272 57
5 0 -1 9433.15 375.489 50
5 0 -1 8909.34 429.001 46
-5 0 1 8817.44 398.598 26
5 0 0 7795.62 379.679 59
5 0 0 8289.86 382.384 57
5 0 0 8039.4 343.695 50
5 0 0 6855.85 483.844 8
-5 0 0 8388.33 533.874 19
5 0 0 7531.71 391.886 46
-5 0 0 8310.98 381.097 26
5 0 1 4717.23 283.239 59
5 0 1 4876.03 273.431 50
5 0 1 3872.14 323.823 8
-5 0 -1 4735.66 390.628 19
5 0 1 4917.23 284.821 57
5 0 1 4521.89 288.445 46
5 0 1 3438.49 366.203 7
-5 0 -1 4962.72 270.313 26
-5 0 -2 11570.7 602.587 19
-5 0 -2 10744.7 364.95 26
-5 0 -3 6392.93 447.526 19
5 0 3 7292.3 360.485 46
5 0 3 5914.14 489.424 7
5 0 4 1237.69 138.891 35
-5 0 -4 1554.12 237.863 1
-5 0 -4 865.063 165.95 19
5 0 4 1114.92 149.449 46
5 0 4 980.368 124.299 45
-5 0 -4 1259.15 229.538 15
5 0 4 1133.23 138.189 39
5 0 4 945.11 197.95 7
5 0 5 47864.3 837.973 35
-5 0 -5 45065.4 1267.44 9
5 0 5 51881 935.99 47
5 0 5 48857.2 823.682 45
-5 0 -5 49985.1 1346.79 15
5 0 5 48072.6 926.515 39
5 0 6 102.548 62.5665 55
5 0 6 39.9066 70.663 47
5 0 6 40.9105 67.1211 45
-5 0 -6 17.8522 108.238 15
5 0 6 20.1892 67.2609 39
-5 0 -7 2433.8 294.968 21
5 0 7 2353.54 194.055 47
5 0 7 1953.05 177.255 29
5 0 7 2100.36 158.097 45
5 0 8 1114.99 123.567 47
5 0 8 1190.47 123.695 29
5 0 8 946.269 96.9738 45
5 0 9 4125.59 183.399 47
5 0 9 4326.38 182.612 29
-5 -1 5 2300.83 151.395 36
5 1 -5 2251.59 148.115 59
-5 -1 5 2466.51 166.4 34
5 1 -5 1729.39 122.756 57
-5 -1 5 2234.53 165.748 48
5 1 -5 2291.7 159.67 46
-5 -1 4 344.293 93.5068 36
5 1 -4 349.128 94.1068 59
-5 -1 4 410.008 102.82 34
-5 -1 4 329.721 92.9805 48
5 1 -4 349.79 94.9686 46
5 1 -4 227.382 76.6342 57
-5 -1 3 1562.64 177.32 36
5 1 -3 1398.87 163.228 59
-5 -1 3 1331.98 168.117 34
5 1 -3 1629.61 170.934 57
-5 -1 3 1140.8 147.488 48
5 1 -3 1582.64 179.285 46
-5 -1 3 1297.74 163.011 26
5 1 -3 1248.76 136.783 25
-5 -1 3 1454.02 154.28 56
-5 -1 2 11664.5 453.008 36
5 1 -2 13095.4 481.95 59
5 1 -2 13086.9 470.152 57
-5 -1 2 11193.7 429.675 48
5 1 -2 13397.6 508.552 46
-5 -1 2 11814.8 469.853 26
-5 -1 2 11944.6 475.253 34
5 1 -1 6330.62 485.843 5
-5 -1 1 6320.08 321.126 36
5 1 -1 6722.22 332.88 59
-5 -1 1 6170.97 323.92 34
5 1 -1 6266.1 315.543 57
5 1 -1 6556.27 468.238 8
5 1 -1 7008.31 361.461 46
-5 -1 1 6295.09 332.789 26
5 1 0 3359.69 370.936 5
5 1 0 2887.33 297.694 8
-5 -1 0 2740.46 209.686 26
5 1 1 31700.4 1118.93 5
5 1 1 30432.8 897.342 8
-5 -1 -1 36572.6 1044.82 19
-5 -1 -1 35738.1 688.058 26
-5 -1 -2 35284.2 982.981 19
-5 -1 -3 4635.16 351.235 19
-5 -1 -3 4519.51 379.821 1
5 1 3 3971.04 378.823 7
-5 -1 -3 4801.51 402.509 15
5 1 4 5755.54 445.587 7
5 1 4 5584.24 306.664 24
-5 -1 -5 2162.38 286.759 1
5 1 5 1866.68 183.134 55
-5 -1 -5 1814.1 268.897 9
5 1 5 2024.94 181.601 47
-5 -1 -5 1988.67 269.441 15
5 1 5 2265.54 270.141 7
5 1 5 2059.57 194.597 39
-5 -1 -6 22.4 127.155 21
-5 -1 -6 80.723 136.956 9
5 1 6 48.6394 50.6452 47
5 1 6 1.28969 81.545 55
5 1 6 7.47333 74.744 39
-5 -1 -6 217.051 151.06 14
5 1 7 904.137 152.357 55
5 1 7 852.113 115.12 47
5 1 7 867.14 130.812 29
-5 -1 -7 1007.13 225.993 14
-5 -1 -7 1018.95 223.703 21
-5 -1 -8 2370.63 295.528 20
5 1 8 2260.18 165.489 47
5 1 8 2255.81 184.387 29
5 1 9 93.1626 43.6202 47
5 1 9 43.6331 46.5718 29
-5 -2 6 1893.5 113.455 48
5 2 -6 1811.09 108.561 46
-5 -2 5 2855.13 188.311 36
-5 -2 5 2753.94 195.498 34
-5 -2 5 2541.5 189.353 48
5 2 -5 3071.88 197.659 46
-5 -2 4 48.6883 68.028 36
5 2 -4 77.7304 54.6756 59
-5 -2 4 18.1707 60.4096 34
-5 -2 4 62.0867 56.5295 48
5 2 -4 17.1074 66.1774 46
5 2 -4 50.5431 54.6689 25
5 2 -4 -31.3226 47.8296 39
-5 -2 3 3515.55 266.261 36
5 2 -3 3071.26 214.193 59
-5 -2 3 3382.44 263.644 34
-5 -2 3 3591.99 239.314 56
-5 -2 3 3575.66 262.72 48
5 2 -3 2978.94 210.608 57
5 2 -3 2734.43 233.291 46
5 2 -3 3031.46 223.918 25
5 2 -3 2506.56 215.286 39
-5 -2 2 1317.39 162.98 36
5 2 -2 1645.11 157.114 59
-5 -2 2 1672.05 183.339 34
5 2 -2 1594.91 154.886 57
-5 -2 2 1464.97 163.838 56
-5 -2 2 1521.18 154.644 54
-5 -2 2 1423.3 154.982 48
5 2 -2 1549.8 178.253 46
-5 -2 2 1593.86 178.255 26
5 2 -2 1816.58 175.74 25
5 2 -2 1629.69 178.218 39
5 2 -1 2291.12 316.038 5
-5 -2 1 2152.59 184.065 36
-5 -2 1 2410.68 203.312 34
5 2 -1 2681.13 212.107 46
5 2 -1 2488.26 263.259 2
-5 -2 1 2243.82 201.107 26
5 2 0 17334.6 822.805 5
5 2 0 19446.3 671.365 2
-5 -2 0 16994.2 501.072 26
-5 -2 0 17684.4 649.098 15
5 2 1 10149.7 635.111 5
5 2 1 13355.6 516.604 2
-5 -2 -1 12311.2 391.43 26
-5 -2 -1 12748.4 576.151 15
5 2 1 11073.9 409.412 24
5 2 2 21298.8 903.483 5
-5 -2 -2 22484.8 578.272 4
-5 -2 -2 23302 812.624 15
5 2 2 21822.8 586.626 24
5 2 3 12950.8 663.589 5
-5 -2 -3 11199.9 516.386 9
-5 -2 -3 11924.8 597.324 1
-5 -2 -3 12072.8 603.3 15
5 2 3 11740.8 442.387 24
-5 -2 -4 34755.9 1078.75 1
-5 -2 -4 36671.7 1012.4 9
5 2 4 37863.2 1040.48 7
-5 -2 -4 36362.7 1066.56 15
5 2 4 35794.1 814.05 24
-5 -2 -5 7355.1 544.433 21
-5 -2 -5 10492.3 619.791 9
5 2 5 7134.62 314.82 47
5 2 5 6324.66 411.847 7
-5 -2 -5 9959.27 635.031 1
5 2 5 6756.1 348.88 39
5 2 5 6573.14 368.312 24
5 2 5 6213.18 342.53 55
-5 -2 -6 2205.63 309.877 21
5 2 6 1483.72 185.448 55
5 2 6 1706.44 152.78 47
5 2 6 1565.81 187.19 39
-5 -2 -6 1484.79 245.969 14
-5 -2 -7 132.865 145.006 21
5 2 7 129.945 97.63 55
5 2 7 54.6773 43.1015 47
5 2 7 -30.7081 81.9036 39
-5 -2 -7 -21.2514 106.176 14
5 2 8 3122.09 244.496 55
5 2 8 2370.02 209.11 31
-5 -2 -8 3010.89 333.033 20
5 2 8 2985.19 279.786 29
5 2 9 2646.38 165.735 29
-5 -2 -9 2628.19 153.112 58
5 2 10 871.331 63.6195 29
-5 -3 6 15045.1 337.42 48
5 3 -6 14593.4 312.258 46
-5 -3 5 2901.08 202.582 36
-5 -3 5 2781.33 204.296 48
5 3 -5 2955.4 197.421 46
5 3 -5 2689.57 179.947 25
5 3 -5 2443.28 167.134 39
-5 -3 4 7184.9 370.672 36
-5 -3 4 7374.9 377.526 34
-5 -3 4 7077.74 363.844 48
5 3 -4 7936.45 358.199 46
5 3 -4 7467.41 340.717 25
5 3 -4 7535.57 341.745 39
-5 -3 3 2774.62 241.793 36
-5 -3 3 2836.43 251.533 34
-5 -3 3 2803.73 205.168 54
-5 -3 3 2603.13 223.143 48
5 3 -3 3162.67 240.953 46
5 3 -3 3450.35 245.596 25
-5 -3 3 2707.3 218.332 56
5 3 -3 3179.34 244.181 39
5 3 -2 233.663 68.4678 23
-5 -3 2 121.651 75.9903 36
-5 -3 2 222.175 86.948 34
-5 -3 2 143.555 78.7233 56
-5 -3 2 46.548 64.6961 54
-5 -3 2 89.3926 51.6504 48
5 3 -2 127.232 57.4047 46
5 3 -2 62.1569 76.8522 25
5 3 -2 65.4288 73.6013 39
5 3 -1 306.031 73.6159 23
-5 -3 1 402.454 98.4441 36
-5 -3 1 206.93 66.5049 34
-5 -3 1 239.528 70.0384 56
-5 -3 1 303.919 76.6123 54
5 3 -1 72.2069 53.1771 46
5 3 -1 391.801 93.9459 39
5 3 -1 183.036 80.3865 2
5 3 0 3141.9 276.575 2
-5 -3 0 2700.57 223.761 4
5 3 0 2861.91 206.295 23
5 3 1 11197.9 659.431 5
5 3 1 13827.5 539.422 2
-5 -3 -1 12678.8 484.817 4
-5 -3 -1 13273 534.838 21
-5 -3 -1 12165.4 555.033 15
5 3 2 18941.6 819.883 5
-5 -3 -2 18517.5 593.377 4
-5 -3 -2 19520.3 706.414 21
-5 -3 -2 17013.6 546.708 9
-5 -3 -2 17222.6 698.245 15
5 3 2 19454.9 583.343 24
5 3 3 16678.8 719.759 5
-5 -3 -3 15862.2 683.064 21
-5 -3 -3 14906.5 572.182 9
-5 -3 -3 15494 668.168 1
5 3 3 16375.8 554.875 24
-5 -3 -4 223.551 115.857 21
-5 -3 -4 210.692 100.474 1
5 3 4 315.2 98.8833 7
-5 -3 -4 221.064 90.7692 14
5 3 4 185.191 88.0973 24
-5 -3 -5 6310.77 496.057 21
5 3 5 6244.2 352.829 55
-5 -3 -5 5924.58 473.618 1
5 3 5 6404.3 329.339 39
-5 -3 -5 6400.63 446.671 14
5 3 5 6700.3 376.133 24
-5 -3 -6 9222.51 644.904 21
5 3 6 8549.64 425.504 55
5 3 6 7883.61 413.323 31
-5 -3 -6 10099 706.202 14
5 3 6 9082.32 409.859 39
5 3 6 9554.71 458.082 24
-5 -3 -7 3980.75 404.025 21
5 3 7 3739.62 279.249 55
5 3 7 3526.47 278.649 31
-5 -3 -7 3879.64 379.231 20
5 3 7 3638.81 245.664 29
5 3 7 3850.73 257.574 39
-5 -3 -7 3773.29 242.411 38
5 3 8 1611.47 173.974 55
5 3 8 1517.44 173.225 31
5 3 8 1530.88 149.567 29
-5 -3 -8 1505.32 168.409 28
-5 -3 -9 76.5593 50.7805 58
5 3 9 142.103 51.4017 31
5 3 9 201.35 54.571 29
-5 -3 -9 257.626 67.4223 28
5 4 -6 1970.54 107.458 46
-5 -4 6 1764.55 99.8766 43
-5 -4 5 6788.21 308.307 36
-5 -4 5 6542.88 309.244 48
5 4 -5 6354.9 266.865 46
5 4 -5 5872.52 269.561 39
-5 -4 4 7060.18 375.029 36
-5 -4 4 7007.97 366.565 48
5 4 -4 7482.47 332.398 46
5 4 -4 7667.91 348.211 25
5 4 -4 7586.06 352.802 39
5 4 -3 5595.75 278.966 23
-5 -4 3 5087.93 333.661 36
-5 -4 3 4907.72 330.363 34
-5 -4 3 5110.27 290.093 54
-5 -4 3 5330.7 323.042 48
5 4 -3 5455.12 299.303 46
5 4 -3 5236.33 312.776 25
5 4 -2 582.879 108.407 23
-5 -4 2 639.904 135.63 36
-5 -4 2 485.181 111.034 34
-5 -4 2 362.669 93.0879 54
-5 -4 2 615.76 114.498 48
5 4 -2 528.143 101.172 46
5 4 -2 550.272 113.72 25
5 4 -2 508.967 113.508 39
5 4 -1 25182.6 604.104 23
-5 -4 1 26063.5 671.923 36
-5 -4 1 25912.9 674.77 34
-5 -4 1 28481.5 704.875 56
5 4 -1 25237.1 837.696 2
-5 -4 1 29355.4 706.708 54
-5 -4 1 24490 791.355 4
5 4 -1 23475.3 574.508 46
-5 -4 1 29083.5 639.001 60
5 4 -1 25003.6 653.234 39
5 4 0 10369.9 508.79 2
-5 -4 0 9412.98 474.641 4
5 4 0 10095.5 389.071 23
5 4 1 228.357 85.9939 23
-5 -4 -1 128.298 63.8162 4
5 4 1 249.872 66.3133 2
5 4 2 6497.53 459.297 5
-5 -4 -2 5835.85 367.631 4
-5 -4 -2 6235.69 412.547 21
5 4 2 6131.16 350.338 2
5 4 3 2344.58 262.457 5
-5 -4 -3 2100.01 269.558 21
-5 -4 -3 1977.9 229.357 1
5 4 3 2522.97 224.362 24
-5 -4 -4 12587.8 678.807 21
5 4 4 13558.2 499.041 55
-5 -4 -4 12343.5 559.024 14
-5 -4 -4 11784.7 604.756 1
-5 -4 -5 10920.3 664.449 21
5 4 5 11266.3 473.981 55
-5 -4 -5 9559.49 580.527 1
-5 -4 -5 9461.06 544.118 14
5 4 5 11284.3 423.53 39
5 4 5 12372.4 503.483 24
-5 -4 -6 4369.41 441.146 21
5 4 6 4164.11 294.197 55
5 4 6 4194.13 306.072 31
-5 -4 -6 3991.32 373.423 20
5 4 6 4164.34 260.646 39
5 4 6 4193 303.132 24
-5 -4 -6 4420.93 281.208 38
-5 -4 -7 13189.3 747.891 21
5 4 7 14278.6 520.986 55
5 4 7 13615.8 540.711 31
-5 -4 -7 14153.4 693.461 20
5 4 7 15115.6 468.758 29
-5 -4 -7 14824.7 558.958 28
-5 -4 -7 14364 475.901 38
5 4 8 756.12 115.695 55
5 4 8 809.274 128.711 31
-5 -4 -8 745.078 123.511 58
5 4 8 860.132 106.906 29
-5 -4 -8 772.843 125.767 28
-5 -4 -9 2198.49 148.734 58
5 4 9 2191.24 149.579 31
-5 -4 -9 2202.1 155.38 51
5 4 9 2327.65 126.648 29
-5 -4 -9 2155.98 144.551 28
5 5 -6 367.681 52.3281 39
-5 -5 5 225.309 69.026 36
5 5 -5 209.34 52.4385 46
-5 -5 5 168.657 56.1152 43
5 5 -5 145.173 64.0067 39
5 5 -4 1596.61 147.856 23
-5 -5 4 1541.89 187.629 36
-5 -5 4 1470.99 170.446 48
5 5 -4 1374.1 135.817 46
-5 -5 4 1580.51 160.147 43
5 5 -4 1728.94 170.021 39
5 5 -3 14245.3 462.357 23
-5 -5 3 13047.1 538.571 36
-5 -5 3 12836 500.867 48
5 5 -3 13452.4 431.036 46
5 5 -3 14289.1 505.504 39
5 5 -2 375.251 106.43 23
-5 -5 2 552.557 134.644 36
-5 -5 2 390.107 98.7147 54
-5 -5 2 324.761 83.9834 48
-5 -5 2 420.273 101.307 43
5 5 -2 291.706 83.2098 39
5 5 -1 53453.5 917.952 23
-5 -5 1 46077.6 935.803 36
-5 -5 1 46031.5 943.971 54
-5 -5 1 45298.1 839.259 30
5 5 -1 51500.8 936.786 39
-5 -5 0 15809.6 502.415 36
-5 -5 0 18425.2 561.977 60
-5 -5 0 18126.1 568.432 54
-5 -5 0 16949.2 703.986 4
-5 -5 0 17734.3 535.904 30
5 5 0 16603.2 515.938 39
5 5 0 16583.8 676.645 2
5 5 0 15972.2 513.691 23
-5 -5 -1 147.118 58.1457 60
5 5 1 -42.343 95.2015 23
-5 -5 -1 14.9762 101.663 4
5 5 1 72.3501 62.1195 2
5 5 2 205.767 72.654 5
-5 -5 -2 133.803 112.386 21
-5 -5 -2 9.70556 57.3043 30
-5 -5 -2 224.856 120.319 4
5 5 2 311.808 90.2997 2
-5 -5 -3 924.072 115.69 60
-5 -5 -3 817.963 169.414 4
-5 -5 -3 740.546 201.352 21
5 5 3 979.644 156.544 55
-5 -5 -3 797.631 119.428 30
5 5 3 905.611 124.007 39
5 5 3 1053.85 158.36 24
-5 -5 -4 5438.74 281.598 60
5 5 4 6217.16 352.154 55
5 5 4 5696.73 304.869 32
-5 -5 -4 5586.97 487.917 21
-5 -5 -4 5851.38 307.324 30
5 5 4 5057.94 276.666 39
5 5 4 6096.29 350.868 24
-5 -5 -4 5743.17 320.932 38
5 5 5 25300 684.918 32
-5 -5 -5 24862.4 1048.99 21
5 5 5 25853.9 710.945 55
-5 -5 -5 22444.6 582.279 30
-5 -5 -5 24883.2 713.606 28
5 5 5 23280.1 580.1 39
5 5 5 27215.4 738.623 24
-5 -5 -5 24597.6 671.515 38
5 5 6 7761.24 387.45 55
5 5 6 7563.91 410.052 31
-5 -5 -6 7457.43 401.731 28
5 5 6 7764.87 389.006 24
-5 -5 -6 7691.81 376.244 38
-5 -5 -7 190.844 76.6217 38
5 5 7 213.858 73.552 55
5 5 7 78.4436 55.5777 31
5 5 7 55.1303 35.1727 29
-5 -5 -7 208.784 103.805 28
5 5 8 9840.31 335.551 55
-5 -5 -8 10046.5 379.243 58
5 5 8 9839.21 372.515 31
-5 -5 -8 9504.79 361.741 51
5 5 8 9733.35 266.485 29
-5 -5 -8 10371.8 393.814 28
-5 -5 -9 238.48 53.9948 58
-5 -5 -9 277.097 49.2793 33
5 5 9 264.934 50.3496 31
-5 -5 -9 356.727 61.2207 51
-5 -6 5 2545.7 176.652 36
-5 -6 5 2629.59 151.685 43
5 6 -5 2527.02 157.045 39
5 6 -4 17430.2 459.992 23
-5 -6 4 17733.6 570.453 36
-5 -6 4 18773 501.061 43
5 6 -3 4511.02 267.626 23
-5 -6 3 4362.04 312.99 36
-5 -6 3 4373.47 281.167 52
-5 -6 3 4452.58 275.247 43
5 6 -3 4832.45 291.31 39
5 6 -2 9093.54 394.261 23
-5 -6 2 7799.87 422.281 36
-5 -6 2 7847.05 411.629 52
-5 -6 2 7729.41 358.676 43
5 6 -2 8982.64 399.463 39
5 6 -1 2077.16 205.267 23
-5 -6 1 1979.87 204.649 36
-5 -6 1 2011.93 193.576 30
-5 -6 1 2223.44 190.56 43
5 6 -1 2153.53 196.503 39
-5 -6 0 3043.03 236.532 36
-5 -6 0 3407.89 259.646 30
5 6 0 3218.72 240.907 39
5 6 0 3821 263.461 23
5 6 1 295.229 111.545 55
-5 -6 -1 565.065 129.407 52
-5 -6 -1 400.366 104.31 30
5 6 1 353.766 99.1201 39
5 6 1 353.188 95.463 23
-5 -6 -2 1092.1 141.23 38
-5 -6 -2 905.435 120.826 52
5 6 2 981.042 150.594 55
-5 -6 -2 860.849 144.077 30
5 6 2 770.761 140.572 2
5 6 2 723.207 109.999 39
5 6 2 694.931 147.361 24
5 6 3 1699.15 187.108 55
5 6 3 1673.98 175.493 32
-5 -6 -3 1599.49 183.32 30
-5 -6 -3 1763.51 186.044 28
5 6 3 1753.13 195.883 24
-5 -6 -3 1471.69 174.654 38
5 6 4 6283.9 355.14 55
5 6 4 6429.8 340.159 32
-5 -6 -4 6064.2 340.306 30
-5 -6 -4 6326.79 356.456 28
5 6 4 6431 359.909 24
-5 -6 -4 6505.71 362.335 38
5 6 5 1663.85 180.201 55
5 6 5 1479.21 171.427 32
-5 -6 -5 1708.22 184.693 30
-5 -6 -5 1806.58 206.732 28
5 6 5 1612.16 178.077 24
-5 -6 -5 1665.85 185.927 38
-5 -6 -6 1363.41 167.642 58
5 6 6 1447.38 159.389 55
-5 -6 -6 1284.69 141.19 51
-5 -6 -6 1733.68 196.619 28
5 6 6 1399.47 155.222 24
-5 -6 -6 1367.29 171.153 38
-5 -6 -7 6509.38 320.027 58
5 6 7 6465.38 280.803 55
5 6 7 6855.28 336.334 31
-5 -6 -7 6339.41 294.382 51
-5 -6 -7 5958.02 327.836 28
-5 -6 -7 6599.59 305.66 38
-5 -6 -8 5535.24 244.459 58
5 6 8 5002.15 174.424 55
5 6 8 5482.65 239.567 31
-5 -6 -8 5869.59 230.715 51
-5 -7 5 22.0571 33.787 36
5 7 -5 -5.53555 26.3364 55
-5 -7 5 59.8526 26.3414 43
5 7 -5 64.431 31.9775 39
-5 -7 4 322.85 92.2894 36
-5 -7 4 283.688 70.1552 44
-5 -7 4 307.396 70.0196 43
5 7 -4 222.083 62.2073 39
5 7 -3 3413.72 220.825 23
-5 -7 3 2981.34 246.717 36
-5 -7 3 2970.83 223.857 52
-5 -7 3 3271.24 213.585 43
5 7 -3 3324.76 215.39 39
5 7 -2 14401.9 479.613 23
-5 -7 2 14165.3 545.299 36
5 7 -2 12946.8 565.518 22
-5 -7 2 13600.1 520.279 52
-5 -7 2 13863.8 463.912 43
5 7 -2 14610.9 460.93 39
-5 -7 1 8188.75 417.209 36
5 7 -1 7605.55 457.041 22
-5 -7 1 7732.08 413.707 52
-5 -7 1 7558.26 379.434 30
-5 -7 1 7241.11 338.599 43
5 7 -1 7867.57 347.259 39
5 7 -1 8467.67 387.899 23
-5 -7 0 7377.88 372.556 36
5 7 0 7084.22 456.577 22
5 7 0 7937.18 401.789 55
-5 -7 0 7532.14 404.226 52
-5 -7 0 7051.26 389.183 30
-5 -7 0 7263.06 325.329 43
5 7 0 7145.43 361.941 23
5 7 1 4788.82 380.347 22
5 7 1 5082.91 326.849 55
-5 -7 -1 5487.64 340.772 52
-5 -7 -1 5278.71 348.16 30
5 7 2 58212.1 1289.66 22
5 7 2 55361.6 1051.83 55
5 7 2 57126 999.707 32
-5 -7 -2 63764.9 1079.61 52
-5 -7 -2 64564.2 1178.73 30
5 7 2 56069.1 1079.96 24
-5 -7 -2 67492.7 1112.9 38
5 7 3 1966.51 249.514 22
5 7 3 2075.58 208.283 55
-5 -7 -3 2058.89 214.317 30
5 7 3 1951.51 196.627 32
5 7 3 1940.84 198.512 24
-5 -7 -3 1808.21 195.968 38
-5 -7 -4 89.9167 83.5733 38
5 7 4 144.86 68.2872 55
5 7 4 150.309 78.6025 32
-5 -7 -4 69.8856 81.9262 30
-5 -7 -4 -27.7527 110.866 28
5 7 4 139.794 75.0123 24
-5 -7 -5 1757.49 176.305 58
5 7 5 1793.18 167.342 55
5 7 5 2092.2 192.149 32
-5 -7 -5 1855.3 178.903 30
-5 -7 -5 1877.95 205.02 28
5 7 5 1754.19 161.487 24
-5 -7 -5 1643.62 189.351 38
-5 -7 -6 1404.63 148.911 58
5 7 6 1618.61 139.027 55
-5 -7 -6 1559.85 168.688 28
-5 -7 -6 1663.57 172.659 38
-5 -7 -7 6081.02 261.234 58
5 7 7 6416.25 273.839 31
-5 -7 -7 6385.21 260.777 38
5 7 8 9382.94 217.256 31
5 8 -4 139.521 47.8261 55
-5 -8 4 140.034 36.2935 43
-5 -8 3 4395.41 252.95 36
5 8 -3 4729.34 238.304 55
-5 -8 3 4538.6 241.276 44
-5 -8 3 4650.14 208.254 43
5 8 -2 47.6151 47.5395 23
-5 -8 2 216.587 79.7674 36
5 8 -2 99.9295 76.8076 55
-5 -8 2 207.339 87.191 44
-5 -8 2 212.058 65.8887 43
-5 -8 1 3240.35 244.699 36
5 8 -1 2748.68 264.685 22
5 8 -1 3215.6 238.863 55
-5 -8 1 3094.22 229.618 30
-5 -8 1 3348.12 211.504 43
5 8 -1 2965.12 215.506 23
-5 -8 0 4952.6 276.807 36
5 8 0 4184.5 345.947 22
5 8 0 4921.42 300 55
-5 -8 0 4479.31 302.647 30
-5 -8 0 4862.88 256.671 43
5 8 1 4933.37 369.563 22
5 8 1 5007.85 300.076 55
-5 -8 -1 4647.61 318.037 30
-5 -8 -1 4336.45 236.027 43
5 8 1 3914.63 274.249 24
5 8 2 3641.99 316.169 22
5 8 2 3657.17 247.669 55
5 8 2 3740.18 252.757 32
-5 -8 -2 3523.34 276.81 30
5 8 2 3473.71 235.299 24
-5 -8 -2 3503.89 244.474 38
5 8 3 5102.83 374.84 22
5 8 3 5706.36 295.509 55
-5 -8 -3 6525.13 369.376 30
5 8 3 6681.12 327.661 32
5 8 3 5517.65 274.805 24
-5 -8 -3 6623.63 350.919 38
5 8 4 3455.44 209.377 55
5 8 4 3999.6 243.298 32
-5 -8 -4 3693.18 252.57 30
-5 -8 -4 3290.9 216.664 27
-5 -8 -4 3590.62 255.572 38
5 8 5 1048.78 97.0632 55
-5 -8 -5 1059.43 118.437 30
5 8 5 1143.1 128.196 32
-5 -8 -5 1083.37 126.035 27
-5 -8 -5 1219.64 151.901 38
-5 -8 -6 -0.86562 46.0425 38
5 8 6 22.5346 37.5376 31
-5 -8 -6 16.5792 51.0765 27
5 8 7 1142.2 78.0895 31
5 9 -3 124.236 32.896 55
-5 -9 3 111.561 38.8042 44
5 9 -2 1513.12 122.475 55
-5 -9 2 1358.59 125.951 44
-5 -9 2 1493.18 100.816 43
5 9 -1 7323.78 282.501 55
-5 -9 1 7388 302.206 44
-5 -9 1 6992.77 240.651 43
5 9 0 6994 286.263 55
5 9 0 7305.34 282.178 32
-5 -9 0 6330.97 296.097 30
-5 -9 0 6455.5 285.055 44
-5 -9 0 6692.64 243.937 43
5 9 1 17014.5 428.302 55
5 9 1 18450.8 459.817 32
-5 -9 -1 16987.1 516.364 30
-5 -9 -1 14948.3 386.76 44
-5 -9 -1 16033.2 370.739 43
5 9 2 4918.83 219.898 55
5 9 2 5395.22 254.504 32
-5 -9 -2 5308.09 298.023 30
-5 -9 -2 4653.27 183.421 43
5 9 3 13255.8 378.606 32
-5 -9 -3 12627.7 424.666 30
-5 -9 -4 145.315 65.1064 38
5 9 4 158.121 59.1021 32
-5 -9 -4 -23.8187 51.4992 30
-5 -9 -5 105.288 51.0738 38
5 9 5 85.0161 35.6309 31
5 10 0 3252.76 122.445 32
5 10 1 3229.79 131.938 32
-5 -10 -1 2504.48 130.808 30
-5 -10 -2 3688.87 164.371 30
5 10 2 3652.38 137.18 32
-6 3 1 1256.84 77.1917 36
-6 3 0 3401.23 159.096 36
-6 3 0 3359.7 138.93 34
6 -3 0 3518.13 169.518 45
6 -3 1 733.506 97.6548 45
6 -3 2 115.014 35.0188 35
6 -3 2 97.7146 61.9453 45
6 -3 3 2232.73 141.686 35
6 -3 3 2327.82 182.442 45
6 -3 4 101.42 53.0281 35
6 -3 4 93.0446 56.5902 45
6 -3 5 21.9244 37.1093 45
6 -3 6 3486.4 155.157 45
-6 2 2 1186.23 93.2032 36
-6 2 2 1220.7 95.7613 34
-6 2 2 1032.02 75.1977 56
6 -2 -2 1226.44 96.6109 45
-6 2 1 1432.81 125.235 36
-6 2 1 1406.14 121.406 34
6 -2 -1 1485.11 139.467 45
-6 2 1 1344.29 121.783 26
-6 2 0 1946.29 153.271 34
6 -2 0 2096.61 167.382 50
6 -2 0 1949.12 181.019 45
-6 2 0 1599.73 144.588 26
-6 2 -1 3192.25 195.8 34
6 -2 1 3088.37 247.821 45
-6 2 -1 2926.66 198.308 26
6 -2 2 5401.8 240.361 35
6 -2 2 5201.72 324.913 45
6 -2 3 6209.81 282.02 35
6 -2 3 5206.69 279.98 47
6 -2 3 5479.72 330.658 45
6 -2 4 92.6302 58.2188 35
6 -2 4 230.861 77.5095 47
6 -2 4 249.901 78.4348 45
6 -2 5 7.51782 56.4105 47
6 -2 5 103.671 55.7515 45
6 -2 6 336.733 68.234 47
6 -2 6 363.293 69.8214 45
6 -2 7 842.289 85.9694 47
6 -2 7 802.665 77.5777 45
-6 1 3 296.523 55.3693 36
6 -1 -3 273.261 55.1467 59
-6 1 3 227.235 50.7657 34
-6 1 2 215.658 69.342 36
6 -1 -2 297.343 79.9048 59
-6 1 2 218.583 70.3903 34
-6 1 2 397.715 76.5267 56
-6 1 2 172.769 61.9409 26
-6 1 1 19316.3 511.972 36
-6 1 1 19061 519.02 34
6 -1 -1 19765.1 480.836 50
6 -1 -1 19025.8 455.951 46
-6 1 1 18454.1 515.861 26
6 -1 0 2924.26 241.296 59
-6 1 0 2902.98 214.424 34
6 -1 0 2865.62 214.506 50
6 -1 0 2580.18 195.466 46
-6 1 0 2585.41 207.124 26
-6 1 -1 5982.42 298.906 34
6 -1 1 6911.85 349.69 50
-6 1 -1 6093.01 464.755 19
6 -1 1 5719.44 312.491 46
6 -1 1 6455.52 384.524 45
-6 1 -1 6296.3 317.103 26
6 -1 2 5509.02 258.163 35
-6 1 -2 4537.55 411.132 19
6 -1 2 4303.69 279.879 46
6 -1 2 5115.9 341.997 45
6 -1 3 440.18 89.8419 35
-6 1 -3 463.314 136.726 19
6 -1 3 472.352 101.607 46
6 -1 3 491.586 114.411 45
-6 1 -3 248.337 134.816 15
6 -1 4 1364.64 152.032 35
-6 1 -4 903.492 183.08 19
6 -1 4 1189.23 157.043 45
-6 1 -4 1011.27 209.451 15
6 -1 5 352.536 96.2494 47
6 -1 5 541.032 100.929 45
6 -1 6 835.456 120.883 47
6 -1 6 700.423 103.091 45
6 -1 7 104.297 54.4646 47
6 -1 7 139.714 49.4546 45
6 -1 8 253.54 55.2876 47
-6 0 4 279.207 44.0855 36
-6 0 4 176.975 40.8558 34
6 0 -4 207.344 40.5474 59
-6 0 3 868.678 104.361 36
6 0 -3 831.529 103.651 59
-6 0 3 790.013 106.41 34
-6 0 3 750.164 82.7943 56
6 0 -3 778.255 90.5531 46
-6 0 2 17544.3 494.007 36
6 0 -2 18775 527.703 59
-6 0 2 16950.4 506.628 34
6 0 -2 18411.4 523.789 57
-6 0 2 17940 480.334 56
-6 0 2 16647.9 410.684 54
6 0 -2 17817.9 495.243 46
-6 0 2 16594.9 499.672 26
-6 0 1 185.137 85.4065 36
6 0 -1 220.882 92.8221 59
6 0 -1 420.995 90.1455 57
-6 0 1 207.59 72.8314 34
6 0 -1 142.316 77.7287 46
-6 0 1 167.072 70.9419 26
6 0 0 1847.76 200.526 59
-6 0 0 1781.34 178.381 34
6 0 0 1603.47 163.61 50
6 0 0 1655.33 185.861 46
-6 0 0 1541.07 171.064 26
6 0 1 7500.18 384.787 59
6 0 1 7457.53 353.235 50
6 0 1 6923.64 389.79 46
-6 0 -1 7351.87 351.526 26
-6 0 -1 7290.75 520.548 15
-6 0 -2 6187.8 481.621 19
6 0 2 5730.14 352.342 46
6 0 2 5476.67 339.628 45
-6 0 -2 5593.38 477.873 15
6 0 3 1482.12 147.61 35
-6 0 -3 1226.01 213.357 19
6 0 3 1218.1 164.279 46
6 0 3 1269.17 159.27 45
-6 0 -3 1350.91 238.887 15
6 0 4 239.77 70.6797 35
-6 0 -4 252.744 104.404 19
6 0 4 301.75 88.9619 46
6 0 4 213.266 64.0275 45
-6 0 -4 290.321 147.078 15
6 0 5 14971.8 525.742 47
6 0 5 14705.2 455.67 45
-6 0 -5 13040.6 718.882 15
6 0 5 12410.1 464.936 39
-6 0 -6 6720.24 516.37 21
6 0 6 7127.99 350.838 47
6 0 6 6977.52 294.242 45
-6 0 -6 6011.86 456.189 15
6 0 7 159.943 65.8951 47
6 0 7 143.366 49.0466 29
6 0 7 181.303 49.2384 45
6 0 8 716.814 90.1568 47
6 0 9 978.12 73.4577 47
-6 -1 4 6021.26 226.35 36
6 1 -4 4936.13 184.462 59
-6 -1 4 5540.19 230.636 34
-6 -1 4 4902.49 170.666 48
6 1 -4 6049.66 222.586 46
-6 -1 3 918.866 117.956 36
6 1 -3 850.911 113.485 59
-6 -1 3 1028.24 134.27 34
6 1 -3 864.95 110.916 57
-6 -1 3 799.074 101.074 56
6 1 -3 852.284 118.786 46
-6 -1 2 3053.74 230.71 36
6 1 -2 3259.7 229.101 59
-6 -1 2 3042.78 235.773 34
6 1 -2 3017.25 224.246 57
-6 -1 2 3042.91 220.979 56
-6 -1 2 2935.21 193.795 54
6 1 -2 3164.44 239.315 46
-6 -1 2 2796.33 223.467 26
-6 -1 1 669.925 118.542 36
6 1 -1 872.989 131.515 59
6 1 -1 817.574 129.747 57
-6 -1 1 785.73 130.745 34
6 1 -1 993.948 160.519 46
-6 -1 1 797.384 129.916 26
-6 -1 0 1215.05 149.901 36
6 1 0 1203.83 159.202 59
-6 -1 0 1271.46 152.927 34
6 1 0 1004.19 158.987 46
-6 -1 0 1198.27 158.838 26
-6 -1 -1 1145.94 140.898 36
6 1 1 1258.98 156.542 59
6 1 1 1391.37 181.985 46
-6 -1 -1 1336.21 157.415 26
-6 -1 -1 1241.33 217.859 15
6 1 2 16894.1 585.076 46
-6 -1 -2 17785.9 816.152 15
6 1 3 1689.51 192.034 46
6 1 3 1780.89 171.08 45
-6 -1 -3 1883.19 296.169 15
6 1 3 1326.7 169.086 39
-6 -1 -4 42724 1209.18 9
6 1 4 45187.2 919 46
-6 -1 -4 42672.8 1324.93 15
6 1 4 41423.2 919.158 39
-6 -1 -5 11954.4 711.93 21
-6 -1 -5 11138.4 659.825 15
6 1 5 11421.3 485.025 39
-6 -1 -6 555.876 133.951 21
6 1 6 502.285 100.023 55
6 1 6 825.352 127.362 47
6 1 6 969.283 149.183 39
-6 -1 -6 661.672 177.822 14
-6 -1 -7 3362.15 358.202 21
6 1 7 2928.16 221.342 55
6 1 7 3744.22 228.052 47
6 1 7 3296.29 228.1 29
6 1 8 772.218 95.2188 47
6 1 8 829.711 107.543 29
6 1 9 155.626 37.8793 47
6 1 9 257.576 47.4644 29
6 2 -5 6204.81 171.893 46
-6 -2 4 9953.6 331.206 36
-6 -2 4 9490.18 338.948 34
-6 -2 4 9525.69 291.303 48
6 2 -4 8646.7 305.579 46
-6 -2 3 736.092 121.273 36
6 2 -3 700.163 94.0199 59
-6 -2 3 618.423 119.469 34
-6 -2 3 459.065 81.5032 56
-6 -2 3 523.183 86.9256 48
6 2 -3 711.065 115.458 46
-6 -2 2 3732.76 260.129 36
6 2 -2 3450.85 227.776 59
-6 -2 2 3417.65 257.57 34
6 2 -2 3565.26 229.105 57
-6 -2 2 3216.59 236.314 56
-6 -2 2 3317.66 223.012 54
6 2 -2 3658.14 263.368 46
-6 -2 1 1044.38 145.095 36
6 2 -1 1247.26 136.161 59
-6 -2 1 1136.91 150.323 34
-6 -2 1 949.007 141.282 56
-6 -2 1 981.091 135.292 54
6 2 -1 1325.71 170.951 46
-6 -2 1 1059.3 148.104 26
6 2 -1 1010.77 146.558 39
-6 -2 0 324.337 90.6911 36
-6 -2 0 326.382 92.6545 56
6 2 0 468.415 101.849 59
-6 -2 0 364.544 87.4437 34
6 2 0 242.705 90.3847 46
-6 -2 0 284.766 82.3041 26
6 2 0 244.727 89.9881 39
-6 -2 -1 22004.2 561.312 36
6 2 1 22684.2 577.094 59
6 2 1 22941.8 664.173 46
-6 -2 -1 21230.9 592.945 26
-6 -2 -1 23700.7 858.782 15
6 2 1 20600.4 656.66 39
6 2 2 642.206 176.605 5
6 2 2 662.847 116.038 46
-6 -2 -2 912.083 196.043 15
6 2 2 499.751 124.906 39
-6 -2 -3 6880.11 444.777 9
6 2 3 8004.9 377.491 46
-6 -2 -3 7638.04 534.805 15
6 2 3 7524.48 397.127 39
-6 -2 -4 3090.24 367.119 21
-6 -2 -4 2796.32 319.185 9
6 2 4 2949.02 235.633 46
-6 -2 -4 2492.67 322.478 15
6 2 4 2622.69 235.004 39
6 2 4 2379.15 220.982 24
6 2 5 4250.96 290.446 55
-6 -2 -5 4276.21 386.146 9
6 2 5 4675.16 284.352 46
6 2 5 5005.13 323.718 39
6 2 5 4302.7 308.082 24
-6 -2 -5 5364.62 478.463 21
6 2 6 1417.06 174.459 55
-6 -2 -6 1389.56 238.886 21
6 2 6 1662.16 161.923 47
6 2 6 1593.56 184.538 39
-6 -2 -6 1468.24 253.214 14
6 2 7 1340.62 172.456 55
-6 -2 -7 1354.33 245.624 21
6 2 7 1808.6 183.918 47
6 2 7 1621.28 176.037 39
6 2 8 5396.81 292.366 55
6 2 8 5078.5 211.777 47
6 2 8 5498.03 266.745 29
6 2 9 98.4774 46.9047 29
-6 -2 -9 138.371 40.1294 28
-6 -3 5 4467.72 161.936 36
6 3 -5 4999.01 173.243 46
-6 -3 4 6245.12 282.58 36
-6 -3 4 5782.58 278.005 34
-6 -3 4 5346.11 237.754 48
6 3 -4 5994.17 264.373 46
-6 -3 3 48556.5 909.521 36
-6 -3 3 48232 920.903 34
-6 -3 3 47169 807.824 48
6 3 -3 41317.4 808.619 46
6 3 -3 39095.8 737.123 39
-6 -3 2 4050.48 281.334 36
-6 -3 2 4020.29 281.379 34
-6 -3 2 4063.03 270.853 56
-6 -3 2 3845.88 247.922 54
6 3 -2 3998.55 278.371 46
6 3 -2 4104.72 274.372 39
-6 -3 1 5049.49 310.914 36
-6 -3 1 4908.01 307.428 34
-6 -3 1 5283.92 316.477 56
-6 -3 1 5173.87 302.478 54
6 3 -1 5402.48 324.871 46
6 3 -1 4958.69 323.278 39
-6 -3 0 4806.26 286.626 36
-6 -3 0 4657.73 273.086 34
-6 -3 0 5025.62 302.343 54
6 3 0 5152.81 314.726 46
-6 -3 0 4785.82 296.387 56
6 3 0 4884.95 327.762 39
6 3 1 740.898 173.542 5
-6 -3 -1 1008.79 133.432 56
-6 -3 -1 1137.05 148.445 54
6 3 1 1155.23 151.981 46
6 3 1 932.5 149.335 39
6 3 1 1105.51 156.765 24
6 3 2 1125.09 239.684 5
-6 -3 -2 1330.28 147.469 56
-6 -3 -2 1214.96 219.148 21
-6 -3 -2 1317 153.116 54
6 3 2 1404.8 160.973 46
6 3 2 1229.2 167.518 39
6 3 2 1311.92 172.819 24
6 3 3 14503.5 782.574 5
-6 -3 -3 14600.1 706.211 21
6 3 3 13621.7 496.374 55
-6 -3 -3 14039.5 451.635 54
6 3 3 13605.2 463.011 46
6 3 3 14120.3 529.925 39
6 3 3 13787.2 544.438 24
-6 -3 -4 8624.06 578.763 21
-6 -3 -4 7542.31 471.818 9
6 3 4 8627.68 418.053 55
6 3 4 8439.69 365.599 46
6 3 4 7815.77 525.844 7
6 3 4 9116.48 425.592 39
6 3 4 8828.62 446.635 24
-6 -3 -5 6771.39 551.346 21
6 3 5 5845.65 357.024 55
-6 -3 -5 5652.02 287.16 30
6 3 5 6094.31 287.934 47
6 3 5 6757.32 367.248 39
-6 -3 -5 7175.37 495.144 14
6 3 5 6886.92 400.643 24
-6 -3 -6 9587.75 640.192 21
6 3 6 9459.98 451.068 55
6 3 6 9735.91 338.75 47
6 3 6 9385.31 425.679 39
-6 -3 -6 8659.83 553.545 14
6 3 6 9787.44 474.05 24
6 3 7 33781.4 814.943 55
-6 -3 -7 32519.5 698.581 38
6 3 8 3429.09 234.018 55
-6 -3 -8 3476.93 239.403 28
-6 -3 -9 576.921 77.4156 58
6 3 9 677.609 78.1857 29
-6 -3 -9 666.494 81.8044 28
-6 -4 5 1447.05 100.271 36
6 4 -5 1310.38 86.5317 46
-6 -4 4 11719.5 396.743 36
-6 -4 4 10880.4 344.536 48
6 4 -4 11707 353.268 46
-6 -4 3 2352.26 214.329 36
-6 -4 3 2365.12 212.062 34
-6 -4 3 2124.87 176.614 48
6 4 -3 2461.91 197.93 46
6 4 -3 2485.13 200.412 39
-6 -4 2 2260.25 222.505 36
-6 -4 2 2154.13 212.738 34
-6 -4 2 2357.18 205.517 54
6 4 -2 1975.45 193.92 46
6 4 -2 2077.76 207.104 39
-6 -4 1 1295.37 160.905 36
-6 -4 1 1104.63 133.339 60
-6 -4 1 1253.48 164.477 34
-6 -4 1 1292.5 165.021 56
-6 -4 1 1186.97 159.448 54
-6 -4 1 1230.99 134.312 30
6 4 -1 1131.51 147.12 46
6 4 -1 1253.55 165.497 39
6 4 -1 1274.14 149.221 23
-6 -4 0 156.968 88.4892 36
-6 -4 0 96.6197 72.0288 60
-6 -4 0 275.504 78.4417 34
-6 -4 0 348.065 111.328 56
-6 -4 0 232.993 91.8822 54
6 4 0 54.8999 64.7685 46
6 4 0 63.1861 90.6901 39
6 4 0 191.583 87.5724 23
-6 -4 -1 3176.61 234.363 60
-6 -4 -1 3287.91 243.634 56
6 4 1 3792.8 253.984 55
-6 -4 -1 3394.28 249.172 54
6 4 1 3281.71 227.711 46
6 4 1 3399.49 264.799 39
6 4 2 972.05 202.545 5
-6 -4 -2 786.893 117.537 56
-6 -4 -2 986.46 196.818 21
6 4 2 938.379 144.249 55
-6 -4 -2 827.261 125.038 54
6 4 2 771.904 106.751 46
-6 -4 -2 652.598 132.5 4
6 4 2 909.334 145.003 39
6 4 2 785.291 146.194 24
6 4 3 3904.2 385.086 5
-6 -4 -3 4416.73 335.552 4
-6 -4 -3 4022.81 381.094 21
6 4 3 4339.8 293.184 55
-6 -4 -3 4488.25 256.496 54
6 4 3 4101.6 238.098 46
6 4 3 4459.95 294.307 39
6 4 3 4925.37 334.874 24
-6 -4 -4 1654.1 267.548 21
6 4 4 2199.93 214.572 55
-6 -4 -4 1766.1 172.391 30
-6 -4 -4 1671.26 166.589 60
6 4 4 1842.72 159.301 46
6 4 4 1818.68 191.287 39
6 4 4 2049.94 222.213 24
-6 -4 -5 3044.69 365.025 21
6 4 5 3192.43 270.084 55
-6 -4 -5 2958.81 215.58 30
-6 -4 -5 2777.47 202.478 60
6 4 5 3075.81 238.884 39
6 4 5 3277.44 280.291 24
-6 -4 -6 2991.08 401.829 21
6 4 6 3049.88 261.051 55
6 4 6 3518.71 257.066 39
6 4 6 3173.56 272.566 24
-6 -4 -7 3207.9 363.561 21
6 4 7 3194.71 249.234 55
-6 -4 -7 2526.66 279.323 20
6 4 7 3193.6 222.593 39
-6 -4 -7 2908.92 218.233 38
6 4 8 5320.73 274.936 55
6 4 8 4871.68 231.18 29
-6 -4 -8 5336.77 284.409 28
-6 -4 -9 4977.05 202.687 58
-6 -4 -9 4956.87 203.477 28
-6 -5 5 109.332 37.5566 36
6 5 -5 77.21 31.7042 39
-6 -5 4 2294.87 179.132 36
6 5 -4 2120.03 134.954 46
6 5 -4 2077.3 159.564 39
-6 -5 3 4631.35 295.139 36
6 5 -3 4292.64 233.654 46
6 5 -3 4729.66 273.655 39
-6 -5 2 2973.31 249.177 36
6 5 -2 2939.97 208.934 55
-6 -5 2 3017.8 234.079 54
6 5 -2 3036.97 209.568 46
6 5 -2 3269.54 250.427 39
6 5 -2 3111.99 219.408 23
-6 -5 1 31375.4 784.982 36
6 5 -1 25301.1 660.67 55
-6 -5 1 32191.8 800.701 54
-6 -5 1 32926.9 713.339 30
6 5 -1 26718.4 620.629 46
6 5 -1 28298.9 734.121 39
6 5 -1 25190.2 667.927 23
-6 -5 0 54545.1 970.85 36
-6 -5 0 55158.2 989.548 60
6 5 0 58801.3 1031.08 55
-6 -5 0 56655.7 1043.64 54
-6 -5 0 56597 984.966 30
6 5 0 61049.4 1075.86 39
6 5 0 58680.1 1017.62 23
-6 -5 -1 1147.07 152.4 60
6 5 1 891.76 145.09 55
-6 -5 -1 827.725 126.936 54
-6 -5 -1 1054.37 146.418 30
6 5 1 1061.91 156.153 39
-6 -5 -2 8378.59 386.066 60
6 5 2 8903.04 425.27 55
-6 -5 -2 8639.5 391.198 54
-6 -5 -2 8352.9 393.865 30
6 5 2 8220.12 396.884 39
6 5 2 9214.45 462.33 24
-6 -5 -3 588.106 108.917 60
-6 -5 -3 512.873 186.582 21
6 5 3 826.363 150.011 55
-6 -5 -3 633.75 112.693 54
-6 -5 -3 720.492 122.424 30
6 5 3 785.555 120.361 39
6 5 3 615.53 139.265 24
-6 -5 -4 6288.09 324.523 60
-6 -5 -4 6088.36 508.528 21
6 5 4 7212.85 396.893 55
-6 -5 -4 6913.05 348.68 30
6 5 4 7114.72 356.816 39
6 5 4 7554.05 415.898 24
-6 -5 -5 3959.48 241.287 60
-6 -5 -5 3679.79 412.043 21
6 5 5 4493.63 309.993 55
-6 -5 -5 4017.31 257.785 30
6 5 5 4256.58 272.629 39
6 5 5 4598.59 320.49 24
-6 -5 -5 4292.62 289.545 38
-6 -5 -6 14736 801.281 21
6 5 6 17103.1 575.669 55
6 5 6 16593.3 542.718 31
-6 -5 -6 16311.1 576.406 28
6 5 6 17361.7 506.426 39
6 5 6 16852 583.214 24
-6 -5 -6 16387.6 546.895 38
6 5 7 3617.53 247.424 55
6 5 7 3306.05 225.295 31
6 5 7 3700.5 210.45 29
-6 -5 -7 3996.2 292.481 28
-6 -5 -7 3749.84 240.503 38
-6 -5 -8 7064.41 297.801 58
6 5 8 7630.38 298.166 55
6 5 8 6474.2 256.404 31
6 5 8 7247.9 234.837 29
-6 -5 -8 6906.08 304.613 28
-6 -5 -8 6788.19 246.547 38
-6 -5 -9 144.533 42.0569 58
-6 -5 -9 124.451 43.5346 51
-6 -6 4 3391.03 204.601 36
6 6 -4 3120.89 175.788 39
-6 -6 3 1379.06 168.583 36
6 6 -3 1229.43 127.067 55
-6 -6 3 1400.39 142.228 52
-6 -6 3 1409.34 121.974 43
6 6 -3 1582.63 154.185 39
6 6 -3 1311.27 128.091 23
-6 -6 2 8363.45 403.974 36
6 6 -2 8347.2 359.797 55
-6 -6 2 8337.34 389.764 52
6 6 -2 8736.27 380.646 39
6 6 -2 8164.85 351.801 23
-6 -6 1 10157.9 442.439 36
6 6 -1 11138.1 449.639 55
-6 -6 1 10228.2 402.592 30
6 6 -1 10949.1 453.887 39
6 6 -1 11167.1 445.386 23
-6 -6 0 1220.76 154.319 36
6 6 0 1046.43 162.194 55
-6 -6 0 1362.63 190.632 54
-6 -6 0 1396.69 177.827 30
6 6 0 1097.04 154.605 39
6 6 0 1137.34 165.763 23
6 6 1 1891.43 215.378 55
-6 -6 -1 2201.39 224.314 54
-6 -6 -1 2204.52 216.292 30
6 6 1 2081.87 200.052 39
-6 -6 -2 5108.5 324.325 60
6 6 2 5171.51 340.41 55
-6 -6 -2 5132.96 314.233 54
-6 -6 -2 5344.04 328.411 30
6 6 2 5093.66 302.769 39
6 6 2 5520.36 356.645 24
-6 -6 -2 5421.77 304.8 38
-6 -6 -3 892.65 140.308 38
-6 -6 -3 964.471 141.704 60
6 6 3 920.898 155.705 55
-6 -6 -3 1056.59 135.245 52
-6 -6 -3 1075.72 160.206 30
6 6 3 953.341 135.82 39
6 6 3 961.57 159.923 24
-6 -6 -4 143.645 92.1325 38
6 6 4 98.9779 82.5643 55
6 6 4 -35.4892 61.7667 32
-6 -6 -4 52.6622 74.1508 30
-6 -6 -4 139.239 74.2848 28
6 6 4 189.696 63.9925 39
6 6 4 190.072 89.6336 24
-6 -6 -5 77.5357 87.2125 38
6 6 5 191.326 57.7439 32
6 6 5 238.573 86.8074 55
-6 -6 -5 371.299 99.7409 30
-6 -6 -5 252.554 99.0512 28
6 6 5 90.4822 48.5528 39
6 6 5 160.986 71.2232 24
6 6 6 19739.2 573.476 55
6 6 6 19876.1 576.317 31
-6 -6 -6 20090.6 595.533 28
6 6 6 19305.7 573.782 24
-6 -6 -6 20164.3 583.912 38
-6 -6 -7 2369.85 189.375 58
6 6 7 2437.01 180.151 55
6 6 7 2041.19 167.829 31
-6 -6 -7 2162.92 161.285 51
-6 -6 -7 2269.07 195.563 28
-6 -6 -7 2241.58 177.619 38
-6 -6 -8 1483.54 124.655 58
6 6 8 1536.26 110.676 55
6 6 8 1434.16 106.462 31
-6 -6 -8 1402.07 104.441 51
-6 -6 -8 1172.16 120.193 28
-6 -6 -8 1396.8 102.838 38
-6 -7 4 246.274 56.2454 36
6 7 -4 87.941 36.2183 39
-6 -7 3 341.213 79.07 36
6 7 -3 235.211 68.6078 55
-6 -7 3 402.684 73.4934 52
-6 -7 3 299.919 52.0177 43
6 7 -3 329.753 72.9902 39
-6 -7 2 1619.69 178.209 36
6 7 -2 1563.51 164.48 55
-6 -7 2 1513.92 165.865 52
6 7 -2 1582.53 155.263 39
6 7 -2 1630.44 155.06 23
-6 -7 1 6263.22 333.91 36
6 7 -1 5770.36 326.581 55
-6 -7 1 6090.53 343.731 52
-6 -7 1 5585.83 285.856 30
6 7 -1 6169.75 310.199 39
6 7 -1 6021 313.215 23
-6 -7 0 2692.72 216.404 36
6 7 0 2568.43 233.15 55
-6 -7 0 2907.83 252.473 52
-6 -7 0 2660.02 226.094 30
6 7 0 2578.81 206.493 39
6 7 1 4634.63 313.04 55
6 7 1 4697.49 251.478 32
-6 -7 -1 5902.59 347.965 52
-6 -7 -1 5651.75 341.617 30
6 7 1 4300.56 262.446 39
6 7 1 5005.18 333.658 24
6 7 2 14177.7 530.691 55
6 7 2 14018.1 447.848 32
-6 -7 -2 13328.4 491.799 52
-6 -7 -2 13376.7 525.461 30
6 7 2 12385.5 419.617 39
6 7 2 13406.1 528.222 24
-6 -7 -2 13004.4 460.352 38
6 7 3 9845.53 436.846 55
6 7 3 9699.61 382.588 32
-6 -7 -3 9140.43 370.668 52
-6 -7 -3 9214.81 432.468 30
6 7 3 10003.2 446.328 24
-6 -7 -3 8866.96 405.899 38
-6 -7 -4 849.78 142.644 38
6 7 4 749.54 131.407 55
6 7 4 647.921 109.061 32
-6 -7 -4 689.309 127.828 30
-6 -7 -4 494.406 105.783 28
6 7 4 621.416 113.984 24
-6 -7 -5 7209.37 312.512 58
6 7 5 8400.19 365.755 55
6 7 5 8140.23 338.925 32
-6 -7 -5 7697.41 341.27 30
-6 -7 -5 7508.31 349.017 28
6 7 5 7504.73 347.206 24
-6 -7 -5 8310.48 384.018 38
-6 -7 -6 3607.07 215.914 58
6 7 6 3979.81 226.727 55
6 7 6 4074.22 236.236 31
-6 -7 -6 3557.73 239.227 28
6 7 6 3516.56 206.259 24
-6 -7 -6 3721.97 239.152 38
-6 -7 -7 2158.54 146.671 58
6 7 7 2323.72 137.305 55
6 7 7 2125.44 143.613 31
-6 -7 -7 2378.07 159.975 38
-6 -8 3 69.6353 40.8012 36
6 8 -3 -10.3458 32.1185 55
-6 -8 2 130.082 53.3378 36
6 8 -2 144.352 65.116 55
-6 -8 2 193.933 74.879 44
6 8 -2 72.0708 38.072 39
-6 -8 1 -57.5618 74.7152 36
6 8 -1 39.6632 68.6889 55
-6 -8 1 27.7464 68.328 52
6 8 -1 99.8444 39.0748 39
6 8 0 997.329 142.244 55
6 8 0 1061.71 112.92 32
-6 -8 0 1027.91 152.677 52
-6 -8 0 1014.46 139.768 30
6 8 0 938.012 137.853 24
6 8 1 11842.9 447.884 55
6 8 1 10796.9 363.298 32
-6 -8 -1 10606.2 431.518 52
-6 -8 -1 10439.8 437.406 30
6 8 1 10219.3 422.209 24
6 8 2 13331.5 470.061 55
6 8 2 12956.1 410.634 32
-6 -8 -2 15057 539.023 30
6 8 2 12252.8 449.014 24
-6 -8 -2 14538.4 438.6 38
6 8 3 3418.71 235.574 55
6 8 3 3585.6 219.816 32
-6 -8 -3 3312.12 252.234 30
6 8 3 3277.19 223.605 24
-6 -8 -3 3396.83 231.687 38
6 8 4 4826.6 256.327 55
6 8 4 4751.78 243.064 32
-6 -8 -4 4671.14 277.433 30
6 8 4 4181.8 229.291 24
-6 -8 -4 4044.79 254.738 38
6 8 5 4206.73 212.086 55
-6 -8 -5 4377.82 228.495 30
-6 -8 -5 4328.01 245.57 38
6 8 6 446.011 55.41 55
6 8 6 576.698 78.2891 31
-6 -8 -6 448.291 69.2744 27
-6 -8 -6 642.235 92.4877 38
6 9 -2 311.165 50.5375 55
-6 -9 2 330.336 52.883 44
6 9 -1 1344.93 115.687 55
-6 -9 1 1348.36 118.844 44
6 9 0 1155.74 117.248 55
6 9 0 1118.43 93.7026 32
-6 -9 0 1097.65 109.72 30
-6 -9 0 1078.29 115.071 44
6 9 1 269.583 64.9948 55
6 9 1 270.674 62.4474 32
-6 -9 -1 261.667 77.5914 30
-6 -9 -1 274.371 68.7725 44
6 9 2 3953.93 206.215 55
6 9 2 3945.24 190.773 32
-6 -9 -2 3836.46 237.698 30
6 9 3 5326.5 219.12 55
6 9 3 5449.92 220.733 32
-6 -9 -3 6023.05 284.023 30
6 9 4 7343.98 236.06 32
-6 -9 -4 7466.45 273.194 30
-6 -9 -4 7326.47 253.219 38
6 9 5 515.598 61.4397 31
-6 -9 -5 606.904 71.4789 38
-7 2 -1 2289.91 108.636 36
7 -2 1 2862.12 138.111 45
-7 2 -2 461.591 51.3451 36
7 -2 2 548.092 74.8827 45
7 -2 3 2951.37 163.717 45
7 -2 4 2367.56 142.766 45
7 -2 5 -5.33917 29.0277 45
-7 1 1 370.285 53.8108 36
-7 1 1 286.599 47.4143 56
7 -1 -1 367.108 52.5448 45
-7 1 0 3127.36 165.246 36
-7 1 0 2754.21 131.238 34
-7 1 0 3215.47 170.766 56
-7 1 0 2981.82 154.306 54
7 -1 0 3359.66 184.867 45
-7 1 -1 2595.16 160.022 36
7 -1 1 2975.57 194.656 45
-7 1 -2 12593.7 342.138 36
7 -1 2 13516.9 434.416 45
7 -1 3 1035.89 127.253 45
7 -1 4 4426.04 252.945 47
7 -1 4 4679.79 238.16 45
7 -1 5 3251.38 204.82 47
7 -1 5 3290.86 177.13 45
7 -1 6 2694.4 163.411 47
7 -1 6 2445.37 125.394 45
7 -1 7 215.523 46.3586 47
-7 0 2 2435.69 128.264 36
-7 0 2 2106.31 117.445 34
-7 0 2 1944.49 100.372 56
7 0 -2 2355.24 124.194 45
-7 0 1 3179.06 181.708 36
-7 0 1 3109.08 172.494 34
-7 0 1 3210.7 178.98 56
-7 0 1 3094.57 155.436 54
7 0 -1 3189.48 162.882 46
-7 0 0 1034.05 115.316 36
-7 0 0 970.477 109.955 34
-7 0 0 861.925 114.203 56
7 0 0 939.006 113.935 46
7 0 0 934.662 121.255 45
-7 0 0 782.149 104.573 26
-7 0 -1 4508.7 241.016 36
7 0 1 4528.57 263.525 46
7 0 1 4540.92 272.239 45
-7 0 -1 4306.08 235.868 26
-7 0 -2 -60.0911 63.7865 36
7 0 2 16.7897 57.756 46
7 0 2 97.6656 60.8914 45
7 0 3 210.873 83.0685 46
7 0 3 157.263 69.5766 45
7 0 4 636.048 94.8532 45
7 0 5 148.001 68.6946 47
7 0 5 100.074 41.6618 45
7 0 6 4761.61 251.72 47
7 0 6 3847.59 173.101 45
7 0 7 772.974 90.6761 47
7 0 8 4601.96 154.952 47
-7 -1 3 248.622 46.2446 36
-7 -1 3 161.629 38.6848 34
-7 -1 2 5795.65 241.927 36
-7 -1 2 5159.75 227.201 34
-7 -1 2 5341.71 216.206 56
7 1 -2 5767.49 230.501 46
-7 -1 1 16260.3 459.148 36
7 1 -1 16442 444.492 59
-7 -1 1 15303.4 440.128 34
-7 -1 1 17032.3 493.209 56
-7 -1 1 15621.3 429.246 54
7 1 -1 15970.9 466.586 46
-7 -1 0 901.93 124.744 36
-7 -1 0 1042.56 124.012 34
-7 -1 0 921.799 131.499 56
7 1 0 1306.15 161.3 46
-7 -1 0 924.145 125.251 26
-7 -1 -1 58.7045 48.7885 36
-7 -1 -1 81.0784 71.3734 56
7 1 1 38.5891 66.3913 46
-7 -1 -1 7.39379 39.1439 26
-7 -1 -2 52.68 64.9962 56
7 1 2 182.974 98.0567 46
7 1 2 122.523 48.7787 45
-7 -1 -2 180.983 106.137 15
-7 -1 -3 1563.81 164.131 56
7 1 3 1553.22 178.042 46
7 1 3 1662.3 153.03 45
-7 -1 -3 1450.23 224.227 15
7 1 4 9408.36 421.947 46
-7 -1 -4 8567.51 575.475 15
7 1 4 7992.46 368.005 39
-7 -1 -5 31296.6 1092.99 21
7 1 5 30210.3 722.796 39
-7 -1 -6 501.262 162.29 21
7 1 6 304.997 83.3478 47
7 1 6 303.743 94.0173 39
7 1 7 5933.64 253.805 47
7 1 7 5713.41 250.862 29
7 1 8 48.8443 32.7261 47
-7 -2 3 4475.75 194.158 36
7 2 -3 4264.82 180.409 46
-7 -2 2 1874.85 157.366 36
-7 -2 2 2058.34 164.994 34
-7 -2 2 1926.07 150.339 56
-7 -2 2 1927.53 130.092 54
7 2 -2 2058.22 167.18 46
-7 -2 1 6548.48 313.192 36
7 2 -1 6571.47 280.819 59
-7 -2 1 6189.85 302.481 34
-7 -2 1 6690.91 315.389 56
-7 -2 1 6578.12 299.952 54
7 2 -1 7174.33 340.984 46
-7 -2 0 2523.97 203.101 36
-7 -2 0 2367.65 186.119 34
-7 -2 0 2977.14 232.315 56
-7 -2 0 2865.76 220.489 54
7 2 0 2803.7 239.382 46
-7 -2 -1 168.039 75.2659 36
-7 -2 -1 263.615 94.2932 56
7 2 1 78.2298 73.7436 46
7 2 1 261.329 75.3911 39
-7 -2 -2 215.195 63.9343 56
7 2 2 307.315 98.3153 46
-7 -2 -2 112.247 111.345 15
7 2 2 145.135 78.5779 39
-7 -2 -3 238.937 74.5192 56
-7 -2 -3 373.924 134.942 21
7 2 3 246.391 97.2063 46
-7 -2 -3 319.647 137.628 15
7 2 3 329.084 117.835 39
-7 -2 -4 3170.79 366.315 21
7 2 4 3197.15 249.221 46
-7 -2 -4 2695.74 332.289 15
7 2 4 3071.84 260.979 39
-7 -2 -5 6078.18 492.972 21
7 2 5 6473.62 322.303 47
7 2 5 6219.94 355.746 39
-7 -2 -6 1257.71 225.023 21
7 2 6 1179.44 134.262 47
7 2 6 1111.03 150.634 39
7 2 7 3943.54 221.487 55
7 2 7 5121.65 229.101 47
7 2 8 1450.05 97.3914 47
7 2 8 1509.61 121.353 29
7 2 9 2464.25 101.167 29
-7 -3 3 7705.91 277.118 36
7 3 -3 7310.69 258.621 46
-7 -3 2 13217.7 427.482 36
-7 -3 2 13022.2 424.775 34
-7 -3 2 12433.7 365.437 54
7 3 -2 13813.6 434.221 46
7 3 -2 12189.6 349.565 39
-7 -3 1 6461.96 324.436 36
-7 -3 1 6440.55 321.223 34
-7 -3 1 6439.47 324.33 56
-7 -3 1 6659.97 319.575 54
-7 -3 1 5947.35 265.204 30
7 3 -1 7267.48 348.738 46
7 3 -1 6137.7 306.027 39
-7 -3 0 566.105 106.704 36
-7 -3 0 747.96 107.852 60
-7 -3 0 682.239 112.87 34
-7 -3 0 712.824 121.78 56
-7 -3 0 685.615 120.859 54
7 3 0 647.992 125.076 46
7 3 0 540.862 97.717 39
-7 -3 -1 8437.46 355.193 36
-7 -3 -1 9509.76 415.794 56
-7 -3 -1 9180.61 413.723 54
7 3 1 10060 437.927 46
7 3 1 8832.61 427.988 39
-7 -3 -2 3937.91 261.449 56
-7 -3 -2 4826.69 294.101 54
7 3 2 4447.27 295.581 46
7 3 2 4391.21 310.577 39
-7 -3 -3 92.9368 64.3843 56
-7 -3 -3 94.1407 106.599 21
-7 -3 -3 55.1571 57.6969 54
7 3 3 -16.283 54.9273 46
7 3 3 17.9978 74.1537 39
-7 -3 -4 684.085 206.69 21
-7 -3 -4 1036.61 134.102 54
7 3 4 1057.04 148.346 46
7 3 4 1093.59 150.254 24
7 3 4 1112.95 167.766 39
-7 -3 -5 396.775 158.862 21
7 3 5 254.381 89.1086 55
-7 -3 -5 206.619 72.2484 30
7 3 5 269.678 78.6586 47
7 3 5 259.72 99.7864 39
7 3 5 191.816 94.6904 24
-7 -3 -6 2459.86 175.37 60
-7 -3 -6 2613.73 327.525 21
7 3 6 2279.98 213.274 55
7 3 6 2638.08 175.343 47
7 3 6 2737.68 230.568 39
7 3 7 5755.32 302.925 55
7 3 7 5752.62 214.188 47
7 3 7 6358.5 309.551 39
7 3 8 6268.1 265.99 55
7 3 8 6381.55 252.748 29
-7 -3 -8 6467.1 287.578 28
7 3 9 423.853 50.4038 29
-7 -4 4 3585.46 134.703 36
7 4 -3 1721.7 129.437 46
7 4 -3 1417.59 111.36 39
-7 -4 2 1898.28 173.461 36
-7 -4 2 1745.9 150.985 54
7 4 -2 1737.22 156.616 46
7 4 -2 1600.24 151.619 39
-7 -4 1 5879.67 314.56 36
-7 -4 1 6193.09 317.087 34
-7 -4 1 5996.57 313.937 54
-7 -4 1 6292.33 273.468 30
7 4 -1 6349.61 316.035 46
7 4 -1 5964.33 319.942 39
-7 -4 0 12226.3 424.067 60
-7 -4 0 11729 439.494 36
-7 -4 0 12102.7 438.501 34
-7 -4 0 12318.6 476.385 56
-7 -4 0 12825.2 483.375 54
-7 -4 0 12649.4 447.175 30
7 4 0 12851.2 469.898 46
7 4 0 13568 509.954 39
-7 -4 -1 6071.56 327.804 60
-7 -4 -1 6233.28 340.404 56
-7 -4 -1 6680.31 356.162 54
7 4 1 6393.57 335.338 46
7 4 1 6838.95 382.657 39
-7 -4 -2 7562.33 371.17 60
-7 -4 -2 7389.97 355.335 56
-7 -4 -2 7817.87 376.284 54
7 4 2 8026.1 364.823 46
7 4 2 7562.71 400.583 39
7 4 2 7718.16 391.109 24
-7 -4 -3 1687.43 181.062 60
-7 -4 -3 1856.62 251.42 21
7 4 3 1825.55 179.093 55
-7 -4 -3 1755.39 175.907 54
7 4 3 1727.01 173.936 46
7 4 3 1692.25 199.324 39
7 4 3 1798.78 199.921 24
-7 -4 -4 6077.14 326.744 60
-7 -4 -4 6149.64 479.316 21
7 4 4 6553.46 363.236 55
-7 -4 -4 5999.58 328.435 30
7 4 4 6026.76 303.823 46
7 4 4 6585.42 368.041 39
7 4 4 6476.61 378.783 24
-7 -4 -5 40.765 53.0537 60
-7 -4 -5 48.0888 102.701 21
7 4 5 94.3306 61.7377 55
-7 -4 -5 122.568 67.1856 30
7 4 5 -5.54381 68.662 39
7 4 5 47.9173 55.9269 24
-7 -4 -6 2997.44 354.676 21
7 4 6 3205.98 247.219 55
7 4 6 3752.83 256.409 39
7 4 6 3165.41 262.026 24
7 4 7 3920.87 251.887 55
7 4 7 4321.3 247.621 39
-7 -4 -7 3974.65 239.605 38
7 4 8 680.523 93.7772 55
7 4 8 586.597 77.3549 29
-7 -4 -8 596.182 96.1348 28
-7 -4 -8 618.802 72.8707 38
-7 -4 -9 3363.5 132.205 58
7 4 9 3900.2 124.29 29
-7 -5 3 685.328 96.5289 36
7 5 -3 625.661 70.893 46
7 5 -3 514.737 79.2706 39
7 5 -2 3346.54 194.117 46
7 5 -2 3469.19 226.111 39
-7 -5 1 2731.08 213.424 36
-7 -5 1 2593.03 217.099 54
7 5 -1 2534.09 186.245 46
7 5 -1 2755.12 223.367 39
-7 -5 0 10908.7 415.12 36
-7 -5 0 11326.4 426.46 60
-7 -5 0 12233.9 477.138 54
-7 -5 0 11258.5 419.269 30
7 5 0 11779.3 407.234 46
7 5 0 12235 481.249 39
7 5 0 11615.4 446.322 24
-7 -5 -1 9553.13 413.239 60
7 5 1 11068.4 423.302 55
-7 -5 -1 9720.89 437.17 54
-7 -5 -1 9713.67 414.281 30
7 5 1 9350.16 361.707 46
7 5 1 10127 453.151 39
7 5 1 10132 445.935 24
-7 -5 -2 12798.4 485.659 60
-7 -5 -2 13357.2 492.957 54
-7 -5 -2 13669.1 503.433 30
7 5 2 12938 418.603 46
7 5 2 13771.1 526.652 39
7 5 2 13809.3 544.552 24
-7 -5 -3 5171.19 308.352 60
7 5 3 5918.05 340.574 55
-7 -5 -3 5151.3 295.185 54
-7 -5 -3 5501.76 320.909 30
7 5 3 5153.31 259.542 46
7 5 3 6021.46 346.509 39
7 5 3 6093.83 364.615 24
-7 -5 -4 235.933 86.1653 60
-7 -5 -4 153.914 117.794 21
7 5 4 210.941 70.5735 55
-7 -5 -4 354.523 95.4714 30
7 5 4 350.199 100.514 39
7 5 4 213.094 91.6728 24
-7 -5 -5 134.288 71.2008 60
-7 -5 -5 336.037 127.937 21
7 5 5 372.557 103.745 55
-7 -5 -5 90.8179 60.3812 30
7 5 5 143.682 70.8546 39
7 5 5 116.556 89.1417 24
-7 -5 -6 600.787 147.6 38
7 5 6 383.739 101.021 55
7 5 6 398.167 88.2827 39
7 5 6 287.545 97.8677 24
-7 -5 -7 790.283 113.205 38
7 5 7 952.082 123.567 55
7 5 7 805.39 100.271 29
-7 -5 -7 865.918 130.668 28
7 5 7 895.086 106.939 39
-7 -5 -8 372.074 65.0539 38
-7 -5 -8 423.558 79.2404 58
7 5 8 432.07 74.5474 55
7 5 8 421.877 58.4309 29
-7 -5 -8 409.252 80.5854 28
-7 -6 3 43.7843 43.312 36
7 6 -3 14.5771 40.4543 39
-7 -6 2 1918.56 166.611 36
-7 -6 2 2035.46 163.035 52
7 6 -2 2131.28 166.93 39
7 6 -1 43589.4 715.602 55
7 6 -1 40087.9 761.446 24
-7 -6 0 460.84 92.7483 36
7 6 0 653.277 108.716 55
-7 -6 0 587.674 122.073 54
-7 -6 0 731.052 117.425 30
7 6 0 734.731 130.769 39
7 6 0 549.648 116.51 24
7 6 1 5821.57 321.588 55
-7 -6 -1 5215.03 320.818 54
-7 -6 -1 5563.17 317.109 30
7 6 1 5637.86 327.279 39
7 6 1 5433.54 338.63 24
-7 -6 -2 9578.41 426.989 60
7 6 2 10980.8 451.075 55
-7 -6 -2 9537.87 419.397 54
-7 -6 -2 9246.26 414.435 30
7 6 2 10062.2 431.57 39
7 6 2 10557.1 467.294 24
-7 -6 -2 9839.28 385.125 38
-7 -6 -3 2838.2 234.71 60
7 6 3 3312.3 256.896 55
-7 -6 -3 3038.41 213.995 52
-7 -6 -3 3085.77 244.822 30
7 6 3 2878.24 231.884 39
7 6 3 3478.93 274.844 24
-7 -6 -3 3365.54 245.582 38
-7 -6 -4 2413.59 205.162 60
7 6 4 2704.6 232.425 55
-7 -6 -4 2713.38 226.042 30
-7 -6 -4 2439.31 196.583 28
7 6 4 2401.05 201.377 39
7 6 4 2497.2 231.264 24
-7 -6 -4 2414.65 211.867 38
-7 -6 -5 821.452 133.757 38
7 6 5 561.051 115.639 55
-7 -6 -5 649.411 112.187 30
-7 -6 -5 764.254 121.765 28
7 6 5 820.037 137.325 24
7 6 5 637.48 97.2313 39
-7 -6 -6 272.558 92.444 38
7 6 6 241.205 80.8568 55
-7 -6 -6 242.104 85.791 28
7 6 6 304.251 65.0981 39
7 6 6 281.591 82.0209 24
7 6 7 980.832 112.03 55
7 6 7 1053.62 86.2734 29
-7 -6 -7 1003.75 133.08 28
-7 -6 -7 1118.93 125.348 38
-7 -6 -8 667.01 75.0886 58
7 6 8 674.074 69.2476 55
-7 -7 3 850.884 73.1277 36
7 7 -3 789.619 68.228 39
-7 -7 2 1754.13 138.991 36
-7 -7 2 1656.55 134.107 52
7 7 -2 1889.75 137.483 39
-7 -7 1 3554.11 211.982 36
7 7 -1 3375.19 205.258 55
-7 -7 1 3774.82 235.724 52
7 7 -1 3918.54 221.424 39
7 7 -1 3317.1 214.833 24
7 7 0 -13.0698 59.034 55
-7 -7 0 -6.3311 73.2001 52
-7 -7 0 73.5102 57.0886 30
7 7 0 -36.2868 64.9202 39
7 7 0 23.5428 55.5878 24
7 7 1 2032.16 196.67 55
-7 -7 -1 1783.92 184.014 52
-7 -7 -1 1922.06 188.678 30
7 7 1 2127.01 184.078 39
7 7 1 2094.85 201.354 24
7 7 2 3739.15 264.209 55
-7 -7 -2 3389.75 235.926 52
-7 -7 -2 3320.74 253.392 30
7 7 2 3246.67 223.629 39
7 7 2 3756.12 267.966 24
7 7 3 6414.89 337.949 55
-7 -7 -3 5328.56 267.217 52
-7 -7 -3 5861.75 327.31 30
7 7 3 5632.49 275.953 39
7 7 3 6094.12 329.321 24
-7 -7 -3 5551.19 292.568 38
7 7 4 4308.43 269.055 55
-7 -7 -4 4433.9 273.667 30
7 7 4 4107.72 219.462 39
7 7 4 4241.75 270.212 24
-7 -7 -4 4362.68 263.952 38
7 7 5 26153.4 608.351 55
-7 -7 -5 24681.9 576.745 30
7 7 5 25030.5 602.588 24
-7 -7 -5 25312.8 603.963 38
-7 -7 -6 2777.56 161.626 58
7 7 6 3111.32 192.599 55
-7 -7 -6 2745.18 177.797 28
-7 -7 -6 3174.7 203.15 38
-7 -7 -7 235.209 54.4272 38
-7 -7 -7 247.367 48.7305 58
7 7 7 248.106 50.5151 55
-7 -8 2 130.946 44.0067 44
-7 -8 1 33.5612 36.8584 36
7 8 -1 104.721 49.9957 55
-7 -8 1 124.321 52.2316 52
7 8 -1 38.1799 37.4173 39
7 8 0 485.845 90.9892 55
-7 -8 0 244.01 76.7055 52
-7 -8 0 334.24 71.5776 30
7 8 0 398.098 64.5719 39
7 8 1 5797.43 279.741 55
-7 -8 -1 5834.22 281.791 52
-7 -8 -1 6574.22 300.729 30
7 8 1 4550.85 201.534 39
7 8 1 4907.95 259.034 24
-7 -8 -2 11264.2 373.364 52
-7 -8 -2 12627 435.128 30
7 8 2 11718.1 408.266 24
7 8 3 773.773 114.67 55
-7 -8 -3 693.971 113.933 30
7 8 3 491.897 92.209 24
-7 -8 -3 848.982 104.789 38
7 8 4 11149.3 366.344 55
-7 -8 -4 10492.5 375.517 30
-7 -8 -4 10353.4 346.272 38
-7 -8 -5 7.57224 53.0411 38
7 8 5 -40.3832 41.6559 55
-7 -8 -5 59.9339 48.2919 30
-7 -8 -6 178.518 55.5418 38
7 8 6 144.021 38.9457 55
7 9 0 122.325 40.6819 55
-7 -9 0 78.7942 41.3746 44
7 9 1 168.205 46.1748 55
-7 -9 -1 141.607 54.7918 30
-7 -9 -1 171.364 45.4954 44
7 9 2 2516.83 149.454 55
-7 -9 -2 2674.75 173.525 30
7 9 3 1066.53 95.7009 55
-7 -9 -3 1053.74 107.855 30
7 9 4 2853.64 133.519 55
-7 -9 -4 2897.29 154.529 30
-8 0 -1 78.0169 31.8154 56
8 0 1 161.066 31.9469 45
-8 0 -2 258.517 53.4205 54
8 0 2 179.781 38.7518 45
-8 0 -3 39.6137 45.8232 54
8 0 3 16.145 41.0722 47
8 0 3 40.8099 27.0563 45
-8 0 -4 1164.34 100.163 54
8 0 4 1296.18 114.673 47
8 0 5 2224.21 137.881 47
8 0 6 1349.77 89.7626 47
-8 -1 0 522.58 59.2405 36
-8 -1 0 535.266 69.5034 56
-8 -1 0 628.462 70.099 54
8 1 0 566.813 66.4167 46
8 1 0 393.699 45.7162 45
-8 -1 -1 1020.14 86.3792 36
-8 -1 -1 1174.09 113.825 56
-8 -1 -1 1323.56 119.984 54
8 1 1 1230.93 115.36 46
8 1 1 1010.94 88.1549 45
-8 -1 -2 399.88 73.8429 56
-8 -1 -2 465.813 84.7092 54
8 1 2 472.416 84.6423 46
8 1 2 239.03 53.79 45
-8 -1 -3 177.709 45.5177 56
-8 -1 -3 165.119 63.3941 54
8 1 3 235.174 79.4923 46
-8 -1 -4 174.112 62.1496 54
8 1 4 137.363 65.3114 47
8 1 5 2488.81 170.738 47
8 1 6 3945.09 183.129 47
8 1 7 1354.33 85.4228 47
-8 -2 1 2068.55 120.868 36
-8 -2 1 1976.94 104.439 54
8 2 -1 2222.5 128.155 46
-8 -2 0 3316.87 171.548 36
-8 -2 0 3527.64 191.468 56
-8 -2 0 3572.62 189.315 54
8 2 0 3504.22 194.108 46
-8 -2 -1 3381.45 173.667 36
-8 -2 -1 3126.16 174.383 60
-8 -2 -1 3758.67 215.686 56
-8 -2 -1 3875.38 220.244 54
8 2 1 3720.22 227.763 46
-8 -2 -2 732.546 107.429 56
-8 -2 -2 868.934 124.878 54
-8 -2 -3 72.3043 46.512 56
-8 -2 -3 144.068 72.6261 54
8 2 3 16.6879 66.3366 46
8 2 3 -46.4202 57.8911 39
-8 -2 -4 8277.97 314.469 54
8 2 4 8196.73 346.65 46
8 2 4 8038.41 326.804 39
-8 -2 -5 1285.28 131.81 30
8 2 5 1624.26 146.448 47
8 2 5 1526.95 150.083 39
-8 -2 -6 -19.2823 48.5848 60
8 2 6 23.5128 34.9663 47
8 2 7 2335.9 115.979 47
8 2 7 2446.22 135.393 29
-8 -3 2 741.296 64.4001 36
8 3 -2 862.126 66.7022 46
-8 -3 1 1036.09 98.4071 36
-8 -3 1 1089.37 95.4579 54
8 3 -1 1091.56 105.142 46
-8 -3 0 357.171 69.5798 36
-8 -3 0 295.481 75.1544 56
-8 -3 0 277.171 71.567 54
-8 -3 0 368.446 66.1492 30
8 3 0 236.442 73.8294 46
-8 -3 -1 872.166 109.506 60
-8 -3 -1 900.663 122.832 56
-8 -3 -1 878.934 122.141 54
8 3 1 868.57 123.774 46
8 3 1 915.651 112.76 39
-8 -3 -2 9334.64 361.197 60
-8 -3 -2 9853.24 366.859 56
-8 -3 -2 10368.5 390.285 54
8 3 2 10315.6 399.155 46
8 3 2 10364.2 392.109 39
-8 -3 -3 251.728 74.9661 54
8 3 3 48.1319 64.4325 46
8 3 3 202.467 87.6134 39
-8 -3 -4 15600.6 434.264 54
8 3 4 15846.6 477.135 46
8 3 4 16578.6 528.456 39
-8 -3 -5 2095.67 172.651 60
-8 -3 -5 2270.92 171.954 30
8 3 5 2137.25 158.506 47
8 3 5 2223.81 198.51 39
-8 -3 -6 37.2831 46.0183 60
8 3 6 6.08106 31.1064 47
8 3 6 28.9225 54.9133 39
-8 -3 -7 116.812 53.5929 38
8 3 7 60.8002 41.8576 29
8 3 8 713.735 62.0999 29
-8 -4 2 218.276 43.907 36
8 4 -2 335.744 48.0778 46
-8 -4 1 1422.43 120.918 36
-8 -4 1 1401.44 121.242 54
8 4 -1 1443.69 118.784 46
8 4 -1 1251.57 103.544 39
-8 -4 0 4682.02 223.923 36
-8 -4 0 4362.54 196.748 60
-8 -4 0 4867.66 254.176 54
-8 -4 0 5024.03 223.723 30
8 4 0 4923.3 243.944 46
8 4 0 4948.38 246.317 39
-8 -4 -1 19188.6 483.401 60
-8 -4 -1 20531.1 549.703 54
-8 -4 -1 20102.9 520.378 30
8 4 1 20363.4 525.476 46
8 4 1 20607.7 553.406 39
-8 -4 -2 3102.33 218.327 60
-8 -4 -2 3264.6 227.542 54
-8 -4 -2 3043.98 220.922 30
8 4 2 3313.84 222.076 46
8 4 2 3618.27 253.565 39
-8 -4 -3 2727.49 211.69 60
-8 -4 -3 2352.72 192.264 54
-8 -4 -3 2665.86 210.303 30
8 4 3 2576.99 193.925 46
8 4 3 2951.36 239.616 39
-8 -4 -4 1264.48 147.054 60
-8 -4 -4 1134.43 122.57 54
-8 -4 -4 1214.11 146.791 30
8 4 4 1337.36 134.796 46
8 4 4 1292.84 164.881 39
-8 -4 -5 566.445 96.1123 60
-8 -4 -5 636.078 101.04 30
8 4 5 769.998 126.394 39
-8 -4 -6 223.545 52.4258 60
8 4 6 195.263 55.7854 55
8 4 6 178.507 67.6261 39
8 4 7 1942.66 140.503 39
-8 -4 -7 1620 133.421 38
8 4 8 441.164 52.0776 29
-8 -5 2 -18.2345 35.4147 36
-8 -5 2 29.7105 30.1626 52
8 5 -2 -27.6719 27.8739 39
-8 -5 1 144.524 53.8831 36
8 5 -1 105.065 42.7929 46
8 5 -1 89.9765 51.0927 39
-8 -5 0 205.581 53.0384 36
-8 -5 0 113.297 63.3075 54
-8 -5 0 191.227 55.5767 30
8 5 0 196.199 58.4001 46
8 5 0 142.82 66.1855 39
-8 -5 -1 3064.79 207.436 60
-8 -5 -1 3616.2 240.179 54
-8 -5 -1 3172.44 207.622 30
8 5 1 2658.69 179.404 46
8 5 1 3335.29 234.458 39
-8 -5 -2 4742.46 274.83 60
-8 -5 -2 4873.85 279.571 54
-8 -5 -2 4806.22 274.388 30
8 5 2 4490.19 233.014 46
8 5 2 5044.76 295.475 39
-8 -5 -3 16413 500.292 60
-8 -5 -3 16631.7 486.235 54
-8 -5 -3 17321.4 518.331 30
8 5 3 16454.1 425.375 46
8 5 3 16948.2 500.881 24
-8 -5 -4 5442.86 282.792 60
8 5 4 5723.52 278.639 55
-8 -5 -4 5481.77 247.707 54
-8 -5 -4 5789.14 295.726 30
8 5 4 6214.24 318.32 39
8 5 4 5610.95 298.285 24
8 5 5 3445.96 218.982 55
-8 -5 -5 3777.14 223.487 30
8 5 5 4004.51 242.458 39
8 5 5 3363.39 229.644 24
8 5 6 1499.43 137.708 55
-8 -5 -6 1658.92 150.052 28
8 5 6 1683.22 146.508 39
-8 -5 -6 1662.55 158.975 38
8 5 7 8648.5 273.749 55
8 5 7 9339.2 265.724 29
-8 -5 -7 8778.47 294.522 28
-8 -5 -8 -1.07472 34.1291 58
8 6 -2 71.2547 27.8797 39
-8 -6 1 1528.6 108.396 36
-8 -6 1 1574.3 125.293 52
8 6 -1 1574.4 123.669 39
-8 -6 0 6718.23 240.183 30
8 6 0 6900.22 287.262 39
-8 -6 -1 696.62 117.57 54
-8 -6 -1 899.916 119.628 30
8 6 1 877.886 124.017 39
8 6 2 8369.38 312.133 55
-8 -6 -2 7700.27 338.131 54
-8 -6 -2 8302.11 347.908 30
8 6 2 8164.82 350.072 39
8 6 2 8290.45 339.69 24
-8 -6 -3 246.57 80.562 38
-8 -6 -3 129.317 78.7794 60
8 6 3 102.675 61.4214 55
-8 -6 -3 69.8601 50.2257 52
-8 -6 -3 126.189 73.2481 30
8 6 3 115.274 68.8031 39
8 6 3 119.272 70.0069 24
8 6 4 3470.47 222.011 55
-8 -6 -4 3169.21 219.713 30
8 6 4 3291.64 215.852 39
8 6 4 3195.04 225.118 24
-8 -6 -4 3312.5 218.491 38
8 6 5 3225.01 206.293 55
-8 -6 -5 3007.43 195.382 30
8 6 5 3587.39 204.572 39
8 6 5 2765.67 199.539 24
-8 -6 -5 3215.83 214.078 38
-8 -6 -6 601.056 96.0701 28
8 6 6 628.992 89.4843 39
-8 -6 -7 1219.74 93.6889 58
8 6 7 1538.93 108.441 55
8 6 7 1329.82 75.4969 29
-8 -6 -7 1200.14 93.7783 28
-8 -6 -7 1407.35 111.312 38
-8 -7 1 2357.65 131.298 52
8 7 -1 2281.05 125.659 39
-8 -7 0 8067.38 284.328 52
8 7 0 8744.51 283.391 39
8 7 1 1154.36 108.243 55
-8 -7 -1 1159.36 120.333 52
-8 -7 -1 1008.62 110.357 30
8 7 1 1216.14 122.87 39
8 7 2 171.54 63.4299 55
-8 -7 -2 194.793 62.747 52
-8 -7 -2 246.726 76.3045 30
8 7 2 293.702 71.4509 39
8 7 3 4022.67 224.396 55
-8 -7 -3 4043.51 238.962 30
8 7 3 3884.36 207.082 39
8 7 3 3595.59 223.816 24
8 7 4 11393.4 363.438 55
-8 -7 -4 10331 359.726 30
8 7 4 10830.1 319.791 39
-8 -7 -4 10647.9 337.029 38
8 7 5 7857.6 285.212 55
-8 -7 -5 6951.68 259.697 30
8 7 5 7154.8 222.729 39
-8 -7 -5 7398.68 276.697 38
8 7 6 17407.3 367.65 55
-8 -7 -6 17171.2 372.33 38
8 8 1 126.814 43.4289 55
-8 -8 -1 114.634 46.6448 52
-8 -8 -1 124.282 40.22 30
8 8 1 177.818 42.5659 39
8 8 2 159.76 51.7014 55
-8 -8 -2 100.969 50.0438 30
8 8 2 86.9979 33.385 39
8 8 3 1372.69 114.793 55
-8 -8 -3 1180.82 118.662 30
8 8 4 4277.79 188.854 55
-8 -8 -4 4140.65 195.158 30
8 8 5 5383.92 187.58 55
-8 -8 -5 5178.67 177.096 38
-9 -2 -2 520.773 54.3428 54
-9 -2 -2 511.28 54.0233 30
-9 -2 -3 48.0185 29.3257 60
-9 -2 -3 31.8976 23.2981 54
-9 -2 -3 58.906 32.2593 30
9 2 3 13.6283 24.0602 47
-9 -2 -4 41.4467 33.2834 60
-9 -2 -4 17.0372 34.8426 30
9 2 4 -8.48951 26.0909 47
-9 -2 -5 1431.92 86.5645 60
9 2 5 746.537 55.5985 47
-9 -3 -1 1549.5 96.0192 54
9 3 1 1534.41 90.9301 46
-9 -3 -2 1551.3 97.6982 60
-9 -3 -2 1707.75 114.225 54
-9 -3 -2 1654.04 111.207 30
9 3 2 1690.33 111.621 46
-9 -3 -3 861.453 86.7307 60
-9 -3 -3 981.303 89.4493 54
-9 -3 -3 905.49 93.4243 30
9 3 3 953.208 91.1063 46
-9 -3 -4 4888.21 201.176 60
-9 -3 -4 4446.52 156.078 54
-9 -3 -4 5134.97 205.631 30
-9 -3 -5 14527.8 312 60
-9 -3 -5 12031 265.602 30
-9 -3 -6 202.836 45.681 38
-9 -4 -1 4147.6 171.983 54
-9 -4 -1 4175.36 147.042 30
9 4 1 4314.24 156.624 46
-9 -4 -2 1083.36 94.2256 60
-9 -4 -2 1046.94 98.3341 54
-9 -4 -2 1053.94 99.1165 30
9 4 2 1038.81 93.1059 46
9 4 2 1061.74 87.5745 39
-9 -4 -3 3088.35 169.639 60
-9 -4 -3 2800.16 158.513 54
-9 -4 -3 3417.87 180.339 30
9 4 3 3291.97 161.873 46
9 4 3 3800.37 178.537 39
-9 -4 -4 3671.48 184.807 60
-9 -4 -4 3158.9 140.516 54
-9 -4 -4 3907.41 190.845 30
9 4 4 4391.86 198.869 39
-9 -4 -5 381.69 61.8941 60
-9 -4 -5 325.625 57.201 30
9 4 5 375.916 63.9278 39
-9 -4 -6 276.711 54.7908 38
9 4 6 352.037 56.54 39
-9 -5 -1 25.2922 31.6033 30
9 5 1 50.737 21.6878 46
9 5 1 7.49508 26.4455 39
-9 -5 -2 595.282 83.5231 54
9 5 2 446.267 53.6639 46
9 5 2 526.959 72.9038 39
-9 -5 -3 1962.37 142.73 60
-9 -5 -3 2023.36 135.312 54
-9 -5 -3 2166.81 147.74 30
9 5 3 2191.78 148.649 39
-9 -5 -4 5349.53 224.119 30
-9 -5 -4 5590.55 220.903 38
-9 -5 -5 610.878 73.3876 30
9 5 5 771.962 87.034 39
-9 -5 -5 690.787 89.0245 38
9 5 6 768.069 73.3828 39
-9 -5 -6 558.874 67.8285 38
-9 -6 -1 82.7245 34.4423 52
9 6 1 9.28439 33.3175 39
-9 -6 -2 69.9975 42.4232 30
9 6 2 75.0782 37.1707 39
-9 -6 -3 684.352 87.2871 30
9 6 3 638.641 80.5107 39
-9 -6 -4 162.323 47.3463 38
-9 -6 -4 147.516 52.49 30
9 6 4 0.21845 39.477 39
-9 -6 -5 803.534 79.9586 30
-9 -6 -5 1087.05 103.757 38
-9 -6 -6 4678.68 155.769 38
-9 -7 -2 1161.28 83.4587 30
9 7 2 1209.42 84.4668 39
-9 -7 -3 -4.38767 33.5159 30
9 7 3 54.2619 30.4681 39
-9 -7 -4 2047.37 118.32 30
9 7 4 2037.65 100.479 39
