#------------------------------------------------------------------------------
#$Date: 2016-03-26 14:38:36 +0200 (Sat, 26 Mar 2016) $
#$Revision: 180271 $
#$URL: svn://www.crystallography.net/cod/cif/7/11/57/7115793.cif $
#------------------------------------------------------------------------------
#
# This file is available in the Crystallography Open Database (COD),
# http://www.crystallography.net/
#
# All data on this site have been placed in the public domain by the
# contributors.
#
data_7115793
loop_
_publ_author_name
'Jose A. Souto'
'Willian Lewis'
'Robert A. Stockman'
_publ_section_title
;
 Isolation of stable non cyclic 1,2-disulfoxides. Revisiting the
 thermolysis of S-aryl sulfinimines
;
_journal_name_full               Chem.Commun.
_journal_page_first              12630
_journal_paper_doi               10.1039/C4cc05751A
_journal_volume                  50
_journal_year                    2014
_chemical_absolute_configuration ad
_chemical_formula_moiety         'C14 H14 S2'
_chemical_formula_sum            'C14 H14 S2'
_chemical_formula_weight         246.37
_chemical_name_systematic
;
 ?
;
_space_group_crystal_system      monoclinic
_space_group_IT_number           4
_space_group_name_Hall           'P 2yb'
_space_group_name_H-M_alt        'P 1 21 1'
_symmetry_space_group_name_Hall  'P 2yb'
_symmetry_space_group_name_H-M   'P 1 21 1'
_atom_sites_solution_hydrogens   geom
_atom_sites_solution_primary     iterative
_atom_sites_solution_secondary   difmap
_audit_creation_date             2013-06-10
_audit_creation_method
;
  Olex2 1.2
  (compiled Apr 23 2013 17:59:47, GUI svn.r4466)
;
_cell_angle_alpha                90
_cell_angle_beta                 94.682(8)
_cell_angle_gamma                90
_cell_formula_units_Z            2
_cell_length_a                   7.5701(7)
_cell_length_b                   5.7018(6)
_cell_length_c                   14.6979(13)
_cell_measurement_reflns_used    2719
_cell_measurement_temperature    120(2)
_cell_measurement_theta_max      74.1400
_cell_measurement_theta_min      3.0040
_cell_volume                     632.29(11)
_computing_cell_refinement
;
CrysAlisPro, Agilent Technologies,
Version 1.171.36.28a (release 18-03-2013 CrysAlis171 .NET)
(compiled Mar 18 2013,11:47:30)
;
_computing_data_collection
;
CrysAlisPro, Agilent Technologies,
Version 1.171.36.28a (release 18-03-2013 CrysAlis171 .NET)
(compiled Mar 18 2013,11:47:30)
;
_computing_data_reduction
;
CrysAlisPro, Agilent Technologies,
Version 1.171.36.28a (release 18-03-2013 CrysAlis171 .NET)
(compiled Mar 18 2013,11:47:30)
;
_computing_molecular_graphics
;
O. V. Dolomanov, L. J. Bourhis, R. J. Gildea, J. A. K. Howard and H. Puschmann,
OLEX2: a complete structure solution, refinement and analysis program.
J. Appl. Cryst. (2009). 42, 339-341.
;
_computing_publication_material
;
O. V. Dolomanov, L. J. Bourhis, R. J. Gildea, J. A. K. Howard and H. Puschmann,
OLEX2: a complete structure solution, refinement and analysis program.
J. Appl. Cryst. (2009). 42, 339-341.
;
_computing_structure_refinement
;
SHELXL, G.M. Sheldrick, Acta Cryst.
(2008). A64, 112-122
;
_computing_structure_solution
;
olex2.solve (L.J. Bourhis, O.V. Dolomanov, R.J. Gildea, J.A.K. Howard,
H. Puschmann, in preparation, 2011)
;
_diffrn_ambient_temperature      120(2)
_diffrn_detector                 'CCD area detector'
_diffrn_detector_area_resol_mean 10.6296
_diffrn_detector_type            'Agilent Diffraction Atlas detector'
_diffrn_measured_fraction_theta_full 0.9984
_diffrn_measured_fraction_theta_max 0.8958
_diffrn_measurement_details
;
  1 omega  -99.00  -59.00   2.0000    2.0000
omega____ theta____ kappa____ phi______ frames
    -      -38.5000 -156.0000   67.0000 20

  2 omega  -45.00   33.00   2.0000    2.0000
omega____ theta____ kappa____ phi______ frames
    -      -38.5000   38.0000  -60.0000 39

  3 omega   54.00  108.00   2.0000    2.0000
omega____ theta____ kappa____ phi______ frames
    -       40.2573  156.0000  104.0000 27

  4 omega   73.00  103.00   2.0000    2.0000
omega____ theta____ kappa____ phi______ frames
    -       40.2573   57.0000  120.0000 15

  5 omega   15.00   99.00   2.0000    2.0000
omega____ theta____ kappa____ phi______ frames
    -       40.2573   57.0000   30.0000 42

  6 omega   43.00   85.00   2.0000    2.0000
omega____ theta____ kappa____ phi______ frames
    -       40.2573   38.0000  -30.0000 21

  7 omega   77.00  103.00   2.0000    4.0000
omega____ theta____ kappa____ phi______ frames
    -      103.2526   61.0000  -30.0000 13

  8 omega  114.00  170.00   2.0000    4.0000
omega____ theta____ kappa____ phi______ frames
    -      103.2526   77.0000  -90.0000 28

  9 omega   34.00   68.00   2.0000    4.0000
omega____ theta____ kappa____ phi______ frames
    -      103.2526  -45.0000   30.0000 17

 10 omega   74.00  100.00   2.0000    4.0000
omega____ theta____ kappa____ phi______ frames
    -      103.2526   77.0000  -90.0000 13

 11 omega   80.00  106.00   2.0000    4.0000
omega____ theta____ kappa____ phi______ frames
    -      103.2526   61.0000  -60.0000 13

 12 omega   78.00  106.00   2.0000    4.0000
omega____ theta____ kappa____ phi______ frames
    -      103.2526   61.0000    0.0000 14

 13 omega  147.00  173.00   2.0000    4.0000
omega____ theta____ kappa____ phi______ frames
    -      103.2526   30.0000 -150.0000 13

 14 omega   40.00   88.00   2.0000    4.0000
omega____ theta____ kappa____ phi______ frames
    -      103.2526  -77.0000   30.0000 24

 15 omega   72.00  118.00   2.0000    4.0000
omega____ theta____ kappa____ phi______ frames
    -      103.2526 -119.0000 -136.0000 23

 16 omega   83.00  135.00   2.0000    4.0000
omega____ theta____ kappa____ phi______ frames
    -      103.2526   30.0000 -150.0000 26

 17 omega  117.00  169.00   2.0000    4.0000
omega____ theta____ kappa____ phi______ frames
    -      103.2526   77.0000  -60.0000 26

 18 omega   74.00  100.00   2.0000    4.0000
omega____ theta____ kappa____ phi______ frames
    -      103.2526   77.0000  -60.0000 13

 19 omega   79.00  119.00   2.0000    4.0000
omega____ theta____ kappa____ phi______ frames
    -      103.2526   61.0000   30.0000 20

 20 omega   74.00  102.00   2.0000    4.0000
omega____ theta____ kappa____ phi______ frames
    -      103.2526   77.0000  -30.0000 14

 21 omega   60.00   90.00   2.0000    4.0000
omega____ theta____ kappa____ phi______ frames
    -      103.2526  -30.0000  -60.0000 15

 22 omega   73.00   99.00   2.0000    4.0000
omega____ theta____ kappa____ phi______ frames
    -      103.2526   77.0000    0.0000 13

 23 omega   90.00  174.00   2.0000    4.0000
omega____ theta____ kappa____ phi______ frames
    -      103.2526   35.0000 -120.0000 42

 24 omega   33.00   89.00   2.0000    4.0000
omega____ theta____ kappa____ phi______ frames
    -      103.2526  -94.0000  120.0000 28

 25 omega   74.00  100.00   2.0000    4.0000
omega____ theta____ kappa____ phi______ frames
    -      103.2526   77.0000   30.0000 13

 26 omega   86.00  138.00   2.0000    4.0000
omega____ theta____ kappa____ phi______ frames
    -      103.2526   45.0000    0.0000 26

 27 omega   53.00   79.00   2.0000    4.0000
omega____ theta____ kappa____ phi______ frames
    -      103.2526  -94.0000  -30.0000 13
;
_diffrn_measurement_device       '\k-geometry diffractometer'
_diffrn_measurement_device_type  'GV1000, Atlas'
_diffrn_measurement_method       '\w scans'
_diffrn_orient_matrix_UB_11      -0.1826711000
_diffrn_orient_matrix_UB_12      0.1146376000
_diffrn_orient_matrix_UB_13      0.0071674000
_diffrn_orient_matrix_UB_21      0.0182204000
_diffrn_orient_matrix_UB_22      -0.0378757000
_diffrn_orient_matrix_UB_23      0.1041308000
_diffrn_orient_matrix_UB_31      0.0893050000
_diffrn_orient_matrix_UB_32      0.2417218000
_diffrn_orient_matrix_UB_33      0.0129840000
_diffrn_radiation_collimation    'focusing mirrors'
_diffrn_radiation_monochromator  mirror
_diffrn_radiation_probe          x-ray
_diffrn_radiation_type           'Cu K\a'
_diffrn_radiation_wavelength     1.5418
_diffrn_radiation_xray_symbol    K-L~2,3~
_diffrn_reflns_av_R_equivalents  0.0298
_diffrn_reflns_av_unetI/netI     0.0381
_diffrn_reflns_Laue_measured_fraction_full 0.998
_diffrn_reflns_Laue_measured_fraction_max 0.953
_diffrn_reflns_limit_h_max       9
_diffrn_reflns_limit_h_min       -9
_diffrn_reflns_limit_k_max       7
_diffrn_reflns_limit_k_min       -6
_diffrn_reflns_limit_l_max       18
_diffrn_reflns_limit_l_min       -14
_diffrn_reflns_number            4647
_diffrn_reflns_point_group_measured_fraction_full 0.960
_diffrn_reflns_point_group_measured_fraction_max 0.897
_diffrn_reflns_theta_full        67.684
_diffrn_reflns_theta_max         76.546
_diffrn_reflns_theta_min         3.017
_diffrn_source                   'microfocus sealed tube'
_diffrn_source_target            Cu
_diffrn_source_type              'Agilent Diffraction microfocus tube'
_exptl_absorpt_coefficient_mu    3.545
_exptl_absorpt_correction_T_max  1.190
_exptl_absorpt_correction_T_min  0.346
_exptl_absorpt_correction_type   gaussian
_exptl_absorpt_process_details
;
CrysAlisPro, Agilent Technologies,
Version 1.171.36.28a (release 18-03-2013 CrysAlis171 .NET)
(compiled Mar 18 2013,11:47:30)
Numerical absorption correction based on gaussian integration over
            a multifaceted crystal model
;
_exptl_crystal_colour            'clear colourless'
_exptl_crystal_colour_lustre     clear
_exptl_crystal_colour_primary    colourless
_exptl_crystal_density_diffrn    1.294
_exptl_crystal_description       plate
_exptl_crystal_F_000             260
_exptl_crystal_size_max          0.5996
_exptl_crystal_size_mid          0.2451
_exptl_crystal_size_min          0.0366
_refine_diff_density_max         0.254
_refine_diff_density_min         -0.214
_refine_diff_density_rms         0.043
_refine_ls_abs_structure_details
;
 Flack x determined using 903 quotients [(I+)-(I-)]/[(I+)+(I-)]
 (Parsons and Flack (2004), Acta Cryst. A60, s61).
;
_refine_ls_abs_structure_Flack   0.132(15)
_refine_ls_extinction_method     none
_refine_ls_goodness_of_fit_ref   1.053
_refine_ls_hydrogen_treatment    constr
_refine_ls_matrix_type           full
_refine_ls_number_parameters     147
_refine_ls_number_reflns         2393
_refine_ls_number_restraints     1
_refine_ls_restrained_S_all      1.053
_refine_ls_R_factor_all          0.0329
_refine_ls_R_factor_gt           0.0307
_refine_ls_shift/su_max          0.000
_refine_ls_shift/su_mean         0.000
_refine_ls_structure_factor_coef Fsqd
_refine_ls_weighting_details
;
 w=1/[\s^2^(Fo^2^)+(0.0380P)^2^+0.1738P]
 where P=(Fo^2^+2Fc^2^)/3
;
_refine_ls_weighting_scheme      calc
_refine_ls_wR_factor_gt          0.0787
_refine_ls_wR_factor_ref         0.0819
_reflns_Friedel_coverage         0.704
_reflns_Friedel_fraction_full    0.914
_reflns_Friedel_fraction_max     0.828
_reflns_number_gt                2278
_reflns_number_total             2393
_reflns_threshold_expression     'I > 2\s(I)'
_cod_data_source_file            c4cc05751a2.cif
_cod_data_source_block           jsrscb
_cod_original_cell_volume        632.29(10)
_cod_database_code               7115793
#BEGIN Tags that were not found in dictionaries:
_nottingham_internal_coll_name   JSRSCB
_nottingham_internal_coll_number 12490
_nottingham_internal_coll_client JAS/RS
_nottingham_internal_coll_type   CUSTOM
_nottingham_internal_coll_frame_time '2 AND 4'
_nottingham_internal_coll_frame_width 2
_nottingham_internal_coll_frame_method '\w scans'
_nottingham_internal_coll_user   WL
_nottingham_internal_coll_date   24/5/2013
_nottingham_internal_coll_location NOTTS
_nottingham_internal_process_user WL
_nottingham_internal_process_date 24/5/2013
_nottingham_internal_solution_user WL
_nottingham_internal_solution_date 24/5/2013
_nottingham_internal_refinement_user AW
_nottingham_internal_refinement_date 10/6/2013
_nottingham_internal_validation_user WL
_nottingham_internal_validation_date 10/6/2013
_nottingham_internal_archive_date 10/6/2013
_chemical_oxdiff_formula         'C14 H14 S2'
_chemical_oxdiff_usercomment
'JSRSCB #12490 IN FOMBLIN FILM ON MICROMOUNT FOR JS/RS'
_reflns_odcompleteness_completeness 99.84
_reflns_odcompleteness_iscentric 1
_reflns_odcompleteness_theta     67.13
_olex2_refinement_description
;
1. Fixed Uiso
 At 1.2 times of:
  All C(H) groups
 At 1.5 times of:
  All C(H,H,H) groups
2.a Aromatic/amide H refined with riding coordinates:
 C4(H4), C5(H5), C7(H7), C8(H8), C11(H11), C12(H12), C14(H14), C15(H15)
2.b Idealised Me refined as rotating group:
 C9(H9A,H9B,H9C), C16(H16A,H16B,H16C)
;
_shelx_res_file
;
TITL
CELL 1.54184 7.570073 5.701835 14.69791 90 94.6819 90
ZERR 2 0.000674 0.000597 0.001298 0 0.008 0
LATT -1
SYMM -X,0.5+Y,-Z
 
SFAC C H S
UNIT 28 28 4
 
L.S. 9
PLAN  20
TEMP -153(2)
fmap 2
acta
OMIT -5 -6 3
REM <HKL>C:/Dropbox/Organic/JSRSCB/JSRSCB.hkl</HKL>
 
WGHT    0.038000    0.173800
FVAR      11.01891
S1    3    0.130534    0.563513    0.705276    11.00000    0.03951    0.04321 =
         0.02687   -0.00659   -0.00124    0.01408
S2    3    0.114417    0.258597    0.774816    11.00000    0.02740    0.06242 =
         0.02750    0.00563    0.00259   -0.00178
C3    1    0.196696    0.482716    0.595347    11.00000    0.02324    0.02502 =
         0.02588   -0.00277   -0.00168    0.00138
C4    1    0.158035    0.644423    0.525658    11.00000    0.02499    0.01869 =
         0.03682    0.00014   -0.00299    0.00042
AFIX  43
H4    2    0.098788    0.786658    0.537595    11.00000   -1.20000
AFIX   0
C5    1    0.206518    0.596498    0.438888    11.00000    0.02531    0.02320 =
         0.03227    0.00651   -0.00286   -0.00176
AFIX  43
H5    2    0.181161    0.707817    0.391526    11.00000   -1.20000
AFIX   0
C6    1    0.291729    0.388300    0.419681    11.00000    0.02192    0.02767 =
         0.02755   -0.00025    0.00093   -0.00407
C7    1    0.329407    0.228948    0.490421    11.00000    0.02395    0.02187 =
         0.03099   -0.00147    0.00171    0.00067
AFIX  43
H7    2    0.387412    0.085874    0.478352    11.00000   -1.20000
AFIX   0
C8    1    0.283797    0.275209    0.578281    11.00000    0.02668    0.02280 =
         0.02847    0.00329   -0.00090    0.00311
AFIX  43
H8    2    0.311910    0.166058    0.626115    11.00000   -1.20000
AFIX   0
C9    1    0.343279    0.333329    0.324737    11.00000    0.04169    0.04760 =
         0.02930    0.00099    0.00924   -0.00597
AFIX 137
H9A   2    0.314543    0.467463    0.284536    11.00000   -1.50000
H9B   2    0.277855    0.194980    0.301074    11.00000   -1.50000
H9C   2    0.470846    0.301920    0.327072    11.00000   -1.50000
AFIX   0
C10   1    0.331625    0.199703    0.826548    11.00000    0.02990    0.03755 =
         0.01730   -0.00120    0.00311    0.00052
C11   1    0.476017    0.347018    0.821054    11.00000    0.03258    0.02909 =
         0.02687    0.00403    0.00410    0.00096
AFIX  43
H11   2    0.463067    0.491374    0.788928    11.00000   -1.20000
AFIX   0
C12   1    0.640426    0.281586    0.863067    11.00000    0.02888    0.03199 =
         0.02932    0.00168    0.00277   -0.00359
AFIX  43
H12   2    0.739242    0.382809    0.859304    11.00000   -1.20000
AFIX   0
C13   1    0.662538    0.071213    0.910330    11.00000    0.03406    0.02940 =
         0.02055   -0.00292    0.00483    0.00097
C14   1    0.514786   -0.072557    0.915406    11.00000    0.04033    0.02976 =
         0.02398   -0.00047    0.00631    0.00050
AFIX  43
H14   2    0.526839   -0.216457    0.947898    11.00000   -1.20000
AFIX   0
C15   1    0.350812   -0.009724    0.874017    11.00000    0.03457    0.03209 =
         0.02667   -0.00261    0.00738   -0.00791
AFIX  43
H15   2    0.251626   -0.110094    0.878172    11.00000   -1.20000
AFIX   0
C16   1    0.839924   -0.002812    0.954612    11.00000    0.03646    0.04084 =
         0.03637    0.00578    0.00196    0.00480
AFIX 137
H16A  2    0.882934   -0.139144    0.922345    11.00000   -1.50000
H16B  2    0.827967   -0.044184    1.018533    11.00000   -1.50000
H16C  2    0.924448    0.126662    0.951809    11.00000   -1.50000
AFIX   0
HKLF 4
 
REM
REM R1 =  0.0307 for    2278 Fo > 4sig(Fo)  and  0.0329 for all    2393 data
REM    147 parameters refined using      1 restraints
 
END  
     
WGHT      0.0380      0.1738 

REM Highest difference peak  0.254,  deepest hole -0.214,  1-sigma level  0.043
Q1    1   0.2103  0.5683  0.6611  11.00000  0.05    0.25
Q2    1   0.1501  0.5060  0.6456  11.00000  0.05    0.22
Q3    1   0.0283  0.2707  0.8175  11.00000  0.05    0.22
Q4    1   0.1265  0.4048  0.7656  11.00000  0.05    0.17
Q5    1   0.8176 -0.1478  0.9646  11.00000  0.05    0.16
Q6    1   0.0342  0.7526  0.7054  11.00000  0.05    0.16
Q7    1   0.4207  0.4568  0.2998  11.00000  0.05    0.16
Q8    1   0.2920  0.3600  0.3861  11.00000  0.05    0.15
Q9    1   0.6721  0.1171  0.8830  11.00000  0.05    0.15
Q10   1   0.2742  0.2420  0.5216  11.00000  0.05    0.15
Q11   1   0.9378 -0.0305  0.8992  11.00000  0.05    0.15
Q12   1   0.2829  0.8451  0.5963  11.00000  0.05    0.14
Q13   1   0.4324  0.1444  0.3114  11.00000  0.05    0.14
Q14   1   0.3789 -0.1371  0.5403  11.00000  0.05    0.14
Q15   1   0.1372  0.5453  0.5485  11.00000  0.05    0.13
Q16   1   0.2096  0.4577  0.4206  11.00000  0.05    0.13
Q17   1   0.1826  0.1901  0.7216  11.00000  0.05    0.13
Q18   1   0.0218  0.5592  0.7385  11.00000  0.05    0.13
Q19   1   0.3586  0.6182  0.2570  11.00000  0.05    0.13
Q20   1   0.1353  0.6178  0.4788  11.00000  0.05    0.13

REM The information below was added by Olex2.
REM
REM R1 = 0.0307 for 2278 Fo > 4sig(Fo) and 0.0329 for all 4655 data
REM n/a parameters refined using n/a restraints
REM Highest difference peak 0.25, deepest hole -0.21
REM Mean Shift 0, Max Shift 0.

REM +++ Tabular Listing of Refinement Information +++
REM R1_all = 0.0329
REM R1_gt = 0.0307
REM wR_ref = 0.0819
REM GOOF = 1.053
REM Shift_max = 0
REM Shift_mean = 0
REM Reflections_all = 4655
REM Reflections_gt = 2278
REM Parameters = n/a
REM Hole = 0.25
REM Peak = -0.21
REM Flack = n/a

;
_shelx_space_group_comment
;
The symmetry employed for this shelxl refinement is uniquely defined
by the following loop, which should always be used as a source of
symmetry information in preference to the above space-group names.
They are only intended as comments.
;
_shelxl_version_number           2013-2
#END Tags that were not found in dictionaries
loop_
_space_group_symop_operation_xyz
'x, y, z'
'-x, y+1/2, -z'
loop_
_atom_site_label
_atom_site_type_symbol
_atom_site_fract_x
_atom_site_fract_y
_atom_site_fract_z
_atom_site_U_iso_or_equiv
_atom_site_adp_type
_atom_site_occupancy
_atom_site_site_symmetry_order
_atom_site_calc_flag
_atom_site_refinement_flags_posn
_atom_site_refinement_flags_adp
S1 S 0.13053(11) 0.56351(15) 0.70528(5) 0.0367(2) Uani 1 1 d . .
S2 S 0.11442(10) 0.25860(18) 0.77482(5) 0.0391(2) Uani 1 1 d . .
C3 C 0.1967(4) 0.4827(6) 0.59535(19) 0.0249(6) Uani 1 1 d . .
C4 C 0.1580(4) 0.6444(5) 0.5257(2) 0.0271(6) Uani 1 1 d . .
H4 H 0.0988 0.7867 0.5376 0.033 Uiso 1 1 calc R U
C5 C 0.2065(4) 0.5965(5) 0.4389(2) 0.0272(6) Uani 1 1 d . .
H5 H 0.1812 0.7078 0.3915 0.033 Uiso 1 1 calc R U
C6 C 0.2917(4) 0.3883(6) 0.4197(2) 0.0258(6) Uani 1 1 d . .
C7 C 0.3294(4) 0.2289(5) 0.49042(19) 0.0256(6) Uani 1 1 d . .
H7 H 0.3874 0.0859 0.4784 0.031 Uiso 1 1 calc R U
C8 C 0.2838(4) 0.2752(6) 0.57828(19) 0.0262(6) Uani 1 1 d . .
H8 H 0.3119 0.1661 0.6261 0.031 Uiso 1 1 calc R U
C9 C 0.3433(5) 0.3333(7) 0.3247(2) 0.0392(8) Uani 1 1 d . .
H9A H 0.3145 0.4675 0.2845 0.059 Uiso 1 1 calc R U
H9B H 0.2779 0.1950 0.3011 0.059 Uiso 1 1 calc R U
H9C H 0.4708 0.3019 0.3271 0.059 Uiso 1 1 calc R U
C10 C 0.3316(4) 0.1997(6) 0.82655(18) 0.0282(7) Uani 1 1 d . .
C11 C 0.4760(4) 0.3470(6) 0.8211(2) 0.0294(6) Uani 1 1 d . .
H11 H 0.4631 0.4914 0.7889 0.035 Uiso 1 1 calc R U
C12 C 0.6404(4) 0.2816(6) 0.8631(2) 0.0300(6) Uani 1 1 d . .
H12 H 0.7392 0.3828 0.8593 0.036 Uiso 1 1 calc R U
C13 C 0.6625(4) 0.0712(6) 0.91033(18) 0.0279(6) Uani 1 1 d . .
C14 C 0.5148(4) -0.0726(6) 0.9154(2) 0.0312(7) Uani 1 1 d . .
H14 H 0.5268 -0.2165 0.9479 0.037 Uiso 1 1 calc R U
C15 C 0.3508(4) -0.0097(6) 0.8740(2) 0.0308(7) Uani 1 1 d . .
H15 H 0.2516 -0.1101 0.8782 0.037 Uiso 1 1 calc R U
C16 C 0.8399(5) -0.0028(7) 0.9546(2) 0.0379(8) Uani 1 1 d . .
H16A H 0.8829 -0.1391 0.9223 0.057 Uiso 1 1 calc R U
H16B H 0.8280 -0.0442 1.0185 0.057 Uiso 1 1 calc R U
H16C H 0.9244 0.1267 0.9518 0.057 Uiso 1 1 calc R U
loop_
_atom_site_aniso_label
_atom_site_aniso_U_11
_atom_site_aniso_U_22
_atom_site_aniso_U_33
_atom_site_aniso_U_23
_atom_site_aniso_U_13
_atom_site_aniso_U_12
S1 0.0395(4) 0.0432(5) 0.0269(4) -0.0066(3) -0.0012(3) 0.0141(4)
S2 0.0274(4) 0.0624(6) 0.0275(4) 0.0056(4) 0.0026(3) -0.0018(4)
C3 0.0232(13) 0.0250(14) 0.0259(14) -0.0028(11) -0.0017(10) 0.0014(11)
C4 0.0250(14) 0.0187(14) 0.0368(16) 0.0001(11) -0.0030(12) 0.0004(11)
C5 0.0253(14) 0.0232(16) 0.0323(14) 0.0065(12) -0.0029(11) -0.0018(11)
C6 0.0219(13) 0.0277(16) 0.0276(13) -0.0002(12) 0.0009(11) -0.0041(11)
C7 0.0240(13) 0.0219(14) 0.0310(14) -0.0015(12) 0.0017(10) 0.0007(11)
C8 0.0267(13) 0.0228(15) 0.0285(13) 0.0033(12) -0.0009(10) 0.0031(11)
C9 0.0417(18) 0.048(2) 0.0293(16) 0.0010(14) 0.0092(13) -0.0060(15)
C10 0.0299(15) 0.0376(18) 0.0173(12) -0.0012(11) 0.0031(11) 0.0005(12)
C11 0.0326(15) 0.0291(16) 0.0269(14) 0.0040(12) 0.0041(11) 0.0010(13)
C12 0.0289(14) 0.0320(17) 0.0293(14) 0.0017(13) 0.0028(11) -0.0036(13)
C13 0.0341(15) 0.0294(15) 0.0206(12) -0.0029(13) 0.0048(11) 0.0010(13)
C14 0.0403(17) 0.0298(18) 0.0240(13) -0.0005(12) 0.0063(12) 0.0005(13)
C15 0.0346(16) 0.0321(17) 0.0267(14) -0.0026(11) 0.0074(12) -0.0079(12)
C16 0.0365(17) 0.041(2) 0.0364(17) 0.0058(14) 0.0020(13) 0.0048(14)
loop_
_atom_type_symbol
_atom_type_description
_atom_type_scat_dispersion_real
_atom_type_scat_dispersion_imag
_atom_type_scat_source
C C 0.0181 0.0091 'International Tables Vol C Tables 4.2.6.8 and 6.1.1.4'
H H 0.0000 0.0000 'International Tables Vol C Tables 4.2.6.8 and 6.1.1.4'
S S 0.3331 0.5567 'International Tables Vol C Tables 4.2.6.8 and 6.1.1.4'
loop_
_exptl_crystal_face_index_h
_exptl_crystal_face_index_k
_exptl_crystal_face_index_l
_exptl_crystal_face_perp_dist
_exptl_oxdiff_crystal_face_indexfrac_h
_exptl_oxdiff_crystal_face_indexfrac_k
_exptl_oxdiff_crystal_face_indexfrac_l
_exptl_oxdiff_crystal_face_x
_exptl_oxdiff_crystal_face_y
_exptl_oxdiff_crystal_face_z
-1 0 0 0.1621 -0.9997 -0.0002 -0.0018 0.1826 -0.0184 -0.0893
1 0 0 0.0831 0.9997 0.0002 0.0018 -0.1826 0.0184 0.0893
1 -4 -1 0.2391 0.9954 -4.0036 -0.9935 -0.6479 0.0663 -0.8918
0 4 1 0.3468 0.0043 4.0038 0.9954 0.4653 -0.0479 0.9811
0 0 1 0.0183 -0.0004 0.0006 1.0004 0.0073 0.1041 0.0131
0 0 -1 0.0183 0.0004 -0.0006 -1.0004 -0.0073 -0.1041 -0.0131
-4 2 1 0.1668 -3.9968 2.0016 0.9906 0.9667 -0.0455 0.1398
2 3 1 0.3214 2.0025 3.0033 1.0003 -0.0143 0.0269 0.9178
0 -4 -1 0.2463 -0.0043 -4.0038 -0.9954 -0.4653 0.0479 -0.9811
5 1 -1 0.1310 5.0000 1.0009 -0.9925 -0.8057 -0.0502 0.6756
loop_
_geom_angle_atom_site_label_1
_geom_angle_atom_site_label_2
_geom_angle_atom_site_label_3
_geom_angle
C3 S1 S2 105.50(11)
C10 S2 S1 106.55(12)
C4 C3 S1 115.9(2)
C8 C3 S1 123.7(2)
C8 C3 C4 120.4(3)
C5 C4 C3 119.5(3)
C4 C5 C6 121.2(3)
C5 C6 C7 118.4(3)
C5 C6 C9 121.5(3)
C7 C6 C9 120.1(3)
C8 C7 C6 121.3(3)
C3 C8 C7 119.2(3)
C11 C10 S2 124.3(2)
C15 C10 S2 115.6(2)
C15 C10 C11 120.1(3)
C10 C11 C12 119.5(3)
C13 C12 C11 121.3(3)
C12 C13 C14 118.0(3)
C12 C13 C16 121.7(3)
C14 C13 C16 120.3(3)
C15 C14 C13 121.3(3)
C14 C15 C10 119.9(3)
loop_
_geom_bond_atom_site_label_1
_geom_bond_atom_site_label_2
_geom_bond_distance
S1 S2 2.0255(13)
S1 C3 1.790(3)
S2 C10 1.786(3)
C3 C4 1.391(4)
C3 C8 1.387(4)
C4 C5 1.383(4)
C5 C6 1.391(4)
C6 C7 1.393(4)
C6 C9 1.512(4)
C7 C8 1.389(4)
C10 C11 1.386(4)
C10 C15 1.385(5)
C11 C12 1.394(4)
C12 C13 1.389(5)
C13 C14 1.394(5)
C13 C16 1.504(4)
C14 C15 1.384(5)
loop_
_refln_index_h
_refln_index_k
_refln_index_l
_refln_F_squared_meas
_refln_F_squared_sigma
_refln_scale_group_code
0 -6 9 5933.88 331.576 18
0 -5 0 125.668 238.775 5
0 -5 -1 -124.098 97.3973 5
0 -5 1 497.113 290.112 5
0 -5 2 2415.62 514.646 5
0 -5 7 11424.1 656.124 10
0 -5 8 10520.7 617.593 10
0 -5 9 4972.46 426.167 10
0 -5 10 16497.8 746.913 10
0 -5 11 4586.54 356.916 10
0 -5 11 4901.32 399.386 11
0 -5 12 3184.29 259.689 10
0 -5 12 2736.28 266.511 11
0 -5 12 3256.65 259.2 18
0 -5 13 903.259 131.053 11
0 -4 0 46899 2096.68 5
0 -4 1 5583.13 710.482 5
0 -4 -1 5805.89 673.966 5
0 -4 -2 27810.5 1459.24 5
0 -4 -3 13852.1 943.689 5
0 -4 3 12601.3 967.614 6
0 -4 -4 3345.51 462.802 5
0 -4 4 2399.95 462.726 6
0 -4 5 12419.1 1161.4 6
0 -4 6 3395.12 676.158 6
0 -4 7 18175.9 1633.59 6
0 -4 8 24825 1822 6
0 -4 10 3078.16 408.435 10
0 -4 11 24241.6 1066.26 10
0 -4 -11 22183.7 827.437 25
0 -4 12 11255.8 682.345 10
0 -4 13 783.746 179.853 18
0 -4 13 674.598 210.958 10
0 -4 13 670.149 202.847 11
0 -4 14 6996.04 435.189 11
0 -4 14 6985.53 441.675 10
0 -3 0 39.3991 110.58 6
0 -3 -1 148004 3932.63 5
0 -3 1 153908 3691.54 6
0 -3 2 69136.5 2216.71 6
0 -3 -2 71748 2275.78 5
0 -3 -3 35597.8 1432.47 5
0 -3 3 37900.5 1627.51 6
0 -3 -4 3923.24 421.913 5
0 -3 4 4072.74 563.095 6
0 -3 5 5277.11 726.384 6
0 -3 -5 5174.16 489.551 5
0 -3 6 1918.36 514.364 6
0 -3 -6 1990.39 299.081 5
0 -3 -7 1069.59 261.391 5
0 -3 7 1045.92 389.784 6
0 -3 8 9443.9 1049.05 6
0 -3 9 21875.9 1633.19 6
0 -3 10 9990.2 1095.93 6
0 -3 11 6705.04 579.738 10
0 -3 -11 6413.92 450.906 25
0 -3 12 15143.1 873.633 10
0 -3 13 12371.6 760.526 10
0 -3 14 7854.07 542.159 11
0 -3 14 8367.88 579.934 10
0 -3 15 8746.47 534.317 10
0 -3 15 7765.05 460.082 11
0 -2 0 7424.34 421.298 6
0 -2 -1 52741.4 1306.19 6
0 -2 1 52001.3 1521.26 6
0 -2 -1 51331.6 1604.7 5
0 -2 -2 28621 1071.62 5
0 -2 -3 146584 3365.8 5
0 -2 -4 84523.4 2157.52 5
0 -2 -5 132379 3097.48 5
0 -2 -6 24375.8 979.174 5
0 -2 -7 53304.5 1776.4 5
0 -2 -8 8815.39 762.768 5
0 -2 10 13798.5 1228.65 6
0 -2 10 12743 749.214 23
0 -2 -10 12955.6 610.923 25
0 -2 11 23034.3 1633.61 6
0 -2 11 22025.4 1073.69 23
0 -2 -11 21788.8 856.706 25
0 -2 11 23189.3 1050.29 10
0 -2 12 22596.8 1621.14 6
0 -2 12 21858.1 1102.5 23
0 -2 12 22919.4 1074.27 10
0 -2 -12 22224.5 889.029 25
0 -2 13 6692.28 572.473 10
0 -2 13 5425.81 532.895 23
0 -2 14 552.609 207.871 10
0 -2 14 377.501 217.536 23
0 -2 15 7710.29 572.667 23
0 -2 15 8001.07 549.844 10
0 -2 16 123.223 140.211 23
0 -1 -1 147219 2819.36 6
0 -1 -1 137738 3020.85 5
0 -1 -2 325156 6364.6 5
0 -1 -3 285788 5447.74 2
0 -1 -3 274970 5563.92 5
0 -1 -4 302809 5984.33 2
0 -1 -4 294885 5939.01 5
0 -1 -5 5450.98 378.174 5
0 -1 -5 4898.42 388.83 2
0 -1 -6 103925 2794.81 5
0 -1 -6 109785 2721.18 2
0 -1 -7 39303.8 1446.26 5
0 -1 -7 38745.4 1400.94 2
0 -1 -8 34824.2 1404.46 2
0 -1 -9 3456.8 441.346 2
0 -1 10 33423.2 1264.07 13
0 -1 10 34031.4 1300.45 23
0 -1 11 47569.2 1709.37 23
0 -1 -11 44637.1 1406.81 25
0 -1 11 51586.6 2311.29 6
0 -1 11 52034.2 1583.98 10
0 -1 11 48367 1689.03 13
0 -1 12 7478.55 649.95 23
0 -1 12 7340.17 630.544 13
0 -1 12 7293.59 565.349 10
0 -1 12 7407.29 874.745 6
0 -1 13 5987.23 610.88 23
0 -1 13 5701.52 499.936 10
0 -1 14 9282.81 751.947 23
0 -1 14 10027.8 653.477 10
0 -1 15 3227.78 439.832 23
0 -1 16 7391.86 587.376 23
0 -1 17 4938.98 424.088 23
0 0 -1 26570 633.33 5
0 0 -1 23773.9 635.627 2
0 0 -2 9396.29 414.831 2
0 0 -3 115432 2609.95 2
0 0 -4 672.278 184.111 2
0 0 -5 26234.6 1037.16 2
0 0 -6 26293.6 1121.01 2
0 0 -7 13360.6 825.595 2
0 0 -8 46612 1791.74 2
0 0 -9 709.116 276.082 2
0 0 10 38014.7 1409.05 13
0 0 -10 41736 1865.12 2
0 0 10 40563.9 1435.38 23
0 0 -11 38660.3 1904.9 2
0 0 11 38224.1 1501.76 13
0 0 11 40994.7 1290.86 10
0 0 11 40917.5 1532.61 23
0 0 11 38787 1776.39 6
0 0 12 713.922 223.496 10
0 0 12 987.957 290.895 13
0 0 12 890.02 273.276 23
0 0 -12 1445.39 412.085 2
0 0 13 8379.88 715.815 23
0 0 13 7627.24 691.208 13
0 0 13 8867.28 655.95 9
0 0 14 13731.6 802.664 9
0 0 14 14042.8 941.452 13
0 0 14 13317 908.572 23
0 0 15 25024.8 1241.51 23
0 0 15 24370.5 1043.72 9
0 0 16 6174.9 566.773 23
0 0 17 15520.9 813.824 23
0 0 18 -81.3239 123.213 23
0 1 0 56.5083 63.797 2
0 1 0 33.906 202.724 3
0 1 1 131337 3018.4 3
0 1 -1 129377 2886.77 2
0 1 -1 134298 3034.26 3
0 1 2 331481 6662.35 3
0 1 -2 327426 6508.9 4
0 1 -2 331710 6714.35 2
0 1 -2 326058 6655.5 3
0 1 -3 287587 5948.58 3
0 1 -3 297109 6164.47 2
0 1 3 291166 5948.83 3
0 1 -3 295807 5898.62 4
0 1 -4 309480 6587.84 2
0 1 -5 3576.76 423.972 2
0 1 -6 113546 3129.85 2
0 1 -7 37125.6 1588.63 2
0 1 -8 28728.4 1479.74 2
0 1 -9 2845.14 508.542 2
0 1 10 33085.4 1292.35 23
0 1 10 33023.5 1302.43 13
0 1 -10 33879.5 1806.9 2
0 1 11 49956.5 1751.25 23
0 1 -11 51086.6 2375.73 2
0 1 11 49430.9 1775.03 13
0 1 12 8349.78 693.547 13
0 1 12 9137.51 712.502 23
0 1 13 4899.61 556.396 13
0 1 13 4707.65 539.034 23
0 1 14 8878.95 718.138 23
0 1 14 7523.18 696.56 13
0 1 14 8696.53 689.515 9
0 1 15 3812.19 452.26 9
0 1 15 3493.64 442.821 23
0 1 16 7263.93 585.359 23
0 1 16 7201.8 534.147 9
0 1 17 5195.67 436.892 23
0 1 17 5021.14 357.879 9
0 2 0 8566 374.335 2
0 2 0 8811.27 781.063 3
0 2 -1 52687.5 1484.7 2
0 2 -1 55636.7 2007.43 3
0 2 1 57111.1 2019.88 3
0 2 2 30874.4 1360.66 3
0 2 -2 30370.6 1361.21 3
0 2 -2 31532.8 1175.86 2
0 2 -3 138382 3629.56 3
0 2 3 137687 3627.61 3
0 2 -3 142178 3562.83 2
0 2 -4 80749.9 2433.22 3
0 2 4 79824.7 2430.41 3
0 2 -4 82647.6 2491.39 2
0 2 -5 130498 3570.06 2
0 2 -6 25451.7 1255.27 4
0 2 -6 25126.1 1329.81 2
0 2 -7 49585.6 2093.47 2
0 2 -7 54453.4 2106.05 4
0 2 -8 10910.7 1085.66 4
0 2 -8 11029.7 955.68 2
0 2 9 25836.1 1087.17 13
0 2 -9 26443.4 1612.25 2
0 2 9 26065.8 1027.92 21
0 2 10 12464.4 687.871 14
0 2 -10 13039.3 1155.35 2
0 2 10 12258.3 720.291 23
0 2 10 12219.2 763.16 13
0 2 11 24046.9 1000.5 14
0 2 11 24731.7 1167.2 13
0 2 11 22800.5 1096.62 23
0 2 12 23102.9 1174.34 13
0 2 12 21665.1 941.392 14
0 2 12 21718.9 1098.09 23
0 2 13 6141.32 560.513 23
0 2 13 5632.2 579.172 13
0 2 14 704.551 231.236 23
0 2 14 465.667 212.638 9
0 2 15 8566.86 638.69 9
0 2 15 8106.26 589.509 23
0 2 16 -91.7312 180.827 9
0 2 16 15.5734 115.212 23
0 2 17 1001.2 179.645 9
0 3 0 158.865 421.167 3
0 3 -1 149939 3376.94 2
0 3 -1 150478 4631.27 3
0 3 1 148289 4605.81 3
0 3 -2 65191.1 2626.39 3
0 3 -2 66395.9 1962.6 2
0 3 2 65013 2619.67 3
0 3 3 33534.7 1736.93 3
0 3 -3 35234.3 1787.48 3
0 3 -3 33542.4 1450.4 2
0 3 -4 3132.54 471.055 2
0 3 -5 6423.81 722.181 2
0 3 -6 2675.5 505.874 2
0 3 -7 1384.04 365.672 2
0 3 -8 9214.28 972.656 2
0 3 8 10628.5 641.647 21
0 3 9 19357.8 890.712 21
0 3 -9 19204.2 1462.04 2
0 3 10 9294.51 662.991 14
0 3 10 10130.7 686.829 13
0 3 10 8577.25 591.828 21
0 3 11 7493.61 579.019 14
0 3 11 7325.53 608.143 13
0 3 12 14101.2 779.445 14
0 3 12 13514.9 822.748 13
0 3 13 12655.2 696.656 14
0 3 13 11983.4 822.342 9
0 3 14 7033.84 584.118 9
0 3 14 7500.29 460.86 14
0 3 15 9152.82 594.537 9
0 3 16 10825.3 549.205 9
0 4 0 45569.2 1774.98 15
0 4 1 6692.85 605.723 15
0 4 -1 6086.35 592.654 15
0 4 -2 27675 1231.98 15
0 4 2 25908.3 1098.05 27
0 4 2 28552.8 1236.64 15
0 4 3 14425.2 828.375 15
0 4 3 13844.8 759.447 27
0 4 -3 14159.8 813.74 15
0 4 4 3228.79 399.024 15
0 4 -4 3465.55 401.597 15
0 4 4 3134.54 362.161 27
0 4 5 12268.7 738.985 15
0 4 5 14527.9 756.127 27
0 4 -5 13478.7 757.112 15
0 4 8 24264.3 1126.85 14
0 4 9 1540.52 318.625 14
0 4 10 2742.82 390.502 14
0 4 11 21718 1005.27 14
0 4 11 21958.7 1048.08 9
0 4 12 10029.9 616.988 14
0 4 12 9301.08 646.639 9
0 4 13 660.421 186.138 14
0 4 13 883.568 209.356 9
0 4 14 7467.49 459.911 9
0 4 14 7693.76 397.365 14
0 5 0 126.369 178.861 27
0 5 0 420.18 405.616 15
0 5 1 169.95 185.518 27
0 5 1 286.553 394.731 15
0 5 -1 422.038 403.636 15
0 5 2 1633.88 433.448 15
0 5 2 1119 245.805 27
0 5 -2 1810.48 427.117 15
0 5 3 15391.5 949.911 15
0 5 3 14915.7 839.154 27
0 5 -3 15828.2 955.844 15
0 5 3 15080.5 870.33 14
0 5 4 30730.6 1323.58 14
0 5 4 31695.7 1248.94 27
0 5 -4 29667.2 1309.82 15
0 5 5 8360.14 657.212 14
0 5 6 7691.09 605.694 14
0 5 7 11624.4 738.212 14
0 5 8 10468.5 675.569 14
0 5 9 4263.27 420.943 14
0 5 10 16701.9 783.742 14
0 5 11 5511.59 402.776 14
0 5 12 2959.87 263.269 14
0 6 0 7480.14 565.492 27
0 6 1 623.569 205.588 27
0 6 -1 435.046 194.996 27
0 6 2 3712.02 388.277 27
0 6 -2 3530.6 412.221 27
0 6 -3 771.475 252.942 27
0 6 -4 3399.19 421.921 27
0 6 -5 3441.85 430.482 27
0 6 5 3503.75 361.175 14
0 6 6 9032.76 515.65 14
0 6 -6 6535.29 626.095 27
0 6 -7 156.997 172.816 27
0 6 7 399.393 147.262 14
0 6 -8 1261.95 203.949 27
0 6 8 1845.8 201.632 14
0 6 -9 4014.11 259.836 27
0 6 9 5901.51 314.341 14
1 -6 -9 856.117 117.582 25
1 -6 4 8665.54 513.14 18
1 -6 5 7582.48 494.82 18
1 -6 6 4864.69 375.447 18
1 -6 7 8982.33 476.076 18
1 -6 8 1160.5 170.3 18
1 -6 9 -103.552 103.267 7
1 -6 9 273.397 101.233 18
-1 -5 13 707.784 131.31 11
-1 -5 12 332.803 124.698 10
-1 -5 12 204.141 131.932 11
-1 -5 11 5238.59 385.806 10
1 -5 -11 4218.12 293.438 25
1 -5 -10 610.933 178.34 25
-1 -5 10 854.898 202.738 10
1 -5 -2 18527.7 1226.83 5
1 -5 -1 3643.52 574.588 5
1 -5 0 7359.9 833.978 5
1 -5 1 4439.88 680.816 5
1 -5 7 7682.84 621.478 11
1 -5 8 19564.3 955.286 11
1 -5 8 19941.2 856.198 10
1 -5 9 1015.56 241.217 11
1 -5 9 500.101 152.168 10
1 -5 10 1460.43 216.154 10
1 -5 10 1562.41 262.393 11
1 -5 10 1667.88 254.91 18
1 -5 11 1297.88 222.17 11
1 -5 11 1053.17 199.422 18
1 -5 12 2242.13 214.322 18
1 -5 12 1845.39 217.948 11
-1 -4 15 14313.4 542.049 10
-1 -4 14 1634.59 228.03 11
-1 -4 14 2236.71 264.975 10
1 -4 -13 11002.2 518.787 25
-1 -4 13 13733.8 696.44 10
1 -4 -12 646.908 186.297 25
-1 -4 12 741.245 230.899 10
1 -4 -11 3600.98 360.938 25
1 -4 -9 12882 743.813 19
-1 -4 8 15059.7 1384.27 6
-1 -4 7 2087.64 552.691 6
1 -4 -7 465.774 242.698 5
1 -4 -6 8412.29 740.447 5
-1 -4 6 7571.94 1068.24 6
1 -4 -5 18435.5 1146.39 5
-1 -4 5 19847.7 1481.84 6
-1 -4 4 31653.1 1671.05 6
1 -4 -4 29503.7 1496.9 5
1 -4 -3 23605.3 1355.11 5
1 -4 -2 2811.67 462.163 5
1 -4 -1 9578.9 906.578 5
-1 -4 0 12535.7 968.418 5
1 -4 0 11124.6 1010.89 5
-1 -4 -1 28914.8 1450.1 5
1 -4 1 28922.1 1696.3 5
1 -4 2 51371 2393.03 5
-1 -4 -2 51826 1925.59 5
1 -4 2 52503.5 2095.35 6
1 -4 3 5405.24 687.802 6
1 -4 4 20028.1 1381.65 6
1 -4 5 23209.3 1614.35 6
1 -4 6 4527.13 755.577 6
1 -4 7 27940 1138.82 10
1 -4 7 26961.6 2065.9 6
1 -4 8 1670.4 300.074 10
1 -4 9 12763.7 772.492 10
1 -4 10 23338.9 1060.23 10
1 -4 11 11416.8 702.337 10
1 -4 12 4469.75 441.915 11
1 -4 12 4686.14 423.284 10
1 -4 12 4507.04 383.269 18
1 -4 13 2203.16 290.23 11
1 -4 13 1861.53 224.582 18
1 -4 13 1537.86 257.279 10
1 -4 14 4189.57 323.419 11
-1 -3 15 7668.87 490.308 10
-1 -3 15 6075.09 414.647 11
-1 -3 14 20009 916.914 10
1 -3 -13 380.758 175.881 25
-1 -3 13 275.05 217.068 10
1 -3 -12 15372.3 745.938 25
1 -3 -11 9809.31 592.31 25
1 -3 -11 8894.19 557.661 19
-1 -3 10 12456.8 1225.82 6
1 -3 -10 11316.9 686.833 19
1 -3 -9 29481.7 1167.74 19
1 -3 -9 26721.4 1564.58 5
1 -3 -8 15698.2 1037.16 5
1 -3 -7 1127.28 285.59 5
1 -3 -6 7111.24 628.377 5
1 -3 -5 1549.49 316.241 5
1 -3 -4 42841.2 1662.94 5
1 -3 -3 81244.1 2545.7 5
1 -3 -2 19807.9 1115.17 5
1 -3 -1 36450.4 1609.05 5
-1 -3 1 35000.3 1298.26 6
1 -3 0 124636 3614.22 5
1 -3 0 127793 3276.01 6
1 -3 1 52144.6 1866.11 6
-1 -3 -1 53161.3 1834.56 5
-1 -3 -2 9443.69 648.582 5
1 -3 2 9325.25 751.252 6
1 -3 3 28449.4 1457.17 6
-1 -3 -3 29511.8 1146.27 5
1 -3 4 14534.8 1088.55 6
-1 -3 -4 14530.4 718.57 5
1 -3 5 36093.5 1932.99 6
1 -3 6 8243.63 972.913 6
1 -3 7 4820.72 798.641 6
1 -3 8 6221.04 887.937 6
1 -3 9 13488.6 1293.95 6
1 -3 9 12727.5 761.898 10
1 -3 10 5082.05 508.296 10
1 -3 10 5377.21 846.39 6
1 -3 11 11834.9 773.856 10
1 -3 12 2832.07 410.98 10
1 -3 13 11971.9 611.599 18
1 -3 13 12481.3 746.765 11
1 -3 13 12765.6 764.336 10
1 -3 14 96.5836 186.183 10
1 -3 14 83.6849 173.977 11
1 -3 15 24440.8 849.088 11
-1 -2 16 3880.8 362.446 23
-1 -2 15 1287.64 255.049 10
-1 -2 15 1032.93 253.006 23
-1 -2 14 2406.28 360.967 23
-1 -2 14 2887.83 374.863 10
1 -2 -13 2227.5 302.926 19
-1 -2 13 3198.92 398.336 10
1 -2 -13 2979.96 357.634 25
-1 -2 13 3147.68 406.051 23
1 -2 -12 1816.1 276.056 25
-1 -2 12 1680.7 311.135 23
1 -2 -12 1614.95 259.369 19
1 -2 -11 9431.86 586.282 19
-1 -2 11 10693.4 701.067 23
1 -2 -11 10392.5 596.989 25
1 -2 -10 12623.8 644.214 25
-1 -2 10 10765.5 683.044 23
1 -2 -10 12343.4 666.675 19
1 -2 -9 44246.4 1427.8 19
1 -2 -9 40304.6 1960.86 5
1 -2 -8 103715 3130.6 5
1 -2 -7 52129.9 1803.79 5
1 -2 -6 210999 4799.43 5
1 -2 -5 19541.9 905.315 5
1 -2 -4 67642.1 1956.99 5
1 -2 -3 39549.9 1371.99 5
1 -2 -2 30575.2 1195.1 5
1 -2 -1 54999 1754.25 5
1 -2 0 92460.9 2376.46 6
1 -2 1 29541.3 1151.01 6
1 -2 2 32135.9 1269.5 6
-1 -2 -2 32603.9 1055.63 5
-1 -2 -3 26299.6 857.488 5
1 -2 3 25927.4 1207.82 6
1 -2 4 32336.1 1475.25 6
-1 -2 -4 31980.1 955.741 5
1 -2 5 126140 3843.3 6
-1 -2 -5 131938 2899.84 5
-1 -2 -6 8399.74 530.128 5
1 -2 6 8825.68 919.128 6
1 -2 7 82278.3 3078.78 6
1 -2 8 1524.88 445.369 6
1 -2 9 42047.3 1417.66 10
1 -2 9 40223.3 1481.08 23
1 -2 9 40919 2142.23 6
1 -2 10 780.391 229.317 23
1 -2 10 847.269 250.515 10
1 -2 10 699.937 287.475 6
1 -2 11 28993.2 1864.01 6
1 -2 11 30592.8 1284.13 10
1 -2 11 31047.8 1343.25 23
1 -2 12 9735.87 556.556 18
1 -2 12 9473.48 697.849 10
1 -2 12 9121.48 721.452 23
1 -2 13 10633.7 687.365 11
1 -2 13 10221.7 746.448 23
1 -2 13 11065.3 737.41 10
1 -2 14 5772.15 466.643 11
1 -2 14 6560.47 567.837 23
1 -2 14 5553.45 505.991 10
1 -2 15 151.798 149.668 23
1 -2 15 49.1964 124 11
1 -2 16 8010.54 495.525 23
-1 -1 18 1599.85 189.996 23
-1 -1 17 2390.8 309.767 23
-1 -1 16 6755.61 573.377 23
-1 -1 15 132.768 183.492 23
-1 -1 15 312.531 159.532 10
-1 -1 14 12767.7 861.468 23
-1 -1 14 12748.7 709.634 10
-1 -1 14 11713 792.604 13
-1 -1 13 1619.96 285.792 10
-1 -1 13 1124.9 309.761 23
-1 -1 13 1705.91 332.635 13
-1 -1 12 2384.09 365.666 23
1 -1 -12 2212.67 316.717 19
1 -1 -12 2472.88 331.486 25
-1 -1 12 2627.77 336.514 10
-1 -1 12 2898.87 388.11 13
1 -1 -11 26253.9 1017 25
1 -1 -11 27981.3 1063.55 19
-1 -1 11 28233.5 1168.6 13
-1 -1 11 27569.5 1214.74 23
1 -1 -10 46479.2 1372.04 25
-1 -1 10 47007.2 1586.41 23
1 -1 -10 49334.1 1435.73 19
-1 -1 10 45454.2 1516.21 13
1 -1 -9 48033.2 1939.38 2
1 -1 -8 116728 3354.89 2
1 -1 -8 112453 3295.75 5
1 -1 -7 77582.5 2471.77 5
1 -1 -7 75942.7 2461.32 2
1 -1 -6 191173 4414.1 5
1 -1 -6 193940 4516.01 2
1 -1 -5 230812 4847.02 5
1 -1 -5 221386 4910.29 2
1 -1 -4 142060 3136.32 5
1 -1 -4 139186 3168.14 2
1 -1 -3 146611 3189.38 5
1 -1 -2 54827.3 1432.53 5
1 -1 -1 9445.88 471.915 5
1 -1 0 497488 9694.45 6
1 -1 1 320319 6462.4 6
-1 -1 -2 31965.6 738.25 5
1 -1 2 30401.7 1070.23 6
1 -1 3 62673.3 1849.66 6
-1 -1 -3 64321.1 1375.28 5
1 -1 4 25002.9 1129.95 6
-1 -1 -4 24373.9 781.932 5
-1 -1 -5 8047.53 506.885 2
1 -1 5 7266.11 657.148 6
1 -1 6 50511.4 1958.28 6
-1 -1 -6 48061.1 1519.4 2
1 -1 7 36331.5 1656.65 6
-1 -1 -7 34413.5 1285.72 2
-1 -1 -8 86713.1 2496.07 2
1 -1 8 88551.9 2957.69 6
1 -1 9 5932.62 704.8 6
1 -1 10 42777.8 1425.03 10
1 -1 10 44116.8 2057.32 6
1 -1 10 40394.6 1543.8 23
1 -1 11 24034.8 1046.06 10
1 -1 11 24143.6 1531.68 6
1 -1 11 21334.7 1123.75 23
1 -1 12 46952.2 1815.31 23
1 -1 12 49086.5 1539.65 11
1 -1 12 47847.2 1641.22 10
1 -1 13 2080.13 381.343 23
1 -1 13 2464.93 358.548 10
1 -1 14 988.313 284.019 23
1 -1 15 31819 1397.55 23
1 -1 16 2502.18 353.044 23
1 -1 17 7309.35 491.753 23
-1 0 18 8331.42 479.882 23
-1 0 17 21697 972.936 23
-1 0 16 1713.28 331.496 23
-1 0 15 24034.5 1196.46 13
-1 0 15 23484.9 1195.21 23
-1 0 14 448.125 255.432 13
-1 0 14 143.104 205.135 23
-1 0 14 280.028 189.617 9
-1 0 13 31641.1 1391.94 13
-1 0 13 29221.3 1374.81 23
-1 0 12 12309.9 811.207 23
-1 0 12 12247.3 810.014 13
1 0 -12 10242.4 1025.31 2
-1 0 11 89313 2574.94 23
1 0 -11 92434.2 3296.01 2
1 0 -10 346.834 237.288 2
-1 0 10 342.553 170.107 23
1 0 -9 10659.5 926.935 2
1 0 -8 3095.64 472.354 2
1 0 -7 6774.3 656.591 2
1 0 -6 28916.9 1325.05 2
1 0 -5 9159.59 576.895 5
1 0 -5 8311.51 625.167 2
1 0 -4 520978 10737.8 5
1 0 -4 552435 10399.4 1
1 0 -4 543383 10805.2 2
1 0 -3 507841 10485.5 2
1 0 -3 530705 10437.4 5
1 0 -2 27229.3 760.432 5
1 0 -2 24818.2 827.62 2
1 0 -1 391537 7339.18 5
1 0 -1 375959 7537.14 2
1 0 0 1498.05 95.2819 5
-1 0 0 1586.1 135.118 4
1 0 1 11429.3 430.465 6
1 0 2 81417.1 1853.3 6
1 0 3 20964 674.74 1
1 0 3 19044.5 720.129 6
1 0 4 63689.7 1753.86 6
1 0 4 65002.2 1526.5 1
1 0 5 10692.5 655.559 6
-1 0 -6 20503.8 1065.4 2
1 0 6 21541.9 1032.1 6
-1 0 -7 3219.67 438.126 2
1 0 7 3029.41 410.703 6
-1 0 -8 4002.09 509.488 2
1 0 8 3922.65 480.788 6
1 0 9 136.985 157.403 6
-1 0 -9 -82.0816 207.265 2
1 0 10 871.487 213.058 23
1 0 10 1294.15 324.972 6
-1 0 -10 940.996 295.922 2
1 0 10 781.145 213.442 13
1 0 10 1278.72 209.913 9
1 0 11 1236.02 244.791 10
1 0 11 1578.48 319.956 23
1 0 11 1368.67 327.32 13
1 0 11 1917.13 312.333 9
-1 0 -11 1496.46 365.694 2
1 0 12 88900 2567.39 9
1 0 12 86614.6 2702.08 23
1 0 13 2978.47 421.573 9
1 0 13 3520.43 482.124 23
1 0 14 24170.5 1112.1 9
1 0 14 23894.3 1260.43 23
1 0 15 796.232 283.838 23
1 0 15 1075.43 245.448 9
1 0 16 45829.6 1651.62 23
1 0 17 1552.66 268.309 23
1 0 18 35160.6 1043.82 23
-1 1 18 1463.63 182.289 23
-1 1 17 2390.92 309.739 23
-1 1 17 2043.01 240.13 9
-1 1 16 7172.33 529.936 9
-1 1 16 7116.01 583.962 23
-1 1 15 476.398 198.281 9
-1 1 15 130.651 171.571 23
-1 1 15 46.3728 183.684 13
-1 1 14 11777.8 851.976 13
-1 1 14 12959.2 854.445 23
-1 1 13 846.042 270.555 13
-1 1 13 1185.25 316.226 23
-1 1 12 3486.25 453.762 23
-1 1 12 4147.88 491.809 13
1 1 -11 29143.5 1804.4 2
-1 1 11 27411.4 1210.1 23
-1 1 10 44341.9 1519.65 23
-1 1 10 42362.1 1441.77 21
1 1 -10 46588.2 2215.76 2
1 1 -9 42111.6 2004.58 2
1 1 -8 118184 3630.65 2
1 1 -7 87801.2 2864.93 2
1 1 -6 189337 4707.24 2
-1 1 6 178967 3875.32 3
1 1 -5 219475 5466.95 2
-1 1 5 237777 4896.33 3
-1 1 4 138593 3180.26 3
1 1 -4 138229 2891.6 4
1 1 -4 141323 3486.2 2
1 1 -3 126831 2592.28 4
-1 1 3 133559 3024.4 3
1 1 -3 129268 3086.35 2
1 1 -2 49742.3 1410.11 2
1 1 -1 10087.7 477.575 2
1 1 0 514133 9900.9 2
-1 1 -1 329589 6736.85 4
-1 1 -2 27751.1 1021.72 3
-1 1 -2 27309.4 1016.63 4
-1 1 -3 57660.1 1735.6 4
-1 1 -3 61003.6 1675.75 3
1 1 4 21551.9 597.913 6
-1 1 -4 21878.9 860.671 3
-1 1 -4 20300.2 971.685 4
-1 1 -5 10173.1 532.737 3
1 1 5 10405.8 436.908 6
-1 1 -6 52955.6 2005.61 2
-1 1 -6 50124.8 1379.61 3
-1 1 -7 33316.8 1567.02 2
-1 1 -8 79277.1 2760.62 2
-1 1 -9 6129.6 718.75 2
-1 1 -9 5800.14 738.88 4
1 1 10 39993.6 1512.55 23
-1 1 -10 39465.4 1991.45 4
1 1 10 39211.2 1515.44 13
-1 1 -10 39452.9 1999.3 2
1 1 11 22527.6 1151.74 23
1 1 11 24000 1181.87 13
-1 1 -11 21973 1508.27 4
-1 1 -11 23315.2 1546.6 2
1 1 12 48729.2 1838.93 23
1 1 12 52199 1857.92 9
1 1 12 47731.4 1865.6 13
1 1 13 2411.73 424.303 23
1 1 13 2790.87 432.37 9
1 1 14 1421.44 356.91 23
1 1 14 1044.55 286.691 9
1 1 15 30184.8 1349.59 23
1 1 15 30397.2 1283.52 9
1 1 16 2893.95 377.389 23
1 1 16 2615.14 334.581 9
1 1 17 6403.54 459.573 23
-1 2 17 919.089 176.977 9
-1 2 16 4167.59 366.112 23
-1 2 16 4412.58 410.679 9
-1 2 15 1210.71 288.15 9
-1 2 15 1264.93 243.961 23
-1 2 15 1226.22 288.054 13
-1 2 14 2931.83 423.078 13
-1 2 14 2823.71 392.36 23
-1 2 13 3282.71 462.123 13
-1 2 13 3548.71 418.646 23
-1 2 12 1311.76 280.87 23
-1 2 12 1329.66 246.973 14
-1 2 12 1626.33 335.851 13
-1 2 11 9221.01 693.374 13
-1 2 11 8305.54 619.516 23
-1 2 11 8238.67 626.655 21
-1 2 10 13097.8 730.701 23
-1 2 10 12120.2 742.768 21
1 2 -10 13011.8 1210.82 2
-1 2 9 49763.9 1677.84 21
1 2 -9 48741 2318.89 2
1 2 -8 111111 3684.67 2
1 2 -7 50856 2204.53 2
1 2 -6 207579 5451.73 2
-1 2 6 205585 4898.63 3
1 2 -5 20107.7 1221.15 2
-1 2 5 22249.7 1114.49 3
1 2 -4 70621.6 2270.51 2
-1 2 4 67220.1 2235.82 3
-1 2 3 40669.5 1619.58 3
1 2 -3 38795.8 1440.42 2
-1 2 2 33843.6 1481.33 3
1 2 -2 31976.6 1166.39 2
1 2 -1 50842.6 1478.92 2
-1 2 1 55464.6 2077.75 3
-1 2 0 88809.1 3000.59 3
1 2 0 93750 2164.47 2
-1 2 -1 33638.5 1531.85 3
-1 2 -2 33661.9 1475.59 3
-1 2 -3 24277.4 1205.76 3
-1 2 -4 28027.1 1283.04 3
-1 2 -4 27388.3 1325.84 2
-1 2 -5 134480 3724.07 2
-1 2 -5 125757 3455.17 3
-1 2 -5 137046 3737.44 4
-1 2 -6 9803.81 826.022 2
-1 2 -6 8774.17 663.109 3
-1 2 -6 9249.93 866.106 4
-1 2 -7 94008.6 3386.66 4
-1 2 -7 81489.9 2882.96 2
-1 2 -8 1537.75 581.246 4
-1 2 -8 974.812 347.518 2
1 2 9 38189.8 1437.4 13
1 2 9 38939.2 1428.81 23
1 2 9 37935.7 1301.5 14
-1 2 -9 38229.2 1978.7 2
-1 2 -9 38779.7 2264.06 4
1 2 10 926.791 208.753 14
1 2 10 1090.86 265.935 23
1 2 10 1059.11 286.317 13
-1 2 -10 766.839 371.927 2
-1 2 -10 610.083 298.798 4
1 2 11 29476.4 1302.64 23
1 2 11 30250 1367.22 13
1 2 11 29325.4 1152.91 14
1 2 12 8320.24 722.546 9
1 2 12 9140.47 708.245 23
1 2 12 8789.84 582.849 14
1 2 13 9022.79 703.256 23
1 2 13 9214.59 759.242 9
1 2 13 10317.7 595.254 14
1 2 14 6641.77 574.172 23
1 2 14 7112.52 623.555 9
1 2 15 107.037 172.993 9
1 2 15 -33.6531 150.437 23
1 2 16 9093.66 568.804 9
1 2 16 9282.05 519.918 23
1 2 17 6834.94 377.569 9
1 2 17 3830.38 297.873 24
-1 3 16 10263.7 540.073 9
-1 3 15 7245.36 542.879 9
-1 3 14 18980.1 767.892 14
-1 3 13 366.65 209.577 13
-1 3 13 615.551 192.48 14
-1 3 12 15787.7 837.395 14
-1 3 12 15666.9 883.618 13
-1 3 11 10140.9 695.845 13
-1 3 11 9848.47 675.954 14
-1 3 11 8985.59 653.484 21
-1 3 10 12099.6 783.045 21
-1 3 10 12460.7 750.857 13
-1 3 9 28305 1149.09 13
1 3 -9 27836.9 1849.06 2
-1 3 9 29098.5 1286.37 21
1 3 -8 16560.1 1371.42 2
-1 3 8 16559.9 919.153 21
1 3 -7 1074.61 404.154 2
-1 3 7 1023 218.491 21
1 3 -6 5670.67 774.91 2
-1 3 6 7045.97 766.7 3
1 3 -5 1431.03 380.253 2
-1 3 5 1429.39 398.566 3
-1 3 4 45409.7 2087.2 3
1 3 -4 47079.2 1890.61 2
1 3 -3 87267.2 2578 2
-1 3 3 83282.8 3047.61 3
1 3 -2 22301 997.409 2
-1 3 2 21097.2 1442.25 3
1 3 -1 32222.7 1125.75 2
-1 3 1 31392.1 1886 3
-1 3 0 121314 4330.39 3
-1 3 -1 59343.7 2657.3 3
-1 3 -1 63234.8 1955.12 2
-1 3 -2 7643.42 847.998 3
-1 3 -2 5932.45 622.845 2
-1 3 -3 30911.7 1683.42 3
-1 3 -3 32677.2 1498.52 2
-1 3 -4 13109.3 1074.48 3
-1 3 -4 13893.3 969.879 2
-1 3 -5 39222.4 1792.46 2
-1 3 -5 36452.5 1816.77 3
-1 3 -6 7766.77 789.116 2
1 3 6 7791.29 539.685 14
-1 3 -7 4409.91 628.927 2
1 3 7 4016.9 410.521 14
1 3 8 5397.65 483.746 14
-1 3 -8 6319.23 799.889 2
1 3 9 14008.3 800.625 14
1 3 10 6542.43 552.599 14
1 3 11 10880.4 702.567 14
1 3 11 11485.2 822.561 9
1 3 12 2375.5 389.631 9
1 3 12 2829.9 368.202 14
1 3 13 12970.7 815.672 9
1 3 13 11859.5 665.903 14
1 3 14 -27.467 168.531 9
1 3 14 53.0048 125.304 24
1 3 14 97.2029 123.21 14
1 3 15 28982.9 1026 9
1 3 15 19097.2 793.512 24
1 3 16 3705.4 299.228 9
-1 4 15 12494.3 497.147 9
-1 4 14 2284.47 219.844 14
-1 4 14 2246.19 268.431 9
-1 4 13 14248.3 655.02 14
-1 4 13 12261.1 700.716 9
-1 4 12 824.776 224.927 14
-1 4 11 4306.96 444.875 14
-1 4 10 16775.6 844.344 21
-1 4 10 18864 955.62 14
-1 4 9 13567.4 788.637 21
-1 4 8 11232.7 762.515 21
-1 4 7 1935.31 321.601 21
1 4 -6 9886.9 651.028 15
-1 4 5 20032.6 913.535 27
1 4 -5 21041.4 1006.94 15
-1 4 4 29882.7 1161.27 27
1 4 -4 31206.7 1275.04 15
-1 4 3 29170.7 1216.5 15
-1 4 3 24837.7 1817.22 3
-1 4 3 27289.5 1119.11 27
1 4 -3 28361.7 1237.88 15
-1 4 2 2518.32 440.415 15
-1 4 2 1575.6 565.708 3
1 4 -2 2467.33 398.269 15
-1 4 1 8453.34 1148.25 3
1 4 -1 8580.14 743.585 15
-1 4 1 8469.36 723.708 15
-1 4 0 10622 1382.88 3
1 4 0 10982.5 867.201 15
-1 4 0 11538.9 856.054 15
-1 4 -1 28664.8 1279.02 15
1 4 1 28597.1 1331.83 15
-1 4 -1 27347.3 2056.43 3
1 4 1 24939.1 1082.99 27
1 4 2 48060.4 1585.86 27
-1 4 -2 51075.7 1737 15
1 4 2 48727.9 1537.42 14
-1 4 -2 48897.7 2647.75 3
1 4 2 48349 1765.92 15
-1 4 -3 8014.5 999.658 3
1 4 3 6278.59 524.719 14
1 4 3 7486 605.628 15
1 4 3 7217.69 522.758 27
-1 4 -3 7339.04 606.1 15
1 4 4 22007.7 1025.03 15
1 4 4 20438 937.4 27
1 4 4 21815 1029.84 14
1 4 5 24217.7 1090.61 14
1 4 5 22533.1 1025.27 15
1 4 6 4411.82 465.991 14
1 4 7 28748.1 1237.5 14
1 4 8 1418.91 311.986 14
1 4 8 1717.54 320.088 9
1 4 9 11008.3 740.223 9
1 4 9 10250.1 704.593 14
1 4 10 22819.7 1077.21 9
1 4 10 21577.1 1021.42 14
1 4 11 11050.4 717.429 9
1 4 11 11322 686.911 14
1 4 12 4829.72 453.092 9
1 4 12 5191.27 436.393 14
1 4 13 1928.05 246.681 14
1 4 13 2005.39 276.639 9
1 4 14 5104.47 309.307 14
1 4 14 4887.48 344.963 9
-1 5 12 96.4337 115.566 14
-1 5 11 6294.32 426.376 14
-1 5 10 281.42 172.995 14
-1 5 9 4658.87 446.288 14
-1 5 8 752.691 236.654 14
-1 5 7 16293.8 881.636 14
1 5 -6 4905.65 501.365 15
-1 5 5 18426.6 893.37 27
1 5 -5 17986.3 963.314 15
1 5 -4 2962.32 440.423 15
-1 5 4 2366.87 340.831 27
-1 5 3 10376.1 684.88 27
1 5 -3 8822 743.192 15
1 5 -2 19966.6 1148.76 15
-1 5 2 19220.7 1005.42 27
-1 5 1 2134.47 347.383 27
1 5 -1 2120.94 465.743 15
1 5 -1 2241.14 370.498 27
1 5 0 8773.36 832.294 15
1 5 0 9096.78 667.096 27
1 5 1 5436.48 505.468 27
1 5 1 5308.37 633.924 15
1 5 2 70.1763 242.622 15
1 5 2 57.564 168.869 27
1 5 3 20260 960.407 27
1 5 3 19131 939.297 14
1 5 3 19737.5 1070.6 15
1 5 4 32789 1362.7 15
1 5 4 30715.1 1331.9 14
1 5 5 13520.5 826.322 14
1 5 5 13275.2 809.972 15
1 5 6 16037.7 877.113 14
1 5 7 9584.69 658.576 14
1 5 8 20031.3 934.777 14
1 5 9 914.677 229.127 14
1 5 10 1957.65 275.142 14
1 5 11 1298.13 207.431 14
1 5 12 2512.41 233.109 14
-1 6 9 2075.54 196.283 14
-1 6 8 1810.57 208.356 14
-1 6 7 52.8332 121.011 14
1 6 -7 123.064 98.1523 27
-1 6 6 406.956 161.731 14
1 6 -6 206.368 156.832 27
1 6 -5 137.14 162.02 27
-1 6 5 764.208 196.382 14
1 6 -4 5268.81 464.34 27
1 6 -3 25398.8 1055.35 27
-1 6 3 25836.1 997.169 27
1 6 -2 12712.1 704.451 27
-1 6 2 12117.3 674.834 27
1 6 -1 1082.29 241.708 27
-1 6 1 1321.87 258.197 27
-1 6 0 1473.15 279.922 27
1 6 0 1444.31 265.873 27
1 6 1 1611.73 274.817 27
-1 6 -1 1226.04 272.333 27
-1 6 -2 15035.3 834.01 27
-1 6 -3 9599.82 677.639 27
1 6 6 4943.58 376.237 14
1 6 7 10368.5 508.744 14
1 6 8 867.479 156.732 14
-1 6 -9 216.642 100.869 27
1 6 9 104.842 78.8305 14
-1 7 -2 4234.39 280.435 27
-1 7 -3 3615.62 275.8 27
2 -6 -9 970.824 125.185 25
2 -6 -7 1926.34 218.29 19
2 -6 -6 626.056 159.343 22
2 -6 -5 978.299 189.453 22
2 -6 -1 4510.23 324.452 20
2 -6 2 6002.53 392.393 7
2 -6 3 199.406 146.589 7
2 -6 4 3264.64 337.202 7
2 -6 5 2579.15 322.689 7
2 -6 5 2054.26 253.652 18
2 -6 6 2163.59 235.547 18
2 -6 6 2408.58 303.049 7
2 -6 7 2523.06 266.707 7
2 -6 7 2516.52 233.14 18
2 -6 8 705.947 117.803 20
2 -6 8 926.491 136.965 18
2 -6 8 966.851 156.569 7
-2 -5 12 318.67 126.522 10
2 -5 -12 315.741 104.099 25
-2 -5 11 449.62 157.662 10
2 -5 -11 460.816 144.779 25
2 -5 -10 4397.79 320.984 19
2 -5 -10 3949.48 349.368 25
2 -5 -9 19674.7 879.886 19
2 -5 -7 11356.6 576.829 22
2 -5 0 6893.95 493.021 7
2 -5 2 3002.79 334.408 18
2 -5 5 12921.9 776.585 11
2 -5 6 1721.77 334.88 11
2 -5 7 11766 757.347 11
2 -5 7 12098.4 704.94 18
2 -5 8 8857.92 574.953 18
2 -5 8 9910.31 643.49 11
2 -5 9 3803.65 384.047 11
2 -5 9 3685.38 357.449 18
2 -5 10 5909.37 431.068 11
2 -5 10 5739.81 398.377 18
2 -5 11 6907.25 412.348 11
2 -5 11 7086.67 391.742 18
2 -5 11 5882.7 373.72 7
2 -5 12 2386.88 185.811 18
-2 -4 14 11225.6 545.253 10
2 -4 -13 5826.95 387.404 25
-2 -4 13 5819.15 437.815 10
2 -4 -12 593.315 181.391 25
2 -4 -12 633.688 158.886 19
2 -4 -11 6737.9 484.62 19
2 -4 -11 7585.41 518.901 25
2 -4 -10 2210.81 331.331 19
2 -4 -9 2846.36 379.277 19
2 -4 -8 1662.63 260.963 22
2 -4 -7 6418.93 690.951 5
-2 -4 7 6396.7 927.182 6
2 -4 -6 40550.8 1820.02 5
2 -4 -5 17734.5 1171.32 5
2 -4 -4 22733.9 1352.75 5
2 -4 -3 21861.8 1343.45 5
2 -4 -2 4385.17 617.072 5
2 -4 -1 51085.9 2286.01 5
2 -4 0 918.467 359.973 5
2 -4 1 28489.3 1718.39 5
2 -4 2 -70.4321 311.499 5
2 -4 3 23199.6 1616.33 5
2 -4 4 26007.2 1689.18 6
2 -4 4 25170.6 1743.35 5
2 -4 4 26601.9 1159.79 11
2 -4 5 504.603 236.778 11
2 -4 5 326.739 284.138 5
2 -4 5 701.779 347.603 6
2 -4 6 2382.97 411.899 11
2 -4 6 2500.56 675.804 6
2 -4 7 3853.81 437.817 10
2 -4 7 3816.13 488.675 11
2 -4 8 9142.48 644.915 10
2 -4 8 9378.97 715.288 11
2 -4 9 22709.3 1035.65 10
2 -4 9 22239.3 1109.07 11
2 -4 10 412.898 209.537 18
2 -4 10 418.792 197.7 10
2 -4 11 3180.75 392.19 11
2 -4 11 3159.87 346.809 18
2 -4 12 5990.04 412.371 18
2 -4 12 6020.14 481.599 11
2 -4 13 5737.15 413.672 11
2 -4 13 6094.21 352.919 18
-2 -3 16 85.8176 87.4771 10
-2 -3 15 4468.86 361.843 10
-2 -3 14 24567.1 997.13 10
2 -3 -13 20789.3 876.899 19
2 -3 -13 21485.6 910.754 25
2 -3 -12 26752 1063.13 19
2 -3 -12 25380.8 1036.04 25
2 -3 -11 10577.2 653.681 25
2 -3 -11 11467.8 703.284 19
2 -3 -10 2002.67 348.227 19
2 -3 -10 2205.16 538.857 5
2 -3 -9 10268 691.098 19
2 -3 -9 8626.92 918.88 5
2 -3 -8 31566.5 1044.98 22
2 -3 -8 26804.1 1492.96 5
2 -3 -7 10874.4 856.972 5
2 -3 -6 11147.8 837.415 5
2 -3 -5 1130.29 296.672 5
2 -3 -4 47166.1 1865.28 5
2 -3 -3 28344.9 1399.28 5
2 -3 -2 38381.8 1703.27 5
2 -3 -1 6266.5 670.718 5
2 -3 0 71094.1 2544.55 5
2 -3 1 7195.17 743.522 5
2 -3 2 109117 3502.34 5
2 -3 2 113565 3434.96 6
2 -3 3 32286.5 1679.56 6
2 -3 4 22974.6 1478.83 6
2 -3 5 10391.3 1047.23 6
2 -3 6 2134.03 494.304 6
2 -3 6 2489.41 329.749 10
2 -3 7 23177 1018.17 10
2 -3 7 21478.6 1756.21 6
2 -3 8 4089.37 435.883 10
2 -3 8 4179.98 752.56 6
2 -3 9 10234.5 713.422 10
2 -3 9 11488.4 1243.04 6
2 -3 10 3359.11 425.435 10
2 -3 10 3276.43 437.98 11
2 -3 11 16550.6 825.853 18
2 -3 11 15985.1 906.343 10
2 -3 11 16670.3 943.912 11
2 -3 12 17152.8 797.812 18
2 -3 12 18396.2 953.193 11
2 -3 12 18406.6 959.392 10
2 -3 13 10918.4 557.049 18
2 -3 13 11342.9 687.878 11
2 -3 14 2297.2 282.982 11
-2 -2 16 4370.63 362.902 23
-2 -2 15 320.207 180.348 23
-2 -2 15 247.362 160.793 10
-2 -2 14 627.025 210.168 23
-2 -2 14 789.1 208.314 10
-2 -2 13 2277.91 351.46 23
2 -2 -13 2763.36 361.296 19
2 -2 -13 2527.26 347.565 25
-2 -2 12 9177.81 665.52 23
2 -2 -12 9002.73 620.385 19
2 -2 -12 8754.99 595.226 25
2 -2 -11 58174.2 1805.61 19
-2 -2 11 56275.7 1858.06 23
2 -2 -11 57595.3 1723.31 25
2 -2 -10 71794.5 2087.08 19
-2 -2 10 66293.9 2038.07 23
2 -2 -10 68241.7 2788.81 5
2 -2 -10 73095 1980.25 25
-2 -2 9 53251.4 1637.43 23
2 -2 -9 50426.5 2357.08 5
2 -2 -9 51766.8 1724.34 19
2 -2 -8 57613.6 2227.8 5
2 -2 -7 5671.28 580.052 5
2 -2 -6 46214.7 1685.67 5
2 -2 -5 267.957 195.332 5
2 -2 -4 47596.9 1641.07 5
2 -2 -3 43150.4 1529.32 5
2 -2 -2 65995.3 2050.82 5
2 -2 -1 12824 789.277 5
2 -2 0 20164.2 1025.89 5
2 -2 1 18637.4 995.042 5
2 -2 1 18766.5 996.607 6
-2 -2 -2 42105.3 1057.42 5
2 -2 2 42633.1 1673.45 6
2 -2 3 1274.75 318.984 6
2 -2 4 35407.7 1657.88 6
2 -2 5 39205.5 1873.94 6
2 -2 6 42279.7 2149.75 6
2 -2 7 9218.02 1022.23 6
2 -2 8 58446 1796.55 10
2 -2 8 59794.2 2742.46 6
2 -2 9 59500.4 2077.12 23
2 -2 9 62367.5 2828.41 6
2 -2 9 60561.5 1911.21 10
2 -2 10 52737.4 1817.84 11
2 -2 10 58595.2 2709.65 6
2 -2 10 54859.5 1640.61 18
2 -2 10 54038.6 1823.84 10
2 -2 10 54309.7 1970.61 23
2 -2 11 2641.36 400.47 10
2 -2 11 2886.75 330.726 18
2 -2 11 2736.04 420.159 23
2 -2 11 2934.08 386.905 11
2 -2 11 2925.26 593.435 6
2 -2 12 31974.9 1114.88 18
2 -2 12 33087.3 1363.99 10
2 -2 12 33256.6 1321.64 11
2 -2 12 30346.3 1414.01 23
2 -2 13 5291.88 483.584 11
2 -2 13 4755.71 521.144 23
2 -2 14 5474.32 441.591 11
2 -2 14 6526.07 562.05 23
2 -2 15 5687.76 452.564 23
2 -2 16 4002.47 346.866 8
-2 -1 17 12893.2 664.801 23
-2 -1 16 9548.28 656.464 23
-2 -1 15 7169.19 551.681 13
-2 -1 15 6808.62 598.676 23
-2 -1 14 5196.09 553.349 23
-2 -1 14 5719.9 437.15 10
-2 -1 14 5320.76 519.96 13
2 -1 -13 12721.1 795.807 19
-2 -1 13 14515.3 741.374 10
-2 -1 13 15034.7 862.873 13
-2 -1 13 15371.7 937.593 23
-2 -1 12 31971 1291.84 13
2 -1 -12 30715.5 1232.62 19
2 -1 -12 28787.5 1177.57 25
-2 -1 12 29532.2 1338.19 23
2 -1 -11 16040.3 809.051 19
-2 -1 11 14869.3 868.084 23
2 -1 -11 16326.7 787.692 25
-2 -1 10 19464.2 955.102 23
2 -1 -10 20361.9 880.423 19
2 -1 -10 18858.6 808.558 25
2 -1 -9 71419.7 2802.36 2
2 -1 -8 22742.4 1424.58 2
2 -1 -8 21569.6 1341.89 5
2 -1 -7 83329.7 2726.74 5
2 -1 -7 93502 2916.89 2
2 -1 -6 56320 1861.32 5
2 -1 -6 58407.2 2021.32 2
2 -1 -5 51517.8 1613.77 5
2 -1 -4 801.136 200.323 5
2 -1 -3 80627 2071.87 5
2 -1 -2 69422.1 1817.28 5
-2 -1 1 154780 3047.36 4
2 -1 -1 156026 3471.37 5
2 -1 0 226293 4808.07 5
2 -1 1 147698 3544.78 6
2 -1 1 149563 3381.97 5
2 -1 2 70799.6 2064.65 6
2 -1 3 8905.49 651.634 6
2 -1 4 41151.3 1601.36 6
2 -1 5 67571.8 2344.11 6
2 -1 6 67546.6 2501.22 6
-2 -1 -7 60243.3 2086.63 2
2 -1 7 62776.6 2499.18 6
2 -1 8 48901.3 2183.7 6
-2 -1 -8 44791 1742.33 2
2 -1 9 44719.1 2103.36 6
2 -1 9 43518.9 1663.5 23
2 -1 9 45590.1 1445.98 11
2 -1 9 42041.4 1453.15 10
2 -1 10 4778.3 659.399 6
2 -1 10 4169.67 508.922 23
2 -1 10 4291.33 433.556 10
2 -1 10 3968.6 399.06 11
2 -1 11 29865.9 1420.24 23
2 -1 11 29238.5 1251.81 10
2 -1 11 31512.1 1780.61 6
2 -1 11 30454.3 1187.76 11
2 -1 12 60286.2 1851.82 11
2 -1 12 62068.2 2224.99 23
2 -1 13 7438.58 702.132 23
2 -1 14 11125 823.293 23
2 -1 15 198.857 159.979 8
2 -1 15 8.2303 177.64 23
2 -1 16 2589.04 294.295 8
2 -1 16 2458.07 322.296 23
-2 0 18 512.783 134.734 23
-2 0 17 295.243 157.698 23
-2 0 16 3364.75 414.11 23
-2 0 16 3870.93 431.674 13
-2 0 15 39352.8 1540.74 13
-2 0 15 38737.8 1554.83 23
-2 0 14 25592.7 1260.19 23
-2 0 14 25635.4 1251.24 13
-2 0 13 18046.7 1042.32 23
-2 0 13 18366.4 1035.92 13
-2 0 12 45213.6 1711.28 23
2 0 -11 5337.55 483.394 19
-2 0 11 6362.18 562.713 23
2 0 -11 5746.55 786.506 2
2 0 -10 9537.51 591.484 19
-2 0 10 10237.4 667.833 23
2 0 -10 10473.2 1032.83 2
2 0 -9 12027.9 1076.3 2
2 0 -8 36064.5 1862.54 2
2 0 -7 32594 1664.12 2
2 0 -6 74899.5 2057.94 1
2 0 -6 91499.3 2756.49 2
2 0 -5 67815.6 2106.09 5
2 0 -5 69730.9 1938.34 1
2 0 -5 69369.3 2244.68 2
2 0 -4 3049.82 352.103 1
2 0 -4 2540.94 370.819 2
2 0 -4 2070.38 332.814 5
2 0 -3 117817 2717.82 5
2 0 -3 117717 2877.75 1
2 0 -2 446.435 230.915 1
2 0 -2 457.799 123.362 5
2 0 -1 35998.1 946.881 5
2 0 0 218680 4326.19 5
-2 0 0 224528 4609.18 4
2 0 1 981108 19328 1
-2 0 -1 999999 18953.4 4
2 0 2 270058 5597.47 1
2 0 2 254341 4968.24 5
2 0 3 85484.6 2243.43 6
2 0 3 88885.1 2314.37 1
2 0 4 61237.7 1782.91 1
2 0 4 62202 1840.62 6
2 0 5 24958.2 1101.74 6
2 0 5 24035.8 968.723 1
2 0 6 9556.4 538.937 1
2 0 6 11043.6 777.764 6
2 0 7 65334.3 2324.27 6
2 0 8 19439.2 1145.91 6
-2 0 -8 17939.3 1218.76 2
2 0 9 10253.3 672.71 9
2 0 9 9668 815.874 6
-2 0 -9 9449.14 868.509 2
2 0 9 9552.03 705.198 23
2 0 10 3341.6 447.867 23
2 0 10 3213.35 403.03 9
-2 0 -10 2574.17 490.381 2
2 0 11 87224.2 2687.72 23
2 0 11 85740.5 2534.01 9
2 0 12 71809.4 2426.92 23
2 0 12 66436.1 2200.81 9
2 0 13 470.767 224.524 9
2 0 13 1013.29 364.108 23
2 0 14 10521.9 692.389 8
2 0 14 10664.5 818.357 23
2 0 14 9856.06 694.834 9
2 0 15 39433.1 1565.68 23
2 0 15 37226.6 1306.25 8
2 0 16 5346.98 502.03 23
2 0 17 2162.85 269.971 23
-2 1 17 9301.68 457.782 9
-2 1 17 12934 644.685 23
-2 1 16 9489.6 651.709 23
-2 1 16 9745.37 588.588 9
-2 1 16 10106 687.007 13
-2 1 15 7014.74 612.485 23
-2 1 15 8400.19 679.344 13
-2 1 14 5336.85 560.294 13
-2 1 14 5317.66 562.728 23
-2 1 13 12303.1 867.519 13
-2 1 13 13176.9 863.326 23
-2 1 12 27873.2 1281.07 23
-2 1 11 15851.1 857.945 21
2 1 -11 17201.4 1453.11 2
-2 1 11 18491.1 968.58 23
-2 1 10 20562.5 975.615 23
-2 1 10 20597.4 1020.46 16
2 1 -10 20223 1526.99 2
-2 1 10 19449 934.446 21
2 1 -9 75248 3050.11 2
2 1 -8 26879.1 1661.41 2
2 1 -7 80877.2 3038.74 2
2 1 -6 57769.8 2281.75 2
-2 1 6 57144.4 1767.16 3
2 1 -5 52505 1982.58 2
2 1 -4 626.627 246.217 2
2 1 -3 83957.7 2413.02 2
2 1 -2 70795 2143.07 1
2 1 -2 62820.4 1951.31 2
2 1 -1 174735 4405.6 1
2 1 0 223656 5495.36 1
2 1 1 162628 4055.71 1
-2 1 -1 156792 3837.83 4
-2 1 -2 62199.7 1993.29 4
-2 1 -3 6817.14 601.784 4
-2 1 -4 45912.7 1755.25 4
-2 1 -5 67181.1 1990.21 3
-2 1 -5 70410.1 2438.47 4
-2 1 -6 70828.7 2691.76 4
-2 1 -6 65101.3 1912.46 3
-2 1 -7 59324.9 2752.01 4
-2 1 -8 51900.9 2482.61 4
-2 1 -8 47711.4 2215.89 2
2 1 9 44012.4 1589.18 9
2 1 9 40148.2 1593.64 23
-2 1 -9 42589.6 2087.48 2
2 1 9 40571 1294.69 14
-2 1 -9 43659.9 2254.8 4
2 1 10 5686.62 583.423 23
-2 1 -10 5691.32 823.259 4
2 1 10 5198.61 413.099 14
2 1 10 5352.88 545.9 9
2 1 10 5814.87 497.543 8
-2 1 -10 5176.33 714.132 2
2 1 11 33725 1499.34 23
2 1 11 30444.1 1393.31 9
-2 1 -11 29931.3 1928.5 4
2 1 11 29975.3 1245.83 8
2 1 12 59988.7 2156.77 23
2 1 12 60539.7 2097.46 9
2 1 12 59233.6 1877.35 8
2 1 13 7167.33 692.772 23
2 1 13 7520.44 683.686 9
2 1 14 10048.9 767.944 23
2 1 14 8994.6 698.982 9
2 1 15 97.0664 166.899 9
2 1 15 107.023 190.752 23
2 1 16 2276.23 312.169 23
-2 2 17 1141.71 173.267 9
-2 2 16 4175.7 341.343 23
-2 2 16 3643.39 369.626 9
-2 2 16 4793.81 430.711 13
-2 2 15 225.135 172.759 13
-2 2 15 -46.5415 154.359 23
-2 2 14 512.099 233.76 13
-2 2 14 539.391 206.968 23
-2 2 13 2861.73 427.53 13
-2 2 13 3448.21 423.847 23
-2 2 12 9158.91 664.174 23
-2 2 12 8436.97 645.894 21
-2 2 11 55435.3 1894.93 21
-2 2 11 57633.6 1861.97 23
-2 2 10 68438.3 2018.32 23
-2 2 10 68004.2 2205.75 21
2 2 -10 68127.6 3104.16 2
-2 2 9 52807.6 1641.23 23
-2 2 9 53071.2 1875.51 21
-2 2 9 53611.2 1791.7 16
2 2 -9 54978.3 2657.51 2
2 2 -8 55164.5 2632.95 2
-2 2 8 53765.2 1684.78 21
2 2 -7 3941.64 716.041 2
-2 2 6 48370.6 1884.23 3
2 2 -6 50963.5 2260.08 2
2 2 -5 80.8742 212.862 2
-2 2 5 47.7678 219.464 3
-2 2 4 52747.1 2027.24 3
2 2 -4 54017.1 2007.53 2
-2 2 3 41910.8 1796.25 3
2 2 -3 41944.2 1630.63 2
2 2 -2 62276.2 2001.97 2
-2 2 2 64909.7 2391.45 3
2 2 -1 13325.6 757.207 2
-2 2 1 13871.3 1125.77 3
-2 2 0 21876.8 1493.95 3
-2 2 -1 24728.5 1406.62 3
-2 2 -2 41556.8 1803.17 3
-2 2 -3 2192.47 435.879 3
-2 2 -4 38674.9 1672.53 3
-2 2 -5 35102.4 1574.82 3
-2 2 -5 39005.9 1884.87 4
-2 2 -6 44893.4 1800.39 3
-2 2 -6 51732.9 2369.82 4
-2 2 -7 10418.1 1010.98 2
-2 2 -7 11961.3 1267.26 4
2 2 8 50980.2 1613.9 14
2 2 8 55008.2 1845.91 9
-2 2 -8 49955.5 3055.91 4
-2 2 -8 55521.6 2449.9 2
2 2 9 58106.6 2013.78 23
2 2 9 56664.8 1752.06 14
2 2 9 55899.6 1976.76 9
-2 2 -9 55288.4 2554.87 2
2 2 10 56523.1 1982.19 23
2 2 10 54026.1 1973.33 9
-2 2 -10 54583.5 2822.48 4
2 2 10 53881.3 1727.43 14
2 2 11 3282.01 449.118 23
2 2 11 2604.98 352.773 14
-2 2 -11 2137.57 598.403 4
2 2 11 2448.91 399.166 9
2 2 12 33007.5 1466.32 9
2 2 12 29708.4 1368.52 23
2 2 12 30146 1163.24 14
2 2 13 6054.42 575.053 23
2 2 13 5515.56 423.793 14
2 2 13 5570.9 573.914 9
2 2 14 4875.94 480.605 23
2 2 14 4743.59 512.209 9
2 2 15 5265.21 433.413 23
2 2 15 5145.83 476.136 9
2 2 16 5109.88 395.48 9
2 2 16 4099.02 369.043 24
-2 3 16 218.849 109.329 9
-2 3 14 25195.8 858.917 14
-2 3 14 23059.6 998.367 13
-2 3 13 24408.2 974.399 14
-2 3 13 24414.9 1083.99 13
-2 3 12 26088.7 1158.59 13
-2 3 12 24515.2 1124.05 21
-2 3 11 9536.17 674.834 13
-2 3 11 8330.89 666.541 21
-2 3 10 2057.83 387.912 21
-2 3 9 8429.17 706.013 21
-2 3 8 28267.5 1196.75 21
2 3 -8 29101.6 1981.58 2
2 3 -7 10791.3 1147.91 2
-2 3 6 8703.42 890.178 3
2 3 -6 11765.7 1080.59 2
2 3 -5 1067.64 380.261 2
-2 3 5 806.207 348.377 3
-2 3 4 42656.4 2119.35 3
2 3 -4 44488.2 1914.77 2
2 3 -3 31420.2 1443.6 2
-2 3 3 28281.1 1740.34 3
-2 3 2 36862.5 2091.3 3
2 3 -2 37915.6 1526.69 2
-2 3 1 6500.4 931.572 3
-2 3 0 68883.3 3334.49 3
-2 3 -1 7154.83 907.71 3
-2 3 -2 110171 3840.42 3
-2 3 -3 29414.6 1718.47 3
-2 3 -4 26624.5 1615.88 3
-2 3 -4 27443.3 1538.99 2
-2 3 -5 8917.49 881.19 2
2 3 5 9017.1 603.981 14
-2 3 -5 8631.36 882.1 3
2 3 6 2560.58 372.968 24
-2 3 -6 1920.49 449.145 3
2 3 6 2678.69 384.532 9
2 3 6 2661.53 350.183 14
-2 3 -6 3080.36 534.025 2
2 3 7 22335.5 1127.49 9
2 3 7 21341.6 1005.5 14
-2 3 -7 22329.8 1491.91 2
-2 3 -8 2719.26 555.58 2
2 3 8 3576.35 471.283 9
2 3 8 3427.82 402.852 14
2 3 9 10171.9 778.192 9
2 3 9 10470.7 706.515 14
2 3 10 3713.98 482.096 9
2 3 10 3717.21 430.963 14
2 3 11 15980.6 968.961 9
2 3 11 15960.2 852.722 14
2 3 12 19333 1031.88 9
2 3 12 18153.6 875.125 14
2 3 12 19145.7 1072.87 24
2 3 13 12443.5 762.999 9
2 3 13 10671.8 598.386 14
2 3 13 10244.4 719.88 24
2 3 14 2465.4 329.85 9
2 3 14 2700.67 258.674 14
2 3 14 1869.07 277.442 24
2 3 15 4697.68 348.346 24
2 3 15 6660.54 435.112 9
-2 4 14 11074.9 450.786 14
-2 4 14 9059.44 513.401 9
-2 4 13 4922.41 373.85 14
-2 4 12 461.01 174.994 14
-2 4 11 6649.99 522.458 21
-2 4 10 2892.18 398.855 21
-2 4 9 2177.19 391.917 21
-2 4 8 2407.53 367.351 21
-2 4 6 33559.6 2040.42 3
2 4 -6 39562.9 1457.52 15
-2 4 5 13535.5 1318.69 3
2 4 -5 14991.6 881.559 15
-2 4 5 15865.4 764.599 27
2 4 -4 24205.7 1193.63 15
-2 4 4 26034.7 1027.15 27
-2 4 3 20319 1676.14 3
-2 4 3 21032.1 964.186 27
2 4 -3 22821.9 1180.59 15
-2 4 2 5485.21 913.671 3
2 4 -2 5095.36 584.916 15
-2 4 1 55464.1 3242.68 3
2 4 -1 53385.2 1665.14 27
2 4 -1 49793.8 1559.83 24
2 4 -1 53615 2115.82 15
2 4 0 739.544 202.017 24
2 4 0 1116.05 379.872 15
-2 4 0 1615.29 718.531 3
2 4 0 673.192 207.961 27
-2 4 -1 30226.6 2235.44 3
2 4 1 32097 1489.07 15
2 4 1 31722.9 1169.04 27
2 4 1 29991.5 1142.29 24
2 4 2 158.555 171.286 14
-2 4 -2 203.413 315.157 3
2 4 2 -105.641 188.559 27
2 4 2 389.182 287.787 15
2 4 2 -36.7934 198.817 24
-2 4 -3 22768.9 1758.87 3
2 4 3 24667.1 1024.31 27
2 4 3 24760.1 1073.14 24
2 4 3 25108.7 1082.09 14
2 4 3 25150.3 1212.77 15
-2 4 -4 23687.2 1761.33 3
2 4 4 27174.9 1167.03 24
2 4 4 27496 1225.05 15
2 4 4 26152.7 1210.18 14
2 4 5 473.537 211.923 24
-2 4 -5 514.587 349.729 3
2 4 5 366.14 203.982 15
2 4 5 589.2 266.536 14
2 4 6 4079.56 470.143 14
2 4 6 3985.24 466.495 24
2 4 7 4228.96 514.446 24
2 4 7 4141.66 469.234 14
2 4 8 8399.27 681.171 9
2 4 8 8285.33 637.281 14
2 4 8 9177.64 803.278 24
2 4 9 23696.5 1113.79 9
2 4 9 23125.9 1068.21 14
2 4 10 379.178 214.533 24
2 4 10 593.298 211.294 9
2 4 10 553.658 225.489 14
2 4 11 2326.69 347.544 24
2 4 11 2522.4 337.767 14
2 4 11 2826.67 356.806 9
2 4 12 6165.44 468.703 9
2 4 12 5245.95 413.297 24
2 4 12 6439.54 450.754 14
2 4 13 6399.67 414.078 9
2 4 13 6090.94 388.75 14
-2 5 12 366.627 122.793 14
-2 5 11 765.058 183.245 14
-2 5 10 4906.75 402.746 14
-2 5 9 23203.1 892.083 21
-2 5 9 25209.3 1028.98 14
-2 5 8 2230.77 306.308 21
-2 5 7 11326.6 713.873 21
-2 5 6 603.272 221.471 21
2 5 -6 675.578 230.673 27
2 5 -6 420.729 239.53 15
-2 5 5 7046.61 506.726 27
2 5 -5 5962.19 565.726 15
2 5 -5 6483.36 564.635 27
-2 5 4 646.068 207.912 27
2 5 -4 834.826 243.998 27
2 5 -4 479.334 275.382 15
2 5 -3 50290.2 1702.77 27
-2 5 3 51042.9 1672.39 27
2 5 -3 51126.6 1929.35 15
2 5 -2 13397.4 980.03 15
2 5 -2 12989.5 756.317 27
-2 5 2 12318.8 761.6 27
-2 5 1 6514.84 568.339 27
2 5 -1 7430.08 795.47 15
2 5 -1 6515.53 531.698 27
2 5 0 8064.16 583.28 27
2 5 0 9274.44 890.616 15
2 5 1 14769 795.317 27
2 5 1 15340.4 1060.75 15
2 5 2 2743.68 438.54 15
2 5 2 2616.94 346.84 27
2 5 3 570.696 267.586 15
2 5 3 758.053 223.496 14
2 5 4 19090.9 1014.27 15
2 5 4 19276.5 966.558 14
2 5 5 14837.5 870.791 14
2 5 5 15205.7 841.713 15
2 5 6 2292.12 350.173 14
2 5 6 1150.53 277.4 15
2 5 7 13353.5 771.416 14
2 5 8 10242.7 640.708 14
2 5 9 3071.69 338.242 14
2 5 10 5211.66 400.893 14
2 5 11 8178.84 439.591 14
2 5 12 2363.67 198.438 14
-2 6 9 2495.32 199.242 14
-2 6 8 2043.55 202.588 14
-2 6 7 2518.3 243.324 14
-2 6 6 2047.5 241.183 14
-2 6 5 1828.22 255.391 14
2 6 -4 7209.87 469.953 27
2 6 -4 6956.25 540.707 15
2 6 -3 5559.1 418.832 27
2 6 -3 4563.37 489.786 15
-2 6 3 5089.17 385.58 27
2 6 -2 7253.44 471.949 27
-2 6 2 6631.82 462.091 27
2 6 -2 7009.38 632.638 15
-2 6 1 5189.29 430.787 27
2 6 -1 5442.15 421.062 27
2 6 -1 4651.04 623.362 15
-2 6 0 259.211 157.128 27
2 6 0 60.9358 381.596 15
2 6 1 18671.7 1004.15 15
-2 6 -1 16346.8 831.362 27
2 6 2 6505.98 575.537 15
-2 6 -2 5694.27 492.918 27
-2 6 -3 385.977 186.54 27
2 6 3 197.136 272.94 15
3 -6 -8 1457.03 170.421 25
3 -6 -7 2107.05 235.59 19
3 -6 -7 154.618 128.111 22
3 -6 -6 137.203 118.777 22
3 -6 -6 789.352 164.613 19
3 -6 -5 27.8033 131.334 22
3 -6 -4 -32.3018 143.316 22
3 -6 -3 2532.43 237.445 12
3 -6 -2 23272.4 819.294 12
3 -6 -1 10350.8 481.526 20
3 -6 0 1139.96 187.914 20
3 -6 0 949.432 148.776 26
3 -6 1 652.895 168.422 20
3 -6 1 636.495 146.424 26
3 -6 2 3868.36 340.382 20
3 -6 2 4175.36 310.176 7
3 -6 3 5702.03 419.87 20
3 -6 3 6784.29 417.944 7
3 -6 4 917.296 190.357 20
3 -6 4 520.348 170.885 7
3 -6 5 5029.48 342.699 20
3 -6 5 4401.1 367.21 7
3 -6 6 1753.07 188.859 20
3 -6 6 1450.56 208.321 7
3 -6 7 4022.05 238.776 20
3 -6 7 5063.17 300.597 7
-3 -5 12 4915.26 284.324 10
3 -5 -12 3498.94 230.811 25
3 -5 -11 3286.74 233.377 19
3 -5 -11 2835.5 246.489 25
3 -5 -10 4122.03 324.377 19
3 -5 -10 4249.78 340.75 25
3 -5 -9 1490.72 258.223 22
3 -5 -9 1755.92 287.393 19
3 -5 -8 10745.7 602.003 22
3 -5 -8 12235.4 686.503 19
3 -5 -7 5395.82 427.809 22
3 -5 -6 8921.88 536.348 22
3 -5 -6 8668.63 498.264 12
3 -5 -5 4075.56 354.386 12
3 -5 -4 23927.5 962.534 12
3 -5 -3 994.34 212.625 20
3 -5 -3 1308.93 213.866 26
3 -5 -2 664.827 167.138 20
3 -5 -2 740.46 188.883 26
3 -5 0 1071.33 238.757 7
3 -5 1 2774.67 345.222 7
3 -5 2 769.981 178.008 18
3 -5 2 412.012 194.253 7
3 -5 3 2922.54 350.162 18
3 -5 3 3121.67 397.071 7
3 -5 4 3815.92 447.402 7
3 -5 4 3372.27 391.349 18
3 -5 5 9707.5 626.438 11
3 -5 5 8741.81 628.167 18
3 -5 6 677.81 222.005 11
3 -5 6 959.803 252.918 18
3 -5 7 11967.7 720.101 11
3 -5 7 13283.8 700.907 18
3 -5 7 13403.5 766.62 7
3 -5 8 2642.32 310.729 18
3 -5 8 2393.61 321.59 11
3 -5 8 2813.34 344.512 7
3 -5 9 23945.7 771.54 20
3 -5 9 26700.9 924.07 18
3 -5 9 27082.2 949.602 7
3 -5 10 222.378 124.05 18
3 -5 10 463.022 149.291 7
-3 -4 14 8519.78 415.332 10
3 -4 -13 3634.87 280.933 19
-3 -4 13 3822.74 332.337 10
3 -4 -13 3155.39 294.594 25
3 -4 -12 7189.64 458.111 19
3 -4 -12 8052.5 491.662 25
3 -4 -11 3641.24 376.084 19
3 -4 -11 4298 395.836 25
3 -4 -10 394.565 211.08 19
3 -4 -10 168.038 198.487 22
3 -4 -10 282.633 231.54 25
3 -4 -9 20544.4 956.395 22
3 -4 -9 21721.4 1064.78 19
3 -4 -8 13289.2 723.72 22
3 -4 -7 19485.4 854.033 12
3 -4 -7 21161.2 897.91 22
3 -4 -6 5101.73 635.535 5
3 -4 -6 5952.75 454.103 12
3 -4 -5 17005.2 1192.28 5
3 -4 -5 18572.2 845.275 12
3 -4 -5 18894.2 822.221 26
3 -4 -4 19600.4 1296.02 5
3 -4 -4 19351.9 861.97 26
3 -4 -4 21072.8 797.34 20
3 -4 -3 3458.5 323.202 20
3 -4 -3 3567.75 567.315 5
3 -4 -2 17567.8 1238.21 5
3 -4 -1 6791.3 481.544 7
3 -4 -1 6652.03 765.183 5
3 -4 0 3155.7 571.666 5
3 -4 0 3035.5 345.879 7
3 -4 1 13344.7 678.69 18
3 -4 1 13699.9 1177.8 5
3 -4 2 24599 1618.73 5
3 -4 2 21012.8 958.556 18
3 -4 3 70351.9 2092.77 18
3 -4 3 74099.2 3041.73 5
3 -4 3 70080.9 2066.73 11
3 -4 4 1900.52 349.878 18
3 -4 4 2735.62 627.954 5
3 -4 4 1922.32 344.533 11
3 -4 5 6309.23 593.361 18
3 -4 5 6917.96 907.98 5
3 -4 5 7217.7 630.88 11
3 -4 6 31659.8 1464.53 11
3 -4 6 34654.3 1360.99 18
3 -4 7 2913.57 404.292 18
3 -4 7 2992.5 435.354 11
3 -4 8 8585.41 700.958 11
3 -4 8 8832.57 636.904 18
3 -4 9 160.843 211.63 11
3 -4 9 303.024 199.322 18
3 -4 10 4453.42 466.418 11
3 -4 10 4700.67 420.498 18
3 -4 11 9624.22 610.348 11
3 -4 11 9779.8 556.78 18
3 -4 11 9914.17 533.114 7
3 -4 12 5434.98 363.395 18
3 -4 13 1653.78 206.45 8
-3 -3 15 24008.5 793.391 10
3 -3 -14 5544.77 412.407 19
-3 -3 14 6551.95 444.964 10
3 -3 -13 12870.9 685.565 19
3 -3 -13 13326.1 702.071 25
3 -3 -12 316.657 201.276 25
3 -3 -12 545.376 211.083 19
3 -3 -11 41905.6 1505.46 19
3 -3 -11 39575.4 1384.68 25
3 -3 -10 16411.8 903.573 22
3 -3 -10 17503.4 989.032 19
3 -3 -10 19404.9 922.403 25
3 -3 -9 7766.03 897.345 5
3 -3 -9 7835.68 649.072 19
3 -3 -9 7527.18 580.053 22
3 -3 -8 21422.3 1375.84 5
3 -3 -8 23218.4 965.581 12
3 -3 -8 24578.5 991.805 22
3 -3 -7 50849.1 1529.83 12
3 -3 -7 48782.1 2084.02 5
3 -3 -7 51415.9 1518.65 22
3 -3 -6 3861.63 358.565 26
3 -3 -6 4676.43 383.006 12
3 -3 -6 4422.63 567.206 5
3 -3 -5 10278.6 559.741 12
3 -3 -5 8955.94 792.129 5
3 -3 -5 9644.53 545.857 26
3 -3 -4 5583.9 409.564 26
3 -3 -4 5708.62 630.054 5
3 -3 -3 32478.2 1572.52 5
3 -3 -2 47956.4 1974.72 5
3 -3 -1 12603.2 968.103 5
3 -3 0 12825.1 993.716 5
3 -3 1 18877 1243.62 5
3 -3 2 24199.9 1448.08 5
3 -3 3 10286.8 626.702 11
3 -3 3 10453.8 617.484 18
3 -3 3 11056.4 977.569 5
3 -3 4 94473.9 2604.7 11
3 -3 4 100040 3606.18 6
3 -3 4 97336.4 3422.71 5
3 -3 5 13096.3 832.763 11
3 -3 5 13905.2 745.629 10
3 -3 5 12925.9 771.443 18
3 -3 5 14122.7 1209.65 5
3 -3 5 14003.2 1300.36 6
3 -3 6 14960.7 951.064 11
3 -3 6 15592 866.767 10
3 -3 6 15270.6 831.105 18
3 -3 6 16936.3 1506.37 6
3 -3 6 17432.5 1390.23 5
3 -3 7 9300.06 717.242 11
3 -3 7 8962.29 667.251 10
3 -3 7 8935.53 631.291 18
3 -3 7 7979.16 1104.43 6
3 -3 8 11367.3 1299.26 6
3 -3 8 10534.8 735.895 10
3 -3 8 10770.8 697.975 18
3 -3 8 10345.3 769.01 11
3 -3 9 967.166 289.102 11
3 -3 9 2817.72 364.561 18
3 -3 10 3129.73 432.811 11
3 -3 10 2479.14 339.36 18
3 -3 11 3586.46 435.25 11
3 -3 11 3685.53 379.678 18
3 -3 11 3035.63 335.014 7
3 -3 12 20549.8 968.399 11
3 -3 12 20353.6 837.295 18
3 -3 13 6875.82 493.166 11
3 -3 14 13568.6 672.872 8
3 -3 15 485.952 129.659 8
-3 -2 16 130.456 96.3512 23
-3 -2 15 927.577 213.297 23
-3 -2 14 6413.97 525.678 23
3 -2 -14 6815.85 534.911 19
-3 -2 14 7596.43 498.71 10
-3 -2 13 8279.54 617.667 23
3 -2 -13 6611.62 545.359 19
3 -2 -13 7225.96 568.136 25
-3 -2 12 22571.5 1082.42 23
3 -2 -12 23155.2 1057.02 19
3 -2 -12 22406.6 1000.72 25
3 -2 -11 4748.21 446.816 25
-3 -2 11 5027.16 477.517 23
3 -2 -11 5011.51 487.257 19
-3 -2 10 263.162 158.338 23
3 -2 -10 -35.566 238.681 5
3 -2 -10 132.496 179.453 19
3 -2 -10 90.8895 170.112 25
-3 -2 9 54641.3 1737.6 23
3 -2 -9 48147.6 1675.26 22
3 -2 -9 46851 2424.25 5
3 -2 -9 47250.4 1759.12 19
3 -2 -9 53186.1 1709.93 26
3 -2 -9 56143.2 1643.81 25
3 -2 -8 3889.03 390.056 22
-3 -2 8 4421.22 436.433 23
3 -2 -8 3409.79 553.465 5
3 -2 -8 3527.2 373.977 26
3 -2 -8 3993.71 430.99 19
3 -2 -7 90782.9 2205.18 22
3 -2 -7 82211.1 2801.76 5
3 -2 -6 22966.1 1194.84 5
3 -2 -5 33239 1421.8 5
3 -2 -4 33716 1415.52 5
3 -2 -3 52194 1816.71 5
3 -2 -2 5033.02 500.961 5
3 -2 -1 61475.7 2027.55 5
3 -2 0 54277.5 1900.65 5
3 -2 1 98718.1 2883.15 5
3 -2 2 32337.4 1444.32 5
3 -2 3 14389.2 1047.86 6
3 -2 3 13313.1 915.145 5
3 -2 4 16520.9 1056.6 5
3 -2 4 16342.2 1188.75 6
3 -2 5 12414.5 1110.39 6
3 -2 6 84912 2499.43 11
3 -2 6 87924.1 2312.53 18
3 -2 7 25538.2 1156.36 23
3 -2 7 24912.8 1155.8 11
3 -2 7 25554.1 1113.58 10
3 -2 7 24005.1 991.823 18
3 -2 7 25514.6 1842.71 6
3 -2 8 69801.5 2364.58 23
3 -2 8 71333 2237.99 11
3 -2 8 73499.1 2216.02 10
3 -2 8 72399.9 2054.12 18
3 -2 9 15919.7 1062.39 23
3 -2 9 18068.6 969.646 11
3 -2 9 17849.4 846.165 18
3 -2 9 18001.1 1512.85 6
3 -2 10 9747.7 809.426 23
3 -2 10 9896.35 625.432 18
3 -2 10 10137.8 722.926 11
3 -2 10 10629.5 1099.45 6
3 -2 11 13264.2 909.811 23
3 -2 11 12906.8 810.186 11
3 -2 11 12267.2 679.21 18
3 -2 12 9518.92 742.683 23
3 -2 12 9314.54 660.984 11
3 -2 12 10388.1 578.428 18
3 -2 13 1821.26 287.617 11
3 -2 14 2244.64 346.982 8
3 -2 15 105.303 130.825 8
3 -2 16 570.249 137.362 8
-3 -1 17 1154.94 201.021 23
-3 -1 16 2081.43 299.764 23
-3 -1 15 6965.04 576.451 23
-3 -1 15 7655.63 532.399 13
-3 -1 14 246.408 194.655 13
-3 -1 14 173.913 178.374 23
-3 -1 13 8089.91 606.217 13
-3 -1 13 7309.51 632.243 23
3 -1 -13 5897.23 557.293 19
3 -1 -12 2312.97 338.111 19
3 -1 -12 2179.76 350.192 25
-3 -1 12 2515.16 398.31 23
3 -1 -11 7066.72 567.555 19
3 -1 -11 6775.3 538.888 25
-3 -1 11 6164.94 591.626 23
-3 -1 10 32870.3 1379.85 23
3 -1 -10 33826.9 1261.41 19
3 -1 -10 32504.6 1175.56 25
3 -1 -9 13285.5 1108.14 5
3 -1 -9 13538.1 722.889 19
-3 -1 9 13170.1 820.293 23
-3 -1 9 13492.2 759.807 16
3 -1 -9 12543.7 789.846 26
3 -1 -9 14281.6 673.815 25
3 -1 -8 36896.6 1903.23 5
3 -1 -7 35358.3 1677.07 5
3 -1 -7 31111.8 1370.14 1
3 -1 -6 102211 2979.84 5
3 -1 -5 5403.96 496.969 5
3 -1 -4 66615.6 1945.8 5
3 -1 -3 28682.4 1092.99 5
3 -1 -2 10493.5 598.938 5
3 -1 -1 42710.8 1342.02 5
-3 -1 0 9450.73 504.153 4
3 -1 0 9223.55 545.143 5
3 -1 1 167420 3795.49 5
3 -1 2 153174 3561.39 5
3 -1 3 54138.7 1660.7 5
3 -1 4 10725 851.393 6
3 -1 4 9484.11 620.609 5
3 -1 5 96329.8 3157.75 6
3 -1 6 18426.3 1037.9 1
3 -1 6 21327.8 1386.54 6
3 -1 7 47750.1 2328.36 6
3 -1 8 4639.19 545.08 23
3 -1 8 5459.37 405.421 18
3 -1 8 5628.22 497.921 11
3 -1 8 5776.7 789.878 6
3 -1 9 47443.4 1939.67 23
3 -1 9 48405.9 1640.64 11
3 -1 9 48276.3 1466.16 18
3 -1 10 8744.74 778.302 23
3 -1 10 8625.67 525.728 18
3 -1 10 8641.71 626.387 11
3 -1 10 8774 944.632 6
3 -1 11 30912.4 1514.17 23
3 -1 11 30886.2 1230.86 11
3 -1 12 13226.1 947.944 23
3 -1 13 11684.7 856.527 23
3 -1 14 807.701 272.123 23
3 -1 14 730.411 220.966 8
3 -1 15 1281.11 244.329 8
3 -1 16 5288.18 364.356 8
-3 0 17 2155.49 266.866 23
-3 0 16 35214.6 1333.52 23
-3 0 16 36879.6 1313.06 13
-3 0 15 993.934 273.084 13
-3 0 15 1107.83 269.956 23
-3 0 14 24278.3 1178.04 13
-3 0 14 25683.1 1228.22 23
-3 0 13 73.4987 164.182 23
-3 0 12 48233.2 1803.6 23
-3 0 11 10047.1 748.576 23
3 0 -11 9075.15 1074.05 2
3 0 -11 8863.69 645.738 19
-3 0 10 15907.8 923.025 23
-3 0 10 13381.9 715.544 21
3 0 -10 15604.3 811.294 19
-3 0 10 16811.7 935.653 16
3 0 -10 16485.7 1460.23 2
3 0 -9 6533.48 478.975 19
-3 0 9 6641.64 565.937 16
3 0 -9 5902.63 858.555 2
3 0 -9 5141.39 446.319 25
3 0 -8 41009.9 2220.28 2
3 0 -7 1092.01 363.232 2
3 0 -7 993.555 232.596 1
3 0 -6 27842.8 1294.68 1
3 0 -6 31938 1426.43 5
3 0 -6 31636 1657.48 2
3 0 -5 58909.1 2258.43 2
3 0 -5 58028.6 2034.45 5
3 0 -5 60203.9 2055.89 1
3 0 -4 50754.6 1826.72 5
3 0 -4 56134.3 1952.21 1
3 0 -3 16629.7 831.343 5
3 0 -3 17438.2 1025.86 1
3 0 -2 26786 1353.77 1
3 0 -2 25965.3 961.631 5
3 0 -1 88938.8 2126.13 5
3 0 -1 90867 2965.21 1
3 0 0 41948.7 1125.2 5
3 0 0 44837.2 1935.77 1
-3 0 0 40205.6 1421.85 4
3 0 1 112990 2365.3 5
3 0 1 110998 3246.5 1
-3 0 -1 107399 2889.22 4
3 0 2 11114.2 377.201 5
3 0 2 10461.3 806.624 1
-3 0 -2 9627.65 688.604 4
3 0 3 225148 5317.78 1
-3 0 -3 222108 5262.49 4
3 0 4 153543 3966.36 1
3 0 5 5976.12 581.788 1
3 0 6 9994.64 722.795 1
3 0 8 4074.89 502.754 23
3 0 8 3869.95 460.656 9
3 0 9 -75.9649 270.306 23
3 0 9 2.51321 195.097 9
-3 0 -9 -135.508 300.656 2
3 0 10 100.754 201.858 23
3 0 10 163.114 212.641 9
-3 0 -10 265.657 369.537 4
3 0 11 6090.81 670.718 23
3 0 11 5984.17 594.735 9
3 0 11 5535.99 557.647 8
-3 0 -11 4721.69 821.142 4
3 0 12 8700.28 794.538 23
3 0 12 8351.58 691.163 9
3 0 12 8652.76 692.739 8
3 0 13 53312.8 2016.28 23
3 0 13 51504.1 1828.87 8
3 0 14 7101.24 651.628 23
3 0 14 5949.27 507.206 8
3 0 15 13854.6 829.749 23
3 0 15 14185.7 701.916 8
-3 1 17 1739.58 227.789 23
-3 1 17 1434.16 228.872 13
-3 1 16 1982.55 288.636 23
-3 1 16 1644.58 227.558 9
-3 1 16 2137.32 315.012 13
-3 1 15 7494.66 611.849 13
-3 1 15 8153.99 611.985 23
-3 1 14 370.682 206.659 13
-3 1 14 333.6 189.969 23
-3 1 13 6162.82 587.314 23
-3 1 12 2572.06 389.036 23
-3 1 11 8007.64 650.487 23
-3 1 11 7048.5 573.577 21
-3 1 11 7713.17 687.265 16
-3 1 10 32967.2 1383.32 23
-3 1 10 32247.1 1321.3 21
-3 1 10 34484.9 1476.83 16
3 1 -10 34527.3 2194.38 2
-3 1 9 13547 825.709 21
3 1 -9 14522.1 1379.59 2
-3 1 9 12086.1 783.611 23
-3 1 9 13006.8 839.418 16
3 1 -8 42923.8 2378.01 2
-3 1 7 34936.7 1479.95 3
3 1 -7 37104.5 2046.76 2
3 1 -6 97491.8 3373.3 2
3 1 -5 5622.81 689.977 2
3 1 -4 75796.1 2615.62 2
3 1 -3 27133 1400.96 1
3 1 -2 12170.4 967.948 1
3 1 -1 54517.6 2372.41 1
3 1 0 10897.8 1108.3 1
3 1 1 203097 5300.07 1
3 1 2 146664 4069.98 1
-3 1 -2 151701 4057.01 4
3 1 3 50616.5 1978.68 1
-3 1 -3 53767.9 2094.86 4
-3 1 -4 9284.19 858.424 4
-3 1 -5 85065.2 3094.57 4
-3 1 -6 19787.8 1083.67 3
-3 1 -6 20371.6 1513.48 4
-3 1 -7 49536 2700.71 4
3 1 8 5633.11 602.92 23
3 1 8 5083.1 427.646 14
3 1 8 4793.55 546.808 9
3 1 8 5382.04 568.029 8
-3 1 -8 4290.88 852.843 4
3 1 9 46160.3 1892.7 23
3 1 9 45873.7 1491.37 14
-3 1 -9 49423.4 2678.37 4
-3 1 -9 49432.7 2467.55 2
3 1 9 46019.2 1773.84 8
3 1 9 46608.8 1794.88 9
3 1 10 7560.04 681.143 9
3 1 10 8636.34 771.047 23
3 1 10 7745.81 540.372 14
3 1 10 9227.13 705.044 8
-3 1 -10 9134.73 1138.33 4
3 1 11 29582.4 1462.88 23
-3 1 -11 27921.5 1997.13 4
3 1 11 28473.4 1368.21 9
3 1 11 27486 1256.84 8
3 1 12 14694.3 984.897 23
3 1 12 13299.5 907.142 9
3 1 12 11858.5 772.902 8
3 1 13 14557.6 946.618 23
3 1 13 12976.1 860.74 9
3 1 13 11250.9 703.311 8
3 1 14 856.26 258.725 23
3 1 14 1088.98 274.296 9
3 1 16 5778.16 423.11 24
-3 2 16 238.067 146.209 13
-3 2 15 701.067 219.986 13
-3 2 15 839.035 188.832 23
-3 2 14 6567.45 584.415 13
-3 2 14 6288.75 514.861 23
-3 2 13 7589.27 599.243 23
-3 2 12 22477.2 1068.09 23
-3 2 12 21591.4 1084.66 21
-3 2 11 3405.93 401.564 23
-3 2 11 3196.16 441.015 21
-3 2 10 113.613 163.228 23
-3 2 10 138.004 246.025 21
-3 2 10 150.319 209.57 16
-3 2 9 50463.1 1663.37 23
3 2 -9 51633.2 2796.14 2
-3 2 9 50641.2 1801.93 21
-3 2 9 48104.5 1820.33 16
3 2 -8 3890.47 784.636 2
-3 2 8 4742.88 447.135 23
-3 2 8 4143.28 481.309 16
-3 2 7 79696.3 2796.07 3
-3 2 7 85267 2365.22 16
-3 2 6 22808.8 1356.38 3
3 2 -6 24143.9 1601.99 2
-3 2 5 32172.2 1654.61 3
3 2 -5 34300 1798.69 2
-3 2 4 34776.3 1729.54 3
3 2 -4 34257.2 1712.64 2
-3 2 3 55319.5 2319.88 3
-3 2 2 6175.67 775.316 3
-3 2 -1 103842 3549.5 3
-3 2 -2 34551.3 1764.12 3
-3 2 -3 14471.4 1086.48 3
-3 2 -4 14751.8 1078.42 3
-3 2 -5 12192.8 986.799 3
-3 2 -6 85533.4 2942.18 3
-3 2 -6 96592.6 3793.2 4
3 2 6 92766.3 2461.02 14
3 2 7 26507.3 1176.45 23
3 2 7 24843.8 1233.12 9
3 2 7 27422.7 1281.17 8
-3 2 -7 28169.4 2118.61 4
3 2 7 23275.7 1047.96 14
3 2 8 70145.9 2312.44 23
3 2 8 69263.8 2046.72 14
3 2 8 62967 2353.97 8
-3 2 -8 68726.6 3033.4 2
3 2 8 70285.3 2338.81 9
-3 2 -8 67361.6 3718 4
3 2 9 14334 1003.1 23
3 2 9 15565.2 844.06 14
3 2 9 16835 969.179 8
-3 2 -9 15844.2 1657.59 4
3 2 9 15705 1004.32 9
3 2 10 10056 806.743 23
-3 2 -10 8243.32 1175.54 4
3 2 10 9444.17 773.544 9
3 2 10 9290.56 635.723 14
3 2 11 13507.2 903.87 23
3 2 11 12265.4 884.79 9
3 2 11 12148.7 718.796 14
3 2 12 10571.6 801.042 9
3 2 12 11039.8 645.663 14
3 2 12 11817.8 810.68 23
3 2 13 1952.06 344.027 9
3 2 14 2261.54 357.8 24
3 2 14 2647.39 365.388 9
3 2 15 21.8953 135.746 24
3 2 16 541.944 117.894 24
-3 3 15 20858.3 783.974 13
-3 3 14 6494.1 470.535 13
-3 3 13 11666.7 704.901 13
-3 3 13 12269.5 625.317 14
-3 3 12 225.644 175.659 13
-3 3 12 281.899 185.231 21
-3 3 11 38528.4 1552.09 21
-3 3 10 21991.6 1230.46 21
-3 3 9 8093.18 685.054 21
-3 3 8 20783.3 1034.76 16
-3 3 7 47111 1685.78 16
3 3 -7 54912.3 2723.85 2
3 3 -6 4224.53 439.434 15
3 3 -6 4678.76 758.111 2
-3 3 6 2851.49 588.685 3
-3 3 6 4274.29 423.784 16
-3 3 5 9703.15 1034.89 3
3 3 -5 10181.3 1000.01 2
-3 3 4 5792.97 812.149 3
-3 3 3 34240.3 2026.8 3
3 3 -3 32726 1180.79 24
-3 3 2 47031.4 2550.28 3
-3 3 1 12631.2 1475.83 3
-3 3 0 14394 1577.27 3
-3 3 -1 20598.3 1646.21 3
-3 3 -2 23862.6 1674.51 3
3 3 2 24028.5 1054.38 24
-3 3 -3 10168.9 1061.23 3
3 3 3 11945 672.025 14
3 3 3 11054.7 717.944 24
3 3 4 95219.1 2662.77 24
-3 3 -4 89058.9 3424.86 3
3 3 4 89989.1 2511.33 14
3 3 5 12518.1 846.161 24
-3 3 -5 13194.2 1181.35 3
3 3 5 12767.1 753.93 15
3 3 5 13148.4 802.276 14
3 3 6 15834.6 897.926 9
3 3 6 15662.4 874.257 14
3 3 6 15794.5 989.754 24
-3 3 -6 14137.4 1260.54 2
3 3 7 8084.51 747.2 24
3 3 7 8509.31 714.642 9
3 3 7 8420.25 634.885 14
3 3 8 10400 942.202 24
3 3 8 10554 715.334 14
3 3 8 10318.7 796.178 9
3 3 9 1301.48 441.913 24
3 3 9 1443.35 336.386 9
3 3 9 1551.05 294.888 14
3 3 10 1763.63 431.374 24
3 3 10 2048.25 407.218 9
3 3 10 1821.17 328.828 14
3 3 11 4035.14 526.717 24
3 3 11 3759.57 468.12 9
3 3 11 4195.6 428.358 14
3 3 12 20017 1057.72 24
3 3 12 18888.4 984.284 9
3 3 12 19232 862.871 14
3 3 13 6502.82 535.265 24
3 3 13 6346.25 515.432 9
3 3 14 13043.2 648.948 24
-3 4 14 3546.96 280.806 9
-3 4 13 3897.24 301.34 14
-3 4 12 6646.65 473.144 21
-3 4 12 7332.3 489.471 14
-3 4 11 3833.31 398.431 21
-3 4 10 170.31 179.248 21
-3 4 9 23786.7 1220.31 21
-3 4 8 13202.6 827.321 21
3 4 -7 19413.3 956.292 15
3 4 -6 4644.22 504.538 15
-3 4 5 17022.6 1489.34 3
3 4 -5 20755.6 1089.71 15
-3 4 4 17496.7 1549.19 3
3 4 -4 18729 1079.36 15
-3 4 3 4703.21 428.891 27
-3 4 3 4997.95 908.917 3
3 4 -3 5249.23 597.044 15
-3 4 2 19137.9 1792.41 3
3 4 -2 18669.9 901.591 24
3 4 -2 20802.3 1246.9 15
-3 4 1 6831.77 1233.29 3
3 4 -1 7231.02 481.196 27
3 4 -1 5779.76 749.511 15
3 4 -1 7025.94 534.563 24
3 4 0 3642.38 394.666 24
-3 4 0 2613.72 887.022 3
3 4 0 3672.3 352.104 27
3 4 0 4350.23 639.222 15
-3 4 -1 15905.4 1628.53 3
3 4 1 14469.8 1023.66 15
3 4 1 15989.5 760.585 27
3 4 1 15683.3 850.952 24
3 4 2 22793 957.806 14
3 4 2 23890 1245.78 15
3 4 2 21866 1043.9 24
-3 4 -3 61408.4 3039.78 3
3 4 3 66344.3 2237.76 15
3 4 3 67936.9 2005.68 14
3 4 3 66116.2 2105.41 24
3 4 4 2145.77 364.664 14
-3 4 -4 2310.67 516.498 3
3 4 4 2368.89 382.821 15
3 4 4 2226.94 366.011 24
3 4 5 9113.13 676.344 15
3 4 5 8546.11 681.544 14
3 4 5 8793.18 699.485 24
3 4 6 33665.6 1409.27 14
3 4 6 34724.1 1514.55 24
3 4 7 3500.78 440.864 14
3 4 7 3494.17 502.038 24
3 4 8 10686.7 899.764 24
3 4 8 10417.6 710.081 14
3 4 9 21.4121 235.142 24
3 4 9 340.193 171.458 9
3 4 9 150.895 183.974 14
3 4 10 4107.72 413.374 14
3 4 10 4734.01 436.623 9
3 4 10 3888.01 465.07 24
3 4 11 9337.97 571.906 14
3 4 11 8861.34 590.037 24
3 4 12 5027.92 377.54 24
-3 5 12 4894.76 272.843 14
-3 5 11 3838 298.988 14
-3 5 10 3727.26 309.012 21
-3 5 10 4741.84 378.461 14
-3 5 9 1960.53 271.283 21
-3 5 8 11439.8 722.297 21
-3 5 7 5807.79 510.202 21
3 5 -7 5328.92 440.454 15
3 5 -6 8196.17 599.777 15
3 5 -5 5833.73 548.501 15
3 5 -4 24548.6 1227.21 15
-3 5 4 28726.8 1013.22 27
-3 5 3 1129.72 229.851 27
3 5 -3 947.944 317.154 15
3 5 -2 663.879 163.829 27
3 5 -2 764.547 332.146 15
-3 5 2 1039.61 232.672 27
-3 5 1 7813.94 595.333 27
3 5 -1 8474.85 886.837 15
3 5 -1 9272.26 561.593 27
3 5 0 834.083 400.055 15
3 5 1 1939.56 279.598 24
3 5 1 2369.04 448.292 15
3 5 2 638.466 302.678 15
3 5 2 1082.54 221.332 24
3 5 3 2904.1 332.605 14
3 5 3 3043.31 441.322 15
3 5 3 3236.98 353.287 24
3 5 4 3477.07 437.834 15
3 5 4 4113.16 413.062 14
3 5 4 3118.66 373.635 24
3 5 5 8434.95 624.979 14
3 5 5 8381.12 598.382 15
3 5 5 9121.73 616.93 24
3 5 6 728.495 209.85 24
3 5 6 786.391 236.728 14
3 5 7 15199.5 764.813 14
3 5 7 12600.9 826.825 24
3 5 8 3140.77 338.052 14
3 5 8 2744.41 334.77 24
3 5 9 27096 954.609 14
-3 6 8 4596.01 264.122 14
-3 6 7 3272.34 249.554 14
-3 6 6 888.408 161.045 14
-3 6 5 274.041 136.515 14
3 6 -4 55.0484 193.922 15
3 6 -3 2243.54 336.145 15
-3 6 2 25852.9 852.236 27
3 6 -2 26083.4 1168.41 15
3 6 -1 10572.5 836.262 15
-3 6 1 10252.7 525.584 27
3 6 0 1615.94 392.017 15
-3 6 0 1652.59 232.508 27
-3 6 -1 567.172 167.672 27
3 6 1 1174.13 310.096 15
3 6 2 3526.96 402.068 15
-3 6 -2 2897.47 322.032 27
-3 6 -3 5709.43 448.894 27
3 6 3 6080.16 468.106 15
-3 6 -4 819.612 217.031 27
-3 6 -5 4355.93 406.025 27
-3 6 -7 3510.39 304.713 27
4 -6 -6 -148.371 138.915 22
4 -6 -6 -48.1397 109.079 25
4 -6 -5 191.968 145.611 22
4 -6 -5 4327.26 312.826 19
4 -6 -4 1400.19 158.933 12
4 -6 -4 165.711 161.368 22
4 -6 -3 420.622 118.051 12
4 -6 -3 6.59187 143.782 22
4 -6 -2 14742 530.051 12
4 -6 -2 2686.6 322.091 22
4 -6 -1 3.78563 142.874 22
4 -6 -1 89.5674 102.751 20
4 -6 0 1324.88 198.25 12
4 -6 0 1224.51 179.911 20
4 -6 0 1164.06 150.545 26
4 -6 1 333.817 138.248 20
4 -6 1 381.582 155.591 12
4 -6 1 269.536 105.347 26
4 -6 2 2555.43 267.578 12
4 -6 2 2449.14 249.968 20
4 -6 2 2722.3 242.453 26
4 -6 3 4896.34 359.447 12
4 -6 3 5203.63 354.198 20
4 -6 3 6005.54 358.809 26
4 -6 4 7648.79 417.444 12
4 -6 4 8513.01 407.539 20
4 -6 4 8242.67 434.188 26
4 -6 5 99.1709 90.6869 20
4 -6 5 156.362 86.3492 12
4 -6 5 38.4847 95.192 26
4 -5 -11 930.446 135.525 25
4 -5 -10 157.159 109.103 19
4 -5 -10 458.388 130.655 25
4 -5 -9 2308.79 269.143 19
4 -5 -9 2396.91 257.005 25
4 -5 -8 13534.2 722.013 19
4 -5 -8 14250.7 647.965 25
4 -5 -7 1161.32 257.501 22
4 -5 -7 1682.43 280.06 19
4 -5 -6 6271.65 475.661 22
4 -5 -6 5859.26 422.223 12
4 -5 -5 386.142 173.283 12
4 -5 -5 493.505 201.738 22
4 -5 -4 13530.7 691.662 12
4 -5 -4 12469.8 578.734 20
4 -5 -4 12339.3 627.561 26
4 -5 -3 6254.65 480.723 12
4 -5 -3 6556.75 464.849 26
4 -5 -3 6802.2 438.19 20
4 -5 -2 17930.4 839.405 12
4 -5 -2 17606.8 763.491 20
4 -5 -2 17256.6 805.601 26
4 -5 -1 571.588 183.814 20
4 -5 -1 820.445 208.624 7
4 -5 -1 629.389 180.281 26
4 -5 0 1569.81 267.971 20
4 -5 0 1678.94 268.528 7
4 -5 1 6244.59 484.492 7
4 -5 1 5851.37 473.514 20
4 -5 2 3858.24 404.6 20
4 -5 2 4717.06 442.498 7
4 -5 3 247.281 182.555 20
4 -5 3 234.587 162.427 18
4 -5 3 242.663 177.397 7
4 -5 4 1586.4 285.282 20
4 -5 4 1477.23 276.592 18
4 -5 4 1509.24 303.279 7
4 -5 5 4036.2 374.455 20
4 -5 5 3020.14 362.903 18
4 -5 5 3197.8 412.918 7
4 -5 6 11244 570.74 20
4 -5 6 10124.3 602.639 18
4 -5 6 11089.8 671.104 7
4 -5 7 374.802 137.455 20
4 -5 7 302.757 167.831 18
4 -5 7 150.611 172.458 7
4 -5 8 14495.8 530.006 20
4 -5 8 15770.6 665.243 7
4 -5 9 9345.12 436.312 7
4 -4 -13 1766.93 190.437 19
-4 -4 13 2091.94 212.321 10
4 -4 -12 5373.92 372.695 19
4 -4 -12 4948.33 363.284 25
4 -4 -11 2625.33 304.607 19
4 -4 -11 2783.67 304.265 25
4 -4 -10 15828.1 823.523 19
4 -4 -10 16478.6 747.151 25
4 -4 -9 688.939 270.314 22
4 -4 -9 788.579 291.779 19
4 -4 -9 876.802 268.847 25
4 -4 -8 2765.64 393.321 22
4 -4 -8 2670.57 397.604 19
4 -4 -7 329.771 173.021 12
4 -4 -7 638.742 247.94 22
4 -4 -7 502.314 191.4 26
4 -4 -6 1626.61 286.225 12
4 -4 -6 1931.55 310.532 22
4 -4 -6 1759.36 274.426 26
4 -4 -5 8167.51 565.688 12
4 -4 -5 8223.96 561.589 22
4 -4 -5 8282.18 505.922 20
4 -4 -5 8250.29 570.229 26
4 -4 -4 4949.99 452.287 12
4 -4 -4 5093.8 403.673 20
4 -4 -4 4645.52 439.465 26
4 -4 -3 21664.2 887.752 20
4 -4 -3 21667 1382.82 5
4 -4 -3 20693.8 961.405 26
4 -4 -2 30083.9 1104.2 20
4 -4 -2 27163.8 1591.28 5
4 -4 -2 28885.8 1177.74 26
4 -4 -2 29566.4 1135.22 7
4 -4 -1 21147.2 925.848 20
4 -4 -1 20570.3 1348.49 5
4 -4 -1 21969.8 976.966 7
4 -4 0 36289.2 1344.01 7
4 -4 0 34809 1267.1 20
4 -4 0 34744.6 1826.33 5
4 -4 1 3156.26 336.203 18
4 -4 1 3296.38 567.222 5
4 -4 1 3788.64 426.644 7
4 -4 2 9412.38 617.387 18
4 -4 2 11057.9 1004.5 5
4 -4 2 10361.8 693.718 7
4 -4 3 8049.3 603 18
4 -4 3 8880.73 676.658 7
4 -4 4 6164.54 558.954 18
4 -4 4 6160.53 590.282 7
4 -4 5 31138.8 1318.81 18
4 -4 5 31088.1 1406.1 7
4 -4 6 1077.97 335.881 7
4 -4 6 1342.87 312.367 18
4 -4 7 7244.68 480.454 20
4 -4 7 6614.56 548.102 18
4 -4 7 6674.67 574.504 7
4 -4 8 2413.6 273.069 20
4 -4 8 2736.38 349.269 18
4 -4 8 2810.16 340.557 7
4 -4 9 3604.87 364.594 7
4 -4 9 3756.8 274.792 20
4 -4 9 3738.85 373.683 18
4 -4 9 3328.67 361.343 8
4 -4 10 2638.71 274.855 7
4 -4 10 2546.52 289.242 8
4 -4 11 2281.13 240.167 8
4 -3 -14 8947.31 507.633 19
-4 -3 14 11010.2 496.742 10
4 -3 -13 15555.3 751.056 25
4 -3 -13 17928.7 790.605 19
4 -3 -12 27023.1 1075.12 19
4 -3 -12 25493.2 1019.97 25
4 -3 -11 21672.9 1014.06 19
4 -3 -11 22538.2 953.741 25
4 -3 -10 3519.48 439.896 19
4 -3 -10 3638.47 390.164 25
4 -3 -9 3672.09 476.609 19
4 -3 -9 3573.64 467.87 22
4 -3 -9 3724.8 416.912 26
4 -3 -9 3990.98 424.092 25
4 -3 -8 2151.57 326.456 12
4 -3 -8 2303.9 392.154 22
4 -3 -8 2756.32 394.974 19
4 -3 -8 2141.45 315.678 26
4 -3 -7 27638 1123.94 22
4 -3 -7 26609.7 1100.65 12
4 -3 -7 25894.1 1530.29 5
4 -3 -7 26821.2 1096.02 26
4 -3 -6 10162.2 912.072 5
4 -3 -6 11482.8 672.172 12
4 -3 -6 11304.6 660.141 22
4 -3 -6 10620.4 656.463 26
4 -3 -5 771.945 190.872 12
4 -3 -5 1189.38 239.107 22
4 -3 -5 1006.03 213.293 20
4 -3 -5 1146.15 314.547 5
4 -3 -5 914.849 205.198 26
4 -3 -4 528.775 192.937 12
4 -3 -4 496.552 164.26 20
4 -3 -4 631.21 265.422 5
4 -3 -4 580.694 199.164 26
4 -3 -3 24084.5 906.648 20
4 -3 -3 25149.2 1399.46 5
4 -3 -3 23256.5 987.279 26
4 -3 -2 1395.24 220.345 20
4 -3 -2 1374.61 339.683 5
4 -3 -2 1419.14 249.242 7
4 -3 -1 29109.4 1039.65 20
4 -3 -1 28734.5 1507.88 5
4 -3 -1 29298.6 1099.8 7
4 -3 0 3289.68 327.777 18
4 -3 0 3765.74 546.227 5
4 -3 0 3578.7 377.104 7
4 -3 1 71262.6 1942.89 18
4 -3 1 74343.7 2680.19 5
4 -3 1 71883.4 2056.37 7
4 -3 2 5389.81 460.418 18
4 -3 2 4946.56 660.475 5
4 -3 2 5346.38 480.916 7
4 -3 3 92710.7 2576.08 11
4 -3 3 93958.3 2528.62 18
4 -3 3 98490.7 3276.48 5
4 -3 3 91526.4 2581.27 7
4 -3 4 10563.1 718.103 11
4 -3 4 8826.99 656.041 18
4 -3 4 9912.51 933.691 5
4 -3 4 9120.09 684.051 7
4 -3 5 6488.79 584.315 18
4 -3 5 6690.17 623.45 7
4 -3 5 6551.36 623.281 11
4 -3 6 5921.67 639.251 11
4 -3 6 6535.7 577.191 18
4 -3 6 6875.41 603.744 7
4 -3 7 3783.93 351.675 20
4 -3 7 3335.84 409.044 18
4 -3 7 3824.17 504.815 11
4 -3 7 3794.9 437.304 7
4 -3 8 4618.31 526.551 11
4 -3 8 4592.36 359.565 20
4 -3 8 4378.6 453.009 18
4 -3 8 4325.08 448.248 7
4 -3 9 13363 859.892 11
4 -3 9 13183.3 768.9 18
4 -3 9 14480.6 753.948 7
4 -3 10 11475.1 664.455 18
4 -3 10 12380.1 645.902 7
4 -3 10 11513.3 756.024 11
4 -3 11 11170.7 729.105 8
4 -3 12 2153.17 315.232 8
4 -3 13 10220.1 566 8
4 -3 14 3315.18 263.816 8
-4 -2 15 12439.9 583.143 23
-4 -2 14 2811.47 326.715 23
-4 -2 13 15561.2 816.967 23
4 -2 -13 15748.5 831.049 19
-4 -2 12 5977.9 525.924 23
4 -2 -12 6758.05 553.776 19
4 -2 -12 6529.35 530.749 25
-4 -2 11 14647.1 848.899 23
4 -2 -11 14595.9 831.541 19
4 -2 -11 14752.4 793.726 25
-4 -2 10 27941 1219.17 23
4 -2 -10 28401.4 1230.14 19
4 -2 -10 24460.9 1244.18 26
4 -2 -10 28688.7 1113.03 25
-4 -2 9 16504.1 914.211 23
4 -2 -9 14816.1 883.869 19
4 -2 -9 15122.9 887.518 26
4 -2 -9 15461.6 770.57 25
4 -2 -8 12634.5 1179.63 5
4 -2 -8 13432.7 849.107 19
4 -2 -8 13031.5 830.225 22
4 -2 -8 14221.2 792.178 26
4 -2 -8 14563.1 738.433 25
4 -2 -7 75783.7 2151.64 12
4 -2 -7 78139.4 2204.02 22
4 -2 -7 75892.7 2842.65 5
4 -2 -7 78047.1 2170.9 26
4 -2 -6 1399.92 260.483 12
4 -2 -6 1642.4 270.464 22
4 -2 -6 1210.41 321.889 5
4 -2 -6 1555.3 257.727 26
4 -2 -5 55110.3 1583.26 12
4 -2 -5 55602.7 1541.46 22
4 -2 -5 52680.4 2017.57 5
4 -2 -5 52298.1 1590.58 26
4 -2 -4 9382.05 743.225 5
4 -2 -3 34247.9 1478.12 5
4 -2 -2 19293.9 1053.81 5
4 -2 -1 5765.1 554.283 5
4 -2 0 41809.6 1624.16 5
4 -2 1 5405.55 538.233 5
4 -2 2 761.444 214.501 5
4 -2 3 28356.3 1062.51 18
4 -2 3 29189.2 1383.1 5
4 -2 3 27188.6 1060.18 7
4 -2 4 40242 1438.79 11
4 -2 4 39050.6 1245.88 20
4 -2 4 36808.5 1360.56 18
4 -2 4 40225.4 1691.96 5
4 -2 4 37785.5 1363.73 7
4 -2 5 18940.4 773.194 20
4 -2 5 16721.9 880.063 18
4 -2 5 18436.9 980.851 11
4 -2 5 18145.2 918.043 7
4 -2 6 11193.3 818.083 11
4 -2 6 11345.3 576.586 20
4 -2 6 12282.9 733.803 18
4 -2 6 11942.8 723.772 7
4 -2 7 14132 911.605 11
4 -2 7 13879.3 783.393 18
4 -2 7 14587.9 776.27 7
4 -2 8 22106.9 1147.18 11
4 -2 8 22603 1021.29 18
4 -2 8 21987.9 957.365 7
4 -2 9 50470.5 1666.49 18
4 -2 9 51799.3 1567.21 7
4 -2 9 51313 1843.08 11
4 -2 10 8436.65 677.281 11
4 -2 10 8528.58 584.164 18
4 -2 11 17352 1002.63 8
4 -2 12 5499.85 542.862 8
4 -2 13 1634.1 306.335 8
4 -2 14 957.706 207.401 8
4 -2 15 485.123 132.179 8
-4 -1 16 969.969 192.144 23
-4 -1 15 19131 770.01 13
-4 -1 15 19308.4 908.022 23
-4 -1 14 5910.54 469.358 13
-4 -1 14 5840.5 533.944 23
-4 -1 13 8807.6 685.264 23
4 -1 -13 8481.4 650.629 19
-4 -1 12 20945.7 1106.34 23
4 -1 -12 21147.9 1035.07 19
-4 -1 11 4658.41 518.594 23
4 -1 -11 4631.64 483.647 19
4 -1 -11 4032.06 447.041 25
-4 -1 10 14676.5 945.039 23
4 -1 -10 14695.7 813.643 19
-4 -1 10 14282.5 853.658 16
4 -1 -10 14394 773.053 25
4 -1 -9 26641.1 1091.49 19
-4 -1 9 23657.4 1145.25 16
4 -1 -9 23741.4 1187.05 26
4 -1 -9 23459 967.038 25
4 -1 -8 7728.48 892.434 5
4 -1 -8 9577.35 624.159 19
-4 -1 8 9255.45 639.327 16
4 -1 -8 9147.16 653.271 26
4 -1 -8 9665.94 555.272 25
4 -1 -7 31200.6 1211.45 19
4 -1 -7 31785.5 1231.37 22
4 -1 -7 34037.3 1229.99 26
4 -1 -7 34005.7 1073.43 25
4 -1 -6 37952.6 1771.09 5
4 -1 -6 35005.7 1743.4 1
4 -1 -5 15928.9 973.525 5
4 -1 -5 13225.6 1060.9 1
4 -1 -4 34675.5 1412.24 5
4 -1 -3 18700 927.474 5
4 -1 -2 43495.2 1464.43 5
4 -1 -1 109530 2762.03 5
4 -1 0 85732.8 2283.01 5
4 -1 1 20222.3 858.193 5
-4 -1 -1 20036 999.195 4
4 -1 2 90481.1 2297.38 5
-4 -1 -2 87736.4 2648.8 4
-4 -1 -3 27162.7 1351.14 4
4 -1 4 5642.76 705.296 1
4 -1 5 7134.36 773.894 1
4 -1 6 56599.5 1916.27 11
4 -1 6 59109.3 1771.78 18
4 -1 7 19140.5 1015.8 11
4 -1 7 20421.6 909.208 18
4 -1 8 23947.1 1328.43 23
4 -1 9 8166.73 806.724 23
4 -1 10 19247.3 1127.65 8
4 -1 11 16551.7 1031.39 8
4 -1 12 2074.47 372.884 8
4 -1 13 7083.32 604.632 8
4 -1 14 15421.4 795.668 8
4 -1 15 3662.68 326.763 8
-4 0 17 2293.88 236.343 23
-4 0 16 7018.89 458.022 13
-4 0 16 6626.4 478.841 23
-4 0 15 16318 827.041 13
-4 0 15 16060.7 857.907 23
-4 0 14 14929.4 858.18 13
-4 0 14 14956.8 887.244 23
-4 0 13 2140.41 376.438 23
-4 0 12 21893.1 1160.79 23
-4 0 11 55605.7 2017.27 23
4 0 -11 50992.3 1800.16 19
-4 0 11 55543.9 1981.86 16
-4 0 10 11519.7 645.024 21
4 0 -10 13303.3 784.909 19
-4 0 10 13502.9 915.368 16
4 0 -9 11252.2 684.369 19
-4 0 9 12305.5 819.089 16
4 0 -8 6575.62 478.839 19
-4 0 8 6597.5 551.823 16
4 0 -7 734.577 278.552 1
4 0 -7 1294.77 287.31 26
-4 0 7 892.217 218.404 16
4 0 -6 21425 1312.61 1
4 0 -5 20837 1330.35 1
4 0 -5 25949.7 1293.04 5
4 0 -4 28436.1 1344.63 5
4 0 -4 27500 1533.19 1
4 0 -3 1107.72 402.191 1
4 0 -3 596.945 273.385 5
4 0 -2 29623.7 1310.79 5
4 0 -2 36117.7 1828.56 1
4 0 -1 1163.65 492.395 1
4 0 -1 812.987 238.881 5
4 0 0 163320 3865.16 5
4 0 0 189620 5213.86 1
4 0 1 4498.26 680.121 1
-4 0 -1 4219.82 522.406 4
4 0 2 143752 4218.84 1
-4 0 -2 144314 3979.07 4
4 0 3 1261.82 430.234 1
-4 0 -3 1702.27 389.386 4
4 0 4 62415.8 2476.29 1
-4 0 -4 73141.2 2690.89 4
4 0 5 47656.9 2072.59 1
-4 0 -5 57220.8 2491.6 4
4 0 6 60.5551 165.189 23
4 0 6 33.505 172.008 8
-4 0 -6 295.674 321.857 4
4 0 7 1395.69 305.15 23
4 0 7 644.835 259.125 8
-4 0 -7 1018.33 436.35 4
4 0 8 4025.6 561.49 23
4 0 8 3372.72 491.42 8
-4 0 -8 3594 761.293 4
4 0 9 -11.1057 263.371 23
4 0 9 -23.2211 237.39 8
-4 0 -9 -398.684 306.165 4
4 0 10 19.295 224.219 23
4 0 10 76.7661 188.127 8
4 0 11 6080.53 673.533 23
4 0 11 6325.28 625.01 8
4 0 12 51732.2 1861.57 8
4 0 13 47489.7 1678.89 8
4 0 14 677.122 209.515 8
4 0 15 1054.77 175.694 24
4 0 15 1179.35 187.779 8
-4 1 17 8096.59 413.529 13
-4 1 16 1116.34 219.918 13
-4 1 16 1023.62 203.3 23
-4 1 15 20292 951.39 13
-4 1 15 20369.5 927.082 23
-4 1 14 5405.06 510.43 23
-4 1 13 8802.68 683.103 23
-4 1 12 20313.9 1084.24 23
-4 1 11 3630.67 473.258 23
-4 1 11 4004.64 439.187 21
-4 1 11 3932.47 532.018 16
-4 1 10 13261.4 889.079 23
-4 1 10 13114.6 804.998 21
-4 1 10 13311.1 950.682 16
-4 1 9 25911.7 1226.56 21
-4 1 9 24507.3 1234.22 16
-4 1 8 9177.96 617.139 21
-4 1 8 9671.69 694.905 16
-4 1 7 32961.8 1293.48 16
4 1 -4 35071.5 1803.93 1
4 1 -3 21130 1410.29 1
4 1 -2 44793.4 2198.08 1
4 1 -1 105583 3989.48 1
4 1 0 80794.4 3366.49 1
4 1 1 25266.2 1603.94 1
4 1 2 84820.3 3077.1 1
4 1 3 24611.5 1492.25 1
-4 1 -3 28139.3 1630.71 4
-4 1 -4 5797.9 772.767 4
-4 1 -5 10033.2 1089.6 4
4 1 6 57662.9 1981.95 9
4 1 6 57353.3 2010.64 8
-4 1 -6 59845.3 2975.97 4
4 1 7 20077.8 1144.74 9
4 1 7 20281.7 1194.67 8
-4 1 -7 21197.2 1892.04 4
4 1 8 25534.4 1375.8 23
4 1 8 25031 1351.3 9
4 1 8 24491 1375.44 8
-4 1 -8 25605.6 2129.17 4
4 1 9 7447.26 771.783 23
4 1 9 8185.6 748.516 9
4 1 9 8251.03 753.193 8
-4 1 -9 7168.05 1126.47 4
4 1 10 18146.3 1137.33 9
4 1 10 19576.8 1112.05 8
4 1 11 17733.2 1008.32 8
4 1 12 997.582 266.437 8
4 1 13 6176.38 496.908 8
4 1 14 13418 758.335 24
4 1 15 4204.99 349.262 24
-4 2 16 4018.95 314.826 13
-4 2 15 12508.7 676.956 13
-4 2 15 12046.8 566.031 23
-4 2 14 3035.97 374.256 13
-4 2 14 3102 333.986 23
-4 2 13 16160.2 822.372 23
-4 2 12 6773.57 544.26 23
-4 2 12 5205.74 498.119 21
-4 2 11 14499.6 829.527 23
-4 2 11 15665.9 918.97 21
-4 2 11 14387.4 946.949 16
-4 2 10 29899.6 1249.56 23
-4 2 10 29876.5 1437.51 21
-4 2 10 28004.5 1392.1 16
-4 2 9 19398.4 987.807 23
-4 2 9 18579.7 1027.39 21
-4 2 9 19351.4 1120.26 16
-4 2 8 13094.2 858.626 16
-4 2 7 77972.1 2330.01 16
-4 2 6 1884.27 463.9 3
-4 2 6 2032.64 310.028 16
-4 2 5 56237 2481.32 3
-4 2 5 51649.9 1654.08 16
-4 2 4 9993.94 1018.34 3
-4 2 -3 24281.3 1586.47 3
4 2 3 26736.2 1149.73 24
4 2 3 25309.6 1015.68 14
4 2 4 40232.4 1523.88 24
-4 2 -4 37126.8 1992.06 3
4 2 4 38343.6 1455.72 8
4 2 4 38420.4 1393.93 14
4 2 5 17869.2 1014.22 24
-4 2 -5 17716.8 1304.32 3
4 2 5 18010.1 956.758 9
4 2 5 18030.4 977.289 8
4 2 5 16591.8 912.473 14
4 2 6 11826 854.999 24
4 2 6 11687.6 818.362 9
4 2 6 11279.3 742.458 14
4 2 6 11553.3 827.362 8
4 2 7 12650.4 950.995 24
4 2 7 13474.3 924.989 9
4 2 7 12799.8 797.698 14
4 2 7 12235.7 937.65 8
4 2 8 25024.2 1427.28 24
4 2 8 24283.6 1327.89 9
4 2 8 24424.8 1120.09 14
4 2 8 23790.7 1350.22 8
4 2 9 46676.6 2156.61 24
4 2 9 50848.7 2013.14 9
4 2 9 54447.4 1947.8 8
4 2 9 50411.2 1726.39 14
4 2 10 8158.81 797.375 24
4 2 10 8256.3 737.935 9
4 2 10 6871.47 609.327 8
4 2 11 19090.4 1158.64 24
4 2 11 17392.4 879.583 8
4 2 12 4770.36 550.267 24
4 2 13 1560 291.21 24
4 2 14 910.711 202.899 24
4 2 15 596.685 131.352 24
-4 3 14 10275.2 534.923 13
-4 3 13 19112.9 835.928 13
-4 3 13 16769.8 675.292 14
-4 3 12 25693.2 1095.64 21
-4 3 11 25858.7 1201.29 21
-4 3 10 4751.58 595.259 21
-4 3 9 3819.48 478.254 21
-4 3 9 3373.99 430.696 16
-4 3 8 2606.2 412.384 16
-4 3 7 24991.2 1182.07 16
-4 3 6 9808.13 1096.53 3
-4 3 6 11327.3 719.986 16
-4 3 5 343.708 353.629 3
-4 3 5 820.016 223.618 16
-4 3 4 424.903 268.06 3
-4 3 4 523.397 164.58 16
-4 3 3 24907.6 1862.04 3
4 3 -3 24552.6 1051.19 24
4 3 -2 1371.87 256.135 24
-4 3 2 963.479 427.829 3
-4 3 1 31681.4 2554.83 3
4 3 -1 27465.8 1166.98 24
-4 3 0 3315.67 805.36 3
4 3 0 4100.51 433.419 24
-4 3 -1 74167.4 3476.36 3
4 3 1 72394.2 1957.14 14
4 3 1 69855.6 2190.72 24
4 3 2 4604.85 426.645 14
-4 3 -2 4445.26 784.852 3
4 3 2 4774.66 502.432 24
-4 3 -3 84373.2 3555.27 3
4 3 3 87583.6 2538.65 8
4 3 3 91004.3 2450.3 14
4 3 3 86241 2623.17 24
-4 3 -4 7324.37 960.307 3
4 3 4 8712.14 669.068 8
4 3 4 8318.32 630.957 14
4 3 4 9005.25 724.908 24
-4 3 -5 8405.88 977.249 3
4 3 5 9456.32 721.744 8
4 3 5 7861.09 660.105 14
4 3 5 8941.43 741.825 24
4 3 6 8198.47 740.905 24
4 3 6 8255.98 668.438 14
4 3 6 8282.34 742.479 8
4 3 7 4736.78 604.334 24
4 3 7 3857.56 468.292 14
4 3 7 3287.09 548.539 8
4 3 8 4468.37 642.045 24
4 3 8 4448.39 487.143 14
4 3 9 11665.7 1003.01 24
4 3 9 12680.7 783.362 14
4 3 10 11062 871.232 24
4 3 10 11410.8 701.061 14
4 3 11 12081.2 813.845 24
4 3 12 2802.74 356.52 24
4 3 13 11281.3 605.522 24
4 3 14 3972.72 270.533 24
-4 4 12 4969.22 380.62 21
-4 4 12 5417.75 377.892 14
-4 4 11 2579.49 318.044 21
-4 4 10 16222.9 906.675 21
-4 4 9 958.94 284.896 21
-4 4 8 2948.39 400.901 21
4 4 -7 361.222 194.58 15
4 4 -6 1897.83 350.135 15
4 4 -5 7687.13 674.831 15
4 4 -4 3673.03 529.385 15
-4 4 3 17586.3 1686.93 3
4 4 -3 20532.4 1216.92 15
-4 4 2 28897.4 2344.21 3
4 4 -2 35354.5 1733.57 15
4 4 -2 31454.7 1266.71 24
-4 4 1 18796.9 2156.37 3
4 4 -1 21681.7 1523.01 15
4 4 -1 20814.5 1013.6 24
-4 4 0 33498 2692.65 3
4 4 0 37040.6 1872.95 15
4 4 0 33841.6 1377.44 24
-4 4 -1 2595.86 702.12 3
4 4 1 3557.85 556.433 15
4 4 1 3137.62 396.745 24
-4 4 -2 6048.39 987.244 3
4 4 2 7980 554.68 14
4 4 2 7532.95 712.731 15
4 4 2 7114.95 611.037 24
4 4 3 9285.58 757.593 15
4 4 3 9940.03 653.879 14
4 4 3 9532.08 712.17 24
4 4 4 6574.1 569.204 14
4 4 4 6040.94 585.295 15
4 4 4 6555.7 618.906 24
4 4 5 28362.4 1246.67 15
4 4 5 30781.7 1353.21 14
4 4 5 33038.1 1447.41 24
4 4 6 1668.77 347.894 24
4 4 6 1027.35 311.075 14
4 4 7 7087.8 591.958 14
4 4 7 8180.42 727.329 24
4 4 8 2072.47 416.071 24
4 4 8 2537.69 353.516 14
4 4 9 3462.85 372.481 14
4 4 9 3853.67 475.196 24
4 4 10 3217.08 375.472 24
4 4 11 3367.04 315.231 24
4 4 12 1580.08 177.374 24
-4 5 11 1459.94 153.293 14
-4 5 10 561.436 146.33 14
-4 5 10 471.165 124.185 21
-4 5 9 2537.99 279.555 21
-4 5 8 15350 806.77 21
-4 5 7 1837.16 291.304 21
4 5 -7 1226.23 220.437 15
4 5 -6 6585.26 503.535 15
4 5 -5 704.46 237.717 15
4 5 -4 14094.5 874.519 15
4 5 -3 7098.22 660.473 15
4 5 -2 18699.3 1184.64 15
4 5 -1 1378.19 532.665 15
-4 5 0 1117.73 234.046 27
4 5 0 2150.75 502.715 15
4 5 1 5774.72 632.084 15
4 5 1 5700.15 450.637 24
4 5 2 3913.81 474.952 15
4 5 2 3766.72 377.879 24
4 5 3 590.08 182.579 24
4 5 3 361.029 220.711 15
4 5 4 1107.08 222.073 24
4 5 4 1127.25 244.818 15
4 5 5 2831.77 339.65 15
4 5 5 3607.97 381.041 24
4 5 6 11788.9 732.377 24
4 5 7 525.966 205.153 24
4 5 8 16267.3 666.123 24
4 6 -4 1180.97 209.828 15
-4 6 3 278.02 124.794 21
4 6 -3 222.555 187.379 15
4 6 -2 16469.2 824.172 15
4 6 -1 337.173 312.431 15
4 6 0 1465.18 320.19 15
4 6 1 31.8816 175.429 15
4 6 2 2373.4 284.806 15
-4 6 -2 1766.33 181.1 27
4 6 3 4747.48 338.617 15
-4 6 -3 4102.27 279.379 27
5 -6 -4 10.6546 109.556 22
5 -6 -3 69.8902 127.95 22
5 -6 -2 -36.5965 125.724 22
5 -6 -1 4047.85 249.236 12
5 -6 -1 -204.943 145.953 22
5 -6 0 9290.14 366.4 12
5 -6 0 -249.594 142.245 22
5 -6 1 695.51 133.673 12
5 -5 -9 567.039 127.317 19
5 -5 -9 346.346 104.206 25
5 -5 -8 1781.89 225.473 19
5 -5 -8 1210.3 162.652 25
5 -5 -7 13898.1 677.464 19
5 -5 -7 12942.9 521.227 25
5 -5 -6 4687.6 454.101 22
5 -5 -6 5912.54 377.444 25
5 -5 -5 13865.1 593.329 26
5 -5 -5 14010.6 654.504 12
5 -5 -5 13193.8 711.515 22
5 -5 -4 1452.9 242.151 12
5 -5 -4 1954.24 314.45 22
5 -5 -4 1374.35 211.633 26
5 -5 -3 8706.56 532.092 12
5 -5 -3 9148.29 559.986 22
5 -5 -3 9121.27 524.893 26
5 -5 -2 4031.87 375.85 12
5 -5 -2 4526.37 388.814 22
5 -5 -2 4145.85 345.583 20
5 -5 -2 4026.46 365.115 26
5 -5 -1 1297.3 243.617 12
5 -5 -1 1307.12 251.698 22
5 -5 -1 1315.97 217.937 20
5 -5 -1 1207.84 226.969 26
5 -5 0 5141.1 420.232 12
5 -5 0 3831.76 390.086 22
5 -5 0 4662.51 388.037 20
5 -5 0 4449.69 397.387 26
5 -5 1 554.526 191.243 12
5 -5 1 206.29 189.123 22
5 -5 1 669.935 183.716 20
5 -5 1 568.872 177.077 26
5 -5 2 1074.4 233.908 12
5 -5 2 958.343 215.111 20
5 -5 2 958.268 223.243 26
5 -5 3 5415.42 430.587 12
5 -5 3 5783.22 436.89 20
5 -5 3 6187.27 463.775 26
5 -5 3 5872.84 458.895 7
5 -5 4 9248.54 534.278 12
5 -5 4 10027.5 536.007 20
5 -5 4 8300.82 580.005 7
5 -5 4 9063.31 579.551 26
5 -5 5 1284.06 198.001 12
5 -5 5 1637.03 220.779 20
5 -5 5 1327.11 252.281 7
5 -5 5 1435.35 247.07 26
5 -5 6 1920.06 194.992 12
5 -5 6 2180.73 210.113 20
5 -5 6 2482.28 285.857 7
5 -5 6 2574.01 271.999 26
5 -5 7 1188.4 137.077 20
5 -5 7 1391.2 174.336 26
5 -4 -12 4010.43 277.64 19
5 -4 -11 6438.88 398.972 19
5 -4 -11 5521.61 360.307 25
5 -4 -10 4317.34 369.469 19
5 -4 -10 4268.5 335.777 25
5 -4 -9 5349.6 460.505 19
5 -4 -9 5652.46 402.204 25
5 -4 -8 6376.26 566.133 22
5 -4 -8 5059.89 526.344 19
5 -4 -8 5690.79 445.657 26
5 -4 -8 6991.21 464.047 25
5 -4 -7 249.239 271.927 22
5 -4 -7 378.64 221.292 19
5 -4 -7 460.396 165.937 26
5 -4 -7 758.838 221.602 25
5 -4 -6 3279.35 384.545 12
5 -4 -6 3849.54 440.539 22
5 -4 -6 3252.34 356.239 26
5 -4 -5 3209.04 385.44 12
5 -4 -5 4129.92 441.173 22
5 -4 -5 3384.97 376.251 26
5 -4 -4 16765.9 843.154 12
5 -4 -4 17326.3 836.165 22
5 -4 -4 15148.4 740.399 20
5 -4 -4 15654.1 827.745 26
5 -4 -3 18418.5 889.011 12
5 -4 -3 20124.7 895.782 22
5 -4 -3 17765 828.376 20
5 -4 -3 18116.9 902.434 26
5 -4 -2 9306.34 625.127 12
5 -4 -2 10359.2 622.976 22
5 -4 -2 10151.4 612.701 20
5 -4 -2 8668.68 617.396 26
5 -4 -1 2931.25 380.913 12
5 -4 -1 3175.56 365.875 20
5 -4 -1 3635.16 405.009 26
5 -4 0 5586.42 483.567 20
5 -4 0 5850.39 521.451 7
5 -4 0 5766.7 513.847 26
5 -4 1 413.415 205.143 20
5 -4 1 330.9 220.745 7
5 -4 2 17683.4 913.712 20
5 -4 2 18141.5 963.707 7
5 -4 3 10356 688.256 20
5 -4 3 11195.7 763.893 7
5 -4 4 14402.2 777.057 20
5 -4 4 14502.2 896.234 7
5 -4 5 2632.35 316.279 20
5 -4 5 1970.51 363.303 7
5 -4 6 1803.94 255.782 20
5 -4 6 2273.22 348.982 7
5 -4 7 7366.45 426.555 20
5 -4 7 8297.6 569.21 7
5 -4 8 685.696 189.406 7
5 -4 9 3637.21 298.078 7
5 -3 -13 2036.41 248.787 19
5 -3 -12 1903.19 270.194 19
5 -3 -11 1808.14 281.443 19
5 -3 -11 1891.37 281.878 25
5 -3 -10 39101.7 1396.26 19
5 -3 -10 38831.6 1283.49 25
5 -3 -9 19144.8 978.021 19
5 -3 -9 17591.1 945.849 26
5 -3 -9 19331.5 840.847 25
5 -3 -8 1578.33 395.946 22
5 -3 -8 2209.47 411.025 19
5 -3 -8 2315.76 355.538 26
5 -3 -8 2700.27 333.989 25
5 -3 -7 9025.52 651.413 12
5 -3 -7 8905.64 715.407 22
5 -3 -7 9361.69 694.365 19
5 -3 -7 9101.07 646.423 26
5 -3 -7 10088.9 608.881 25
5 -3 -6 4477.8 469.562 12
5 -3 -6 4601.8 494.783 22
5 -3 -6 3567.17 418.451 26
5 -3 -5 1860.78 314.173 12
5 -3 -5 1909.64 356.124 22
5 -3 -5 1406.2 387.414 5
5 -3 -5 1731.58 306.849 26
5 -3 -4 8311.46 589.428 12
5 -3 -4 8878.5 591.431 22
5 -3 -4 7952.07 539.668 20
5 -3 -4 6885.68 737.319 5
5 -3 -4 7788.21 580.938 26
5 -3 -3 1525.89 291.531 12
5 -3 -3 1605.45 289.108 22
5 -3 -3 1721.57 287.438 20
5 -3 -3 891.777 312.42 5
5 -3 -3 1490.58 274.06 26
5 -3 -2 19446.8 904.344 12
5 -3 -2 18580.8 842.214 22
5 -3 -2 18639.4 858.569 20
5 -3 -2 16778.6 1131.72 5
5 -3 -2 18130.9 906.977 26
5 -3 -1 25658.8 1054.17 12
5 -3 -1 24015.2 1008.35 20
5 -3 -1 24710.3 1377.45 5
5 -3 -1 24067.6 1091.3 7
5 -3 -1 24719.5 1086.03 26
5 -3 0 30206.6 1175.68 20
5 -3 0 31587.8 1580.85 5
5 -3 0 30874.2 1258.72 7
5 -3 1 35392.5 1287.86 20
5 -3 1 34170.3 1644.78 5
5 -3 1 31403.1 1315.31 7
5 -3 2 400.717 239.118 20
5 -3 2 519.072 274.309 7
5 -3 3 3152.8 431.17 7
5 -3 3 3643.38 429.649 20
5 -3 4 26346.6 1083.77 20
5 -3 4 24905.9 1213.27 7
5 -3 5 44735.9 1432.08 20
5 -3 5 39548.8 1615.41 7
5 -3 6 2612.28 310.587 20
5 -3 6 2740.24 404.338 7
5 -3 7 163.315 142.117 20
5 -3 7 -61.1257 207.485 8
5 -3 7 -27.9543 168.919 7
5 -3 8 5244.18 453.471 7
5 -3 8 4411.94 483.536 8
5 -3 9 10639.4 727.36 8
5 -3 9 12258.5 621.561 7
5 -3 10 307.254 176.706 8
5 -3 11 442.79 160.243 8
5 -3 12 39.5317 78.311 17
5 -3 12 32.5649 120.433 8
-5 -2 14 1866.89 214.916 23
-5 -2 13 2539.25 300.066 23
5 -2 -13 2702.66 335.345 19
-5 -2 12 2309.74 306.409 23
5 -2 -12 2168.24 323.091 19
-5 -2 11 7175.92 557.949 23
5 -2 -11 6895.14 547.56 19
5 -2 -11 6942.05 525.546 25
-5 -2 10 2222.76 336.95 23
5 -2 -10 2158 335.008 19
5 -2 -10 2157.41 317.181 25
5 -2 -9 3652.51 481.492 26
-5 -2 9 4378.08 503.367 23
5 -2 -9 4110.12 463.982 19
5 -2 -9 3948.7 400.752 25
5 -2 -8 13475.4 826.93 19
5 -2 -8 13385 848.919 26
5 -2 -8 13456.6 704.893 25
5 -2 -7 18158.2 1082.35 22
5 -2 -7 19829.8 1489.1 5
5 -2 -7 20732.2 1084.34 19
5 -2 -7 23481.1 1082.87 26
5 -2 -7 23793.2 922.452 25
5 -2 -6 78392.8 2254.11 12
5 -2 -6 74296.2 2299.33 22
5 -2 -6 80554.6 2922.21 5
5 -2 -6 80590.3 2300.12 19
5 -2 -6 76219.9 2236.44 26
5 -2 -6 79854.6 2045.13 25
5 -2 -5 14237.9 769.135 12
5 -2 -5 13900.9 795.972 22
5 -2 -5 12166.1 1239.61 1
5 -2 -5 13088 1011.1 5
5 -2 -5 14745.8 796.753 26
5 -2 -5 14216.2 668.073 25
5 -2 -4 14226.7 740.365 12
5 -2 -4 13914.3 745.105 22
5 -2 -4 11863.2 923.825 5
5 -2 -4 12605 722.111 26
5 -2 -3 20485.4 884.656 12
5 -2 -3 20754.1 880.987 22
5 -2 -3 19780.2 852.274 20
5 -2 -3 19071.4 1126.1 5
5 -2 -3 20043.4 909.925 26
5 -2 -2 5845.54 451.251 12
5 -2 -2 6894.56 464.25 22
5 -2 -2 5500.79 429.723 20
5 -2 -2 5346.17 559.038 5
5 -2 -2 5464.27 453.686 26
5 -2 -1 4044.84 372.216 12
5 -2 -1 4608.9 386.869 22
5 -2 -1 4113.64 374.24 20
5 -2 -1 3932.99 488.464 5
5 -2 -1 4547.74 404.969 26
5 -2 0 29916.1 1059.71 12
5 -2 0 28089.6 1003.4 22
5 -2 0 27156.4 1046.23 20
5 -2 0 27452 1319.04 5
5 -2 0 27418.5 1110.72 7
5 -2 1 38599.8 1299.05 20
5 -2 1 37557.1 1363.8 7
5 -2 2 16309 811.344 20
5 -2 2 18131.3 898.439 7
5 -2 3 19988.3 917.301 20
5 -2 3 22038.9 1031.32 7
5 -2 4 810.012 521.797 1
5 -2 4 1156.34 242.157 20
5 -2 4 705.887 239.441 8
5 -2 4 647.151 268.933 7
5 -2 5 75738.6 1994.44 20
5 -2 5 76967.7 2366.85 8
5 -2 6 11477.5 586.013 20
5 -2 6 11672.2 847.333 8
5 -2 6 12078.2 749.038 7
5 -2 7 18728.7 1147.57 8
5 -2 7 20195.7 941.117 7
5 -2 8 13130.6 944.981 8
5 -2 8 14263.4 728.728 7
5 -2 9 13076.9 916.302 8
5 -2 10 477.769 225.262 8
5 -2 11 24657.7 1133.88 8
5 -2 12 6256.94 508.649 8
5 -2 13 1417.81 228.716 8
-5 -1 15 4772.07 375.41 23
-5 -1 14 3314.67 362.905 23
-5 -1 13 1527.75 287.884 23
-5 -1 12 895.235 253.2 23
5 -1 -12 984.253 266.872 19
-5 -1 11 5839.27 581.471 23
5 -1 -11 4551.34 483.015 19
5 -1 -10 5133.62 487.327 19
-5 -1 10 5921.51 550.386 16
5 -1 -9 6035.79 516.268 19
-5 -1 9 5915.62 579.045 16
5 -1 -9 5117.54 587.717 26
5 -1 -9 4978.36 458.168 25
5 -1 -8 4759.72 452.28 19
-5 -1 8 4717.02 481.158 16
5 -1 -8 4477.74 515.622 26
5 -1 -8 4353.72 413.948 25
5 -1 -7 33386.1 1864.71 5
5 -1 -7 37979.6 1335.6 19
-5 -1 7 35225.4 1346.85 16
5 -1 -7 37522 1439.91 26
5 -1 -7 36331.1 1202.41 25
5 -1 -6 29604.7 1756.8 5
5 -1 -6 35513.2 1252 19
-5 -1 6 31623.9 1234.45 16
5 -1 -6 27652.4 1766.82 1
5 -1 -6 34115.2 1293.36 26
5 -1 -6 35019.5 1110.01 25
5 -1 -5 24618.4 1100.42 22
5 -1 -5 22237.6 1442.92 5
5 -1 -5 25725.6 1041.72 19
5 -1 -5 25514.7 1691.46 1
-5 -1 5 25211 1033.58 16
5 -1 -5 27115.1 1072.55 26
5 -1 -4 19456.6 851.432 12
5 -1 -4 18550.9 841.727 26
5 -1 -4 16025.6 875.374 22
5 -1 -4 19439.6 1192.95 5
5 -1 -4 16771.7 1372.06 1
-5 -1 4 17652.7 833.257 16
5 -1 -3 26853.6 1003.35 12
5 -1 -3 24492.8 1045.5 22
5 -1 -3 26495.1 1290.53 5
5 -1 -3 26276.3 1759.33 1
5 -1 -3 25570.9 989.32 26
5 -1 -2 2524.36 660.295 1
5 -1 -2 3185.53 410.309 5
5 -1 -2 3459.4 326.934 26
5 -1 -1 11058.2 1259.28 1
5 -1 -1 12367.5 625.862 20
5 -1 -1 12866.6 760.963 5
5 -1 0 10941.5 1225.44 1
5 -1 0 12672.7 631.993 20
5 -1 1 19932.8 839.153 20
5 -1 1 17665.6 1467.09 1
5 -1 2 19162.1 845.814 20
5 -1 2 16804 1400.29 1
5 -1 3 81982.1 2127.08 20
5 -1 3 82280.5 2327.1 8
5 -1 3 80110.9 2237.44 7
-5 -1 -4 35699.8 1892.37 4
5 -1 4 34964.4 1142.48 20
5 -1 4 36626.7 1427.48 8
5 -1 4 34258.4 1302.25 7
5 -1 5 16130.8 960.078 8
5 -1 5 17754.6 858.161 7
-5 -1 -5 16073.1 1358.73 4
5 -1 6 17301.6 1066.48 8
-5 -1 -6 18492.5 1560.55 4
5 -1 7 9130.79 824.127 8
-5 -1 -7 7229.1 1053.1 4
5 -1 8 21296.9 1257.2 8
5 -1 9 3639.44 521.274 8
5 -1 10 11749.5 866.622 8
5 -1 11 2653.02 304.412 17
5 -1 11 3014.01 426.286 8
5 -1 12 13965.7 831.785 8
5 -1 13 16434.5 812.982 8
5 -1 14 3027.52 289.987 8
-5 0 16 371.691 129.043 23
-5 0 15 26921.4 965.56 13
-5 0 15 27619 1034.73 23
-5 0 14 -8.66689 154.651 23
-5 0 13 24307.3 1141.16 23
-5 0 12 4071.19 483.526 23
-5 0 11 22103 1205.01 23
-5 0 11 23304.6 1201.63 16
5 0 -10 10422.8 717.75 19
-5 0 10 11681.2 870.538 16
5 0 -9 6071.99 527.659 19
-5 0 9 6352.58 616.39 16
5 0 -8 5109 458.684 19
-5 0 8 5727.62 548.134 16
5 0 -7 4389.62 402.948 19
-5 0 7 4247.12 464.638 16
5 0 -7 4744.82 521.915 26
5 0 -6 436.4 175.856 19
5 0 -6 636.346 327.085 1
-5 0 6 479.937 190.486 16
5 0 -6 788.712 246.582 26
5 0 -5 4938.6 764.21 1
5 0 -5 4357.64 401.16 17
-5 0 5 4233.64 420.674 16
5 0 -5 4229.19 412.9 26
5 0 -4 17088.5 1377.52 1
5 0 -4 16591.8 792.892 26
5 0 -3 6740.15 932.212 1
5 0 -2 21070.9 1689.06 1
5 0 -1 8772.11 1132.55 1
5 0 0 100930 3955.41 1
5 0 1 26391.6 1784.25 1
5 0 2 63377.7 1911.31 17
5 0 2 64591.6 1954.01 8
5 0 3 35059.3 1983.39 1
5 0 3 37731.6 1395.68 17
5 0 3 35236.1 1394.24 8
-5 0 -3 35344.5 1911.18 4
5 0 4 8103.76 954.246 1
5 0 4 10951.7 744.461 17
5 0 4 10953.6 751.639 8
-5 0 -4 9785.76 1044.1 4
5 0 5 3338.23 460.745 8
5 0 5 3230.77 627.368 1
-5 0 -5 3531.08 679.168 4
5 0 6 19538.3 1023.27 17
5 0 6 20623.5 1182.03 8
-5 0 -6 21247.4 1752.28 4
5 0 7 4811.68 479.631 17
5 0 7 5095.58 619.837 8
-5 0 -7 4173.05 819.253 4
5 0 8 954.595 290.685 24
5 0 8 878.776 224.645 17
5 0 8 1402.34 366.087 8
5 0 9 6.25513 132.452 24
5 0 9 52.4247 130.283 17
5 0 9 102.06 227.856 8
5 0 10 5009.91 547.904 24
5 0 10 6013.48 634.075 8
5 0 11 1463.02 296.976 24
5 0 11 1623.37 321.076 8
5 0 12 365.461 175.718 24
5 0 12 907.939 247.211 8
5 0 13 252.833 119.047 24
5 0 13 7.65197 137.686 8
5 0 14 20799.6 779.444 8
-5 1 16 9782.25 459.311 13
-5 1 15 4741.01 381.762 13
-5 1 15 4466.29 353.663 23
-5 1 14 3352.76 359.155 23
-5 1 13 1846.83 313.459 23
-5 1 12 1544.97 321.606 23
-5 1 12 1895.82 349.195 16
-5 1 11 5987.02 590.439 23
-5 1 11 4312.53 414.889 21
-5 1 11 5541.71 614.363 16
-5 1 10 5946.12 621.575 23
-5 1 10 5236.56 476.087 21
-5 1 10 5877.41 643.142 16
-5 1 9 6506.55 568.623 21
-5 1 9 5680.81 613.42 16
-5 1 8 4651.82 464.189 21
-5 1 8 4614.48 516.868 16
-5 1 7 34670.8 1425.1 16
-5 1 6 33160 1349.82 16
5 1 -5 25749.2 1122.26 17
-5 1 5 23608.5 1082.77 16
5 1 -4 19292.8 926.088 17
5 1 -4 17693.2 933.601 26
5 1 -3 24818.1 1752.33 1
5 1 -3 27155.9 1115.31 17
5 1 -2 4178.6 414.198 17
5 1 -2 2742.23 704.17 1
5 1 -1 10130.3 1292.53 1
5 1 -1 12393.8 713.167 17
5 1 -1 11706 707.684 8
5 1 0 13052.8 1396.05 1
5 1 0 13166.1 741.35 17
5 1 0 12406.3 732.769 8
5 1 1 18057.6 1520.09 1
5 1 1 18970.9 913.439 17
5 1 1 18958.8 947.413 8
5 1 2 18653.8 921.195 17
5 1 2 17148.4 922.079 8
5 1 2 18054 869.234 24
5 1 3 84210.6 2428.59 17
5 1 3 78214.9 2416.03 8
5 1 3 81574.2 2324.4 24
5 1 4 38019 1451.7 24
5 1 4 37048.2 1552.46 17
5 1 4 36281.3 1506.47 8
5 1 5 17423.7 990.114 24
5 1 5 17579.5 1016.1 17
5 1 5 17494.7 1044.57 8
5 1 6 18861.8 1066.61 24
5 1 6 16130.6 909.95 17
5 1 6 16459.5 1079.67 8
-5 1 -6 19262.2 1777.88 4
5 1 7 12204.7 895.84 24
5 1 7 10606.5 681.227 17
5 1 7 10963.8 940.652 8
-5 1 -7 10591.5 1418.29 4
5 1 8 20349.9 1232.36 24
5 1 8 20209.6 1282.02 8
5 1 9 3042.58 489.766 24
5 1 9 3296.94 491.239 8
5 1 10 11706.2 873.473 24
5 1 10 10879 814.479 8
5 1 11 2459.93 384.26 24
5 1 11 2290.08 378.336 8
5 1 12 11850.8 743.311 24
5 1 12 12956.2 730.973 8
5 1 13 15820.4 753.215 24
5 1 13 15593.2 705.273 8
5 1 14 3113.96 256.482 24
-5 2 15 965.475 170.601 13
-5 2 14 3083.29 332.251 13
-5 2 14 2345.21 241.241 23
-5 2 13 2219.94 273.186 23
-5 2 12 2136.93 305.616 23
-5 2 12 1622.71 269.092 21
-5 2 11 7335.44 552.253 23
-5 2 11 6984.39 564.417 21
-5 2 11 7513.65 654.311 16
-5 2 10 2862.66 366.613 23
-5 2 10 2949.78 421.605 21
-5 2 10 2850.2 444.419 16
-5 2 9 4682.29 499.219 23
-5 2 9 4159.5 477.935 21
-5 2 9 4404.45 545.863 16
-5 2 8 12114.7 849.996 16
-5 2 7 21003.2 1086.28 16
-5 2 6 77635.7 3204.41 3
-5 2 6 79961.1 2403.85 16
-5 2 5 13652.9 1311.42 3
-5 2 5 14542.7 849.371 16
5 2 -4 11441 777.242 17
-5 2 4 10989.9 1186.63 3
-5 2 4 10476.3 694.515 16
5 2 -3 22728.3 1077.6 17
-5 2 3 20339 985.079 16
5 2 -3 20626.9 938.296 24
5 2 -2 5833.93 540.799 17
5 2 -2 5410.71 464.786 24
5 2 -1 4663.68 493.05 17
5 2 -1 4689.08 441.187 24
5 2 0 28718.7 1244.51 17
5 2 0 28611.5 1253.57 8
5 2 0 28306.8 1178.38 24
5 2 1 35563 1419.3 17
5 2 1 33079.9 1389.28 8
5 2 1 34334 1365.6 24
5 2 2 17812.7 987.412 17
5 2 2 17910 982.701 8
5 2 2 16967.1 929.455 24
-5 2 -3 21405.5 1639.73 3
5 2 3 22954.7 1225.16 17
5 2 3 20226.8 1077.51 8
5 2 3 20781.4 1070.66 24
5 2 4 1799.3 352.979 24
5 2 4 1416.16 401.045 17
-5 2 -4 900.73 435.855 3
5 2 4 1487.14 323.809 8
5 2 5 79099.4 2331.39 17
5 2 5 77946 2527.7 8
5 2 5 79018.2 2523.47 24
5 2 6 10460.6 834.421 24
5 2 6 10617.3 867.45 8
5 2 7 23080.8 1306.1 24
5 2 7 20527.3 1344.04 8
5 2 8 11675.7 958.235 24
5 2 8 12979.2 962.717 8
5 2 9 14538.8 1054.67 24
5 2 9 14741.8 918.552 8
5 2 10 506.438 257.586 24
5 2 10 527.974 222.281 8
5 2 11 23733.3 1143.8 24
5 2 11 22977 967.54 8
5 2 12 5763.53 490.681 24
5 2 13 1094.2 196.58 24
-5 3 13 2447.01 259.969 13
-5 3 12 2503.99 290.157 21
-5 3 11 1722.5 289.82 21
-5 3 10 38352.9 1542.62 21
-5 3 10 35639.5 1397.08 16
-5 3 9 19399.8 1050.05 21
-5 3 9 20086 1032.94 16
-5 3 8 1973.16 355.319 16
-5 3 7 8435.89 674.524 16
-5 3 6 4229.75 461.637 16
-5 3 5 2645.53 559.46 3
-5 3 5 2096.82 336.135 16
-5 3 4 7270.59 1040.21 3
-5 3 4 7313.66 563.516 16
-5 3 3 723.349 439.068 3
-5 3 3 1402.29 266.491 16
-5 3 2 18832.5 1865.83 3
-5 3 2 18474.6 895.447 16
5 3 -2 18700 950.437 24
-5 3 1 20796.8 2200.98 3
-5 3 1 22564 991.747 16
5 3 -1 24320.1 1122.14 24
-5 3 0 29393.3 2446.91 3
5 3 0 28908.5 1270.26 24
-5 3 -1 34184.8 2416.48 3
5 3 1 36836.6 1484.13 24
5 3 2 412.835 222.709 24
-5 3 -2 89.3209 313.911 3
5 3 3 2417.17 385.073 24
-5 3 -3 1889.53 451.638 3
5 3 4 27231.6 1325.67 24
5 3 5 46593.1 1848.97 8
5 3 5 44917.4 1804.91 24
5 3 6 2721.06 483.355 8
5 3 6 3532.75 498.775 24
5 3 7 288.726 230.852 24
5 3 7 -110.842 218.913 8
5 3 8 4520.29 598.374 24
5 3 9 11865.7 877.528 24
5 3 10 474.486 174.021 24
5 3 11 529.715 167.834 24
5 3 12 184.63 110.104 24
-5 4 11 6417.2 411.147 21
-5 4 10 5097.86 439.442 21
-5 4 9 5989.54 564.227 21
-5 4 8 7274.21 572.836 21
5 4 -7 241.024 197.5 15
5 4 -6 2894.03 411.075 15
5 4 -5 2961.65 424.024 15
5 4 -4 16054.8 1025.41 15
5 4 -3 16512.2 1101.67 15
5 4 -2 9905.07 955.7 15
5 4 -1 1671.67 602.206 15
5 4 -1 2613.87 363.371 24
5 4 0 6230.16 789.088 15
5 4 0 5430.58 511.343 24
5 4 1 180.899 169.095 24
5 4 1 310.834 263.706 15
5 4 2 18708.9 1121.88 15
5 4 2 20489.6 1032.95 24
5 4 3 9860.83 787.701 15
5 4 3 11399.2 776.35 24
5 4 4 11736 786.556 15
5 4 4 13493.5 847.627 24
5 4 5 2829.3 369.81 15
5 4 5 2206.98 369.101 24
5 4 6 2154.75 357.659 24
5 4 7 8286.68 697.728 24
5 4 8 1061.32 269.072 24
5 4 9 3489.18 361.002 24
5 4 10 2150.03 235.544 24
-5 5 9 732.68 129.823 21
-5 5 8 2357.3 270.718 21
-5 5 7 18128 818.647 21
-5 5 6 7565.92 493.09 21
5 5 -6 6219.47 423.333 15
5 5 -5 13366.3 709.007 15
5 5 -4 941.495 252.818 15
5 5 -3 8097.05 649.083 15
5 5 -2 3924.5 529.508 15
5 5 -1 1313.46 439.919 15
5 5 0 5945.55 627.623 15
5 5 1 402.014 224.874 15
5 5 2 496 211.781 15
5 5 3 4234.09 411.463 15
5 5 3 5778.32 431.289 24
5 5 4 7662.52 493.133 15
5 5 4 10087.3 577.725 24
5 5 5 1793.07 256.343 24
5 5 6 3508.34 341.418 24
5 5 7 1332.4 176.955 24
5 6 -2 708.264 168.533 15
5 6 -1 3386.29 353.399 15
5 6 0 7826.16 448.098 15
6 -5 -6 80.3678 93.9312 19
6 -5 -5 -31.1661 161.404 22
6 -5 -5 2630.91 236.276 19
6 -5 -4 197.232 185.001 22
6 -5 -4 183.98 145.043 19
6 -5 -4 124.424 94.4664 26
6 -5 -3 10360.4 515.353 12
6 -5 -3 11335.9 520.66 19
6 -5 -3 10988.8 487.722 26
6 -5 -2 1407.9 215.809 12
6 -5 -2 1887.88 222.053 19
6 -5 -2 1504.4 204.212 26
6 -5 -1 4412.54 343.766 12
6 -5 -1 4417 334.994 26
6 -5 0 304.498 131.893 12
6 -5 0 -33.8819 159.467 22
6 -5 0 3.14404 105.707 26
6 -5 1 -20.4193 134.042 12
6 -5 1 219.552 120.632 26
6 -5 2 75.443 106.646 12
6 -5 2 6.78825 114.394 26
6 -5 3 1276.36 159.756 12
6 -5 3 918.944 177.169 26
6 -5 4 296.227 113.069 26
6 -4 -10 1933.56 203.095 19
6 -4 -9 3793.3 305.02 19
6 -4 -8 1040.92 207.163 19
6 -4 -8 995.527 201.572 26
6 -4 -7 2805.68 318.235 19
6 -4 -7 3034.04 319.059 26
6 -4 -6 7179.19 576.823 22
6 -4 -6 6482.03 517.49 19
6 -4 -6 8215.88 526.37 26
6 -4 -5 1742.75 286.809 12
6 -4 -5 1515.27 327.237 22
6 -4 -5 1943.08 306.851 19
6 -4 -5 1693.56 273.499 26
6 -4 -4 3074.5 358.782 12
6 -4 -4 3178.8 415.158 22
6 -4 -4 3630.69 377.789 19
6 -4 -4 3303.36 360.31 26
6 -4 -3 6845.69 521.765 12
6 -4 -3 8165.01 604.13 22
6 -4 -3 6589.62 503.855 26
6 -4 -2 8158.23 563.217 12
6 -4 -2 8666.46 607.31 22
6 -4 -2 7992.4 569.775 26
6 -4 -1 26195.9 1049.27 12
6 -4 -1 25021.2 1069.84 22
6 -4 -1 24927 1007.26 20
6 -4 -1 25986 1076.46 26
6 -4 0 563.779 188.19 12
6 -4 0 523.844 226.023 22
6 -4 0 737.462 224.545 20
6 -4 0 597.578 225.042 26
6 -4 1 11006.8 642.712 12
6 -4 1 11555.7 668.017 20
6 -4 1 9573.27 569.132 17
6 -4 1 11560.6 682.108 26
6 -4 2 1955.68 302.707 12
6 -4 2 1574.37 297.209 20
6 -4 2 1968.53 314.606 26
6 -4 3 3155.01 339.939 12
6 -4 3 3262.85 362.197 20
6 -4 3 3581.09 394.106 26
6 -4 4 1643.7 232.084 12
6 -4 4 1511.56 245.58 20
6 -4 4 1771.91 286.078 26
6 -4 5 2686.94 278.777 20
6 -4 5 3192.21 338.969 26
6 -4 6 3913.73 322.346 26
6 -4 7 2070.26 200.977 26
6 -4 8 5118.66 358.367 17
6 -3 -12 9154.67 463.84 19
6 -3 -11 10971.9 552.122 19
6 -3 -10 7423.46 482.282 19
6 -3 -9 1759.77 281.177 19
6 -3 -9 1605.78 296.655 26
6 -3 -9 1967.94 253.78 25
6 -3 -8 1282.8 259.603 19
6 -3 -8 1017.7 259.596 26
6 -3 -8 722.511 191.692 25
6 -3 -7 1971.89 315.79 19
6 -3 -7 1702.29 292.835 26
6 -3 -7 2201.07 270.75 25
6 -3 -6 1664.26 375.016 22
6 -3 -6 1532.94 340.757 19
6 -3 -6 1766.12 308.022 26
6 -3 -5 4750.38 483.636 12
6 -3 -5 3604.33 515.174 22
6 -3 -5 4275.72 464.134 19
6 -3 -5 4169.99 440.967 26
6 -3 -4 6084.87 525.933 12
6 -3 -4 5505.5 546.612 22
6 -3 -4 5995.86 507.128 19
6 -3 -4 5759.66 520.596 26
6 -3 -3 7134.5 563.798 12
6 -3 -3 7816.82 621.39 22
6 -3 -3 6922.27 562.102 26
6 -3 -2 22474.8 1016.18 12
6 -3 -2 23757.7 1069.89 22
6 -3 -2 22595.5 1045.04 26
6 -3 -1 563.65 225.365 12
6 -3 -1 720.11 243.446 22
6 -3 -1 741.893 231.465 20
6 -3 -1 694.446 235.292 26
6 -3 0 19433.1 923.824 12
6 -3 0 18454.7 907.387 22
6 -3 0 18407.9 923.169 20
6 -3 0 18844.1 912.814 17
6 -3 0 19669.3 964.744 26
6 -3 1 206.435 175.495 12
6 -3 1 168.837 235.823 20
6 -3 1 295.032 193.974 26
6 -3 2 25710.2 1077.43 12
6 -3 2 24931.3 1117.78 20
6 -3 2 26715.9 1147.92 26
6 -3 3 820.48 213.624 12
6 -3 3 707.989 240.798 20
6 -3 3 1310.33 287.405 26
6 -3 4 14379 674.917 12
6 -3 4 16403 796.892 20
6 -3 4 15477.8 847.415 26
6 -3 5 17753 790.3 20
6 -3 5 17166.2 864.438 26
6 -3 6 5543.79 431.587 26
6 -3 7 1476.35 206.127 26
6 -3 10 238.755 117.225 17
-6 -2 13 398.92 105.075 23
-6 -2 12 2015.88 236.571 23
6 -2 -12 1465.21 247.353 19
-6 -2 11 1613.69 250.497 23
6 -2 -11 1776.41 276.511 19
-6 -2 10 15921.3 830.341 23
6 -2 -10 15824.4 793.228 19
-6 -2 9 6220.04 546.828 23
6 -2 -9 6705.43 512.011 19
6 -2 -9 5926.93 601.548 26
6 -2 -8 8089.22 573.669 19
6 -2 -8 7971.7 676.778 26
6 -2 -8 7857.59 507.964 25
6 -2 -7 4744.86 458.69 19
6 -2 -7 4739.11 517.632 26
6 -2 -6 70366 2077.48 19
6 -2 -6 69826.6 2172.87 26
6 -2 -5 346.722 291.827 22
6 -2 -5 680.896 274.656 19
6 -2 -5 1238.53 286.892 26
6 -2 -4 26262.3 1149.85 12
6 -2 -4 24241.4 1209.66 22
6 -2 -4 24375 1085.35 19
6 -2 -4 26907.7 1146.98 26
6 -2 -3 99.3012 165.262 12
6 -2 -3 375.696 305.014 22
6 -2 -3 25.8554 157.486 26
6 -2 -2 11274.8 696.862 12
6 -2 -2 10673.6 744.952 22
6 -2 -2 11268.2 697.307 17
6 -2 -2 11397.9 706.982 26
6 -2 -1 1307.24 278.246 12
6 -2 -1 765.452 254.354 22
6 -2 -1 1457.97 267.733 17
6 -2 -1 1261.24 275.751 26
6 -2 0 4385.7 424.538 12
6 -2 0 4708.84 461.259 20
6 -2 0 4725.24 473.409 17
6 -2 0 4981.26 459.482 26
6 -2 1 33913.2 1236.41 12
6 -2 1 32491.7 1282.65 20
6 -2 1 32938.4 1271.85 26
6 -2 2 10423.7 645.267 12
6 -2 2 10813 715.699 20
6 -2 2 12653.9 734.984 26
6 -2 3 11303.7 696.591 20
6 -2 3 11461.1 701.795 26
6 -2 4 22752.1 961.618 20
6 -2 4 22571 1023.81 26
6 -2 5 15437.7 912.591 8
6 -2 5 14818.4 759.398 26
6 -2 6 7464.1 670.694 8
6 -2 7 9102.36 745.978 8
6 -2 8 5622.21 583.307 8
6 -2 9 8695.54 588.858 17
6 -2 9 8530.36 653.11 8
6 -2 10 13349.4 660.25 17
6 -2 10 14538.9 773.707 8
6 -2 11 4001.21 289.257 17
6 -2 11 4529.77 378.094 8
6 -2 12 7839.92 415.721 8
-6 -1 14 6594.26 408.021 23
-6 -1 13 406.28 166.63 23
-6 -1 12 4854.89 453.278 23
-6 -1 11 3444.7 422.224 23
6 -1 -11 2941.16 362.928 19
-6 -1 10 8455.28 705.095 23
6 -1 -10 7083.07 554.157 19
-6 -1 10 8046.97 607.995 16
6 -1 -9 17165.2 854.924 19
-6 -1 9 16429.1 941.93 16
6 -1 -8 10502.1 646.217 19
-6 -1 8 11378.1 747.293 16
6 -1 -8 10296.9 807.563 26
6 -1 -7 4726.1 429.936 19
-6 -1 7 4589.73 482.768 16
6 -1 -7 4331.92 529.255 26
6 -1 -6 14199.3 733.19 19
-6 -1 6 13622.4 804.355 16
6 -1 -6 14755.3 881.098 26
-6 -1 5 65617 2043.75 16
6 -1 -5 68394.6 2103.07 26
6 -1 -4 12211.8 710.353 17
-6 -1 4 11533.7 722.244 16
6 -1 -4 13082.5 758.025 26
6 -1 -3 36782.8 1355.76 17
6 -1 -3 33447.3 2274.91 1
6 -1 -3 36899.6 1348.78 26
6 -1 -2 17082.1 865.85 12
6 -1 -2 15763.7 854.102 17
6 -1 -2 13799.5 1506.57 1
6 -1 -2 15651.4 798.085 26
6 -1 -1 4752.73 451.799 12
6 -1 -1 3301.59 807.24 1
6 -1 -1 4875.47 477.528 17
6 -1 -1 4933.62 432.318 26
6 -1 0 54858.1 1697.87 12
6 -1 0 53701.6 1798.14 17
6 -1 0 52716 1651.58 26
6 -1 1 868.331 248.479 17
6 -1 1 16.3509 648.528 1
6 -1 1 629.549 206.748 26
6 -1 2 30178.2 1331.52 17
6 -1 2 31259.1 1293.95 8
6 -1 2 30762.9 1148.37 26
6 -1 3 7620.95 681.798 17
6 -1 3 7615.78 636.568 8
6 -1 4 835.621 279.411 8
6 -1 5 13569.5 931.54 8
6 -1 6 9101.87 735.52 17
6 -1 6 9291.69 801.918 8
6 -1 7 10126.5 721.719 17
6 -1 7 8216.05 785.905 8
6 -1 8 7789.94 607.473 17
6 -1 8 7973.22 739.371 8
6 -1 9 8005.76 567.01 17
6 -1 9 8011.86 698.946 8
6 -1 10 6034.82 440.52 17
6 -1 10 6584.22 588.092 8
6 -1 11 14183 773.594 8
6 -1 12 14819.6 696.614 8
6 -1 13 361.8 106.726 8
-6 0 15 2720.66 231.781 23
-6 0 14 3965.28 319.257 13
-6 0 14 4718.46 375.476 23
-6 0 13 15725.3 781.586 23
-6 0 12 387.136 205.787 23
-6 0 11 7216.26 630.002 23
-6 0 11 7574.92 630.845 16
-6 0 10 10774.5 823.046 16
-6 0 9 13616.3 907.418 16
-6 0 8 6870.65 619.528 16
6 0 -7 3597.8 403.729 19
-6 0 7 4492.96 495.824 16
6 0 -6 2225.67 336.928 17
-6 0 6 1358.77 285.616 16
6 0 -6 1860.33 360.767 26
6 0 -5 2006.72 319.316 17
-6 0 5 2770.63 385.559 16
6 0 -5 2388.75 386.072 26
6 0 -4 6726.89 959.666 1
6 0 -4 8866.29 632.301 17
-6 0 4 8420.27 658.118 16
6 0 -4 9013.42 650.82 26
6 0 -3 56177.3 1849.75 17
6 0 -3 59581.1 1804.52 26
6 0 -2 6337.38 552.811 17
6 0 -2 4756.32 970.35 1
6 0 -2 6403.13 507.698 26
6 0 -1 69995.8 2164.06 17
6 0 -1 70745.8 2122.39 8
6 0 -1 72787.4 1996.55 26
6 0 0 52956.7 1792.97 17
6 0 0 53250.4 1777.5 8
6 0 1 48817.9 1750.28 17
6 0 1 51718.9 1769.92 8
6 0 2 10294.6 752.213 17
6 0 2 9855.27 727.008 8
6 0 3 20537.4 1109.17 17
6 0 3 21680.5 1132.42 8
6 0 4 799.736 297.807 17
6 0 4 928.927 272.177 8
6 0 5 39195.4 1705.8 17
6 0 5 45099.8 1812.94 8
6 0 6 19882.9 1057.62 17
6 0 6 17919.7 1141.83 8
6 0 7 2578.54 389.812 17
6 0 7 2466.37 467.392 8
6 0 8 -60.599 163.746 17
6 0 8 97.4225 223.493 8
6 0 9 2042.91 278.524 17
6 0 9 2744.26 440.524 8
6 0 10 226.64 194.353 8
6 0 11 992.256 253.122 8
6 0 12 5339.28 419.437 8
6 0 13 5658.34 344.268 8
-6 1 14 6734.88 432.265 13
-6 1 14 7125.95 419.223 23
-6 1 13 448.8 157.941 23
-6 1 12 4750.06 442.378 23
-6 1 11 3785.27 446.66 23
-6 1 11 3598.83 467.542 16
-6 1 10 7514.46 670.972 23
-6 1 10 7703.87 706.825 16
-6 1 9 17283 1045.62 16
-6 1 8 10732.1 806.221 16
-6 1 7 4306.29 519.145 16
-6 1 6 14114.8 895.504 16
6 1 -5 70621.9 2222.93 17
-6 1 5 66069.7 2188.4 16
6 1 -4 14185.6 866.981 17
-6 1 4 12186.6 812.086 16
6 1 -3 37867.1 1506.32 17
6 1 -2 14402.3 867.559 17
6 1 -1 6166 576.404 17
6 1 -1 5643.84 437.152 24
6 1 0 51975.6 1818.64 17
6 1 0 52823.8 1838.86 8
6 1 0 48493.3 1569.72 24
6 1 1 911.906 211.742 24
6 1 1 571.049 247.773 17
6 1 1 780.389 277.737 8
6 1 2 35327.1 1484.3 17
6 1 2 34907.8 1487.91 8
6 1 2 33430.1 1283.64 24
6 1 3 8612.3 745.484 17
6 1 3 8634.78 723.582 8
6 1 3 8875.53 623.6 24
6 1 4 195.866 164.476 24
6 1 4 -5.6626 292.774 17
6 1 4 42.8105 203.338 8
6 1 5 14266.9 933.22 17
6 1 5 14229 992.462 8
6 1 5 14722.5 874.124 24
6 1 6 8692.32 664.035 17
6 1 6 8990.09 824.005 8
6 1 6 9052.25 700.927 24
6 1 7 7589.34 577.413 17
6 1 7 7833.36 797.489 8
6 1 7 8971.82 705.992 24
6 1 8 8682.01 787.219 8
6 1 8 7492.51 656.468 24
6 1 9 8580.9 716.291 8
6 1 9 8285.75 649.689 24
6 1 10 6693.16 566.9 8
6 1 10 6316.51 503.576 24
6 1 11 13542.7 716.157 8
6 1 11 13105.9 633.282 24
6 1 12 15583.7 652.648 8
-6 2 14 2309.11 218.405 13
-6 2 12 2132.59 240.123 23
-6 2 11 2063.55 271.458 23
-6 2 11 1667 233.764 21
-6 2 11 2203.95 335.224 16
-6 2 10 17005.4 841.904 23
-6 2 10 15156 783.818 21
-6 2 10 16255 962.005 16
-6 2 9 6946.37 575.877 23
-6 2 9 6216.61 568.881 21
-6 2 9 7222.89 663.547 16
-6 2 8 8909.65 658.56 21
-6 2 8 10069.6 780.623 16
-6 2 7 4988.59 537.099 16
-6 2 6 69405.3 2247.35 16
-6 2 5 1111.96 309.424 16
-6 2 4 25475.2 1941.49 3
-6 2 4 26254.5 1222.66 16
6 2 -3 10.0369 202.91 17
-6 2 3 -48.1709 319.126 3
-6 2 3 -8.89142 205.343 16
6 2 -2 11223 810.979 17
6 2 -2 11217.7 688.045 24
6 2 -1 1557.03 272.693 24
6 2 -1 1495.78 337.609 17
6 2 0 4833.44 537.783 17
6 2 0 5173.85 481.733 24
-6 2 -1 32207.4 2256.2 3
6 2 1 35439.6 1531.33 17
6 2 1 33269.6 1351.62 24
-6 2 -2 11231.6 1303.11 3
6 2 2 13546.8 947.098 17
6 2 2 11983.5 851.679 8
6 2 2 12855.5 808.119 24
6 2 3 10401.3 918.357 17
6 2 3 10484.3 809.22 8
6 2 3 10922.5 755.562 24
6 2 4 21463.5 1187.87 17
6 2 4 20846.4 1176.58 8
6 2 4 22322.5 1141.72 24
6 2 5 12051.7 794 17
6 2 5 14617 990.473 8
6 2 5 14078 900.992 24
6 2 6 8493.3 595.945 17
6 2 6 10139.2 868.014 8
6 2 6 9794.17 770.511 24
6 2 7 9499.66 841.38 8
6 2 7 10705.2 800.544 24
6 2 8 6087.58 602.855 8
6 2 8 5685.25 596.162 24
6 2 9 9479.71 650.845 8
6 2 9 8724.01 664.566 24
6 2 10 13135.7 680.05 8
6 2 10 14051.1 738.556 24
6 2 11 4134.34 339.316 24
-6 3 11 11080.9 545.609 21
-6 3 10 8337.47 542.957 21
-6 3 9 1586.87 301.905 21
-6 3 9 1347.23 262.6 16
-6 3 8 721.046 223.148 21
-6 3 8 977.413 258.131 16
-6 3 7 1662.89 331.819 16
-6 3 6 1953.92 329.232 16
-6 3 5 4163.77 443.727 16
-6 3 4 5207.92 495.97 16
-6 3 3 7005.14 555.799 16
-6 3 2 22286.6 1029.05 16
6 3 -1 872.398 241.486 24
-6 3 1 909.683 270.846 16
-6 3 0 19747.6 952.389 16
6 3 0 20419.4 1011.27 24
6 3 1 530.268 228.763 24
6 3 2 25441.7 1191.91 24
6 3 3 1168.78 275.168 24
6 3 4 15486.4 919.246 24
6 3 5 14468.5 833.128 15
6 3 5 18154.6 991.057 24
6 3 6 6500.14 593.778 24
6 3 7 1744.41 339.674 24
6 3 8 3185.75 396.612 24
6 3 9 1955.67 273.687 24
6 3 10 692.81 149.923 24
-6 4 10 1933.61 198.574 21
-6 4 9 4694.43 369.388 21
-6 4 8 1188.52 247.391 21
-6 4 7 3183.57 351.926 21
6 4 -7 2037.27 258.998 15
6 4 -6 6600.83 508.848 15
6 4 -5 1625.37 309.595 15
6 4 -4 3323.75 454.708 15
6 4 -3 5682.56 600.968 15
6 4 -2 7443.38 769.126 15
6 4 -1 21158.4 1425.55 15
6 4 0 909.845 327.021 15
6 4 1 11584.5 845.615 15
6 4 1 12514.7 714.375 24
6 4 2 1489.98 339.372 15
6 4 2 1906.8 297.165 24
6 4 3 2767.58 386.41 15
6 4 3 3459.92 389.443 24
6 4 4 1580.07 278.709 24
6 4 4 1061.72 228.092 15
6 4 5 3534.29 381.516 24
6 4 6 3647.05 397.691 24
6 4 7 2715.54 314.7 24
6 4 8 6966.97 403.529 24
-6 5 7 6824.22 354.345 21
-6 5 6 192.082 103.689 21
-6 5 5 2459.78 253.133 21
6 5 -5 1797.39 208.826 15
6 5 -4 334.778 153.643 15
6 5 -3 10370.1 608.84 15
6 5 -2 1478.82 311.953 15
6 5 -1 3546.97 463.719 15
6 5 0 0.33404 173.961 15
6 5 1 47.6745 161.041 15
6 5 2 105.386 113.639 15
6 5 3 665.938 152.092 15
7 -4 -6 550.298 151.312 26
7 -4 -5 6302.85 415.836 26
7 -4 -4 954.879 196.316 26
7 -4 -3 2810.14 296.449 26
7 -4 -2 3057.22 319.019 26
7 -4 -1 7410.21 491.17 12
7 -4 -1 7854.41 486.482 26
7 -4 0 521.967 180.039 12
7 -4 0 784.117 185.094 26
7 -4 1 2924.08 294.401 12
7 -4 1 3790.62 340.905 26
7 -4 2 1215.73 204.49 26
7 -4 3 8975.6 461.415 17
7 -4 3 9809.22 496.26 26
7 -4 4 1039.52 176.66 17
7 -4 4 1467.19 173.531 26
7 -3 -9 14740.7 561.563 19
7 -3 -8 1975.9 213.62 19
7 -3 -8 1227.14 258.176 26
7 -3 -7 7216.34 411.609 19
7 -3 -7 6868.6 534.264 26
7 -3 -6 3953.14 310.144 19
7 -3 -6 3971.36 404.662 26
7 -3 -5 1193.67 262.871 26
7 -3 -4 3212.87 366.016 26
7 -3 -3 1610.2 293.265 26
7 -3 -2 5287.1 493.501 12
7 -3 -2 5955.74 488.694 26
7 -3 -1 5048.49 466.316 12
7 -3 -1 6044.51 490.41 26
7 -3 0 4439.53 432.631 12
7 -3 0 4776.95 412.872 17
7 -3 0 5014.01 455.431 26
7 -3 1 10449.1 620.199 12
7 -3 1 10672.9 665.213 17
7 -3 2 34568.7 1161.13 12
7 -3 2 37649.6 1357.81 17
7 -3 2 38452.6 1317.97 26
7 -3 3 523.834 220.06 17
7 -3 3 241.418 155.492 26
7 -3 4 1057.15 281.867 17
7 -3 4 993.282 190.4 26
7 -3 5 20678.6 957.275 17
7 -3 6 8882.27 563.908 17
7 -3 7 1.38676 125.669 17
7 -3 8 334.797 110.283 17
-7 -2 11 74.2804 87.6556 23
-7 -2 10 11854.5 563.691 23
-7 -2 9 17616.6 784.95 23
7 -2 -9 16755.5 701.288 19
7 -2 -8 4558.42 363.921 19
7 -2 -8 4262.16 487.252 26
7 -2 -7 11492 588.01 19
7 -2 -7 12382.4 801.73 26
7 -2 -6 3204.13 410.477 26
7 -2 -5 24645.7 1118.02 26
7 -2 -4 16962.2 896.403 26
7 -2 -3 8987.17 633.111 26
7 -2 -2 3941.37 417.59 17
7 -2 -2 4276.11 430.54 26
7 -2 -1 370.155 180.163 17
7 -2 -1 1097.66 249.97 26
7 -2 0 1655.16 312.377 17
7 -2 0 2046.99 315.693 26
7 -2 1 3057.42 405.726 17
7 -2 1 2229.01 326.542 26
7 -2 2 6345.53 578.738 17
7 -2 2 5876.19 493.264 26
7 -2 3 1487.04 336.777 17
7 -2 3 1229.48 231.72 26
7 -2 4 3726.93 482.518 17
7 -2 5 7304.62 633.355 17
7 -2 6 34528.3 1328.11 17
7 -2 6 31177 1201.73 8
7 -2 7 1367.52 274.344 17
7 -2 7 1133.93 239.151 8
7 -2 8 10873.6 591.482 17
7 -2 8 10231.3 570.174 8
7 -2 9 881.847 170.916 17
7 -2 9 695.12 148.79 8
-7 -1 12 4441.12 334.254 23
-7 -1 11 4424.53 392.872 23
-7 -1 10 6475.51 532.332 23
-7 -1 9 13216.2 720.074 16
-7 -1 8 12251.5 725.636 16
-7 -1 7 2026.97 311.628 16
7 -1 -7 1595.45 369.027 26
-7 -1 6 61394.6 1904.4 16
7 -1 -6 61024.7 2082.06 26
-7 -1 5 3547.93 411.054 16
7 -1 -5 3386.83 446.885 26
7 -1 -4 6449.43 527.494 17
-7 -1 4 6317.69 531.726 16
7 -1 -4 7741.72 614.143 26
7 -1 -3 2746.26 365.755 17
-7 -1 3 2094.49 319.223 16
7 -1 -3 2650.45 383.159 26
7 -1 -2 8362.45 633.124 17
7 -1 -2 9042.5 632.835 26
7 -1 -1 9276.78 691.108 17
7 -1 -1 8508.44 603.668 26
7 -1 0 2527.15 393.124 17
7 -1 0 2488.07 348.994 26
7 -1 1 4841.41 528.159 17
7 -1 1 3839.85 408.159 26
7 -1 2 11502.6 819.301 17
7 -1 2 12302.6 750.457 8
7 -1 3 1392.86 347.264 17
7 -1 3 2143.92 328.361 8
7 -1 4 15218.1 1007.24 17
7 -1 4 17586.1 970.107 8
7 -1 5 7713.84 686.168 17
7 -1 5 7838.72 646.681 8
7 -1 6 7257.78 614.447 17
7 -1 6 6772.62 629.242 8
7 -1 7 13860.4 787.286 17
7 -1 7 13286.7 870.241 8
7 -1 8 425.285 173.021 17
7 -1 8 399.583 214.694 8
7 -1 9 11217.7 558.397 17
7 -1 9 13599.5 713.367 8
7 -1 10 611.334 168.734 8
-7 0 13 2271.88 232.023 23
-7 0 12 20344.9 823.933 23
-7 0 11 135.223 140.537 23
-7 0 11 2.01353 132.921 16
-7 0 10 17349.5 924.031 23
-7 0 10 17058.8 897.084 16
-7 0 9 2545.13 382.294 16
-7 0 8 22510.2 1109.03 16
-7 0 7 174.994 177.411 16
-7 0 6 238.717 205.602 16
7 0 -5 23058.6 1067.41 17
-7 0 5 21465.2 1095.53 16
7 0 -5 20648.9 1130.81 26
7 0 -4 41724.3 1551.81 17
-7 0 4 39870.1 1571.39 16
7 0 -4 39210.7 1601.73 26
7 0 -3 -6.14232 194.184 17
-7 0 3 123.909 239.235 16
7 0 -3 109.655 191.463 26
7 0 -2 3630.78 451.027 17
7 0 -2 3090.75 432.395 26
7 0 -1 1969.88 366.032 17
7 0 0 1051.7 253.951 8
7 0 0 682.871 259.466 17
7 0 1 41067.6 1657.72 17
7 0 1 42952.3 1616.85 8
7 0 2 2740.29 408.686 8
7 0 2 2444.86 412.24 17
7 0 3 26734.6 1349.86 17
7 0 3 27707 1298.26 8
7 0 4 3470.35 528.139 17
7 0 4 3335.79 457.364 8
7 0 5 15637.3 969.083 17
7 0 5 16324.7 1003.89 8
7 0 6 2201.73 349.624 17
7 0 6 2897.03 449.307 8
7 0 7 3920.98 410.6 17
7 0 7 4329.71 539.751 8
7 0 8 991.092 200.744 17
7 0 8 1452.31 318.731 8
7 0 9 -65.5193 149.377 8
7 0 10 2019.87 266.122 8
7 0 11 2934.28 261.315 8
-7 1 12 4457.94 334.084 23
-7 1 11 4820.89 401.658 23
-7 1 11 4308.04 406.165 16
-7 1 10 7061.68 549.637 23
-7 1 10 6425.54 564.45 16
-7 1 9 13802.2 865.282 16
-7 1 8 15819.3 930.5 16
-7 1 7 2389.76 380.103 16
-7 1 6 60373.3 2040.53 16
-7 1 5 3231.02 436.562 16
7 1 -4 6231.36 585.094 17
-7 1 4 6399.02 596.466 16
7 1 -3 1912.4 371.678 17
-7 1 3 1767.21 331.882 16
7 1 -2 10109.5 762.649 17
7 1 -1 9990.48 764.481 17
7 1 0 985.942 293.794 17
7 1 1 5560.8 599.705 17
7 1 1 5832.97 573.71 8
7 1 2 11834.3 872.281 17
7 1 2 11400.7 811.833 8
7 1 3 1571.67 405.497 17
7 1 3 1784.26 364.941 8
7 1 4 15056.5 1015.98 17
7 1 4 18730.8 1080.01 8
7 1 5 7128.16 613.1 17
7 1 5 8690.96 747.081 8
7 1 6 5748.6 498.221 17
7 1 6 6263.97 643.545 8
7 1 7 13809 696.83 17
7 1 7 13914 920.684 8
7 1 8 587.041 233.609 8
7 1 9 14889.3 761.194 8
7 1 10 241.964 131.922 8
-7 2 10 12816.3 573.721 23
-7 2 10 12532.1 697.673 16
-7 2 9 17243.6 768.736 23
-7 2 9 16280.8 898.664 16
-7 2 8 5403.43 523.654 16
-7 2 7 12024.4 665.213 21
-7 2 7 10888.5 742.631 16
-7 2 6 2116.86 278.533 21
-7 2 6 2184.61 355.898 16
-7 2 5 23415.9 1124.67 16
-7 2 4 16661.9 931.05 16
-7 2 3 8942.28 686.843 16
7 2 -2 5006.8 566.662 17
-7 2 2 5013.65 512.057 16
7 2 -1 947.446 292.861 17
-7 2 1 779.642 254.364 16
7 2 0 2898.62 456.552 17
7 2 0 2451.86 313.532 24
7 2 1 3234.8 493.584 17
7 2 1 3039.46 343.892 24
7 2 2 5738.03 657.853 17
7 2 2 5549.22 469.516 24
7 2 3 1935.03 383.156 17
7 2 3 2056.93 303.548 24
7 2 4 3572.23 450.641 17
7 2 4 3675.89 393.532 24
7 2 5 6813.31 522.062 17
7 2 5 8338.93 579.868 24
7 2 6 34378 1511.01 8
7 2 6 33116.7 1247.86 24
7 2 7 1623.24 252.293 24
7 2 8 11461.3 561.52 24
7 2 9 445.348 97.4567 24
-7 3 9 14601.9 554.687 21
-7 3 8 1821.81 240.095 21
-7 3 8 2287.33 279.287 16
-7 3 7 7635.39 508.321 21
-7 3 7 7283.67 547.66 16
7 3 -7 6970.94 470.128 15
-7 3 6 4236.64 366.493 21
-7 3 6 3615.61 391.609 16
-7 3 5 1670.78 281.848 16
-7 3 4 3148.62 358.009 16
-7 3 3 2401.95 313.292 16
-7 3 2 5763.78 473.544 16
-7 3 1 5925.89 477.276 16
-7 3 0 5488.06 457.789 16
-7 3 -1 12012.7 675.935 16
7 3 1 11708.5 666.469 24
-7 3 -2 43073.1 1407.41 16
7 3 2 42184.4 1423.2 24
7 3 3 236.831 150.655 24
-7 3 -3 391.602 203.377 16
7 3 4 841.262 202.363 24
7 3 4 522.906 199.626 15
7 3 5 22470.3 948.024 24
7 3 6 9392.58 566.965 24
7 3 7 202.897 115.154 24
7 3 8 538.755 111.066 24
-7 4 7 1871.4 204.665 21
-7 4 6 789.6 162.334 21
7 4 -6 602.324 135.678 15
-7 4 5 8205.83 452.789 21
7 4 -5 6027.75 429.719 15
7 4 -4 1205.91 240.158 15
7 4 -3 2773.13 368.28 15
7 4 -2 2846.12 428.719 15
7 4 -1 6068.94 633.285 15
7 4 0 1213.93 291.016 15
7 4 1 3224.45 373.418 15
7 4 2 1216.41 227.387 15
7 4 3 7729.61 443.718 15
8 -3 -5 761.269 182.011 26
8 -3 -4 1820.83 251.143 26
8 -3 -3 280.714 142.213 26
8 -3 -2 1914.1 255.929 26
8 -3 -1 13152.5 627.216 26
8 -3 0 937.805 186.103 26
8 -3 1 12192.4 505.975 17
8 -3 1 10055.3 500.959 26
8 -3 2 99.764 111.746 17
8 -3 3 7071.64 412.422 17
8 -3 4 3387.38 278.349 17
-8 -2 7 5652.45 365.955 23
8 -2 -6 293.473 205.622 26
8 -2 -5 19714.2 921.958 26
8 -2 -4 2934.25 372.581 26
8 -2 -3 16286.5 808.475 26
8 -2 -2 160.829 118.642 17
8 -2 -2 -84.7283 180.865 26
8 -2 -1 4973.1 405.59 17
8 -2 -1 5277.55 439.367 26
8 -2 0 679.564 191.945 17
8 -2 0 369.797 143.733 26
8 -2 1 99.0232 143.551 17
8 -2 2 4507.25 424.399 17
8 -2 3 6010.19 501.229 17
8 -2 4 201.657 169.585 17
8 -2 5 8228.9 520.091 17
8 -2 6 9896.48 515.67 17
8 -2 7 3975.56 278.44 17
-8 -1 10 2651.95 234.158 23
-8 -1 9 6196.98 422.798 23
-8 -1 7 8135.29 484.611 16
-8 -1 6 1531.1 222.194 16
-8 -1 5 2613 300.321 16
8 -1 -4 22359.8 901.614 17
-8 -1 4 24049.6 954.149 16
8 -1 -4 22229.5 1049.23 26
8 -1 -3 2778.72 323.873 17
-8 -1 3 2697.52 322.023 16
8 -1 -3 2566.28 348.264 26
8 -1 -2 10715.3 670.178 17
-8 -1 2 10565.9 629.524 16
8 -1 -2 8790.57 625.898 26
8 -1 -1 4863.16 462.038 17
-8 -1 1 4854.53 431.04 16
8 -1 -1 4229.44 433.509 26
8 -1 0 5236.38 493.99 17
-8 -1 0 5023.68 441.038 16
8 -1 1 6840.96 576.346 17
8 -1 2 2184.61 356.631 17
8 -1 3 8815.6 669.542 17
8 -1 4 527.951 243.401 17
8 -1 5 1321.4 226.145 8
8 -1 5 1066.7 258.211 17
8 -1 6 20338.7 834.125 17
8 -1 6 19177.9 800.659 8
8 -1 7 10712.3 520.429 17
8 -1 7 11608.1 524.861 8
-8 0 11 1478.73 164.887 23
-8 0 10 3323.69 295.157 23
-8 0 9 4716.79 406.682 23
-8 0 9 4420.28 363.302 16
-8 0 8 1990.42 286.801 16
-8 0 7 1476.44 257.198 16
-8 0 6 9051.03 604.854 16
-8 0 5 2920.81 360.92 16
8 0 -4 8.6426 149.13 17
-8 0 4 -42.9222 147.1 16
8 0 -3 2264.95 336.874 17
-8 0 3 2670.08 367.509 16
8 0 -2 10216.9 696.224 17
-8 0 2 10670.4 700.71 16
8 0 -1 7376.7 611.779 17
-8 0 1 8326.86 629.205 16
8 0 0 9392.63 693.314 17
8 0 1 968.442 296.641 17
8 0 2 49614.7 1783.09 17
8 0 3 4707.15 543.431 17
8 0 4 16522.1 922.084 17
8 0 4 18414.7 907.782 8
8 0 5 1157.37 255.197 8
8 0 5 1306.62 253.97 17
8 0 6 12897.4 655.027 17
8 0 6 13521.4 758.237 8
8 0 7 4.41059 141.536 8
8 0 7 -119.779 126.685 17
8 0 8 522.669 138.198 8
-8 1 10 2792.67 235.968 23
-8 1 10 2438.19 248.253 16
-8 1 9 6770.04 433.772 23
-8 1 9 6110.07 454.125 16
-8 1 8 7134.89 528.709 16
-8 1 7 8764.53 598.805 16
-8 1 6 721.143 218.072 16
-8 1 5 2648.23 350.61 16
-8 1 4 24984.4 1107.06 16
8 1 -3 3025.7 400.975 17
-8 1 3 3522.13 406.947 16
8 1 -2 11623.9 757.81 17
-8 1 2 11286.7 727.88 16
8 1 -1 5128.7 527.272 17
-8 1 1 5026.32 497.099 16
8 1 0 4850.4 524.993 17
8 1 1 7248.87 628.022 17
8 1 2 2060.94 380.265 17
8 1 3 7972.82 655.423 17
8 1 4 385.199 195.308 17
8 1 5 1268.88 236.936 17
8 1 6 17930.8 699.906 17
-8 2 9 2297.12 233.984 16
-8 2 8 788.056 192.108 16
-8 2 7 6362.1 471.792 16
-8 2 6 893.736 227.716 16
-8 2 5 21788 944.918 16
-8 2 4 2802.78 346.191 16
-8 2 3 16416.1 820.514 16
-8 2 2 5.59881 140.504 16
-8 2 1 6328.37 501.398 16
-8 2 0 834.098 242.247 16
-8 2 -1 27.7381 152.673 16
-8 2 -2 5568.99 464.132 16
-8 3 5 540.344 135.51 16
8 3 -5 750.258 166.927 15
-8 3 4 2509.26 245.917 16
8 3 -4 1849.19 273.454 15
-8 3 3 569.244 145.495 16
-8 3 2 2553.49 262.326 16
-8 3 1 15433.5 635.383 16
8 3 1 12150.1 662.446 15
8 3 2 120.364 127.498 15
9 -1 -1 7864.81 433.033 17
9 -1 0 619.816 164.694 17
9 -1 1 2440.77 274.487 17
9 -1 2 2995.3 295.606 17
9 -1 3 3014.46 284.259 17
-9 0 7 6798.98 363.92 23
-9 0 5 1321.16 188.087 16
-9 0 4 3909.96 307.92 16
-9 0 3 332.191 135.168 16
-9 0 2 7818.16 461.436 16
9 0 -1 1039.97 210.01 17
-9 0 1 1250.54 223.169 16
9 0 0 10942.7 606.307 17
-9 0 0 11296.7 567.225 16
9 0 1 3877.02 372.596 17
-9 0 -1 4663.37 360.207 16
9 0 2 15174.1 746.604 17
-9 0 -2 19602.9 749.476 16
9 0 3 6325.44 435.793 17
-9 0 -3 8296.79 456.124 16
9 0 4 1493.02 186.915 17
-9 0 -4 1742.46 201.945 16
-9 1 6 4763.8 326.235 16
-9 1 5 7820.85 439.06 16
-9 1 4 8032.12 458.671 16
-9 1 3 2565.34 274.785 16
-9 1 2 5714.24 407.152 16
-9 1 1 9334.25 517.059 16
-9 1 0 1247.36 205.553 16
-9 1 -1 3120.87 292.35 16
-9 1 -2 4156.26 330.172 16
-9 1 -3 3803.64 307.947 16
-9 2 3 2813.26 238.006 16
-9 2 2 3211.16 258.166 16
-9 2 1 3065.61 249.984 16
-9 2 0 3961.71 276.899 16
