#------------------------------------------------------------------------------
#$Date: 2016-03-26 14:47:02 +0200 (Sat, 26 Mar 2016) $
#$Revision: 180276 $
#$URL: svn://www.crystallography.net/cod/cif/7/11/62/7116250.cif $
#------------------------------------------------------------------------------
#
# This file is available in the Crystallography Open Database (COD),
# http://www.crystallography.net/
#
# All data on this site have been placed in the public domain by the
# contributors.
#
data_7116250
loop_
_publ_author_name
'Zeng, Dai'
'Ren, Min'
'Bao, Song-Song'
'Feng, Jian-Shen'
'Li, Li'
'Zheng, Li-Min'
_publ_section_title
;
 pH-controlled polymorphism in a layered dysprosium phosphonate and its
 impact on the magnetization relaxation.
;
_journal_issue                   13
_journal_name_full
'Chemical communications (Cambridge, England)'
_journal_page_first              2649
_journal_page_last               2652
_journal_paper_doi               10.1039/c4cc09341k
_journal_volume                  51
_journal_year                    2015
_chemical_formula_moiety         'C9 H11 N O9 P S Y'
_chemical_formula_sum            'C9 H11 N O9 P S Y'
_chemical_formula_weight         429.13
_chemical_name_systematic
;
 ?
;
_space_group_crystal_system      triclinic
_space_group_IT_number           2
_space_group_name_Hall           '-P 1'
_space_group_name_H-M_alt        'P -1'
_symmetry_space_group_name_Hall  '-P 1'
_symmetry_space_group_name_H-M   'P -1'
_atom_sites_solution_hydrogens   mixed
_audit_creation_method           SHELXL-2013
_cell_angle_alpha                90.423(6)
_cell_angle_beta                 93.298(7)
_cell_angle_gamma                102.310(6)
_cell_formula_units_Z            2
_cell_length_a                   6.778(3)
_cell_length_b                   7.572(3)
_cell_length_c                   13.356(5)
_cell_measurement_reflns_used    747
_cell_measurement_temperature    296(2)
_cell_measurement_theta_max      25.344
_cell_measurement_theta_min      2.754
_cell_volume                     668.5(5)
_computing_cell_refinement       SMART
_computing_data_collection       'SMART (Bruker, 2000)'
_computing_data_reduction        'SAINT (Bruker, 2000)'
_computing_molecular_graphics    SHELXTL
_computing_publication_material  SHELXTL
_computing_structure_refinement  'SHELXL-2013 (Sheldrick, 2013)'
_computing_structure_solution    'SHELXTL (Bruker, 2000)'
_diffrn_ambient_temperature      296(2)
_diffrn_measured_fraction_theta_full 0.993
_diffrn_measured_fraction_theta_max 0.983
_diffrn_measurement_device_type  'Bruker APEX II'
_diffrn_radiation_type           MoK\a
_diffrn_radiation_wavelength     0.71073
_diffrn_reflns_av_R_equivalents  0.0483
_diffrn_reflns_av_unetI/netI     0.0989
_diffrn_reflns_Laue_measured_fraction_full 0.993
_diffrn_reflns_Laue_measured_fraction_max 0.983
_diffrn_reflns_limit_h_max       9
_diffrn_reflns_limit_h_min       -7
_diffrn_reflns_limit_k_max       10
_diffrn_reflns_limit_k_min       -9
_diffrn_reflns_limit_l_max       17
_diffrn_reflns_limit_l_min       -16
_diffrn_reflns_number            4878
_diffrn_reflns_point_group_measured_fraction_full 0.993
_diffrn_reflns_point_group_measured_fraction_max 0.983
_diffrn_reflns_theta_full        25.242
_diffrn_reflns_theta_max         28.464
_diffrn_reflns_theta_min         1.527
_exptl_absorpt_coefficient_mu    4.687
_exptl_absorpt_correction_T_max  0.799
_exptl_absorpt_correction_T_min  0.755
_exptl_absorpt_correction_type   multi-scan
_exptl_absorpt_process_details   'SADABS(Bruker, 2000)'
_exptl_crystal_colour            colorless
_exptl_crystal_density_diffrn    2.132
_exptl_crystal_description       sheet-like
_exptl_crystal_F_000             428
_exptl_crystal_size_max          0.100
_exptl_crystal_size_mid          0.050
_exptl_crystal_size_min          0.050
_refine_diff_density_max         1.762
_refine_diff_density_min         -1.062
_refine_diff_density_rms         0.203
_refine_ls_extinction_method     none
_refine_ls_goodness_of_fit_ref   1.007
_refine_ls_hydrogen_treatment    constr
_refine_ls_matrix_type           full
_refine_ls_number_parameters     199
_refine_ls_number_reflns         3311
_refine_ls_number_restraints     0
_refine_ls_restrained_S_all      1.007
_refine_ls_R_factor_all          0.0885
_refine_ls_R_factor_gt           0.0601
_refine_ls_shift/su_max          0.000
_refine_ls_shift/su_mean         0.000
_refine_ls_structure_factor_coef Fsqd
_refine_ls_weighting_details
'w=1/[\s^2^(Fo^2^)+(0.0785P)^2^] where P=(Fo^2^+2Fc^2^)/3'
_refine_ls_weighting_scheme      calc
_refine_ls_wR_factor_gt          0.1378
_refine_ls_wR_factor_ref         0.1533
_reflns_Friedel_coverage         0.000
_reflns_number_gt                2444
_reflns_number_total             3311
_reflns_threshold_expression     'I > 2\s(I)'
_cod_data_source_file            c4cc09341k2.cif
_cod_data_source_block           Y
_cod_depositor_comments          'Adding full bibliography for 7116250.cif.'
_cod_original_cell_volume        668.4(4)
_cod_database_code               7116250
#BEGIN Tags that were not found in dictionaries:
_shelx_space_group_comment
;
The symmetry employed for this shelxl refinement is uniquely defined
by the following loop, which should always be used as a source of
symmetry information in preference to the above space-group names.
They are only intended as comments.
;
_shelx_estimated_absorpt_t_min   0.651
_shelx_estimated_absorpt_t_max   0.799
_shelxl_version_number           2013-4
_shelx_res_file
;
TITL 1  in P-1
CELL  0.71073    6.7780    7.5716   13.3560   90.4225   93.2983  102.3103
ZERR        2    0.0025    0.0027    0.0047    0.0058    0.0066    0.0061
LATT 1
SFAC C  O  P  S  N  H  Y
UNIT 18 18 2 2 2 22 2
OMIT    -4   4   3
L.S. 5
ACTA
BOND $H
FMAP 2
PLAN 5
HTAB O2W O2_$4
EQIV $4 x, y+1, z
HTAB O2W S1_$1
HTAB O1W O1_$3
EQIV $3 -x, -y+1, -z+1
HTAB O1W O6_$2
EQIV $2 x, y-1, z
HTAB N1 O7_$1
HTAB N1 O1
HTAB N1 S1_$1
HTAB C8 O7_$1
EQIV $1 -x+1, -y+2, -z+1
HTAB
CONF
size 0.1 0.05 0.05
FREE Y1   S1
temp 23
WGHT    0.078500
FVAR       0.57589
Y1    7    0.293344    0.765913    0.456395    11.00000    0.01224    0.01337 =
         0.01685    0.00087    0.00275    0.00511
P1    3    0.245083    0.384754    0.618746    11.00000    0.01269    0.01420 =
         0.01533    0.00002    0.00217    0.00550
S1    4    0.396682    1.071496    0.308001    11.00000    0.02089    0.01577 =
         0.01448    0.00148    0.00123    0.00701
C1    1    0.233438    0.390897    0.756618    11.00000    0.01329    0.02386 =
         0.01836    0.00179    0.00103    0.00413
C2    1    0.185805    0.234234    0.812613    11.00000    0.03228    0.02089 =
         0.02471   -0.00140    0.00447    0.00998
AFIX  43
H2    6    0.154137    0.122137    0.779767    11.00000   -1.20000
AFIX   0
C3    1    0.184868    0.242462    0.913516    11.00000    0.03192    0.02280 =
         0.02689    0.00641    0.00393    0.01451
AFIX  43
H3    6    0.155005    0.136120    0.949292    11.00000   -1.20000
AFIX   0
C4    1    0.228948    0.411602    0.965686    11.00000    0.02376    0.03113 =
         0.01571   -0.00051   -0.00337    0.01092
C5    1    0.229367    0.431903    1.071040    11.00000    0.03472    0.03533 =
         0.01730    0.00741    0.00709    0.01205
AFIX  43
H5    6    0.201289    0.330130    1.110647    11.00000   -1.20000
AFIX   0
C6    1    0.270710    0.599838    1.114745    11.00000    0.03573    0.04996 =
         0.01746   -0.00893   -0.00165    0.01302
AFIX  43
H6    6    0.270929    0.611848    1.184102    11.00000   -1.20000
AFIX   0
C7    1    0.312614    0.753586    1.056697    11.00000    0.03624    0.04107 =
         0.02281   -0.01141    0.00568    0.00300
AFIX  43
H7    6    0.340103    0.866816    1.088255    11.00000   -1.20000
AFIX   0
C8    1    0.314514    0.742918    0.954725    11.00000    0.03623    0.02806 =
         0.02354    0.00157    0.00656    0.00600
AFIX  43
H8    6    0.341087    0.846943    0.916826    11.00000   -1.20000
AFIX   0
C9    1    0.274626    0.567807    0.907714    11.00000    0.01747    0.02800 =
         0.01778   -0.00297    0.00271    0.00656
N1    5    0.276082    0.549532    0.805318    11.00000    0.02063    0.01687 =
         0.01870    0.00338   -0.00035    0.00705
AFIX  43
H1A   6    0.306236    0.646015    0.770842    11.00000   -1.20000
AFIX   0
O1    2    0.253953    0.578102    0.588884    11.00000    0.02652    0.01767 =
         0.01819    0.00174    0.00219    0.00880
O2    2    0.430079    0.313964    0.600140    11.00000    0.00972    0.02528 =
         0.02728   -0.00240    0.00154    0.00664
O3    2    0.050901    0.257171    0.583882    11.00000    0.01794    0.01724 =
         0.02541   -0.00206   -0.00064    0.00899
O4    2    0.278140    0.886614    0.288242    11.00000    0.02451    0.01956 =
         0.02157   -0.00262   -0.00194   -0.00208
O5    2    0.434298    1.080810    0.420417    11.00000    0.01917    0.01604 =
         0.01741   -0.00092    0.00229    0.00427
O6    2    0.289589    1.207504    0.273180    11.00000    0.04696    0.03074 =
         0.02733    0.00506    0.00192    0.02816
O7    2    0.593708    1.097360    0.260996    11.00000    0.02584    0.02466 =
         0.02036    0.00203    0.00915    0.00742
O1W   2    0.171802    0.479082    0.371663    11.00000    0.02486    0.02012 =
         0.03546   -0.00355    0.01071    0.00570
AFIX   3
H1WA  6    0.221326    0.404616    0.337223    11.00000   -1.50000
H1WB  6    0.068595    0.422688    0.401573    11.00000   -1.50000
AFIX   0
O2W   2    0.139708    0.915082    0.580986    11.00000    0.01795    0.02089 =
         0.02873   -0.00885    0.00082    0.00602
AFIX   3
H2WA  6    0.104228    0.840442    0.627887    11.00000   -1.50000
H2WB  6    0.226328    1.008063    0.604967    11.00000   -1.50000
AFIX   0
HKLF 4

REM  1  in P-1
REM R1 =  0.0601 for    2444 Fo > 4sig(Fo)  and  0.0885 for all    3311 data
REM    199 parameters refined using      0 restraints

END

WGHT      0.0742      0.0000

REM Instructions for potential hydrogen bonds
HTAB C8 O7_$1
HTAB N1 S1_$1
HTAB N1 O1
HTAB N1 O7_$1
HTAB O1W O6_$2
HTAB O1W O1_$3
HTAB O2W S1_$1
HTAB O2W O2_$4

REM Highest difference peak  1.762,  deepest hole -1.062,  1-sigma level  0.203
Q1    1   0.3488  0.7905  0.5231  11.00000  0.05    1.76
Q2    1   0.2486  0.7457  0.3880  11.00000  0.05    1.62
Q3    1   0.3391  0.8215  0.4033  11.00000  0.05    1.35
Q4    1   0.2176  0.6873  0.5030  11.00000  0.05    1.25
Q5    1   0.1539  0.6557  0.4393  11.00000  0.05    1.04
;
_shelx_res_checksum              10181
_shelx_hkl_file
;
   1   0   0 1038.77   35.02   1
   2   0   0 9999.99  314.75   1
   3   0   0 494.695  22.030   1
   4   0   0 693.065  38.807   2
   4   0   0 779.273  31.873   1
   5   0   0 146.084  20.208   2
   5   0   0 123.887  13.474   1
   6   0   0 313.272  23.829   1
   6   0   0 384.598  36.238   2
   7   0   0 579.746  47.133   2
   8   0   0 25.5495 19.2833   2
   9  -1   0 37.5826 22.7599   2
   8  -1   0 228.802  34.523   2
   7  -1   0  3.3322 14.2238   2
   7  -1   0 -6.7219 10.3805   1
   6  -1   0 1252.43   54.88   1
   6  -1   0 1330.09   66.86   2
   5  -1   0 97.2694 13.9724   1
   4  -1   0 5299.53  175.23   1
   3  -1   0 1211.81   45.76   1
   2  -1   0 5495.97  176.83   1
   1  -1   0 2532.54   82.59   1
   0  -1   0 188.146   8.769   1
   0   1   0 214.449  10.767   3
   1   1   0 29.2517  6.6545   2
   2   1   0 149.137   8.160   1
   2   1   0 156.052  14.103   2
   3   1   0 319.009  22.607   2
   3   1   0 334.416  15.338   1
   4   1   0 91.1389 15.3255   2
   4   1   0 76.2507  8.6237   1
   5   1   0 -0.9698 10.8046   2
   5   1   0 6.29288 6.88131   1
   6   1   0 551.210  41.755   2
   7   1   0 170.845  28.315   2
   8   1   0 47.2018 20.6784   2
   9  -2   0 15.6721 19.6205   2
   8  -2   0 361.816  41.326   2
   7  -2   0 83.0159 16.6892   1
   6  -2   0 63.1769 16.4864   1
   5  -2   0 403.247  28.312   1
   4  -2   0 107.534  14.338   1
   3  -2   0 281.859  19.029   1
   2  -2   0 32.1437  7.5988   1
   1  -2   0 439.801  21.003   1
  -1   2   0 433.130  23.158   2
   0  -2   0 568.456  23.277   1
   0   2   0 644.904  28.460   2
   0   2   0 610.764  28.797   3
   2   2   0 661.688  32.810   2
   3   2   0 1343.06   58.76   2
   4   2   0 100.391  16.555   2
   5   2   0 885.037  50.062   2
   6   2   0 80.0181 19.7698   2
   7   2   0 130.493  26.183   2
   8   2   0 97.1210 25.7000   2
   9  -3   0  3.2019 18.0225   2
   8  -3   0 44.9943 17.0594   1
   7  -3   0 105.111  19.414   1
   6  -3   0 296.654  28.348   1
   5  -3   0 307.291  26.474   1
   4  -3   0 52.4236 13.2485   1
   3  -3   0 569.721  30.609   1
   2  -3   0 154.987  14.526   1
  -2   3   0 133.359  15.611   2
   1  -3   0 322.854  19.778   1
  -1   3   0 361.227  22.679   2
  -1   3   0 391.828  25.876   3
   0  -3   0 137.319  10.803   1
   0   3   0 152.288  15.560   3
   0   3   0 158.823  15.112   2
  -1  -3   0 575.543  22.200   1
   1   3   0 617.826  33.727   2
   1   3   0 629.513  33.055   3
   2   3   0 1490.60   65.10   2
   3   3   0 70.0070 14.7921   2
   4   3   0 72.8883 16.5403   2
   5   3   0 35.8226 14.9659   2
   6   3   0 11.7798 15.1698   2
   7   3   0  5.6264 15.9272   2
   8  -4   0 89.1246 22.3074   1
   7  -4   0 101.714  21.459   1
   6  -4   0 99.0514 20.3075   1
   5  -4   0 213.961  23.861   1
   4  -4   0 60.8686 14.0865   1
   3  -4   0 947.014  43.629   1
   2  -4   0 1579.30   59.34   1
  -2   4   0 1397.90   63.80   2
   1  -4   0 249.368  18.423   1
  -1   4   0 251.823  20.728   2
  -1   4   0 238.059  23.188   3
   0  -4   0 135.652  11.898   1
   0   4   0 160.286  16.541   2
   0   4   0 112.543  15.538   3
  -1  -4   0 44.2692  6.3145   1
   1   4   0 41.7344 12.6310   2
   1   4   0 31.9512 11.5393   3
   2   4   0 195.293  23.781   2
   3   4   0 91.3719 19.7960   2
   4   4   0 25.8955 13.8138   2
   5   4   0 386.188  37.942   2
   6   4   0 337.200  38.797   2
   7   4   0 114.396  28.302   2
   8  -5   0  8.8899 17.0283   1
   7  -5   0 -8.5219 13.8813   1
   6  -5   0 535.750  40.837   1
   5  -5   0 796.377  46.433   1
   4  -5   0 36.8017 15.0541   1
   3  -5   0 2046.39   78.49   1
  -3   5   0 1894.15   85.98   2
   2  -5   0 522.837  30.421   1
  -2   5   0 525.507  33.813   2
  -2   5   0 547.952  36.778   3
   1  -5   0 180.254  16.958   1
  -1   5   0 181.461  23.028   3
  -1   5   0 190.651  20.176   2
   0  -5   0 51.0868  9.8127   1
   0   5   0 73.0753 14.5728   2
   0   5   0 55.9708 14.1807   3
  -1  -5   0 568.759  25.550   1
   1   5   0 608.032  38.973   3
   1   5   0 609.319  37.259   2
   2   5   0 1350.48   65.68   2
   2   5   0 1319.24   67.92   3
   3   5   0 177.154  26.157   2
   3   5   0 185.077  26.366   3
   4   5   0 1355.88   72.02   2
   5   5   0 40.6491 19.5257   2
   6   5   0 278.861  37.714   2
   8  -6   0 -31.553  17.013   1
   7  -6   0 745.594  52.115   1
   6  -6   0 409.108  38.852   1
   5  -6   0 259.161  30.124   1
   4  -6   0 468.401  35.614   1
   3  -6   0 465.879  32.599   1
  -3   6   0 404.575  36.271   2
   2  -6   0 578.974  35.067   1
  -2   6   0 594.465  43.592   3
  -2   6   0 622.931  40.355   2
   1  -6   0 234.056  21.083   1
  -1   6   0 280.175  26.909   2
  -1   6   0 299.621  31.052   3
   0  -6   0 2183.03   78.93   1
   0   6   0 2271.06   98.83   3
   0   6   0 2166.97   92.13   2
   1   6   0 29.9895 15.5908   3
   1   6   0 -3.1661 12.3027   2
   2   6   0 383.506  37.307   3
   2   6   0 416.042  34.357   2
   3   6   0 94.0084 23.4243   3
   3   6   0 136.244  24.131   2
   4   6   0 10.6479 17.2138   2
   4   6   0 -8.0855 15.6333   3
   5   6   0 16.2264 20.1193   3
   5   6   0 -14.723  16.861   2
   7  -7   0 16.2050 20.1124   1
   6  -7   0 317.638  36.746   1
   5  -7   0 27.7125 17.3819   1
   4  -7   0 395.165  35.938   1
   3  -7   0 63.7460 17.2879   1
  -3   7   0 55.0898 18.0195   2
   2  -7   0 53.6935 15.6017   1
  -2   7   0 31.0167 19.1033   3
  -2   7   0 36.7189 15.7842   2
   1  -7   0 341.035  26.959   1
  -1   7   0 400.769  33.448   2
  -1   7   0 348.156  37.906   3
   0   7   0 365.863  30.589   2
   0   7   0 322.386  35.988   3
   1   7   0  1.3921 12.7970   2
   1   7   0  4.3376 14.2321   3
   2   7   0 236.088  32.264   3
   2   7   0 205.155  27.932   2
   3   7   0 -18.649  13.696   2
   3   7   0  5.1362 16.3222   3
   4   7   0 68.9991 21.4377   2
   4   7   0 24.5641 19.7184   3
   5   7   0 32.6886 21.7001   2
   5   7   0 36.8536 24.7040   3
   6  -8   0 43.9345 22.5472   1
   5  -8   0 47.9580 20.8026   1
   3  -8   0 39.6334 16.4602   1
  -3   8   0 22.2515 17.0886   2
   2  -8   0 339.486  30.241   1
  -2   8   0 292.807  33.749   2
  -1   8   0 273.403  31.038   2
   0   8   0 99.3495 25.4976   3
   0   8   0 147.358  22.645   2
   1   8   0 28.0711 16.2776   2
   1   8   0 39.5364 20.0164   3
   2   8   0 130.029  27.431   3
   2   8   0 95.0197 22.3266   2
   3   8   0 206.613  35.520   3
   3   8   0 196.172  30.391   2
   5  -9   0 308.605  37.576   1
   4  -9   0  3.9475 17.8551   1
   3  -9   0 66.0917 21.1462   1
  -3   9   0 75.2620 23.3771   2
  -2   9   0 25.1835 19.5006   2
  -1   9   0 95.2966 22.6370   2
   0   9   0 56.3219 19.5392   2
   1   9   0  4.1945 15.9207   2
   2   9   0 331.037  37.274   2
  -3  10   0 -27.356  16.447   2
  -2  10   0 211.480  33.751   2
  -1  10   0 223.059  31.933   2
  -2  10  -1 75.7229 24.2918   2
  -3  10  -1 44.2042 21.0173   2
   2   9  -1 180.037  36.120   3
   1   9  -1 37.1167 17.0746   2
   0   9  -1 243.789  31.427   2
  -1   9  -1 42.8827 17.1103   2
  -2   9  -1 10.6140 17.0407   2
  -3   9  -1 22.7976 18.1239   2
   3  -9   1 48.2489 18.8835   1
   4  -9   1 -8.0810 17.0770   1
   5  -9   1 44.6130 21.8062   1
   3   8  -1 286.442  34.642   2
   3   8  -1 256.390  39.605   3
   2   8  -1 66.4502 23.9350   3
   2   8  -1 50.7174 18.8164   2
   1   8  -1 51.7183 17.7372   2
   1   8  -1 63.5910 24.2134   3
   0   8  -1 187.214  25.316   2
   0   8  -1 184.311  31.607   3
  -1   8  -1 42.3012 20.8601   3
  -1   8  -1 55.4141 17.6006   2
  -2   8  -1 161.373  25.993   2
   2  -8   1 150.908  21.220   1
  -3   8  -1 24.5326 17.1058   2
   3  -8   1 30.9244 16.8282   1
   5  -8   1 33.2615 19.0079   1
   5   7  -1 100.362  29.840   3
   5   7  -1 142.824  29.546   2
   4   7  -1 197.713  30.073   2
   4   7  -1 137.742  30.463   3
   3   7  -1 -7.3264 18.5419   3
   3   7  -1  6.1015 15.4302   2
   2   7  -1 338.307  39.138   3
   2   7  -1 311.967  32.820   2
   1   7  -1 -19.495  12.693   3
   1   7  -1  8.7483 12.0242   2
   0   7  -1 981.294  60.672   3
   0   7  -1 899.010  49.006   2
  -1   7  -1 30.2900 18.6502   3
  -1   7  -1 13.2842 12.4811   2
   1  -7   1 23.4643 11.7849   1
  -2   7  -1 1050.71   64.69   3
  -2   7  -1 1127.93   58.16   2
   2  -7   1 1066.36   51.28   1
  -3   7  -1 336.124  34.372   2
   3  -7   1 330.413  31.221   1
   4  -7   1 176.054  25.950   1
   5  -7   1 72.0551 21.7853   1
   6  -7   1 25.6918 20.2065   1
   7  -7   1  3.0155 18.4171   1
   6   6  -1 74.2742 26.5164   2
   6   6  -1 80.9187 32.0935   3
   5   6  -1 56.6125 22.0648   2
   5   6  -1 32.2156 21.9792   3
   4   6  -1 98.9113 25.6697   3
   4   6  -1 129.349  25.933   2
   3   6  -1 69.8929 19.8562   2
   3   6  -1 75.8120 21.2152   3
   2   6  -1 315.918  34.775   3
   2   6  -1 335.597  31.618   2
   1   6  -1 175.426  25.060   3
   1   6  -1 161.120  21.785   2
   0   6  -1 117.512  18.382   2
   0   6  -1 143.953  23.292   3
   0  -6   1 88.8948 13.0125   1
  -1   6  -1 31.8186 16.9517   3
  -1   6  -1 16.4900 11.8189   2
   1  -6   1 7.65749 9.27875   1
  -2   6  -1 216.620  29.559   3
  -2   6  -1 197.304  23.980   2
   2  -6   1 213.053  22.065   1
  -3   6  -1 427.265  36.680   2
   3  -6   1 461.236  32.726   1
   4  -6   1 101.165  19.799   1
   5  -6   1 251.017  29.948   1
   6  -6   1 239.381  31.367   1
   7  -6   1 359.008  39.311   1
   8  -6   1 13.4545 19.8656   1
   6   5  -1 21.1454 19.0680   2
   5   5  -1 28.3051 19.0564   2
   4   5  -1 180.182  29.471   3
   4   5  -1 147.605  25.232   2
   3   5  -1 109.904  22.440   3
   3   5  -1 92.3603 21.2759   2
   2   5  -1 148.021  21.621   2
   2   5  -1 172.892  24.389   3
   1   5  -1 1002.67   53.11   3
   1   5  -1 944.938  48.174   2
  -1  -5   1 968.760  37.608   1
   0   5  -1 101.461  18.159   3
   0   5  -1 99.8239 15.5834   2
   0  -5   1 124.173  12.652   1
  -1   5  -1 356.770  26.044   2
  -1   5  -1 348.032  32.774   3
   1  -5   1 321.101  23.072   1
  -2   5  -1 113.706  21.179   3
  -2   5  -1 94.0282 16.8392   2
   2  -5   1 85.6836 14.5837   1
   3  -5   1 1899.87   75.55   1
   4  -5   1 143.037  19.984   1
   6  -5   1 185.610  26.316   1
   7  -5   1 28.5220 17.7524   1
   8  -5   1 84.4189 23.2993   1
   7   4  -1 101.271  26.713   2
   6   4  -1 150.349  26.992   2
   5   4  -1 721.217  47.663   2
   4   4  -1 116.780  21.042   2
   3   4  -1 356.720  32.145   2
   2   4  -1 10.1030 11.0281   3
   2   4  -1 -7.5448 10.2675   2
   1   4  -1 237.352  21.635   2
   1   4  -1 245.038  23.919   3
  -1  -4   1 194.656  13.320   1
   0   4  -1 40.3885 10.1137   2
   0   4  -1 43.1097 12.0869   3
   0  -4   1 50.5152  8.2927   1
  -1   4  -1 1016.72   46.86   2
  -1   4  -1 1063.65   54.23   3
   1  -4   1 1115.66   43.69   1
  -2   4  -1 1203.91   55.15   2
  -2   4  -1 1200.43   60.27   3
   2  -4   1 1335.28   51.08   1
   3  -4   1 75.3054 13.6771   1
   4  -4   1 439.795  29.077   1
   5  -4   1 242.887  24.562   1
   6  -4   1 -20.422  12.029   1
   7  -4   1 73.7119 19.1833   1
   8  -4   1 55.3296 19.5306   1
   7   3  -1 78.5232 22.6573   2
   6   3  -1  0.3022 14.1338   2
   5   3  -1 18.9011 13.1221   2
   4   3  -1 24.4548 11.7435   2
   3   3  -1 25.8688 10.8059   2
   2   3  -1 347.798  26.117   2
   1   3  -1 14.9739  8.9591   3
   1   3  -1 33.7765 10.3201   2
  -1  -3   1 21.4946  5.0549   1
   0   3  -1 983.662  40.873   2
   0   3  -1 1000.74   45.47   3
   0  -3   1 930.683  35.868   1
  -1   3  -1 349.888  27.396   3
  -1   3  -1 344.726  21.102   2
   1  -3   1 384.251  20.249   1
   2  -3   1 678.015  31.174   1
   3  -3   1 277.133  20.692   1
   4  -3   1 553.411  31.781   1
   5  -3   1  3.6721 10.2512   1
   6  -3   1 295.726  28.661   1
   7  -3   1 115.252  20.451   1
   8  -3   1 402.467  34.238   1
   8  -3   1 310.866  39.831   2
   9  -3   1 30.5713 21.9418   2
   8   2  -1 27.8583 20.6897   2
   7   2  -1 144.381  25.889   2
   6   2  -1 17.9934 14.8292   2
   5   2  -1 174.824  23.117   2
   4   2  -1 155.767  19.654   2
   3   2  -1 2033.21   81.30   2
   2   2  -1 32.8600  8.2246   2
   1   2  -1 1729.83   63.12   2
   1   2  -1 1556.76   66.42   3
  -1  -2   1 1570.51   52.65   1
   0   2  -1 1925.85   71.78   2
   0   2  -1 2016.31   77.22   3
   0  -2   1 1957.24   65.19   1
  -1   2  -1 4.52345 9.00424   3
  -1   2  -1 0.00462 6.14785   2
   1  -2   1 -4.3323  4.7510   1
   2  -2   1 119.212  11.928   1
   3  -2   1 40.0857  9.4640   1
   4  -2   1 1332.74   54.08   1
   5  -2   1 18.6483 10.1441   1
   6  -2   1 1159.09   53.28   1
   7  -2   1 109.786  18.893   1
   7  -2   1 103.304  23.580   2
   8  -2   1 10.9987 18.1748   2
   9  -2   1  3.9935 20.2442   2
   8   1  -1 -10.676  14.594   2
   7   1  -1 378.441  40.869   2
   6   1  -1 287.544  31.844   2
   5   1  -1 569.060  27.188   1
   5   1  -1 595.452  38.852   2
   4   1  -1 393.040  29.058   2
   4   1  -1 446.181  21.169   1
   3   1  -1 140.351  10.215   1
   3   1  -1 137.871  15.676   2
   2   1  -1 86.3225 10.6493   2
  -2  -1   1 90.2002  6.3391   1
   1   1  -1 11.9096  5.3511   2
  -1  -1   1 6.42681 2.96987   1
   0   1  -1 1425.70   54.90   3
   0   1  -1 1414.59   50.47   2
   0  -1   1 1418.51   46.63   1
   1  -1   1 78.7749  6.8528   1
   2  -1   1 1892.36   65.21   1
   3  -1   1 337.755  19.967   1
   4  -1   1 -7.6129  7.9814   1
   5  -1   1 107.420  14.287   1
   5  -1   1 126.227  19.623   2
   6  -1   1 309.905  32.516   2
   6  -1   1 257.297  22.868   1
   7  -1   1 66.2361 21.0703   2
   7  -1   1 109.540  16.686   1
   8  -1   1 105.510  27.090   2
   8   0  -1 113.160  27.458   2
   7   0  -1 214.926  31.404   2
   6   0  -1 26.7819 10.4562   1
   6   0  -1 37.5845 16.0744   2
   5   0  -1 47.9967  9.3681   1
   5   0  -1 26.5948 12.5030   2
   4   0  -1 19.6714  9.7730   2
   3   0  -1 103.246  10.059   1
  -1   0   1 72.3152  5.1514   1
   0   0  -1 3294.13  117.79   3
   1   0   1 171.663   9.258   1
   1   0   1 199.063  10.828   2
   2   0   1 1027.75   41.36   2
   2   0   1 948.965  35.326   1
   3   0   1 235.241  18.902   2
   3   0   1 238.832  14.947   1
   4   0   1 305.328  24.325   2
   4   0   1 305.650  19.160   1
   5   0   1 383.232  32.508   2
   5   0   1 399.335  23.948   1
   6   0   1 181.498  17.835   1
   6   0   1 195.810  27.574   2
   7   0   1 436.704  43.558   2
   8   0   1 10.5984 17.5915   2
   9  -1  -1 50.7278 24.0383   2
   8  -1  -1 121.970  26.973   2
   7  -1  -1 47.0999 18.5473   2
   7  -1  -1 65.8774 14.4067   1
   6  -1  -1 237.184  21.826   1
   5  -1  -1 53.3464 11.0983   1
   4  -1  -1 1237.40   49.70   1
   3  -1  -1 1851.56   66.33   1
   2  -1  -1 951.523  36.761   1
  -1   1   1 6207.16  215.50   2
  -1   1   1 6222.73  196.52   1
   0   1   1 26.2511  5.4765   2
   0   1   1 21.7803  2.8969   1
   1   1   1 824.477  34.827   2
   2   1   1 41.4818  9.1169   2
   2   1   1 37.4179  4.1469   1
   3   1   1 915.090  32.115   1
   3   1   1 845.929  41.787   2
   4   1   1 26.1364 11.0156   2
   4   1   1 9.05242 5.61019   1
   5   1   1 124.943  20.527   2
   5   1   1 139.096  12.935   1
   6   1   1 221.649  28.874   2
   7   1   1 -6.7957 13.6301   2
   8   1   1 111.976  27.502   2
   9  -2  -1 98.5122 27.7909   2
   8  -2  -1 90.1903 25.7358   2
   7  -2  -1 170.699  22.315   1
   5  -2  -1 1289.04   55.34   1
   4  -2  -1 217.632  19.646   1
   3  -2  -1 2172.30   78.64   1
   2  -2  -1 93.6308 10.9369   1
   1  -2  -1 546.386  25.502   1
  -1   2   1 615.435  27.777   3
  -1   2   1 701.169  29.818   2
   0  -2  -1 52.8696  7.1476   1
   0   2   1 76.8357  9.3574   3
   0   2   1 79.1296 10.8896   2
   1   2   1 10.8642  8.9854   2
   2   2   1 939.314  43.082   2
   3   2   1 263.144  21.971   2
   4   2   1 773.004  43.061   2
   5   2   1 843.531  48.855   2
   6   2   1 -5.3648 13.3148   2
   7   2   1 156.765  29.381   2
   8   2   1 170.336  31.356   2
   9  -3  -1 99.5661 29.3323   2
   8  -3  -1 86.3308 20.0266   1
   7  -3  -1 44.0492 16.2558   1
   6  -3  -1 736.504  43.506   1
   5  -3  -1 758.043  41.230   1
   4  -3  -1 20.7570 10.3158   1
   3  -3  -1 1151.36   48.57   1
   2  -3  -1 25.5354  8.8673   1
  -2   3   1 34.5983 10.6415   2
   1  -3  -1 528.732  26.608   1
  -1   3   1 637.125  31.611   3
  -1   3   1 638.506  30.893   2
   0  -3  -1 985.632  37.506   1
   0   3   1 1035.13   44.19   2
   0   3   1 987.378  43.930   3
  -1  -3  -1 2231.49   72.08   1
   1   3   1 2204.15   89.28   2
   2   3   1 946.281  48.011   2
   3   3   1 390.143  29.001   2
   4   3   1 398.734  31.371   2
   5   3   1  3.2827 13.0025   2
   6   3   1 111.170  23.708   2
   7   3   1 -23.304  13.235   2
   8  -4  -1 60.9602 19.1728   1
   7  -4  -1 233.730  29.212   1
   6  -4  -1  0.6954 13.7020   1
   5  -4  -1 45.2172 14.4150   1
   4  -4  -1 75.3051 14.7476   1
   3  -4  -1 1046.81   46.91   1
   2  -4  -1 235.794  20.405   1
  -2   4   1 235.290  22.652   2
   1  -4  -1 48.4657  9.3025   1
  -1   4   1 41.8157 10.4089   2
  -1   4   1 41.5993 11.5082   3
   0  -4  -1 337.966  19.703   1
   0   4   1 321.502  23.507   3
   0   4   1 378.076  25.748   2
  -1  -4  -1 53.0209  6.6878   1
   1   4   1 61.3498 12.8422   3
   1   4   1 49.6372 13.7807   2
   2   4   1 77.7336 18.5913   2
   3   4   1 49.4108 16.7609   2
   4   4   1  7.2844 13.7635   2
   5   4   1 65.3589 19.7639   2
   6   4   1 -25.181  13.881   2
   7   4   1 29.3244 20.0968   2
   8  -5  -1 -21.783  15.656   1
   7  -5  -1 10.0270 16.5694   1
   6  -5  -1 141.357  23.504   1
   5  -5  -1 45.7461 15.8110   1
   4  -5  -1 73.6195 17.0414   1
   3  -5  -1 985.878  46.670   1
  -3   5   1 927.754  51.275   2
   2  -5  -1 113.276  16.582   1
  -2   5   1 131.297  18.378   2
  -2   5   1 153.699  19.721   3
   1  -5  -1 365.715  24.452   1
  -1   5   1 402.411  29.643   3
  -1   5   1 380.897  27.828   2
   0  -5  -1 141.945  13.559   1
   0   5   1 146.018  19.294   3
   0   5   1 132.756  18.940   2
  -1  -5  -1 11.0477  5.6069   1
   1   5   1 34.2910 14.0636   2
   1   5   1 23.5970 11.8185   3
   2   5   1 358.884  31.057   3
   2   5   1 386.244  35.355   2
   3   5   1 14.3250 15.1332   2
   4   5   1 353.697  38.109   2
   5   5   1  7.0004 17.3905   2
   6   5   1 289.732  39.375   2
   8  -6  -1 -12.950  18.363   1
   7  -6  -1 535.547  46.969   1
   6  -6  -1 129.273  24.927   1
   5  -6  -1 333.542  34.460   1
   4  -6  -1 518.311  37.598   1
   3  -6  -1 -3.4125 11.7115   1
  -3   6   1 -5.9490 12.7856   2
   2  -6  -1 106.352  17.298   1
  -2   6   1 62.3979 16.2547   2
  -2   6   1 87.4990 19.1573   3
   1  -6  -1 19.0620 11.0323   1
  -1   6   1 57.7509 16.7622   3
  -1   6   1 37.8982 13.8368   2
   0  -6  -1 574.567  30.473   1
   0   6   1 617.154  38.340   2
   0   6   1 603.142  40.974   3
   1   6   1 49.5821 16.5140   2
   1   6   1 56.9320 16.7792   3
   2   6   1 508.045  38.918   3
   2   6   1 529.334  39.292   2
   3   6   1 131.227  25.305   3
   3   6   1 244.868  31.449   2
   4   6   1 32.3996 18.9703   3
   4   6   1 47.7112 20.5026   2
   5   6   1 68.3246 24.9842   3
   5   6   1 56.6925 23.2172   2
   7  -7  -1 -15.622  17.650   1
   6  -7  -1 248.371  32.893   1
   5  -7  -1 -1.8916 15.9914   1
   4  -7  -1 287.991  30.751   1
   3  -7  -1 73.4006 18.1843   1
  -3   7   1 75.0706 20.4913   2
   2  -7  -1 200.481  23.810   1
  -2   7   1 282.263  29.971   2
   1  -7  -1 770.496  39.591   1
  -1   7   1 672.720  49.122   3
  -1   7   1 740.451  45.226   2
   0   7   1 31.8974 14.9955   2
   0   7   1 31.6200 16.6462   3
   1   7   1 107.988  22.259   3
   1   7   1 66.4197 19.4136   2
   2   7   1 87.4986 24.0419   3
   2   7   1 93.8316 21.4430   2
   3   7   1 12.3162 17.1130   3
   3   7   1 33.0335 18.3849   2
   4   7   1 25.4023 18.5844   2
   4   7   1 28.9174 21.4086   3
   5   7   1 -4.8400 20.0463   3
   5   7   1 -13.650  17.691   2
   6  -8  -1 -20.414  17.658   1
   5  -8  -1 178.659  29.036   1
   4  -8  -1 320.301  34.622   1
   3  -8  -1 24.9437 16.3418   1
  -3   8   1 21.2620 17.2940   2
   2  -8  -1 285.194  29.259   1
  -2   8   1 349.963  35.808   2
  -1   8   1 284.395  32.405   2
   0   8   1 22.6852 14.8228   2
   1   8   1 78.2326 20.4330   2
   2   8   1 52.3099 19.7081   2
   2   8   1 44.3845 21.5486   3
   3   8   1 90.6838 27.2686   3
   3   8   1 106.337  25.297   2
   5  -9  -1 363.265  40.862   1
   4  -9  -1 55.4750 21.8607   1
   3  -9  -1 223.242  29.735   1
  -3   9   1 231.095  33.663   2
  -2   9   1 29.1518 19.3493   2
  -1   9   1 70.1930 20.6337   2
   0   9   1 25.8455 17.0279   2
   1   9   1 37.1902 18.3693   2
   2   9   1 58.1369 22.5687   2
  -3  10   1 44.3079 21.5710   2
  -2  10   1  5.5589 18.8872   2
  -1  10   1 72.2381 23.1973   2
   2   9  -2 89.1431 29.9458   3
   1   9  -2 118.537  31.905   3
   0   9  -2 246.284  40.921   3
  -1   9  -2 19.1986 15.8358   2
  -2   9  -2 23.3407 17.8839   2
  -3   9  -2 49.8246 19.9764   2
   3  -9   2 28.2611 18.7050   1
   4  -9   2 15.0720 19.7124   1
   5  -9   2 13.9639 20.4612   1
   3   8  -2 62.3740 24.1983   3
   2   8  -2 -6.4732 17.6799   3
   2   8  -2 -4.4389 13.4970   2
   1   8  -2 192.219  32.776   3
   1   8  -2 163.670  23.805   2
   0   8  -2 148.606  22.377   2
   0   8  -2 171.364  32.354   3
  -1   8  -2 66.8170 17.3415   2
  -1   8  -2 35.2259 21.5634   3
  -2   8  -2 12.4792 14.5157   2
  -2   8  -2 -1.8743 18.1481   3
   2  -8   2  2.8864 14.0976   1
  -3   8  -2 24.5781 17.8974   2
   3  -8   2 17.7558 15.5304   1
   4  -8   2  0.5444 15.3196   1
   5  -8   2 -9.2508 17.1829   1
   6  -8   2 210.053  32.487   1
   5   7  -2 116.125  30.807   3
   4   7  -2 244.554  38.362   3
   4   7  -2 333.974  36.584   2
   3   7  -2 -2.4832 13.0358   2
   3   7  -2  6.0004 17.7189   3
   2   7  -2 151.972  27.718   3
   2   7  -2 152.594  23.953   2
   1   7  -2 16.5329 16.4882   3
   1   7  -2 25.2726 14.2671   2
   0   7  -2 101.324  17.571   2
   0   7  -2 95.2253 23.5956   3
  -1   7  -2 11.7905 17.6253   3
  -1   7  -2 14.9032 11.8285   2
   1  -7   2 3.37505 9.96442   1
  -2   7  -2 338.160  39.464   3
  -2   7  -2 339.729  32.464   2
   2  -7   2 302.524  27.427   1
   3  -7   2 568.154  36.884   1
   4  -7   2 -10.516  15.199   1
   5  -7   2 372.304  36.616   1
   6  -7   2 140.821  26.761   1
   7  -7   2 21.5229 20.8555   1
   5   6  -2 142.926  33.089   3
   5   6  -2 165.700  30.550   2
   4   6  -2 -2.3607 15.7172   2
   4   6  -2 14.6186 18.6683   3
   3   6  -2 110.474  23.964   3
   3   6  -2 123.229  22.688   2
   2   6  -2 249.819  31.725   3
   2   6  -2 252.690  27.217   2
   1   6  -2 491.817  40.708   3
   1   6  -2 491.464  33.333   2
   0   6  -2 83.4324 15.5504   2
   0   6  -2 103.401  22.170   3
   0  -6   2 77.6593 12.2500   1
  -1   6  -2 522.967  46.525   3
  -1   6  -2 549.504  34.616   2
   1  -6   2 580.226  31.590   1
  -2   6  -2 958.309  50.404   2
  -2   6  -2 837.964  57.147   3
   2  -6   2 946.709  44.769   1
   3  -6   2  3.3770 11.9696   1
   4  -6   2 254.287  28.260   1
   5  -6   2 76.9011 20.6467   1
   6  -6   2 85.8970 21.6778   1
   7  -6   2 43.5775 20.8973   1
   8  -6   2 32.8282 17.8490   1
   6   5  -2 19.9904 19.1250   2
   6   5  -2 -4.6503 20.4186   3
   5   5  -2 122.237  24.370   2
   5   5  -2 93.6103 25.5821   3
   4   5  -2 180.825  30.150   3
   4   5  -2 181.108  26.952   2
   3   5  -2 55.3960 16.8686   2
   3   5  -2 68.2964 19.4006   3
   2   5  -2 716.726  47.030   3
   2   5  -2 768.720  43.220   2
   1   5  -2 437.109  29.594   2
   1   5  -2 387.664  33.697   3
  -1  -5   2 473.231  22.615   1
   0   5  -2 134.652  16.579   2
   0   5  -2 124.835  20.881   3
   0  -5   2 106.822  12.289   1
  -1   5  -2 980.674  46.277   2
  -1   5  -2 1006.88   57.53   3
   1  -5   2 1013.65   42.99   1
  -2   5  -2 28.0814 15.6486   3
  -2   5  -2 32.1428 11.9437   2
   2  -5   2 10.0585  9.9991   1
   3  -5   2 1682.58   69.07   1
   4  -5   2  5.5371 12.1812   1
   5  -5   2 601.970  38.944   1
   6  -5   2 34.5569 16.8204   1
   7  -5   2 300.895  33.729   1
   8  -5   2 148.403  25.404   1
   7   4  -2 19.4747 19.2349   2
   6   4  -2 235.462  31.639   2
   5   4  -2 264.417  30.394   2
   4   4  -2  3.2516 12.0319   2
   3   4  -2 1416.68   71.34   3
   3   4  -2 1370.95   65.77   2
   2   4  -2 91.9252 18.1638   3
   2   4  -2 78.9513 15.5613   2
  -2  -4   2 68.8648  7.6367   1
   1   4  -2 1327.75   56.78   2
   1   4  -2 1351.35   64.06   3
  -1  -4   2 1304.91   47.45   1
   0   4  -2 375.967  29.928   3
   0   4  -2 420.347  24.419   2
   0  -4   2 406.150  21.462   1
  -1   4  -2 1183.09   61.63   3
  -1   4  -2 1257.89   52.21   2
   1  -4   2 1274.23   48.55   1
  -2   4  -2 385.742  26.924   2
  -2   4  -2 342.518  32.656   3
   2  -4   2 389.385  24.070   1
   3  -4   2 414.414  27.095   1
   4  -4   2 462.097  30.563   1
   5  -4   2 32.0478 14.0896   1
   6  -4   2 260.978  28.600   1
   7  -4   2 77.2346 19.4693   1
   8  -4   2 12.3165 14.0380   1
   7   3  -2 224.868  31.076   2
   6   3  -2 187.096  27.125   2
   5   3  -2 46.8575 15.2767   2
   4   3  -2 120.681  18.075   2
   3   3  -2 7.29389 9.06041   2
   2   3  -2 148.679  19.965   3
   2   3  -2 185.514  18.675   2
  -2  -3   2 175.535  10.281   1
   1   3  -2 13.4457  9.2657   3
   1   3  -2 9.34144 8.18872   2
  -1  -3   2 2.41882 4.94944   1
   0   3  -2 697.635  30.964   2
   0   3  -2 700.362  37.591   3
   0  -3   2 694.679  28.357   1
  -1   3  -2 399.413  30.664   3
  -1   3  -2 444.640  24.166   2
   1  -3   2 469.162  22.702   1
   2  -3   2 978.400  41.120   1
   4  -3   2 1119.30   49.90   1
   5  -3   2 76.8419 14.7587   1
   6  -3   2 271.488  26.727   1
   7  -3   2 12.7217 13.8309   1
   8  -3   2 141.760  29.856   2
   8  -3   2 111.243  19.415   1
   8   2  -2 40.7244 20.0890   2
   7   2  -2 70.6970 21.6245   2
   6   2  -2  9.2147 13.0537   2
   5   2  -2 13.5632 11.8623   2
   4   2  -2 105.179  16.452   2
   4   2  -2 122.141  10.036   1
   3   2  -2 1431.22   61.65   2
  -3  -2   2 1505.74   49.90   1
   2   2  -2 225.889  16.211   2
  -2  -2   2 190.710  11.033   1
   1   2  -2 1703.74   72.19   3
   1   2  -2 1714.76   65.77   2
  -1  -2   2 1780.94   58.46   1
   0   2  -2 4740.77  164.48   2
   0   2  -2 4574.42  175.72   3
   0  -2   2 4882.72  151.55   1
  -1   2  -2 25.8999 11.0918   3
   1  -2   2 22.3715  6.2509   1
   2  -2   2 118.059  11.829   1
   3  -2   2 48.5971 10.1464   1
   4  -2   2 253.605  21.180   1
   5  -2   2 92.3470 14.8034   1
   6  -2   2 449.296  30.935   1
   7  -2   2 214.804  23.166   1
   7  -2   2 239.670  32.945   2
   8  -2   2  5.2061 19.4796   2
   8   1  -2 -5.1847 15.3026   2
   7   1  -2 424.928  42.082   2
   6   1  -2 304.955  32.835   2
   5   1  -2 1340.40   63.63   2
   5   1  -2 1262.08   49.27   1
   4   1  -2 1725.83   62.19   1
   4   1  -2 1782.45   74.67   2
   3   1  -2 52.3192 10.8286   2
  -3  -1   2 47.1359  6.6765   1
   2   1  -2 27.7577  7.4414   2
  -2  -1   2 15.8199  4.3957   1
   1   1  -2 897.095  40.804   3
   1   1  -2 917.553  35.403   2
  -1  -1   2 954.768  32.791   1
   0   1  -2 12.3569  2.8026   2
   0   1  -2 13.8236  6.7829   3
   0  -1   2 9.86918 4.19128   1
   1  -1   2 288.006  15.450   1
   2  -1   2 92.9350  9.6273   1
   3  -1   2 1129.78   43.71   1
   4  -1   2 89.2017 12.2986   1
   5  -1   2 29.9782 14.1756   2
   5  -1   2 38.5518 10.6553   1
   6  -1   2 445.684  29.087   1
   6  -1   2 467.777  37.464   2
   7  -1   2  3.5707 18.4066   2
   8  -1   2 215.857  34.305   2
   8   0  -2 365.127  42.279   2
   7   0  -2  4.4474 15.4073   2
   6   0  -2 220.969  27.383   2
   6   0  -2 219.262  19.441   1
   5   0  -2 169.137  16.190   1
   5   0  -2 165.431  22.079   2
   4   0  -2 99.1899 11.9249   1
  -3   0   2 160.552  12.121   1
  -2   0   2 8.08080 4.27264   1
  -1   0   2 58.3345  5.6391   1
   0   0  -2 618.366  26.780   3
   0   0   2 633.149  24.061   2
   1   0   2 738.522  28.276   2
   1   0   2 638.913  24.945   1
   2   0   2 1664.59   55.59   1
   2   0   2 1587.22   63.30   2
   3   0   2 71.3462  8.6097   1
   3   0   2 46.8583 10.9926   2
   4   0   2 358.837  27.053   2
   4   0   2 335.575  20.535   1
   5   0   2 1033.22   56.09   2
   5   0   2 1089.44   44.27   1
   6   0   2 6.79707 9.61429   1
   6   0   2  6.6683 14.4533   2
   7   0   2 314.605  37.028   2
   8   0   2 -0.0547 18.4427   2
   9  -1  -2 153.584  32.709   2
   8  -1  -2 108.689  25.596   2
   7  -1  -2  9.2607 16.0354   2
   7  -1  -2  8.7925 10.7132   1
   6  -1  -2 655.865  36.475   1
   5  -1  -2 69.2463 13.0135   1
   4  -1  -2 1246.78   50.48   1
   3  -1  -2 -5.0313  5.9042   1
  -2   1   2 2954.62   97.68   1
  -1   1   2 1645.38   65.39   2
  -1   1   2 1860.01   58.56   1
   0   1   2 1189.33   46.64   2
   0   1   2 1223.05   40.47   1
   1   1   2 4883.06  160.81   1
   1   1   2 5313.32  179.98   2
   2   1   2 741.400  34.951   2
   2   1   2 751.176  26.470   1
   3   1   2 1955.04   64.85   1
   4   1   2 34.0186  6.9693   1
   5   1   2 254.263  27.843   2
   5   1   2 257.018  18.005   1
   6   1   2 29.4989 16.1554   2
   7   1   2 89.5863 23.1633   2
   8   1   2 52.4985 23.6967   2
   9  -2  -2 83.9079 26.0134   2
   8  -2  -2 83.3180 19.6313   1
   8  -2  -2 106.241  24.830   2
   7  -2  -2 74.0263 17.6957   1
   6  -2  -2 353.040  29.153   1
   5  -2  -2 782.377  40.049   1
   4  -2  -2 -12.397   7.373   1
   3  -2  -2 4347.17  146.50   1
   2  -2  -2 537.840  24.971   1
  -2   2   2 479.382  29.103   2
  -1   2   2 123.957  10.180   1
  -1   2   2 113.123  12.693   2
   0   2   2 109.535  12.496   2
   0   2   2 100.380   7.661   1
   1   2   2 0.69328 2.77433   1
   1   2   2 1.55348 9.37053   2
   2   2   2 303.451  22.375   2
   3   2   2 37.8159 11.5934   2
   4   2   2 197.053  23.033   2
   5   2   2 328.324  32.760   2
   6   2   2  6.6769 14.2585   2
   7   2   2 121.713  26.292   2
   8   2   2 106.912  27.594   2
   9  -3  -2 211.269  34.633   2
   8  -3  -2 38.1826 16.1993   1
   7  -3  -2 317.730  31.642   1
   6  -3  -2 698.349  42.491   1
   5  -3  -2 111.028  17.854   1
   4  -3  -2 163.789  18.911   1
   3  -3  -2 1102.46   47.11   1
   2  -3  -2 157.454  15.663   1
  -2   3   2 158.284  17.670   2
   1  -3  -2 2362.04   85.92   1
  -1   3   2 2686.93   95.16   2
  -1   3   2 2474.43   95.09   3
   0  -3  -2 946.476  35.984   1
   0   3   2 935.780  41.150   3
   0   3   2 958.289  43.057   2
  -1  -3  -2 3901.79  118.85   1
   1   3   2 3428.38  139.58   2
   2   3   2 675.741  39.780   2
   3   3   2 1110.93   55.87   2
   4   3   2 506.347  36.194   2
   5   3   2 98.1768 20.7945   2
   6   3   2 410.840  41.420   2
   7   3   2 26.0923 18.2411   2
   8  -4  -2 29.7885 17.4222   1
   7  -4  -2 482.493  40.752   1
   6  -4  -2 50.2909 17.4863   1
   5  -4  -2 211.677  23.919   1
   4  -4  -2 202.976  22.843   1
   3  -4  -2 2474.39   92.09   1
  -3   4   2 2448.97  101.64   2
   2  -4  -2 810.442  40.416   1
  -2   4   2 988.833  45.694   2
   1  -4  -2 1329.81   52.82   1
  -1   4   2 1283.49   57.83   3
  -1   4   2 1487.94   60.08   2
   0  -4  -2 1729.50   59.11   1
   0   4   2 1595.21   69.08   2
   0   4   2 1535.65   67.90   3
  -1  -4  -2 8.67819 4.94330   1
   1   4   2 11.6482 11.4590   2
   2   4   2 209.261  25.942   2
   3   4   2 80.9124 20.3712   2
   4   4   2  9.5538 13.8260   2
   5   4   2 113.717  24.290   2
   6   4   2 -4.4243 15.1720   2
   7   4   2 -4.0250 18.0266   2
   8  -5  -2 80.7624 24.1463   1
   7  -5  -2 88.8190 23.0814   1
   6  -5  -2 290.465  32.213   1
   5  -5  -2 751.711  44.031   1
   4  -5  -2 961.815  48.312   1
   3  -5  -2 -4.3929 10.5658   1
  -3   5   2 19.0233 13.5607   2
   2  -5  -2 63.1804 13.9812   1
  -2   5   2 82.8602 16.2828   2
   1  -5  -2 694.525  33.838   1
  -1   5   2 691.029  38.261   3
  -1   5   2 661.654  37.876   2
   0  -5  -2 320.587  20.218   1
   0   5   2 265.892  24.809   3
   0   5   2 305.172  27.860   2
  -1  -5  -2 30.9597  6.8465   1
   1   5   2 25.8876 12.5731   3
   1   5   2 29.4906 13.5934   2
   2   5   2 211.629  28.217   2
   2   5   2 265.671  27.520   3
   3   5   2 54.8286 19.7370   2
   4   5   2 92.0878 23.9727   2
   5   5   2 12.3089 17.4905   2
   6   5   2 295.870  40.784   2
   8  -6  -2 -12.097  18.916   1
   7  -6  -2 36.5319 20.6589   1
   6  -6  -2 17.0641 16.0657   1
   5  -6  -2 536.439  40.094   1
   4  -6  -2 881.377  48.633   1
   3  -6  -2 20.9448 13.1799   1
  -3   6   2 18.1435 14.7311   2
   2  -6  -2 406.726  30.556   1
  -2   6   2 421.956  32.965   3
  -2   6   2 468.938  33.595   2
   1  -6  -2 278.636  23.188   1
  -1   6   2 325.464  29.838   3
  -1   6   2 278.402  27.830   2
   0  -6  -2 279.059  21.700   1
   0   6   2 281.329  27.777   3
   0   6   2 268.425  28.704   2
   1   6   2 30.9124 15.0834   3
   1   6   2 40.0361 16.1864   2
   2   6   2 584.644  42.667   3
   2   6   2 622.906  44.027   2
   3   6   2 254.379  31.878   2
   3   6   2 187.348  28.696   3
   4   6   2 67.7994 23.3531   2
   5   6   2 246.624  36.628   2
   7  -7  -2 -1.5842 18.7620   1
   6  -7  -2 527.337  47.837   1
   5  -7  -2 45.9213 20.1474   1
   4  -7  -2 184.983  25.988   1
  -4   7   2 164.832  28.990   2
   3  -7  -2  7.7138 14.3041   1
  -3   7   2 17.1691 16.0712   2
   2  -7  -2 244.582  25.616   1
  -2   7   2 259.692  29.667   2
   1  -7  -2 386.279  29.145   1
  -1   7   2 388.762  35.316   2
   0   7   2 29.6723 15.8160   2
   0   7   2 41.5627 16.3065   3
   1   7   2 339.059  35.132   3
   1   7   2 263.129  31.558   2
   2   7   2 62.3558 19.9488   3
   2   7   2 115.616  22.534   2
   3   7   2 22.7938 19.0160   3
   3   7   2 12.8310 17.4557   2
   4   7   2 33.1724 20.8270   3
   4   7   2 54.1724 21.8732   2
   6  -8  -2  3.7658 18.4347   1
   5  -8  -2 116.923  26.552   1
   4  -8  -2 169.671  27.041   1
  -4   8   2 170.263  30.055   2
   3  -8  -2 266.519  29.938   1
  -3   8   2 227.627  32.361   2
   2  -8  -2 235.096  25.821   1
  -2   8   2 243.015  30.316   2
  -1   8   2  2.8449 13.5062   2
   0   8   2 68.5944 19.1078   2
   1   8   2 197.052  29.192   2
   2   8   2  2.6313 16.1082   2
   3   8   2 183.772  31.056   2
   5  -9  -2 42.2175 21.0088   1
   4  -9  -2 132.566  26.861   1
  -4   9   2 142.326  30.038   2
   3  -9  -2 245.922  31.710   1
  -3   9   2 279.805  36.435   2
  -2   9   2 -7.9806 15.6261   2
  -1   9   2 204.348  31.420   2
   0   9   2  9.9392 16.0549   2
   1   9   2 196.418  31.074   2
   2   9   2 16.2030 18.7798   2
  -2  10   2 -6.4455 18.1498   2
  -1  10   2 105.577  26.096   2
   2   9  -3 84.8108 30.3874   3
   1   9  -3 45.2135 25.9426   3
   0   9  -3 351.471  48.441   3
  -1   9  -3 24.4400 23.8330   3
   3  -9   3 82.4231 21.6130   1
   4  -9   3 50.3671 21.9099   1
   5  -9   3 50.9213 24.7940   1
   3   8  -3 -16.065  18.728   3
   2   8  -3 333.154  43.453   3
   1   8  -3 118.679  28.741   3
   0   8  -3  9.1037 13.1070   2
   0   8  -3  8.8881 19.0667   3
  -1   8  -3 119.794  29.406   3
  -1   8  -3 145.556  23.055   2
  -2   8  -3 60.4743 18.0096   2
  -2   8  -3 28.2113 21.9974   3
   2  -8   3 47.9907 16.3515   1
   3  -8   3 86.3114 19.7617   1
   4  -8   3  5.6921 17.4419   1
   5  -8   3 -17.535  16.607   1
   6  -8   3 192.228  32.279   1
   4   7  -3 87.8761 29.0786   3
   3   7  -3 13.4051 19.2918   3
   2   7  -3 144.787  29.563   3
   2   7  -3 191.557  23.980   2
   1   7  -3 14.4489 11.6906   2
   1   7  -3 27.2920 18.9232   3
   0   7  -3 143.937  27.275   3
   0   7  -3 170.885  21.341   2
  -1   7  -3 20.2269 12.0637   2
  -1   7  -3  3.4686 16.8176   3
   1  -7   3  9.8315 10.6411   1
  -2   7  -3 333.662  30.620   2
  -2   7  -3 314.741  39.239   3
   2  -7   3 274.256  26.264   1
   3  -7   3 191.131  24.616   1
   4  -7   3 148.697  23.738   1
   5  -7   3 240.645  30.572   1
   6  -7   3 -21.262  14.738   1
   7  -7   3 86.3102 23.4729   1
   5   6  -3 94.5253 28.2773   3
   4   6  -3 93.2910 25.6444   3
   4   6  -3 129.901  24.509   2
   3   6  -3 28.6823 14.8838   2
   3   6  -3 39.3135 19.0649   3
   2   6  -3 619.132  49.013   3
   2   6  -3 660.974  39.159   2
   1   6  -3 136.794  18.168   2
   1   6  -3 107.797  22.696   3
   0   6  -3 180.026  19.471   2
   0   6  -3 151.460  25.706   3
   0  -6   3 193.855  17.763   1
  -1   6  -3 433.816  42.777   3
  -1   6  -3 418.858  29.757   2
   1  -6   3 437.540  28.340   1
  -2   6  -3 138.099  19.676   2
  -2   6  -3 107.987  25.073   3
   2  -6   3 140.344  18.784   1
   3  -6   3 201.667  23.543   1
   4  -6   3 158.439  22.482   1
   5  -6   3 27.0893 16.6934   1
   6  -6   3 38.6854 16.9132   1
   7  -6   3  9.0194 14.8909   1
   8  -6   3 -11.514  15.066   1
   6   5  -3  6.4908 21.6413   3
   6   5  -3 17.9686 19.0652   2
   5   5  -3 15.9670 16.1914   2
   5   5  -3 52.1492 22.1400   3
   4   5  -3 -1.6010 14.0604   2
   4   5  -3  8.2566 15.9247   3
   3   5  -3 137.070  25.518   3
   3   5  -3 171.292  23.991   2
   2   5  -3 202.839  28.310   3
   2   5  -3 256.470  25.143   2
   1   5  -3 12.0140 13.3643   3
   1   5  -3 38.0881 11.6430   2
  -1  -5   3 26.6356  8.6783   1
   0   5  -3 593.461  41.126   3
   0   5  -3 521.884  30.301   2
   0  -5   3 534.710  27.780   1
  -1   5  -3 474.784  41.900   3
  -1   5  -3 483.676  29.990   2
   1  -5   3 484.200  27.699   1
  -2   5  -3  8.3057 15.7190   3
  -2   5  -3 26.5347 11.7577   2
   2  -5   3  9.6327 10.2016   1
   3  -5   3 793.156  40.487   1
   4  -5   3 49.2713 15.1306   1
   5  -5   3 353.672  32.646   1
   6  -5   3 46.9732 16.0700   1
   7  -5   3 291.461  30.627   1
   8  -5   3 294.295  32.906   1
   7   4  -3  7.5957 17.9216   2
   6   4  -3 99.7318 21.8660   2
   5   4  -3 15.8078 13.7552   2
   5   4  -3 23.4579 17.6456   3
   4   4  -3 160.618  26.427   3
   4   4  -3 128.498  21.147   2
   3   4  -3 1504.72   75.75   3
   3   4  -3 1464.63   67.94   2
   2   4  -3 75.1351 16.9839   3
   2   4  -3 69.9322 14.5249   2
  -2  -4   3 55.4289  8.5035   1
   1   4  -3 1620.37   65.71   2
   1   4  -3 1642.30   75.92   3
  -1  -4   3 1647.21   58.28   1
   0   4  -3 525.571  36.374   3
   0   4  -3 513.890  26.754   2
   0  -4   3 520.432  25.187   1
  -1   4  -3 686.415  43.617   3
  -1   4  -3 706.014  34.384   2
   1  -4   3 733.938  33.251   1
  -2   4  -3 171.168  24.712   3
   2  -4   3 137.575  15.885   1
   3  -4   3 1417.10   58.17   1
   4  -4   3 912.057  44.685   1
   5  -4   3 205.215  23.760   1
   6  -4   3 1088.91   54.96   1
   7  -4   3 13.0508 12.7806   1
   8  -4   3 64.6936 23.5333   2
   8  -4   3 31.9514 15.7730   1
   7   3  -3 361.012  38.943   2
   6   3  -3 115.039  21.986   2
   5   3  -3 349.788  29.346   2
   4   3  -3 891.940  46.140   2
   3   3  -3  8.8781 11.4275   3
   3   3  -3 20.1448  9.9938   2
  -3  -3   3 23.1356  5.5505   1
   2   3  -3 524.728  35.698   3
   2   3  -3 562.543  30.319   2
  -2  -3   3 542.943  22.929   1
   1   3  -3 162.366  14.477   2
   1   3  -3 152.998  19.206   3
  -1  -3   3 173.289  12.605   1
   0   3  -3 2522.13  103.92   3
   0   3  -3 2447.33   91.53   2
   0  -3   3 2655.63   86.15   1
  -1   3  -3 191.673  15.727   2
  -1   3  -3 178.735  22.223   3
   1  -3   3 179.708  14.862   1
   2  -3   3 666.586  31.924   1
   3  -3   3 614.022  31.191   1
   4  -3   3 19.8585 10.9605   1
   5  -3   3 333.858  27.555   1
   6  -3   3 161.656  20.757   1
   7  -3   3 20.8477 13.0084   1
   7  -3   3 21.5581 17.4778   2
   8  -3   3 150.318  29.836   2
   8  -3   3 119.111  21.283   1
   8   2  -3 109.581  25.370   2
   7   2  -3 96.9217 21.5203   2
   6   2  -3 44.0901 15.9519   2
   5   2  -3 22.0435 12.0728   2
   4   2  -3 124.580  16.922   2
  -4  -2   3 142.609  11.435   1
   3   2  -3 10.8774  8.1312   2
  -3  -2   3 17.0704  5.3899   1
   2   2  -3 40.9524  8.2192   2
   2   2  -3 24.0023 10.0627   3
  -2  -2   3 43.5099  6.6388   1
   1   2  -3 23.0255  6.6668   2
   1   2  -3 25.0240  9.8230   3
  -1  -2   3 17.1619  6.5558   1
   0   2  -3 908.380  34.982   2
   0   2  -3 877.522  44.333   3
   0  -2   3 992.690  35.077   1
  -1   2  -3 12.3384 10.4257   3
   1  -2   3 4.61501 5.45668   1
   2  -2   3 975.696  39.323   1
   3  -2   3 71.4548 10.9955   1
   4  -2   3 520.161  29.114   1
   5  -2   3 189.239  19.732   1
   6  -2   3 237.955  23.162   1
   6  -2   3 245.121  30.500   2
   7  -2   3 72.3335 20.8319   2
   7  -2   3 41.8882 14.5094   1
   8  -2   3 38.6235 23.2886   2
   8   1  -3 10.6746 19.6374   2
   7   1  -3 56.0099 20.3347   2
   6   1  -3 99.5613 21.2932   2
   5   1  -3 234.457  17.251   1
   5   1  -3 220.976  25.767   2
   4   1  -3 765.196  41.129   2
  -4  -1   3 788.826  32.454   1
   3   1  -3 -3.7582  6.5107   2
  -3  -1   3 6.81840 4.87911   1
   2   1  -3 374.113  19.512   2
  -2  -1   3 360.289  17.300   1
   1   1  -3 1030.11   45.40   3
   1   1  -3 1004.04   37.99   2
  -1  -1   3 1057.49   37.45   1
   0   1  -3 1772.06   76.23   3
   0  -1   3 2009.36   64.19   1
   1  -1   3 926.343  34.947   1
   2  -1   3 372.997  19.770   1
   3  -1   3 616.995  32.359   2
   3  -1   3 591.323  28.097   1
   4  -1   3 18.3082  8.8883   1
   4  -1   3 33.6387 12.3106   2
   5  -1   3 84.1092 13.3056   1
   5  -1   3 88.3774 18.1761   2
   6  -1   3 98.7025 14.9518   1
   6  -1   3 41.4722 18.3168   2
   7  -1   3 41.2626 21.1210   2
   8  -1   3 243.917  36.528   2
   8   0  -3 164.044  30.480   2
   7   0  -3 22.1730 17.4938   2
   6   0  -3 440.927  36.112   2
   6   0  -3 457.900  27.507   1
   5   0  -3 294.832  28.144   2
   5   0  -3 293.119  20.939   1
  -3   0   3 243.243  15.756   1
  -2   0   3 48.6506  6.8108   1
   1   0  -3 96.6903 10.2248   3
  -1   0   3 102.319   8.543   1
   0   0  -3 179.666  14.787   3
   0   0   3 187.981  12.421   2
   0   0   3 228.537  13.777   1
   1   0   3 32.4596  7.3860   2
   1   0   3 27.5780  5.9739   1
   2   0   3 632.384  26.003   1
   2   0   3 659.753  30.730   2
   3   0   3 -2.0821  5.3653   1
   3   0   3 5.23881 8.12304   2
   4   0   3 291.597  19.853   1
   4   0   3 323.658  26.502   2
   5   0   3 692.216  32.727   1
   5   0   3 618.865  42.138   2
   6   0   3  9.7983 14.0666   2
   7   0   3 315.388  39.675   2
   8   0   3 19.4391 19.6069   2
   8  -1  -3 17.6967 17.2537   2
   7  -1  -3 65.9387 20.2271   2
   7  -1  -3 67.2080 15.0429   1
   6  -1  -3 351.000  26.033   1
   5  -1  -3 119.676  15.793   1
   4  -1  -3 167.637  16.376   1
  -3   1   3 436.864  22.719   1
  -2   1   3 1645.53   57.35   1
   1  -1  -3 8.65390 3.78981   3
  -1   1   3 2.85959 7.15907   2
  -1   1   3 7.32876 5.01455   1
   0   1   3 2663.09   83.65   1
   0   1   3 2445.81   93.29   2
   1   1   3 2380.95   80.83   1
   1   1   3 2547.58   92.41   2
   2   1   3 361.072  16.359   1
   2   1   3 391.696  23.166   2
   3   1   3 1703.14   58.93   1
   3   1   3 1789.93   72.79   2
   4   1   3 57.7235  8.3796   1
   4   1   3 72.0603 15.4211   2
   5   1   3 752.587  46.373   2
   6   1   3 28.0033 16.3135   2
   7   1   3 215.385  33.418   2
   8   1   3 123.788  29.059   2
   9  -2  -3 121.166  29.029   2
   8  -2  -3 43.6226 15.7602   1
   7  -2  -3 114.645  19.116   1
   6  -2  -3 272.488  25.629   1
   5  -2  -3 81.3280 15.0132   1
   4  -2  -3 375.261  25.528   1
  -2   2   3 394.932  19.750   1
  -2   2   3 322.583  24.982   2
  -1   2   3 936.645  41.052   2
  -1   2   3 941.869  34.887   1
   0   2   3 649.196  25.593   1
   0   2   3 712.317  33.492   2
   1   2   3 289.352  13.540   1
   1   2   3 331.183  23.826   2
   2   2   3 438.371  28.800   2
   2   2   3 481.880  18.535   1
   3   2   3 376.166  27.236   2
   4   2   3 157.918  21.341   2
   5   2   3  9.2927 13.0949   2
   6   2   3 113.728  24.477   2
   7   2   3 -28.605  13.835   2
   8   2   3 -12.860  17.886   2
   8  -3  -3 13.0444 13.9557   1
   7  -3  -3 473.958  38.302   1
   6  -3  -3 107.260  18.537   1
   5  -3  -3 205.513  24.305   1
   4  -3  -3 777.593  40.018   1
   3  -3  -3 12.9934  9.6045   1
  -2   3   3 674.777  36.890   2
  -1   3   3 260.130  15.672   3
  -1   3   3 225.941  16.466   1
  -1   3   3 302.348  22.541   2
   0   3   3 1099.78   40.88   1
   0   3   3 1160.66   50.75   2
   1   3   3 42.3038 13.6847   2
   1   3   3 31.9959  5.2421   1
   2   3   3 47.2751 15.0452   2
   3   3   3 84.5524 17.9899   2
   4   3   3 44.1895 16.3584   2
   5   3   3 265.695  31.352   2
   6   3   3 410.505  42.311   2
   7   3   3 -2.7932 16.8540   2
   8  -4  -3 82.8072 21.4513   1
   7  -4  -3 315.823  33.123   1
   6  -4  -3 47.5422 16.2767   1
   5  -4  -3 526.195  36.857   1
   4  -4  -3 489.968  32.367   1
   3  -4  -3 344.599  25.989   1
  -3   4   3 365.611  31.184   2
   2  -4  -3 342.174  24.266   1
  -2   4   3 471.095  29.540   2
   1  -4  -3 164.020  15.815   1
  -1   4   3 159.807  18.779   2
  -1   4   3 160.664  15.057   3
   0  -4  -3 652.576  28.142   1
   0   4   3 578.141  36.013   2
   0   4   3 605.537  31.226   3
  -1  -4  -3 102.370   9.693   1
   1   4   3 105.417  18.447   2
   2   4   3 1062.89   58.23   2
   3   4   3 54.7437 18.8973   2
   4   4   3 195.151  27.698   2
   5   4   3 243.109  32.071   2
   6   4   3  7.2012 16.4270   2
   7   4   3  7.9380 19.5161   2
   8  -5  -3 194.068  31.159   1
   7  -5  -3 22.6125 17.6850   1
   6  -5  -3 223.899  28.293   1
   5  -5  -3 189.047  25.538   1
   4  -5  -3 832.112  46.005   1
   3  -5  -3 102.610  17.696   1
  -3   5   3 97.1646 20.1381   2
   2  -5  -3 329.947  25.214   1
  -2   5   3 330.510  27.930   2
   1  -5  -3 524.617  28.013   1
  -1   5   3 420.272  29.089   3
  -1   5   3 461.587  32.110   2
   0  -5  -3 13.7922  7.7339   1
   0   5   3 2.30644 8.95507   3
   0   5   3  8.6291 11.6359   2
   1   5   3 157.437  23.277   2
   1   5   3 160.092  20.556   3
   2   5   3 34.0525 16.8889   2
   3   5   3 67.3232 21.0635   2
   4   5   3 38.9423 20.2418   2
   5   5   3 35.5252 20.1763   2
   6   5   3 133.299  29.306   2
   8  -6  -3 43.6133 22.3809   1
   7  -6  -3 40.6165 21.4151   1
   6  -6  -3 188.138  28.422   1
   5  -6  -3 536.096  39.634   1
   4  -6  -3 436.726  32.435   1
  -4   6   3 390.230  40.699   2
   3  -6  -3 54.6117 15.9394   1
  -3   6   3 37.1327 17.2902   2
   2  -6  -3 526.499  33.983   1
  -2   6   3 548.028  39.144   2
   1  -6  -3 114.939  16.039   1
  -1   6   3 109.300  19.503   2
   0  -6  -3 406.947  26.007   1
   0   6   3 421.189  34.112   2
   0   6   3 445.278  32.570   3
   1   6   3 30.1363 16.4674   2
   1   6   3 60.6083 16.2447   3
   2   6   3 644.444  43.715   3
   2   6   3 639.294  46.082   2
   3   6   3 87.4455 23.0104   2
   3   6   3 85.9389 21.4718   3
   4   6   3 130.804  28.296   2
   5   6   3 247.269  36.728   2
   7  -7  -3 -13.025  18.113   1
   6  -7  -3 587.185  44.524   1
   5  -7  -3 295.484  33.244   1
   4  -7  -3 249.836  28.264   1
  -4   7   3 210.867  30.779   2
   3  -7  -3 115.355  20.835   1
  -3   7   3 68.2417 21.1027   2
   2  -7  -3 148.594  21.299   1
  -2   7   3 168.133  25.247   2
   1  -7  -3 114.969  17.315   1
  -1   7   3 124.727  21.401   2
   0   7   3 108.381  22.221   2
   1   7   3 203.065  28.668   2
   2   7   3 18.9655 17.1951   2
   2   7   3  7.6783 15.2759   3
   3   7   3 170.914  30.267   3
   3   7   3 193.567  31.587   2
   4   7   3 156.076  29.650   2
   4   7   3 71.5536 24.5431   3
   6  -8  -3 20.3879 19.5584   1
   5  -8  -3 87.6651 24.0273   1
   4  -8  -3  6.7060 16.8406   1
  -4   8   3 -3.2727 15.2688   2
   3  -8  -3 221.135  28.774   1
  -3   8   3 262.899  34.475   2
   2  -8  -3 26.8909 15.1558   1
  -2   8   3 85.0905 20.4593   2
  -1   8   3 91.9023 21.4192   2
   0   8   3 125.138  23.694   2
   1   8   3 93.9369 22.2815   2
   2   8   3 22.0878 17.6271   2
   3   8   3 79.0881 24.7144   2
   5  -9  -3 -2.4825 18.9572   1
   4  -9  -3 175.741  29.562   1
  -4   9   3 178.733  32.520   2
   3  -9  -3 156.651  25.946   1
  -3   9   3 118.571  27.107   2
  -2   9   3 13.7096 17.0642   2
  -1   9   3 249.243  36.526   2
   0   9   3 24.0432 17.6039   2
   1   9   3 28.2107 19.7404   2
   2   9  -4 65.9994 28.3311   3
   1   9  -4 26.0951 23.4321   3
   0   9  -4 205.372  39.951   3
  -1   9  -4 -6.1815 21.0363   3
  -2   9  -4 373.314  46.585   3
   3  -9   4 220.161  28.138   1
   4  -9   4 167.323  28.729   1
   5  -9   4 191.177  31.556   1
   3   8  -4  9.0070 20.4108   3
   2   8  -4 241.603  38.226   3
   1   8  -4 246.410  39.928   3
   0   8  -4 32.0418 23.4978   3
  -1   8  -4 310.291  41.877   3
   1  -8   4 343.278  29.030   1
  -2   8  -4  7.9836 19.8832   3
   2  -8   4  4.7720 13.0446   1
   3  -8   4 98.7469 21.0386   1
   4  -8   4 -15.557  16.066   1
   5  -8   4 15.3281 19.1755   1
   6  -8   4 34.0276 22.6333   1
   4   7  -4 -0.9503 20.5246   3
   3   7  -4 264.085  37.927   3
   2   7  -4 147.015  29.682   3
   1   7  -4 -1.6802 16.5485   3
   0   7  -4 225.604  23.644   2
   0   7  -4 238.778  35.064   3
  -1   7  -4 29.3338 20.4514   3
  -1   7  -4 59.3113 15.5018   2
   1  -7   4 65.8086 14.1139   1
  -2   7  -4 93.3466 26.1276   3
  -2   7  -4 87.2632 18.1847   2
   2  -7   4 74.9011 16.9042   1
   3  -7   4 173.665  23.377   1
   4  -7   4 109.610  22.228   1
   5  -7   4 253.226  31.701   1
   6  -7   4 48.1579 20.6516   1
   7  -7   4 286.584  35.003   1
   5   6  -4 -32.744  14.834   3
   4   6  -4 334.626  43.798   3
   3   6  -4 190.681  31.265   3
   2   6  -4 176.106  28.569   3
   2   6  -4 183.389  21.496   2
   1   6  -4 153.071  18.596   2
   1   6  -4 138.138  25.356   3
   0   6  -4 113.051  16.256   2
   0   6  -4 88.9946 22.6834   3
   0  -6   4 108.962  15.449   1
  -1   6  -4 103.041  16.434   2
  -1   6  -4 92.5128 23.3654   3
   1  -6   4 86.5040 14.2641   1
  -2   6  -4 16.3308 17.4834   3
   2  -6   4 11.5623 11.4550   1
   3  -6   4 530.711  35.108   1
   4  -6   4 61.9112 17.5386   1
   5  -6   4 111.089  21.603   1
   6  -6   4 158.936  25.548   1
   7  -6   4 -2.0484 15.5124   1
   6   5  -4 59.2132 26.3834   3
   5   5  -4 100.644  27.106   3
   4   5  -4  9.0052 13.6289   2
   4   5  -4 12.2219 16.7547   3
   3   5  -4 142.484  21.892   2
   3   5  -4 130.282  24.951   3
   2   5  -4 32.0459 12.6589   2
   2   5  -4 13.4329 14.4035   3
   1   5  -4 94.1542 20.5598   3
   1   5  -4 90.0068 13.6167   2
  -1  -5   4 114.409  13.234   1
   0   5  -4 533.655  41.313   3
   0   5  -4 492.757  28.780   2
   0  -5   4 490.511  27.791   1
  -1   5  -4 7.19248 8.94651   2
  -1   5  -4  1.8325 13.4732   3
   1  -5   4 0.67048 8.61997   1
  -2   5  -4 183.409  28.541   3
   2  -5   4 192.079  20.102   1
   3  -5   4 268.650  25.171   1
   4  -5   4 21.6713 13.3612   1
   5  -5   4 115.524  20.437   1
   6  -5   4 12.3983 14.0496   1
   7  -5   4 11.9990 15.5821   1
   8  -5   4 83.0764 21.3633   1
   7   4  -4 -5.4353 18.2818   3
   6   4  -4 48.9320 22.3380   3
   6   4  -4  4.9721 14.1690   2
   5   4  -4  6.4727 13.2084   2
   5   4  -4 17.5980 17.5965   3
   4   4  -4 134.178  20.463   2
   4   4  -4 154.837  27.066   3
   3   4  -4 692.412  46.017   3
   3   4  -4 613.122  38.714   2
   2   4  -4 -11.974   8.635   2
   2   4  -4 14.4092 13.2049   3
  -2  -4   4 12.1105  7.2389   1
   1   4  -4 900.024  38.967   2
   1   4  -4 833.818  49.093   3
  -1  -4   4 889.981  36.792   1
   0   4  -4 76.7333 17.6087   3
   0   4  -4 101.921  11.094   2
   0  -4   4 110.089  12.616   1
  -1   4  -4 67.7708 10.7511   2
  -1   4  -4 60.3171 17.6362   3
   1  -4   4 49.2772 10.4089   1
  -2   4  -4 161.354  25.856   3
   2  -4   4 124.662  15.688   1
   3  -4   4 74.5550 14.0112   1
   4  -4   4 425.736  29.649   1
   5  -4   4 -7.0533 11.8512   1
   6  -4   4 594.217  38.023   1
   7  -4   4  7.7065 13.3311   1
   8  -4   4 211.405  33.043   2
   8  -4   4 186.591  25.851   1
   7   3  -4 368.788  38.645   2
   6   3  -4 38.1900 15.8032   2
   5   3  -4 676.616  41.140   2
   4   3  -4 782.633  42.307   2
   4   3  -4 846.377  52.278   3
   3   3  -4 107.874  19.660   3
   3   3  -4 60.4760 11.9259   2
  -3  -3   4 75.8620  8.8713   1
   2   3  -4 463.558  32.263   3
   2   3  -4 447.981  26.071   2
  -2  -3   4 411.999  21.389   1
   1   3  -4 13.6737 10.3864   3
  -1  -3   4 24.4840  7.6542   1
   0   3  -4 2430.78  100.58   3
   0   3  -4 2360.70   85.79   2
   0  -3   4 2391.76   82.51   1
  -1   3  -4 208.156  24.967   3
   1  -3   4 180.399  14.714   1
   2  -3   4 1248.91   49.91   1
   3  -3   4 895.917  41.309   1
   4  -3   4 211.636  21.174   1
   5  -3   4 717.526  39.425   1
   6  -3   4 -7.3436 10.6578   1
   7  -3   4 172.555  22.737   1
   7  -3   4 141.676  27.221   2
   8  -3   4 131.589  29.067   2
   8  -3   4 125.899  21.519   1
   8   2  -4 175.940  29.657   2
   7   2  -4 68.0037 18.8460   2
   6   2  -4 415.496  34.326   2
   5   2  -4 168.994  21.519   2
   4   2  -4 69.2856 13.7478   2
  -4  -2   4 66.2562  9.2149   1
   3   2  -4 241.642  25.424   3
   3   2  -4 229.161  18.127   2
  -3  -2   4 233.452  15.688   1
   2   2  -4 24.9723  6.9713   2
   2   2  -4 4.96682 9.55313   3
  -2  -2   4 22.7839  6.4899   1
   1   2  -4 697.549  29.232   2
   1   2  -4 775.080  38.637   3
  -1  -2   4 709.978  31.051   1
   0   2  -4 340.473  26.205   3
   0  -2   4 364.677  19.219   1
  -1   2  -4 1406.40   64.61   3
   1  -2   4 1367.10   50.92   1
   2  -2   4 1862.01   67.10   1
   3  -2   4 512.466  27.787   1
   4  -2   4 681.078  35.035   1
   5  -2   4 270.929  23.718   1
   5  -2   4 233.297  26.765   2
   6  -2   4 134.648  19.225   1
   6  -2   4 125.433  23.884   2
   7  -2   4 106.561  25.176   2
   7  -2   4 111.581  18.180   1
   8  -2   4 42.7132 23.4087   2
   8   1  -4 11.0791 18.5091   2
   7   1  -4 158.312  26.938   2
   6   1  -4 139.156  23.465   2
   5   1  -4 176.397  22.925   2
   4   1  -4 281.985  24.417   2
  -4  -1   4 280.987  18.788   1
   3   1  -4 888.505  40.458   2
  -3  -1   4 914.566  35.288   1
   2   1  -4 1595.49   59.75   2
   2   1  -4 1574.48   68.03   3
  -2  -1   4 1561.74   55.64   1
   1   1  -4 14.9959  3.6471   2
   1   1  -4 7.49049 7.86832   3
  -1  -1   4 4.18941 5.56781   1
   0   1  -4 5283.78  200.22   3
   0  -1   4 5429.27  173.16   1
   1  -1   4 1002.12   39.17   2
   1  -1   4 1016.10   38.13   1
   2  -1   4 406.019  22.101   2
   2  -1   4 392.587  20.725   1
   3  -1   4 258.806  17.948   1
   3  -1   4 244.749  19.960   2
   4  -1   4 142.599  15.248   1
   4  -1   4 116.371  18.136   2
   5  -1   4 156.907  17.684   1
   5  -1   4 143.974  22.421   2
   6  -1   4 40.5910 12.6641   1
   6  -1   4 60.3708 20.2828   2
   7  -1   4 261.587  36.170   2
   8  -1   4 166.771  32.249   2
   8   0  -4 75.3075 24.2402   2
   7   0  -4 28.9588 17.6921   2
   6   0  -4 456.904  37.961   2
   6   0  -4 582.612  31.449   1
   5   0  -4 116.213  14.821   1
  -4   0   4 302.307  20.645   1
  -3   0   4 1138.14   43.36   1
   2   0  -4 30.6539  8.2718   3
  -2   0   4 33.6681  6.9204   1
   1   0  -4 54.6017  8.6760   3
  -1   0   4 44.7847  7.5422   1
  -1   0   4 60.8185  7.5360   2
   0   0  -4 57.4103 10.2901   3
   0   0   4 80.7874  8.6235   2
   0   0   4 67.5395  9.0845   1
   1   0   4 480.531  22.348   1
   1   0   4 513.201  24.091   2
   2   0   4 257.744  17.612   2
   2   0   4 236.175  14.618   1
   3   0   4 20.8436  6.8981   1
   3   0   4 25.4797 10.1384   2
   4   0   4 145.121  13.967   1
   4   0   4 113.879  17.480   2
   5   0   4 140.476  14.829   1
   5   0   4 108.634  20.617   2
   6   0   4 180.850  27.656   2
   7   0   4 200.399  32.178   2
   8   0   4 -7.7404 20.3990   2
   8  -1  -4 53.7047 21.0264   2
   7  -1  -4 179.488  21.461   1
   6  -1  -4 47.5265 12.9017   1
   5  -1  -4 27.3199 10.6706   1
  -4   1   4 35.1944  8.9236   1
  -3   1   4 76.6540  9.9797   1
  -2   1   4 99.7281 10.1456   1
   1  -1  -4 268.873  15.542   3
  -1   1   4 241.488  18.522   2
  -1   1   4 272.950  15.340   1
   0   1   4 68.7631 10.5708   2
   0   1   4 80.3949  8.5415   1
   1   1   4 514.435  28.783   2
   1   1   4 552.934  23.284   1
   2   1   4 104.757   9.930   1
   2   1   4 135.663  15.534   2
   3   1   4 789.557  30.063   1
   3   1   4 706.006  39.125   2
   4   1   4 30.0921  7.4522   1
   4   1   4 53.0424 14.2318   2
   5   1   4 628.962  42.808   2
   6   1   4 171.688  27.774   2
   7   1   4 -13.282  17.383   2
   8   1   4 149.068  33.117   2
   8  -2  -4 91.6707 19.5842   1
   7  -2  -4 116.188  19.192   1
   6  -2  -4 187.899  22.166   1
   5  -2  -4 125.228  17.976   1
  -3   2   4 1514.97   57.08   1
  -2   2   4 539.982  25.077   1
  -2   2   4 576.994  32.655   2
  -1   2   4 1314.18   46.88   1
  -1   2   4 1283.00   54.00   2
   0   2   4 486.570  28.321   2
   0   2   4 507.831  21.591   1
   1   2   4 418.099  18.502   1
   1   2   4 400.291  29.255   2
   2   2   4 991.056  35.071   1
   2   2   4 935.116  47.898   2
   3   2   4 6.49029 4.90688   1
   3   2   4 -0.6609  9.8250   2
   4   2   4 248.765  27.350   2
   5   2   4 76.1036 19.4546   2
   6   2   4 60.0017 20.0505   2
   7   2   4  0.3584 16.3290   2
   8  -3  -4 10.3502 14.4947   1
   7  -3  -4 294.091  31.537   1
   6  -3  -4  8.3655 13.5384   1
   5  -3  -4 566.500  35.828   1
   4  -3  -4 688.388  37.076   1
  -3   3   4  6.2761 11.3388   2
  -2   3   4 651.140  29.384   1
  -2   3   4 620.070  35.207   2
  -1   3   4 588.169  26.373   1
  -1   3   4 595.364  32.765   2
   0   3   4 455.948  21.189   1
   0   3   4 479.519  30.082   2
   1   3   4 30.8025  5.5152   1
   1   3   4 14.7759 11.8246   2
   2   3   4 114.950   8.053   1
   2   3   4 97.6063 18.9004   2
   3   3   4 53.9361 16.4471   2
   4   3   4  5.6331 12.6880   2
   5   3   4 252.967  31.780   2
   6   3   4 212.572  32.211   2
   7   3   4  8.9476 18.2197   2
   8  -4  -4 96.2861 22.8231   1
   7  -4  -4 191.967  27.719   1
   6  -4  -4 334.628  33.190   1
   5  -4  -4 1570.42   69.73   1
   4  -4  -4 108.273  17.968   1
   3  -4  -4 777.132  39.531   1
  -3   4   4 748.577  45.027   2
   2  -4  -4 40.9248 10.7712   1
  -2   4   4 57.0550 14.2076   2
  -1   4   4 641.955  29.235   3
  -1   4   4 590.951  35.660   2
   0   4   4 182.155  14.103   1
   0   4   4 184.169  22.094   2
   0   4   4 185.424  15.755   3
   1   4   4 545.477  37.975   2
   1   4   4 581.262  24.845   1
   2   4   4 1463.46   73.12   2
   3   4   4 33.2354 17.0342   2
   4   4   4 454.647  42.819   2
   5   4   4 141.405  26.206   2
   6   4   4 58.3425 22.5360   2
   7   4   4 20.9663 19.5414   2
   8  -5  -4 227.114  32.354   1
   7  -5  -4 130.245  25.081   1
   6  -5  -4 430.601  38.799   1
   5  -5  -4 111.795  20.821   1
   4  -5  -4 477.140  34.567   1
   3  -5  -4 354.761  26.763   1
  -3   5   4 338.843  33.850   2
   2  -5  -4 393.719  27.212   1
  -2   5   4 443.401  33.865   2
   1  -5  -4 102.989  14.136   1
  -1   5   4 113.443  14.794   3
  -1   5   4 94.7215 17.9977   2
   0  -5  -4 439.096  24.092   1
   0   5   4 411.503  33.556   2
   0   5   4 413.787  28.351   3
   1   5   4 418.414  29.722   3
   1   5   4 463.473  37.265   2
   2   5   4 23.7105 16.3371   2
   3   5   4 214.654  31.711   2
   4   5   4  5.7141 16.1364   2
   5   5   4 -7.0657 17.3828   2
   6   5   4 29.7526 20.8918   2
   8  -6  -4 132.037  28.683   1
   7  -6  -4  6.2894 17.2316   1
   6  -6  -4 240.534  30.596   1
   5  -6  -4 161.282  25.538   1
   4  -6  -4 12.2636 14.9193   1
  -4   6   4 27.7889 18.5121   2
   3  -6  -4 258.475  26.575   1
  -3   6   4 291.044  32.883   2
   2  -6  -4 70.5604 15.1915   1
  -2   6   4 83.1517 19.6289   2
   1  -6  -4 135.340  17.060   1
  -1   6   4 147.063  22.154   2
   0  -6  -4 405.926  23.944   1
   0   6   4 400.841  36.717   2
   1   6   4 55.0115 18.1922   2
   1   6   4 62.4280 16.3508   3
   2   6   4 361.492  34.611   3
   2   6   4 323.528  36.638   2
   3   6   4 101.362  23.283   2
   4   6   4 68.5689 23.8868   2
   5   6   4 62.4331 24.3918   2
   7  -7  -4  0.5207 18.6432   1
   6  -7  -4 221.631  31.755   1
   5  -7  -4 78.6585 21.3161   1
   4  -7  -4 551.137  38.061   1
  -4   7   4 463.838  45.687   2
   3  -7  -4 230.390  25.994   1
  -3   7   4 201.621  29.977   2
   2  -7  -4 141.362  20.239   1
  -2   7   4 106.622  22.450   2
   1  -7  -4 338.278  26.795   1
  -1   7   4 327.445  33.966   2
   0   7   4  3.5418 14.3381   2
   1   7   4 125.433  24.148   2
   2   7   4  9.0578 15.8447   2
   3   7   4 262.400  35.533   2
   4   7   4 61.0512 24.2101   2
   4   7   4 103.530  27.497   3
   6  -8  -4  7.5138 17.8299   1
   5  -8  -4 77.1739 23.0150   1
   4  -8  -4 10.0570 15.7103   1
  -4   8   4 27.6599 18.4986   2
   3  -8  -4 141.248  24.509   1
  -3   8   4 144.725  27.403   2
   2  -8  -4 10.7512 14.5232   1
  -2   8   4 39.5151 17.8935   2
  -1   8   4 193.663  28.953   2
   0   8   4 100.260  23.222   2
   1   8   4 42.6490 18.7158   2
   2   8   4 132.277  28.116   2
   3   8   4 74.2033 24.3135   2
   5  -9  -4 -23.698  17.301   1
   4  -9  -4 155.958  28.020   1
  -4   9   4 56.7820 23.4961   2
   3  -9  -4 62.3338 22.3425   1
  -3   9   4 190.304  32.913   2
  -2   9   4  2.0966 16.4249   2
  -1   9   4 375.474  41.833   2
   0   9   4  7.6438 16.2523   2
   1   9   4 120.700  26.822   2
   1   9  -5 -12.084  22.271   3
   0   9  -5 151.663  37.298   3
  -1   9  -5  8.7281 22.8694   3
  -2   9  -5 152.062  35.404   3
   2  -9   5 346.438  31.844   1
   3  -9   5 30.9773 17.8147   1
   4  -9   5 305.281  35.318   1
   3   8  -5  4.5629 21.6224   3
   2   8  -5 133.454  32.988   3
   1   8  -5  3.7885 21.0234   3
   0   8  -5 160.114  34.857   3
  -1   8  -5 86.8476 27.7639   3
   1  -8   5 185.847  22.957   1
  -2   8  -5 -24.674  18.646   3
   2  -8   5 -1.6112 12.1940   1
   3  -8   5 252.035  29.269   1
   4  -8   5  6.0987 17.1249   1
   5  -8   5 41.2995 19.6861   1
   6  -8   5 52.8048 23.0335   1
   4   7  -5  0.6240 21.0141   3
   3   7  -5 214.283  35.981   3
   2   7  -5  6.2558 18.1462   3
   1   7  -5 82.9674 25.8951   3
   0   7  -5 200.874  34.701   3
   0  -7   5 187.373  20.407   1
  -1   7  -5  2.9265 18.9906   3
   1  -7   5 10.0264 12.0305   1
  -2   7  -5 96.2531 26.4443   3
   2  -7   5 129.774  19.172   1
   3  -7   5 203.882  24.598   1
   4  -7   5 55.0809 19.1523   1
   5  -7   5 118.186  24.529   1
   6  -7   5 94.4154 24.5649   1
   7  -7   5 161.975  27.711   1
   5   6  -5 -11.035  19.542   3
   4   6  -5 243.976  37.781   3
   3   6  -5 242.622  35.975   3
   2   6  -5 54.4354 20.2616   3
   1   6  -5 339.633  39.076   3
   0   6  -5 43.9233 19.6042   3
   0   6  -5 1.65448 8.85789   2
   0  -6   5 -15.616   8.798   1
  -1   6  -5 160.719  29.108   3
  -1   6  -5 128.085  16.998   2
   1  -6   5 117.523  17.593   1
  -2   6  -5  5.8155 17.2066   3
   2  -6   5 -1.1906 10.6030   1
   3  -6   5 604.305  37.817   1
   4  -6   5 55.4766 17.4993   1
   5  -6   5 218.826  27.479   1
   6  -6   5 198.298  27.421   1
   7  -6   5 -22.676  12.987   1
   6   5  -5 92.0363 28.3219   3
   5   5  -5 221.697  36.546   3
   4   5  -5 -1.5511 15.6638   3
   3   5  -5 184.910  29.782   3
   3   5  -5 154.459  20.855   2
   2   5  -5 -9.3021 13.3592   3
   2   5  -5 -9.5794  9.1205   2
   1   5  -5 452.228  27.103   2
   1   5  -5 488.330  43.970   3
  -1  -5   5 493.306  27.978   1
   0   5  -5 228.790  19.117   2
   0   5  -5 281.134  32.816   3
   0  -5   5 274.270  21.108   1
  -1   5  -5 350.567  38.073   3
  -1   5  -5 478.607  26.750   2
   1  -5   5 365.583  26.286   1
  -2   5  -5 388.613  40.528   3
   2  -5   5 393.199  27.033   1
   3  -5   5 40.4467 14.2145   1
   4  -5   5 13.2824 13.6702   1
   5  -5   5 311.862  30.091   1
   6  -5   5 -3.4165 13.2040   1
   7  -5   5 57.4857 17.9902   1
   8  -5   5 21.1908 16.5003   1
   8  -5   5 21.0844 20.0311   2
   7   4  -5 42.9022 26.4552   3
   6   4  -5 29.8790 20.8603   3
   5   4  -5 49.7843 16.0629   2
   5   4  -5 79.2210 24.1867   3
   4   4  -5 15.8792 15.9928   3
   4   4  -5 43.6316 15.1944   2
   3   4  -5 26.6744 12.1362   2
   3   4  -5 -16.037  11.780   3
   2   4  -5 43.8923 16.0511   3
   2   4  -5 73.0516 12.0791   2
  -2  -4   5 78.5157 11.6693   1
   1   4  -5 412.477  22.885   2
   1   4  -5 465.597  35.463   3
  -1  -4   5 436.989  25.147   1
   0   4  -5 15.4523  6.2913   2
   0   4  -5 28.2669 14.2586   3
   0  -4   5 16.9077  8.5731   1
  -1   4  -5 528.282  42.126   3
   1  -4   5 518.701  28.378   1
  -2   4  -5 435.821  41.248   3
   2  -4   5 413.828  26.624   1
   3  -4   5 128.467  17.544   1
   4  -4   5 424.118  30.871   1
   5  -4   5 -12.513  11.474   1
   6  -4   5 164.601  23.225   1
   7  -4   5 20.4711 17.4684   2
   7  -4   5 38.2510 15.5770   1
   8  -4   5 318.687  33.202   1
   8  -4   5 361.255  41.223   2
   7   3  -5 181.079  36.430   3
   6   3  -5 -9.7770 11.3423   2
   6   3  -5 -4.7980 15.7779   3
   5   3  -5 496.699  34.665   2
   5   3  -5 587.633  46.055   3
   4   3  -5 118.401  22.933   3
   4   3  -5 80.5727 14.6903   2
   3   3  -5 909.944  43.260   2
   3   3  -5 924.949  54.410   3
  -3  -3   5 984.556  37.938   1
   2   3  -5 256.445  19.914   2
   2   3  -5 295.240  29.365   3
  -2  -3   5 203.560  16.344   1
   1   3  -5 317.140  26.972   3
   1   3  -5 278.027  15.577   2
  -1  -3   5 275.625  20.961   1
   0   3  -5 1868.47   82.65   3
   0   3  -5 1820.51   65.41   2
   0  -3   5 1751.84   65.71   1
  -1   3  -5 60.6908 17.7342   3
   1  -3   5 62.1620 11.2617   1
   2  -3   5 581.002  29.721   1
   3  -3   5 4.45225 8.92962   1
   4  -3   5 561.432  33.434   1
   5  -3   5 138.085  19.739   1
   6  -3   5 206.637  23.633   1
   6  -3   5 180.280  26.758   2
   7  -3   5 267.539  34.627   2
   7  -3   5 327.961  30.018   1
   8  -3   5 46.8314 15.5201   1
   8  -3   5 86.7733 27.1840   2
   8   2  -5 127.922  26.069   2
   7   2  -5 72.5513 19.4924   2
   6   2  -5 554.796  38.802   2
   5   2  -5 -14.097   8.820   2
   4   2  -5 424.169  27.455   2
   4   2  -5 454.311  35.764   3
  -4  -2   5 401.952  23.223   1
   3   2  -5 154.151  21.851   3
   3   2  -5 108.418  12.826   2
  -3  -2   5 109.975  11.727   1
   2   2  -5 73.3795 14.6871   3
   2   2  -5 53.9278  8.0841   2
  -2  -2   5 61.7660  9.1860   1
   1   2  -5 488.820  31.819   3
  -1  -2   5 472.492  25.077   1
   0   2  -5 -7.0994  9.4300   3
   0  -2   5 2.31798 6.45584   1
  -1   2  -5 733.839  42.650   3
   1  -2   5 687.955  30.623   1
   2  -2   5 383.893  22.363   1
   3  -2   5 925.109  40.420   1
   4  -2   5 418.767  30.478   2
   4  -2   5 471.974  27.901   1
   5  -2   5  9.5558 11.1138   1
   5  -2   5 37.5404 15.0670   2
   6  -2   5 263.302  31.025   2
   6  -2   5 149.921  19.940   1
   7  -2   5 143.633  28.006   2
   7  -2   5 166.055  21.859   1
   8  -2   5 75.8364 25.8402   2
   8   1  -5  5.1354 17.4447   2
   7   1  -5 80.8949 22.1054   2
   6   1  -5 -4.4941 13.3564   2
   5   1  -5 37.7367 13.9499   2
  -5  -1   5 1.61850 8.59707   1
   4   1  -5 229.164  21.262   2
  -4  -1   5 160.297  14.719   1
   3   1  -5 846.596  38.818   2
   3   1  -5 833.482  45.403   3
  -3  -1   5 860.097  35.476   1
   2   1  -5 1231.32   56.21   3
  -2  -1   5 1229.02   45.98   1
   1   1  -5 18.6159  9.1440   3
  -1  -1   5 21.0843  7.2838   1
   0   1  -5 2673.76  106.84   3
   0  -1   5 2607.55   91.06   1
   1  -1   5 243.134  14.183   2
   1  -1   5 222.055  15.532   1
   2  -1   5 628.335  28.962   1
   2  -1   5 663.715  31.055   2
   3  -1   5 345.173  21.810   1
   3  -1   5 344.753  24.254   2
   4  -1   5 123.339  14.730   1
   4  -1   5 122.042  19.043   2
   5  -1   5 404.715  32.803   2
   5  -1   5 378.907  25.780   1
   6  -1   5 44.0208 12.5200   1
   6  -1   5 40.6633 17.7999   2
   7  -1   5 243.501  34.342   2
   8  -1   5 38.5450 24.3873   2
   8   0  -5 91.6927 24.8246   2
   7   0  -5 -28.310  10.949   2
   6   0  -5 499.158  38.988   2
   6   0  -5 582.905  32.556   1
  -5   0   5 147.594  16.384   1
  -4   0   5 1010.65   42.02   1
  -3   0   5 1869.39   66.92   1
   2   0  -5 216.189  17.370   3
  -2   0   5 242.960  16.247   1
   1   0  -5 1279.20   54.29   3
  -1   0   5 1289.50   48.46   2
  -1   0   5 1256.62   47.69   1
   0   0  -5 88.3216 12.6120   3
   0   0   5 94.0212 10.8682   1
   0   0   5 103.104  10.213   2
   1   0   5 18.1491  7.3145   2
   1   0   5 19.2761  7.6284   1
   2   0   5 515.850  24.363   1
   2   0   5 559.971  28.459   2
   3   0   5 46.8171  8.7518   1
   3   0   5 52.1689 12.0561   2
   4   0   5 250.259  25.514   2
   4   0   5 217.106  18.036   1
   5   0   5 23.6778 14.8467   2
   5   0   5 25.7259 10.8529   1
   6   0   5 258.816  31.973   2
   7   0   5 54.0023 22.5705   2
   8   0   5  0.6456 22.5969   2
   8  -1  -5 122.326  25.764   2
   7  -1  -5 307.757  28.366   1
   6  -1  -5 22.1774 11.8771   1
  -5   1   5 138.454  16.490   1
  -4   1   5 130.274  14.677   1
  -3   1   5 11.5340  6.6431   1
   2  -1  -5 66.4413  8.8776   3
  -2   1   5 70.6464 11.7512   2
  -2   1   5 49.2330  8.7056   1
   1  -1  -5 903.306  37.941   3
  -1   1   5 848.536  38.012   2
  -1   1   5 895.254  35.282   1
   0   1   5 23.9467  8.7555   2
   0   1   5 46.7064  8.1108   1
   1   1   5 99.4167 14.4905   2
   1   1   5 83.8549  9.9747   1
   2   1   5 17.7317  7.0312   1
   2   1   5 13.4269  9.0256   2
   3   1   5 386.885  21.098   1
   3   1   5 424.722  28.269   2
   4   1   5  6.6985 11.4245   2
   4   1   5 3.30899 6.43806   1
   5   1   5 1055.14   58.43   2
   6   1   5 293.132  35.403   2
   7   1   5 10.0675 20.1639   2
   8   1   5 233.548  38.168   2
   8  -2  -5 136.205  22.437   1
   7  -2  -5 75.4320 18.1880   1
   6  -2  -5 220.885  23.934   1
   5  -2  -5 359.126  26.927   1
  -4   2   5 28.3626 10.1554   1
  -3   2   5 369.472  22.085   1
  -2   2   5 311.392  24.314   2
  -2   2   5 243.429  16.881   1
  -1   2   5 1441.19   59.99   2
  -1   2   5 1453.16   52.51   1
   0   2   5 43.6039 11.2983   2
   0   2   5 43.1605  7.4439   1
   1   2   5 1833.92   64.08   1
   1   2   5 1896.58   78.76   2
   2   2   5 1362.02   62.93   2
   2   2   5 1367.14   48.57   1
   3   2   5 76.6096 15.6968   2
   3   2   5 70.7896  8.7998   1
   4   2   5 442.218  33.837   2
   5   2   5 81.3068 20.4609   2
   6   2   5 109.754  25.252   2
   7   2   5 18.6526 22.4700   2
   8  -3  -5 28.8943 15.9645   1
   7  -3  -5 304.855  31.864   1
   6  -3  -5  2.6334 12.2518   1
   5  -3  -5 398.306  30.620   1
  -3   3   5 357.489  23.123   1
  -3   3   5 384.948  33.063   2
  -2   3   5 535.797  26.235   1
  -2   3   5 500.712  31.834   2
  -1   3   5 53.6054 12.8389   2
  -1   3   5 42.8787  7.7559   1
   0   3   5 498.597  22.690   1
   0   3   5 451.465  30.060   2
   1   3   5 135.112  20.021   2
   1   3   5 121.546  10.282   1
   2   3   5 20.8455 14.3995   2
   2   3   5 21.9815  5.6567   1
   3   3   5 31.0561 15.9046   2
   4   3   5 21.8873 15.6285   2
   5   3   5 71.7992 21.7754   2
   6   3   5  5.1774 17.9893   2
   7   3   5 59.8488 25.2456   2
   8  -4  -5 49.6120 19.5202   1
   7  -4  -5 10.0554 15.0755   1
   6  -4  -5 462.032  36.329   1
   5  -4  -5 363.685  32.861   1
   4  -4  -5 124.919  19.416   1
  -3   4   5 222.055  27.250   2
  -2   4   5 15.9710 11.7743   2
  -2   4   5 13.3561  7.9423   1
  -1   4   5 415.706  31.314   2
  -1   4   5 420.592  23.313   1
   0   4   5 170.658  14.155   1
   0   4   5 184.676  23.484   2
   1   4   5 118.412  11.079   1
   1   4   5 160.318  23.758   2
   2   4   5 582.196  43.208   2
   3   4   5 113.431  24.212   2
   4   4   5 364.826  39.433   2
   5   4   5 -23.717  13.233   2
   6   4   5 152.420  30.399   2
   8  -5  -5 58.0834 20.8628   1
   7  -5  -5 201.932  29.727   1
   6  -5  -5 328.904  34.995   1
   5  -5  -5 44.3812 17.5284   1
   4  -5  -5 645.099  39.124   1
  -4   5   5 548.960  44.534   2
   3  -5  -5 134.549  19.074   1
  -3   5   5 122.781  22.531   2
   2  -5  -5 411.616  26.904   1
  -2   5   5 350.553  32.889   2
   1  -5  -5 16.5981  9.3866   1
  -1   5   5 17.0247 13.2754   2
   0  -5  -5 447.005  25.023   1
   0   5   5 491.848  36.392   2
   0   5   5 469.170  27.587   3
   1   5   5 162.199  25.274   2
   2   5   5 314.431  35.688   2
   3   5   5 215.883  32.560   2
   4   5   5  6.7015 16.6190   2
   5   5   5 14.2281 17.5023   2
   6   5   5 -25.440  15.638   2
   7  -6  -5 31.3636 18.7216   1
   6  -6  -5 136.280  26.170   1
   5  -6  -5 -6.9074 15.2052   1
   4  -6  -5 215.742  26.524   1
  -4   6   5 213.182  30.665   2
   3  -6  -5 211.373  23.974   1
  -3   6   5 166.236  26.826   2
   2  -6  -5 43.4959 13.4066   1
  -2   6   5 26.8146 15.3867   2
   1  -6  -5 429.155  27.772   1
  -1   6   5 472.749  36.233   2
   0  -6  -5 91.2445 14.2004   1
   0   6   5 102.136  21.361   2
   1   6   5  6.9259 15.8177   2
   2   6   5 177.440  24.375   3
   2   6   5 183.700  29.132   2
   3   6   5 43.8591 19.7179   2
   4   6   5  4.3378 17.9091   2
   5   6   5 -7.3675 18.0663   2
   7  -7  -5 -4.3814 16.4910   1
   6  -7  -5 27.8754 19.5603   1
   5  -7  -5 -20.557  14.545   1
  -4   7   5 777.859  54.144   2
   3  -7  -5 270.775  27.087   1
  -3   7   5 298.801  35.393   2
   2  -7  -5 263.723  25.732   1
  -2   7   5 288.000  33.758   2
   1  -7  -5 589.172  36.132   1
  -1   7   5 569.037  42.103   2
   0   7   5 17.1373 14.9893   2
   1   7   5 233.690  32.216   2
   2   7   5  5.0889 15.8881   2
   3   7   5 325.975  39.812   2
   4   7   5  4.5302 19.1575   2
   6  -8  -5 158.170  30.426   1
   5  -8  -5 451.292  40.748   1
   4  -8  -5 -16.849  13.122   1
  -4   8   5  4.2467 17.0995   2
   3  -8  -5 227.166  28.383   1
  -3   8   5 184.545  30.951   2
   2  -8  -5 18.2396 14.1887   1
  -2   8   5 39.0829 18.7584   2
  -1   8   5 171.376  28.127   2
   0   8   5  5.7787 15.3219   2
   1   8   5 90.7573 24.0993   2
   2   8   5 175.724  32.248   2
   3   8   5 -12.316  16.070   2
   5  -9  -5 -6.9369 16.1766   1
   4  -9  -5 55.6606 21.5432   1
  -4   9   5 44.5977 21.9672   2
   3  -9  -5  4.6744 17.4873   1
  -3   9   5 -1.4697 18.9487   2
  -2   9   5 34.3720 19.6605   2
  -1   9   5 126.886  28.452   2
   0   9   5 39.7244 21.1821   2
   1   9   5 256.669  36.984   2
   1   9  -6 -3.2384 23.6423   3
   0   9  -6 110.469  34.076   3
  -1   9  -6 -5.2618 23.1544   3
  -2   9  -6 52.8445 27.9152   3
   2  -9   6 72.0919 20.9755   1
   3  -9   6 18.3102 17.3625   1
   4  -9   6 116.210  25.625   1
   3   8  -6 55.4204 26.5927   3
   2   8  -6 158.552  35.757   3
   1   8  -6 45.8784 24.9814   3
   0   8  -6 220.015  39.635   3
  -1   8  -6 69.1522 26.7992   3
   1  -8   6 108.951  19.293   1
  -2   8  -6 78.6178 26.9199   3
   2  -8   6 175.892  23.632   1
   3  -8   6 573.181  39.432   1
   4  -8   6 15.7994 18.1011   1
   5  -8   6 229.859  32.402   1
   4   7  -6 -18.343  17.790   3
   3   7  -6 148.482  32.016   3
   2   7  -6 26.2887 21.9763   3
   1   7  -6 332.031  43.198   3
   0   7  -6 88.8460 27.6758   3
   0  -7   6 63.3111 15.5660   1
  -1   7  -6 23.2653 21.6352   3
   1  -7   6 78.3044 16.5306   1
  -2   7  -6 388.993  44.921   3
   2  -7   6 305.494  29.464   1
   3  -7   6 92.8840 18.9570   1
   4  -7   6 40.0439 17.9940   1
   5  -7   6 32.1190 18.3689   1
   6  -7   6 50.4905 19.5081   1
   5   6  -6 15.5454 21.7581   3
   4   6  -6 155.961  32.035   3
   3   6  -6 56.3113 21.7369   3
   2   6  -6 141.966  28.314   3
   1   6  -6 584.378  48.938   3
  -1  -6   6 576.242  34.233   1
   0   6  -6 23.8763 19.7106   3
   0  -6   6 23.3609 11.4387   1
  -1   6  -6 543.366  51.611   3
   1  -6   6 533.262  33.382   1
  -2   6  -6 48.6796 21.5445   3
   2  -6   6 63.8945 15.2765   1
   3  -6   6 358.624  30.840   1
   4  -6   6 75.1573 17.8053   1
   5  -6   6 266.763  30.257   1
   6  -6   6 175.001  26.280   1
   7  -6   6 80.0933 20.5629   1
   6   5  -6 56.4249 25.9090   3
   5   5  -6 278.076  40.685   3
   4   5  -6  6.2388 17.2254   3
   3   5  -6 504.819  44.810   3
   2   5  -6 24.9956 17.2156   3
   1   5  -6 460.201  43.885   3
  -1  -5   6 407.863  28.156   1
   0   5  -6 335.419  37.698   3
   0   5  -6 266.861  20.414   2
   0  -5   6 300.187  23.769   1
  -1   5  -6 377.605  40.271   3
   1  -5   6 395.429  27.142   1
  -2   5  -6 153.347  29.065   3
   2  -5   6 158.313  19.459   1
   3  -5   6 202.581  22.634   1
   4  -5   6 138.467  20.791   1
   5  -5   6 108.723  21.058   1
   6  -5   6  2.7832 12.9116   1
   7  -5   6 88.4768 19.2523   1
   7   4  -6 203.880  40.660   3
   6   4  -6 49.2337 23.4739   3
   5   4  -6 73.1004 24.5040   3
   4   4  -6 115.454  24.815   3
   3   4  -6 80.0767 20.4533   3
   2   4  -6 60.5923 17.5009   3
   2   4  -6 105.669  13.192   2
  -2  -4   6 81.8554 12.7950   1
   1   4  -6 15.8765  6.1850   2
   1   4  -6  0.0270 12.5331   3
  -1  -4   6 24.6665 10.9281   1
   0   4  -6 168.481  13.293   2
   0   4  -6 167.733  25.533   3
   0  -4   6 165.343  17.045   1
  -1   4  -6 217.212  29.920   3
   1  -4   6 172.541  17.964   1
   2  -4   6 189.759  19.830   1
   3  -4   6 125.232  17.173   1
   4  -4   6 440.563  30.958   1
   5  -4   6 41.9290 14.5773   1
   6  -4   6 180.857  25.775   2
   6  -4   6 161.464  22.763   1
   7  -4   6 10.8947 16.6291   2
   7  -4   6 -0.2384 13.2427   1
   8  -4   6 197.931  26.553   1
   8  -4   6 315.043  40.711   2
   7   3  -6 53.9186 26.1684   3
   6   3  -6 -3.1099 17.1688   3
   5   3  -6 70.7436 15.5644   2
   5   3  -6 77.7472 22.3351   3
   4   3  -6  4.9629 13.9999   3
   4   3  -6 15.5741 10.4876   2
   3   3  -6 593.619  42.723   3
   3   3  -6 591.934  30.879   2
  -3  -3   6 597.704  28.959   1
   2   3  -6 141.383  13.138   2
   2   3  -6 120.424  20.039   3
  -2  -3   6 121.259  13.849   1
   1   3  -6 22.2621 13.0525   3
  -1  -3   6 35.6985 10.5721   1
   0   3  -6 944.437  54.133   3
   0  -3   6 956.108  40.698   1
  -1   3  -6 315.660  32.983   3
   1  -3   6 333.012  22.201   1
   2  -3   6 280.707  22.153   1
   3  -3   6 8.30597 9.88675   1
   4  -3   6 338.136  25.243   1
   5  -3   6 41.0690 16.1199   2
   5  -3   6 35.4744 13.3058   1
   6  -3   6 304.375  32.552   2
   6  -3   6 270.989  26.538   1
   7  -3   6 219.459  24.809   1
   7  -3   6 196.651  31.551   2
   8  -3   6 -27.918  17.945   2
   8  -3   6 24.3060 14.4598   1
   7   2  -6 208.611  35.662   3
   6   2  -6 467.040  48.313   3
   6   2  -6 521.702  36.922   2
   5   2  -6 38.3849 13.0155   2
   5   2  -6 37.5242 17.7219   3
   4   2  -6 925.571  56.696   3
   4   2  -6 1044.28   48.27   2
  -4  -2   6 973.362  41.336   1
   3   2  -6 226.830  25.839   3
   3   2  -6 182.082  15.590   2
  -3  -2   6 194.867  16.245   1
   2   2  -6 207.835  13.148   2
   2   2  -6 196.910  23.301   3
  -2  -2   6 226.591  17.153   1
   1   2  -6 447.636  32.330   3
  -1  -2   6 462.955  26.141   1
   0   2  -6 181.721  23.106   3
   0  -2   6 131.595  14.366   1
  -1   2  -6 218.642  25.273   3
   1  -2   6 175.341  15.713   1
   1  -2   6 198.801  12.674   2
   2  -2   6 44.9230  9.7060   1
   2  -2   6 55.9794  9.4528   2
   3  -2   6 829.106  40.772   2
   3  -2   6 878.631  39.703   1
   4  -2   6 71.4244 13.6750   1
   4  -2   6 74.3284 15.4932   2
   5  -2   6 65.0107 17.9625   2
   5  -2   6 76.8754 14.3247   1
   6  -2   6 352.784  37.184   2
   6  -2   6 253.482  24.904   1
   7  -2   6 171.718  30.562   2
   7  -2   6 175.843  22.136   1
   8  -2   6 58.8161 25.2060   2
   8   1  -6 139.629  27.925   2
   7   1  -6 55.6269 19.6672   2
   6   1  -6 11.9036 14.8884   2
   5   1  -6 65.4537 15.9472   2
  -5  -1   6 52.3272 11.6346   1
   4   1  -6 265.132  22.631   2
   4   1  -6 231.853  27.299   3
  -4  -1   6 225.640  18.594   1
   3   1  -6 240.346  18.218   2
   3   1  -6 220.906  23.776   3
  -3  -1   6 214.234  17.268   1
   2   1  -6 474.235  29.399   3
  -2  -1   6 425.023  23.845   1
   1   1  -6 39.6151 11.5385   3
  -1  -1   6 25.9439  8.2547   1
   0   1  -6 306.730  25.742   3
   0  -1   6 295.471  20.791   1
   1  -1   6 -1.6071  5.2772   2
   1  -1   6 4.17424 6.35526   1
   2  -1   6 1246.98   52.22   2
   2  -1   6 1274.27   49.25   1
   3  -1   6 906.487  43.003   2
   3  -1   6 897.364  38.938   1
   4  -1   6 240.095  24.992   2
   4  -1   6 273.280  22.506   1
   5  -1   6 1192.11   51.58   1
   5  -1   6 1155.79   60.18   2
   6  -1   6 18.1880 15.8559   2
   6  -1   6 18.8954 11.4368   1
   7  -1   6 145.553  29.380   2
   8  -1   6 -8.3910 19.9847   2
   8   0  -6 131.269  28.001   2
   7   0  -6 -7.8953 13.4621   2
   6   0  -6 493.004  37.383   2
   6   0  -6 461.628  29.284   1
  -5   0   6 210.649  20.179   1
  -4   0   6 734.716  34.363   1
   3   0  -6 789.291  40.597   3
  -3   0   6 729.927  33.939   1
   2   0  -6 1494.97   63.93   3
  -2   0   6 1500.98   56.04   1
   1   0  -6 3559.81  130.78   3
  -1   0   6 3332.12  119.88   2
  -1   0   6 3246.18  114.23   1
   0   0   6 2216.29   82.23   2
   0   0   6 2260.86   79.03   1
   1   0   6 3190.86  112.00   1
   1   0   6 3368.08  120.40   2
   2   0   6 270.516  20.317   2
   2   0   6 322.921  19.492   1
   3   0   6 609.234  34.560   2
   3   0   6 629.203  29.736   1
   4   0   6 91.3443 12.9061   1
   4   0   6 72.2627 16.2749   2
   5   0   6 420.526  27.036   1
   5   0   6 430.399  35.575   2
   6   0   6 99.1446 24.2792   2
   7   0   6 100.566  27.154   2
   8   0   6 173.129  35.167   2
   8  -1  -6 73.3998 21.6607   2
   7  -1  -6 554.668  35.799   1
   6  -1  -6 264.058  25.059   1
  -5   1   6 859.708  41.681   1
  -4   1   6 -1.2182  7.5886   1
   3  -1  -6 808.228  38.750   3
  -3   1   6 785.412  35.312   1
   2  -1  -6 71.1460 10.2394   3
  -2   1   6 76.1999 12.2922   2
  -2   1   6 65.4500  9.9218   1
   1  -1  -6 1.54020 6.93835   3
  -1   1   6 2.00116 7.45368   2
  -1   1   6 9.22083 6.58310   1
   0   1   6 77.9662 10.3894   1
   0   1   6 56.2627 10.9995   2
   1   1   6 -7.4136  8.8175   2
   1   1   6 -8.0038  5.8860   1
   2   1   6 93.7700 11.6446   1
   2   1   6 99.1833 15.4308   2
   3   1   6 12.0246 10.7277   2
   3   1   6 6.59702 7.82979   1
   4   1   6 26.2986 13.6852   2
   4   1   6 26.1229  8.8016   1
   5   1   6 516.456  39.225   2
   6   1   6 51.6004 20.1145   2
   7   1   6 115.252  28.331   2
   8  -2  -6 34.0063 15.9451   1
   7  -2  -6 49.6561 15.6011   1
   6  -2  -6 97.7912 17.4878   1
  -5   2   6 21.8637 11.8540   1
  -4   2   6 47.3704 11.4510   1
   3  -2  -6 4.72183 5.49677   3
  -3   2   6 0.63482 6.64584   1
   2  -2  -6 120.568   9.967   3
  -2   2   6 140.185  17.501   2
  -2   2   6 95.6529 11.7002   1
  -1   2   6 898.615  36.986   1
  -1   2   6 884.952  42.665   2
   0   2   6 4.24607 9.26744   2
   0   2   6 -10.004   5.359   1
   1   2   6 1219.49   58.31   2
   1   2   6 1229.73   46.40   1
   2   2   6 543.736  24.560   1
   2   2   6 492.323  36.546   2
   3   2   6 196.496  24.669   2
   3   2   6 211.628  16.086   1
   4   2   6 523.554  38.288   2
   5   2   6 56.0876 18.8882   2
   6   2   6 287.788  36.633   2
   7   2   6 36.1786 23.4146   2
   8  -3  -6 98.2821 20.8287   1
   7  -3  -6 89.6035 19.5304   1
   6  -3  -6 117.700  20.538   1
   5  -3  -6 165.179  21.982   1
  -4   3   6 319.207  24.583   1
  -3   3   6 504.729  28.216   1
  -3   3   6 509.448  36.430   2
  -2   3   6 432.413  24.195   1
  -2   3   6 467.667  31.690   2
  -1   3   6  8.9972 10.2378   2
  -1   3   6 12.1540  6.8025   1
   0   3   6 691.775  29.820   1
   0   3   6 667.058  38.859   2
   1   3   6 417.333  21.932   1
   1   3   6 460.029  34.504   2
   2   3   6 173.966  13.222   1
   2   3   6 149.117  24.400   2
   3   3   6 96.8646 21.5102   2
   4   3   6 40.0647 18.1911   2
   5   3   6 20.7983 19.3473   2
   6   3   6 21.2059 18.9661   2
   7   3   6 46.8314 23.9660   2
   8  -4  -6 23.7791 18.5383   1
   7  -4  -6 19.8886 17.6932   1
   6  -4  -6 147.857  23.417   1
   5  -4  -6 -3.0251 13.9028   1
   4  -4  -6 464.978  31.702   1
  -3   4   6 48.6016 11.6784   1
  -3   4   6 33.4128 16.2766   2
  -2   4   6 51.4996 14.9295   2
  -2   4   6 40.3470 10.2769   1
  -1   4   6 237.541  18.554   1
  -1   4   6 223.302  25.103   2
   0   4   6 366.920  21.191   1
   0   4   6 399.073  34.023   2
   1   4   6 100.765  20.459   2
   1   4   6 72.1765  9.5869   1
   2   4   6 217.176  30.505   2
   3   4   6 -20.144  15.012   2
   4   4   6 134.190  27.743   2
   5   4   6 31.4504 20.1517   2
   6   4   6 284.514  38.476   2
   8  -5  -6  4.2728 17.9322   1
   7  -5  -6 147.753  26.449   1
   6  -5  -6 68.4134 20.0865   1
   5  -5  -6 156.621  24.318   1
   4  -5  -6 915.376  48.662   1
  -4   5   6 946.255  58.104   2
   3  -5  -6  8.9857 11.1530   1
  -3   5   6 12.8891 15.5440   2
  -2   5   6 578.496  40.406   2
  -1   5   6 135.423  15.716   1
  -1   5   6 123.363  22.034   2
   0   5   6 395.794  36.369   2
   0   5   6 338.553  22.788   1
   1   5   6 88.1284 11.6895   1
   1   5   6 95.5828 21.5028   2
   2   5   6 1030.99   61.91   2
   3   5   6 574.197  48.591   2
   4   5   6 103.748  26.166   2
   5   5   6 271.425  38.503   2
   7  -6  -6  4.8039 18.5377   1
   6  -6  -6 225.960  31.368   1
   5  -6  -6 96.8118 22.4334   1
   4  -6  -6 264.525  29.160   1
  -4   6   6 282.532  35.126   2
   3  -6  -6 191.878  22.883   1
  -3   6   6 228.203  30.759   2
   2  -6  -6 334.575  28.230   1
  -2   6   6 349.742  35.756   2
   1  -6  -6 679.643  36.248   1
  -1   6   6 671.751  45.135   2
   0   6   6 214.986  29.433   2
   1   6   6 223.295  31.283   2
   2   6   6 20.4581 18.2943   2
   3   6   6  6.3158 16.0754   2
   4   6   6  8.7174 17.8902   2
   5   6   6 -11.030  18.030   2
   7  -7  -6 155.612  30.267   1
   6  -7  -6 30.1826 18.7195   1
   5  -7  -6 141.485  25.283   1
   4  -7  -6 38.4104 17.5982   1
  -4   7   6 70.5399 22.7313   2
   3  -7  -6 12.1204 14.3750   1
  -3   7   6 30.1290 19.2963   2
   2  -7  -6 99.3456 18.1715   1
  -2   7   6 102.817  22.844   2
   1  -7  -6 34.4300 13.0353   1
  -1   7   6 40.1193 16.6748   2
   0   7   6 15.5739 17.8908   2
   1   7   6 152.750  27.364   2
   2   7   6 -13.554  14.948   2
   3   7   6 71.1585 22.5647   2
   4   7   6 16.0496 19.2999   2
   6  -8  -6 78.7087 25.2420   1
   5  -8  -6 192.146  28.039   1
   4  -8  -6 -10.760  14.894   1
  -4   8   6 17.1646 18.2403   2
   3  -8  -6 155.874  24.983   1
  -3   8   6 159.357  29.990   2
   2  -8  -6 204.760  25.504   1
  -2   8   6 120.252  26.654   2
  -1   8   6 134.769  25.958   2
   0   8   6 39.0970 19.0293   2
   1   8   6 129.189  27.087   2
   2   8   6 76.2974 24.5481   2
   4  -9  -6 35.6654 19.6746   1
  -4   9   6 66.3205 24.7688   2
  -3   9   6 -12.878  16.368   2
  -2   9   6 30.5873 20.0976   2
  -1   9   6 -2.7132 16.6768   2
   0   9   6 144.628  29.811   2
   0   9  -7 17.5590 25.9746   3
  -1   9  -7 -19.194  23.079   3
  -2   9  -7 -3.3485 22.2568   3
   2  -9   7  1.9189 15.8596   1
   3  -9   7 -15.957  17.300   1
   2   8  -7 146.909  36.533   3
   1   8  -7 78.3532 30.7985   3
   0   8  -7 89.5916 31.2240   3
  -1   8  -7 36.9168 25.2639   3
   1  -8   7 67.1552 17.6869   1
  -2   8  -7 48.1295 25.0817   3
   2  -8   7 65.0354 18.6668   1
   3  -8   7 486.668  37.795   1
   4  -8   7  0.7660 17.4937   1
   5  -8   7 526.458  46.133   1
   4   7  -7 34.5320 24.4649   3
   3   7  -7 180.055  35.746   3
   2   7  -7 78.6762 27.6254   3
   1   7  -7 419.256  49.904   3
   0   7  -7 25.8610 22.9490   3
   0  -7   7  4.7083 12.0851   1
  -1   7  -7 360.638  45.857   3
   1  -7   7 419.697  31.058   1
  -2   7  -7 203.838  34.976   3
   2  -7   7 161.941  23.922   1
   3  -7   7 36.0957 16.5977   1
   4  -7   7 44.5447 18.3140   1
   5  -7   7 15.9683 15.7919   1
   6  -7   7  6.1291 15.5180   1
   5   6  -7 78.6545 27.0919   3
   4   6  -7 17.8561 19.0131   3
   3   6  -7 47.3557 21.6381   3
   2   6  -7 143.458  29.779   3
   1   6  -7 122.637  29.410   3
  -1  -6   7 145.459  20.206   1
   0   6  -7 226.474  36.411   3
   0  -6   7 155.143  19.691   1
  -1   6  -7 444.653  47.867   3
   1  -6   7 464.766  31.155   1
  -2   6  -7 55.8995 24.4009   3
   2  -6   7 108.115  18.858   1
   3  -6   7 113.467  20.384   1
   4  -6   7 32.3760 15.8961   1
   5  -6   7 151.880  23.679   1
   6  -6   7 50.9101 17.1873   1
   7  -6   7 198.170  27.589   1
   6   5  -7 43.2171 25.1213   3
   5   5  -7 53.8607 23.8406   3
   4   5  -7 17.9681 16.6186   3
   3   5  -7 528.894  44.658   3
   2   5  -7 463.944  44.933   3
  -2  -5   7 449.155  30.141   1
   1   5  -7 271.145  35.307   3
  -1  -5   7 284.549  25.917   1
   0   5  -7 533.065  50.566   3
   0  -5   7 546.547  31.870   1
  -1   5  -7 56.9708 20.9244   3
   1  -5   7 42.1307 12.8949   1
  -2   5  -7 118.603  27.197   3
   2  -5   7 94.8247 17.1679   1
   3  -5   7 430.483  32.394   1
   4  -5   7 331.377  30.089   1
   5  -5   7  8.0575 13.1696   1
   6  -5   7 196.254  24.815   1
   7  -5   7 114.241  26.062   2
   7  -5   7 134.865  22.813   1
   6   4  -7 322.400  44.802   3
   5   4  -7 92.8191 24.8140   3
   4   4  -7 702.226  53.409   3
   3   4  -7 34.9332 17.9060   3
   2   4  -7 97.5770 21.7386   3
  -2  -4   7 115.307  15.131   1
   1   4  -7 24.7900 16.2402   3
  -1  -4   7 23.6471 11.9921   1
   0   4  -7 242.505  33.530   3
   0  -4   7 267.779  22.247   1
  -1   4  -7 74.8057 20.4583   3
   1  -4   7 20.6942 10.9528   1
   2  -4   7 51.4867 12.9445   1
   3  -4   7 466.996  31.183   1
   4  -4   7 221.201  23.849   1
   5  -4   7  8.7871 12.2649   1
   5  -4   7 16.6683 13.3333   2
   6  -4   7 74.5517 20.7835   2
   6  -4   7 109.276  19.288   1
   7  -4   7 42.4541 15.5141   1
   7  -4   7 72.2335 22.4576   2
   7   3  -7  7.7135 21.8412   3
   6   3  -7 37.5252 20.9013   3
   5   3  -7  5.9023 15.3159   3
   4   3  -7  9.4968 15.5958   3
   3   3  -7 56.9392 17.9371   3
  -3  -3   7 66.8769 11.6928   1
   2   3  -7 38.7241 14.9366   3
  -2  -3   7 39.2823 10.8069   1
   1   3  -7 16.4647 12.5018   3
  -1  -3   7 10.5922  9.6443   1
   0   3  -7 587.687  43.531   3
   0  -3   7 515.733  30.010   1
  -1   3  -7 316.884  35.168   3
   1  -3   7 227.925  20.065   1
   1  -3   7 235.770  13.688   2
   2  -3   7 883.135  40.811   1
   2  -3   7 844.896  38.158   2
   3  -3   7 240.734  23.329   1
   3  -3   7 235.608  21.570   2
   4  -3   7 100.421  17.233   2
   4  -3   7 106.036  17.621   1
   5  -3   7 140.406  22.042   2
   5  -3   7 167.955  21.399   1
   6  -3   7 139.931  24.872   2
   6  -3   7 103.646  19.478   1
   7  -3   7 205.208  33.497   2
   7  -3   7 172.786  24.238   1
   8  -3   7 11.8269 21.3013   2
   7   2  -7 84.1103 28.7538   3
   6   2  -7 221.859  34.806   3
   5   2  -7 -14.756  13.890   3
   5   2  -7 -2.9596 10.0967   2
   4   2  -7 757.783  48.132   3
   4   2  -7 654.842  36.034   2
  -4  -2   7 749.804  34.918   1
   3   2  -7 48.4083 16.8614   3
   3   2  -7 51.3165  9.6537   2
  -3  -2   7 60.8583 11.3710   1
   2   2  -7 682.770  28.035   2
   2   2  -7 688.740  42.417   3
  -2  -2   7 706.960  33.339   1
   1   2  -7 532.831  37.571   3
  -1  -2   7 567.699  30.901   1
   0   2  -7 605.056  40.966   3
   0  -2   7 535.824  30.399   1
  -1   2  -7 363.009  34.460   3
   1  -2   7 336.604  22.026   1
   1  -2   7 356.608  17.490   2
   2  -2   7 82.9777 12.9687   1
   2  -2   7 65.5582 10.9209   2
   3  -2   7 437.279  26.716   1
   3  -2   7 429.131  27.328   2
   4  -2   7 82.3576 16.7777   2
   4  -2   7 88.3981 15.7370   1
   5  -2   7 588.904  40.868   2
   5  -2   7 641.367  36.649   1
   6  -2   7 18.7198 13.5494   1
   6  -2   7 65.5423 19.7136   2
   7  -2   7 44.4136 16.2448   1
   7  -2   7 18.7903 19.1917   2
   8  -2   7 50.3710 25.4021   2
   8   1  -7 284.409  43.200   3
   7   1  -7 113.116  28.212   3
   7   1  -7 113.582  24.254   2
   6   1  -7 208.648  32.108   3
   6   1  -7 227.205  28.260   2
   5   1  -7 263.011  31.642   3
   5   1  -7 273.137  26.577   2
  -5  -1   7 223.064  20.526   1
   4   1  -7 46.6499 12.6057   2
   4   1  -7 60.9488 16.9531   3
  -4  -1   7 51.4791 10.9843   1
   3   1  -7 349.355  28.677   3
  -3  -1   7 305.624  22.173   1
   2   1  -7 110.963  17.169   3
  -2  -1   7 115.867  13.637   1
   1   1  -7 154.975  20.184   3
  -1  -1   7 186.323  17.103   1
   0   1  -7 195.012  22.928   3
   0  -1   7 136.871  15.820   1
   0  -1   7 152.366  10.857   2
   1  -1   7 280.411  17.508   2
   1  -1   7 299.440  20.758   1
   2  -1   7 169.158  15.749   2
   2  -1   7 128.936  14.322   1
   3  -1   7 92.4596 13.8272   1
   3  -1   7 95.8376 15.3056   2
   4  -1   7 9.62067 9.88827   1
   4  -1   7 40.4368 14.2375   2
   5  -1   7 721.246  45.814   2
   5  -1   7 677.461  36.818   1
   6  -1   7 52.8163 20.7500   2
   6  -1   7 61.6918 14.9276   1
   7  -1   7 63.3831 24.2318   2
   8  -1   7  7.7031 21.4776   2
   8   0  -7 98.5616 25.0790   2
   7   0  -7 16.6028 14.8801   2
   6   0  -7 231.690  27.361   2
  -6   0   7 232.336  23.171   1
   5   0  -7 34.0398 15.3268   3
  -5   0   7 71.5591 13.2454   1
   4   0  -7 43.5312 13.5607   3
  -4   0   7 24.6956  9.8115   1
   3   0  -7 19.5748 10.6620   3
  -3   0   7 15.8227  8.9231   1
   2   0  -7 193.994  19.473   3
  -2   0   7 240.682  18.995   1
   1   0  -7 623.034  36.990   3
  -1   0   7 636.450  31.312   1
  -1   0   7 637.583  28.837   2
   0   0   7 367.087  23.221   1
   0   0   7 387.457  21.878   2
   1   0   7 1902.10   70.69   1
   1   0   7 1916.34   75.57   2
   2   0   7 805.205  39.139   2
   2   0   7 816.865  36.845   1
   3   0   7 271.662  20.860   1
   3   0   7 316.502  24.224   2
   4   0   7 199.221  18.151   1
   4   0   7 202.517  24.275   2
   5   0   7 252.691  21.487   1
   5   0   7 186.560  26.937   2
   6   0   7 33.2814 19.0846   2
   7   0   7 237.141  37.307   2
   8  -1  -7  4.7677 16.5789   2
   7  -1  -7 419.348  31.740   1
  -5   1   7 595.437  34.471   1
   4  -1  -7 20.7446 10.7629   3
  -4   1   7 10.1739  8.9488   1
   3  -1  -7 1327.47   57.78   3
  -3   1   7 1298.63   52.71   1
   2  -1  -7 1651.01   67.76   3
  -2   1   7 1596.42   62.25   1
  -2   1   7 1676.71   66.83   2
   1  -1  -7 253.409  19.251   3
  -1   1   7 256.745  18.893   1
  -1   1   7 235.194  19.326   2
   0   1   7 2098.44   74.35   1
   0   1   7 1993.61   79.83   2
   1   1   7 4.60969 6.93197   1
   1   1   7 3.70580 9.96523   2
   2   1   7 265.561  25.294   2
   2   1   7 282.161  20.041   1
   3   1   7 122.475  14.734   1
   3   1   7 121.410  18.291   2
   4   1   7 50.8037 11.4213   1
   4   1   7 51.1017 16.1425   2
   5   1   7 39.6996 17.4087   2
   6   1   7 -2.2588 16.6202   2
   7   1   7 124.336  30.828   2
   8  -2  -7 45.5553 17.2216   1
   7  -2  -7 161.905  23.388   1
   6  -2  -7 258.151  26.426   1
  -5   2   7 16.5424 11.3140   1
   4  -2  -7 459.197  27.258   3
  -4   2   7 460.443  28.844   1
   3  -2  -7 30.3078  8.1563   3
  -3   2   7 34.1142  9.6122   1
   2  -2  -7 3.13499 5.89520   3
  -2   2   7 8.65408 7.26325   1
  -2   2   7 27.2273 11.4774   2
  -1   2   7 457.537  25.334   1
  -1   2   7 426.624  28.811   2
   0   2   7 83.1819 14.3929   2
   0   2   7 83.7128 11.3881   1
   1   2   7 42.9055  9.3439   1
   1   2   7 49.4822 15.5408   2
   2   2   7 25.8020  7.6897   1
   2   2   7 -5.0562 12.6103   2
   3   2   7 217.398  26.462   2
   3   2   7 240.339  18.054   1
   4   2   7 426.998  35.679   2
   5   2   7 43.9785 19.1510   2
   6   2   7 425.408  44.990   2
   7   2   7 138.815  32.449   2
   8  -3  -7 18.3854 15.3019   1
   7  -3  -7 153.230  23.705   1
   6  -3  -7 63.5861 17.6054   1
  -5   3   7 322.389  27.333   1
  -4   3   7 756.628  38.750   1
  -3   3   7 179.986  18.382   1
  -3   3   7 257.154  27.283   2
  -2   3   7 419.340  24.651   1
  -2   3   7 450.711  31.957   2
  -1   3   7 70.7646 15.7856   2
  -1   3   7 93.1280 12.2049   1
   0   3   7 596.556  29.129   1
   0   3   7 605.902  37.818   2
   1   3   7 170.645  14.970   1
   1   3   7 145.689  22.148   2
   2   3   7 1136.15   61.59   2
   2   3   7 1111.69   43.99   1
   3   3   7 534.482  42.556   2
   4   3   7 10.1564 16.3145   2
   5   3   7 119.144  27.232   2
   6   3   7 20.4694 21.0738   2
   8  -4  -7 154.354  27.047   1
   7  -4  -7  2.5082 14.5001   1
   6  -4  -7 142.507  24.191   1
   5  -4  -7 -20.009  11.229   1
  -4   4   7 408.853  28.370   1
  -3   4   7 14.1362 15.5112   2
  -3   4   7 5.17932 8.99560   1
  -2   4   7 82.7282 18.1741   2
  -2   4   7 90.0122 13.1381   1
  -1   4   7 446.341  33.904   2
  -1   4   7 381.783  23.960   1
   0   4   7 237.650  27.174   2
   0   4   7 231.797  17.867   1
   1   4   7 14.4552  8.1177   1
   1   4   7 25.1601 15.9303   2
   2   4   7 203.170  29.842   2
   3   4   7 12.4732 17.4306   2
   4   4   7 17.7207 18.7094   2
   5   4   7 30.3238 21.3908   2
   6   4   7 52.9723 25.7477   2
   8  -5  -7 58.2980 24.0248   1
   7  -5  -7 70.5979 20.7036   1
   6  -5  -7  7.5346 16.1303   1
   5  -5  -7 170.155  25.943   1
   4  -5  -7 604.123  39.232   1
  -4   5   7 657.417  47.416   2
  -3   5   7 10.2051 15.1838   2
  -2   5   7 594.362  42.133   2
  -2   5   7 615.849  33.681   1
  -1   5   7 81.7921 20.0758   2
  -1   5   7 101.328  14.130   1
   0   5   7 57.7035 18.7346   2
   0   5   7 58.5984 11.6155   1
   1   5   7 59.3847 19.5022   2
   2   5   7 232.618  32.232   2
   3   5   7 252.674  35.222   2
   4   5   7 -5.1045 18.3622   2
   5   5   7 331.594  43.195   2
   7  -6  -7 15.9427 17.9545   1
   6  -6  -7 252.990  33.624   1
   5  -6  -7 329.901  34.625   1
   4  -6  -7 78.4003 19.3804   1
  -4   6   7 57.3140 21.8836   2
   3  -6  -7 267.984  26.867   1
  -3   6   7 231.213  31.132   2
   2  -6  -7 47.8976 13.8324   1
  -2   6   7 30.0116 17.0309   2
   1  -6  -7 425.614  28.188   1
  -1   6   7 414.430  38.953   2
   0   6   7 99.6877 22.9337   2
   1   6   7 451.617  44.618   2
   2   6   7 151.352  28.901   2
   3   6   7 43.9090 23.0724   2
   4   6   7 120.277  27.273   2
   6  -7  -7 -13.879  17.228   1
   5  -7  -7 142.821  26.179   1
   4  -7  -7  1.4351 15.3337   1
  -4   7   7 -23.655  15.622   2
   3  -7  -7 267.436  27.558   1
  -3   7   7 209.531  31.940   2
   2  -7  -7 85.3140 17.5207   1
  -2   7   7 53.1425 20.2577   2
  -1   7   7 39.4467 17.3209   2
   0   7   7 214.404  32.199   2
   1   7   7 112.594  26.294   2
   2   7   7 14.0920 18.6843   2
   3   7   7  4.6273 18.4946   2
   5  -8  -7 29.1026 19.2959   1
   4  -8  -7 70.6199 19.5167   1
  -4   8   7 140.295  30.334   2
   3  -8  -7 194.309  25.923   1
  -3   8   7 192.021  33.206   2
  -2   8   7 161.832  29.888   2
  -1   8   7 164.396  28.174   2
   0   8   7 178.863  30.134   2
   1   8   7 12.1136 18.1761   2
   2   8   7 23.3741 19.8538   2
   4  -9  -7 138.387  27.066   1
  -3   9   7 -0.7163 17.8294   2
  -2   9   7 52.0346 21.2721   2
  -1   9   7 22.8272 19.7029   2
   0   9   7 75.1139 24.3496   2
  -1   9  -8 62.1732 31.4963   3
  -2   9  -8 19.1132 25.1556   3
   2  -9   8 27.0536 18.4889   1
   2   8  -8 107.738  32.713   3
   1   8  -8  4.0208 25.6364   3
   0   8  -8 70.0556 29.5392   3
  -1   8  -8 39.4674 27.6665   3
   1  -8   8 32.6335 17.7813   1
  -2   8  -8 -25.255  19.046   3
   2  -8   8 16.0917 15.3506   1
   3  -8   8 -0.0671 17.9376   1
   4  -8   8 -1.7399 17.7220   1
   5  -8   8 275.131  35.755   1
   3   7  -8 140.081  34.376   3
   2   7  -8  9.8143 20.6411   3
   1   7  -8 147.693  32.861   3
   0   7  -8 25.9206 24.1461   3
   0  -7   8  2.5683 12.8705   1
  -1   7  -8 233.501  39.931   3
   1  -7   8 253.253  27.113   1
  -2   7  -8 109.026  30.684   3
   2  -7   8 176.474  23.928   1
   3  -7   8 245.898  29.827   1
   4  -7   8 357.014  35.442   1
   5  -7   8  2.3389 18.5640   1
   6  -7   8 85.6437 22.4977   1
   5   6  -8 98.0850 27.8274   3
   4   6  -8 38.5734 22.1281   3
   3   6  -8 100.295  27.562   3
   2   6  -8 153.718  31.387   3
   1   6  -8 48.5540 23.2431   3
  -1  -6   8  3.0108 14.0312   1
   0   6  -8 900.984  65.801   3
   0  -6   8 827.822  44.472   1
  -1   6  -8 172.995  33.868   3
   1  -6   8 216.771  23.672   1
  -2   6  -8 162.588  32.670   3
   2  -6   8 120.080  20.290   1
   3  -6   8 179.661  25.163   1
   4  -6   8 36.3527 16.2470   1
   5  -6   8 32.9647 16.9413   1
   6  -6   8 -14.647  12.976   1
   5   5  -8  9.4022 20.8521   3
   4   5  -8 114.085  26.827   3
   3   5  -8 511.410  45.343   3
   2   5  -8 80.9557 22.3068   3
  -2  -5   8 56.6650 14.0708   1
   1   5  -8 463.998  47.118   3
  -1  -5   8 421.458  32.531   1
   0   5  -8 566.459  53.460   3
   0  -5   8 498.765  33.319   1
  -1   5  -8 18.1032 18.1131   3
   1  -5   8  1.6866 11.3043   1
   2  -5   8 340.528  28.776   1
   3  -5   8 160.744  22.496   1
   4  -5   8 502.642  36.202   1
   5  -5   8  7.0963 13.2070   1
   6  -5   8 512.843  38.732   1
   7  -5   8 100.370  22.792   1
   7  -5   8 124.698  25.835   2
   6   4  -8 104.663  29.972   3
   5   4  -8 182.936  33.041   3
   4   4  -8 844.271  58.782   3
   3   4  -8 39.1986 17.3007   3
  -3  -4   8 32.6635 11.4342   1
   2   4  -8 387.036  39.586   3
  -2  -4   8 338.399  26.504   1
   1   4  -8 17.2749 16.7823   3
  -1  -4   8 34.0368 13.6131   1
   0   4  -8 525.306  45.917   3
   0  -4   8 638.014  34.754   1
  -1   4  -8 -2.9053 16.7056   3
   1  -4   8 -8.8778  8.5860   1
   2  -4   8 693.793  38.270   1
   3  -4   8 530.740  34.598   1
   4  -4   8  5.9111 12.2570   1
   4  -4   8  9.0452 12.3032   2
   5  -4   8 184.616  24.116   2
   5  -4   8 221.068  25.503   1
   6  -4   8  9.7785 13.8407   1
   6  -4   8  5.0134 14.9060   2
   7  -4   8 -4.6173 14.2588   1
   7  -4   8 13.5027 19.7806   2
   7   3  -8 21.8004 23.7396   3
   6   3  -8 149.863  31.947   3
   5   3  -8 52.3346 21.1630   3
   4   3  -8 31.7642 16.8047   3
  -4  -3   8 23.6736 10.5812   1
   3   3  -8  7.9657 13.6245   3
  -3  -3   8 8.39061 9.37261   1
   2   3  -8 26.2785 14.7211   3
  -2  -3   8 34.8687 11.4276   1
   1   3  -8 102.155  21.191   3
  -1  -3   8 97.1045 15.6551   1
   0   3  -8 55.8983 19.3113   3
   0  -3   8 63.2173 13.8616   1
  -1   3  -8 19.4619 16.3573   3
   1  -3   8 25.2598 10.6468   1
   2  -3   8 1571.12   62.01   2
   2  -3   8 1554.70   63.98   1
   3  -3   8 332.106  25.491   1
   3  -3   8 274.764  24.326   2
   4  -3   8 149.856  20.603   1
   4  -3   8 177.685  22.532   2
   5  -3   8 309.684  29.107   1
   5  -3   8 258.352  30.177   2
   6  -3   8 -10.919  15.745   2
   6  -3   8  6.4056 13.4461   1
   7  -3   8 46.6418 17.7196   1
   7  -3   8 70.0234 23.1773   2
   7   2  -8 44.2668 22.7682   3
   6   2  -8 10.6232 18.1214   3
   5   2  -8 16.9964 16.3248   3
   4   2  -8 123.678  24.256   3
  -4  -2   8 121.239  15.899   1
   3   2  -8 16.4951 13.5267   3
  -3  -2   8 40.1073 11.5511   1
   2   2  -8 1304.95   64.38   3
  -2  -2   8 1181.69   51.41   1
   1   2  -8 555.938  40.222   3
  -1  -2   8 567.918  31.978   1
   0   2  -8 917.346  53.292   3
   0  -2   8 877.531  43.484   1
   1  -2   8 601.833  26.361   2
   1  -2   8 602.066  32.477   1
   2  -2   8 71.2425 12.9600   1
   2  -2   8 59.2848 10.6978   2
   3  -2   8 24.4161 11.4502   1
   3  -2   8 19.6929 10.4497   2
   4  -2   8  6.7353 10.6772   1
   4  -2   8 -8.8990 10.3181   2
   5  -2   8 493.657  32.448   1
   5  -2   8 479.427  36.194   2
   6  -2   8 55.2162 20.8158   2
   6  -2   8 54.9872 15.8289   1
   7  -2   8 236.186  35.802   2
   7  -2   8 157.287  22.887   1
   7   1  -8 25.3143 20.7262   3
   6   1  -8 612.668  49.129   3
   5   1  -8 364.891  37.423   3
   5   1  -8 326.199  29.662   2
  -5  -1   8 356.573  26.453   1
   4   1  -8 225.408  21.174   2
   4   1  -8 209.606  26.720   3
  -4  -1   8 192.731  19.034   1
   3   1  -8 862.790  48.157   3
  -3  -1   8 851.082  39.774   1
   2   1  -8 145.836  20.350   3
  -2  -1   8 138.220  16.335   1
   1   1  -8 300.358  29.202   3
  -1  -1   8 236.583  20.879   1
   0   1  -8 -9.3856 11.8882   3
   0  -1   8 -2.0799  4.9919   2
   0  -1   8 1.83251 8.68660   1
   1  -1   8 57.6914 12.2597   1
   1  -1   8 49.0591  9.8867   2
   2  -1   8 241.149  20.632   1
   2  -1   8 283.440  19.898   2
   3  -1   8 19.1952  9.8470   1
   3  -1   8 19.4245 10.5219   2
   4  -1   8 479.318  34.085   2
   4  -1   8 546.584  31.621   1
   5  -1   8 393.417  36.459   2
   5  -1   8 378.010  28.887   1
   6  -1   8  2.3060 16.8637   2
   6  -1   8 31.9188 14.5593   1
   7  -1   8 131.868  30.079   2
   8   0  -8  8.6689 18.2043   3
   7   0  -8 111.229  26.723   3
   7   0  -8 128.553  24.175   2
   6   0  -8 30.9821 17.1854   3
   6   0  -8 31.3643 14.7478   2
  -6   0   8 41.7880 14.6115   1
   5   0  -8  2.4286 12.0838   3
  -5   0   8 20.5429 10.8075   1
   4   0  -8 42.1195 13.7999   3
  -4   0   8 53.6799 11.8080   1
   3   0  -8 27.2594 11.1542   3
  -3   0   8 28.9905 10.2936   1
   2   0  -8 76.6219 14.6933   3
  -2   0   8 69.1745 12.5179   1
   1   0  -8 185.260  21.166   3
  -1   0   8 166.809  14.141   2
  -1   0   8 168.466  17.430   1
   0   0   8 599.538  29.790   2
   0   0   8 599.323  31.264   1
   1   0   8 815.437  39.970   2
   1   0   8 779.346  37.692   1
   2   0   8 13.8249  9.4000   2
   2   0   8 14.4973 10.1193   1
   3   0   8 433.403  29.931   2
   3   0   8 461.205  28.298   1
   4   0   8 199.715  24.641   2
   4   0   8 224.505  20.788   1
   5   0   8 146.177  24.471   2
   5   0   8 162.228  18.475   1
   6   0   8 116.252  26.081   2
   7   0   8 39.5686 22.9722   2
   8  -1  -8 31.9048 17.5418   2
   7  -1  -8 191.736  23.793   1
   6  -1  -8 145.594  23.248   3
  -6   1   8 123.222  19.780   1
   5  -1  -8 439.702  32.425   3
  -5   1   8 400.038  29.157   1
   4  -1  -8 126.706  17.175   3
  -4   1   8 87.6867 14.6590   1
   3  -1  -8 998.308  47.051   3
  -3   1   8 1003.13   44.37   1
   2  -1  -8 179.961  18.962   3
  -2   1   8 207.380  19.222   2
  -2   1   8 170.813  17.444   1
  -1   1   8 1431.70   59.76   2
  -1   1   8 1456.27   57.34   1
   0   1   8 1504.24   63.72   2
   0   1   8 1568.96   60.17   1
   1   1   8 221.517  18.775   1
   1   1   8 230.727  23.799   2
   2   1   8 835.261  47.426   2
   2   1   8 960.502  40.891   1
   3   1   8 141.846  20.775   2
   3   1   8 182.778  17.784   1
   4   1   8 126.001  21.316   2
   4   1   8 130.758  17.041   1
   5   1   8 18.7928 15.6381   2
   6   1   8 85.9195 24.5132   2
   7   1   8 96.1732 28.2870   2
   8  -2  -8  2.7992 13.2564   1
   7  -2  -8 194.247  25.096   1
  -6   2   8 93.0884 18.0391   1
  -5   2   8 223.180  23.390   1
   4  -2  -8 1020.87   49.01   3
  -4   2   8 1116.74   48.36   1
   3  -2  -8 4.94818 7.19053   3
  -3   2   8 1.52136 8.52474   1
   2  -2  -8 339.792  20.502   3
  -2   2   8 367.631  24.157   1
  -2   2   8 389.842  29.802   2
  -1   2   8 181.789  17.294   1
  -1   2   8 187.575  20.163   2
   0   2   8 33.0531  9.6359   1
   0   2   8 30.6082 11.9761   2
   1   2   8 39.0024 10.1207   1
   1   2   8 68.0848 16.6736   2
   2   2   8 42.3576  9.7622   1
   2   2   8 60.5596 17.7694   2
   3   2   8 155.271  24.914   2
   3   2   8 167.219  16.136   1
   4   2   8 195.730  28.457   2
   5   2   8 69.8654 21.4666   2
   6   2   8 538.496  52.162   2
   7   2   8 52.2098 26.0447   2
   8  -3  -8 115.486  23.538   1
   7  -3  -8 117.327  21.560   1
   6  -3  -8 27.5727 15.0022   1
  -5   3   8 455.968  32.194   1
  -4   3   8 333.333  25.915   1
  -3   3   8 79.4954 18.3610   2
  -3   3   8 48.8079 12.0238   1
  -2   3   8 161.198  21.455   2
  -2   3   8 177.778  17.901   1
  -1   3   8 201.972  23.874   2
  -1   3   8 182.132  17.467   1
   0   3   8 475.529  27.573   1
   0   3   8 462.199  34.561   2
   1   3   8 43.3864  9.7343   1
   1   3   8 34.2406 16.5714   2
   2   3   8 2790.08  119.19   2
   2   3   8 2775.62   96.82   1
   3   3   8 370.254  38.822   2
   4   3   8 469.661  45.607   2
   5   3   8 287.144  39.238   2
   6   3   8 29.9844 23.8116   2
   8  -4  -8 315.533  35.300   1
   7  -4  -8 11.2630 15.4787   1
   6  -4  -8 262.500  30.271   1
  -4   4   8 567.301  34.497   1
  -3   4   8 -2.2276 13.8252   2
  -3   4   8 -3.0972  9.0735   1
  -2   4   8 1007.49   55.91   2
  -2   4   8 1126.01   47.80   1
  -1   4   8 417.435  25.682   1
  -1   4   8 420.855  35.114   2
   0   4   8 291.000  21.871   1
   0   4   8 327.978  32.554   2
   1   4   8 476.111  40.821   2
   1   4   8 558.698  28.794   1
   2   4   8 37.2577 19.3574   2
   3   4   8 36.3896 20.9893   2
   4   4   8 22.6082 21.1533   2
   5   4   8  3.5124 19.3855   2
   6   4   8 42.2861 26.1610   2
   7  -5  -8 27.6751 19.1906   1
   6  -5  -8 330.213  35.306   1
   5  -5  -8 15.1389 15.4427   1
  -4   5   8 62.3843 21.4025   2
  -3   5   8 36.5868 12.8601   1
  -3   5   8 39.9714 17.5959   2
  -2   5   8 191.014  27.258   2
  -2   5   8 187.258  20.018   1
  -1   5   8 -0.8797  9.1728   1
  -1   5   8 -6.7020 13.1105   2
   0   5   8 148.398  25.322   2
   0   5   8 114.832  15.268   1
   1   5   8 127.948  24.703   2
   2   5   8 62.3905 21.8889   2
   3   5   8 53.7433 22.7955   2
   4   5   8 20.7070 22.9370   2
   5   5   8 203.511  36.569   2
   7  -6  -8 24.9218 20.4012   1
   6  -6  -8 58.8901 22.7430   1
   5  -6  -8 197.506  28.933   1
   4  -6  -8 111.310  21.611   1
  -4   6   8 121.234  26.960   2
   3  -6  -8 440.829  32.921   1
  -3   6   8 452.814  43.232   2
  -2   6   8 12.5893 14.3759   2
  -1   6   8 291.953  33.941   2
   0   6   8 71.8498 22.3359   2
   1   6   8 392.793  42.529   2
   2   6   8 39.0976 21.1805   2
   3   6   8 189.551  33.101   2
   4   6   8 321.627  41.576   2
   6  -7  -8  0.3309 18.6357   1
   5  -7  -8 128.111  24.956   1
   4  -7  -8 15.5448 15.5780   1
  -4   7   8 52.4307 21.6911   2
   3  -7  -8 156.491  22.896   1
  -3   7   8 211.411  31.571   2
   2  -7  -8  2.5417 13.4722   1
  -2   7   8 11.9874 17.1449   2
  -1   7   8 164.270  27.591   2
   0   7   8 305.670  38.653   2
   1   7   8 42.6138 21.4465   2
   2   7   8 26.9962 21.4762   2
   3   7   8  2.6512 19.7790   2
   5  -8  -8 10.7548 17.6140   1
   4  -8  -8 178.207  27.152   1
  -4   8   8 233.565  37.258   2
   3  -8  -8 56.6090 18.5691   1
  -3   8   8 39.2939 23.4239   2
  -2   8   8 22.6259 19.9580   2
  -1   8   8 234.767  34.184   2
   0   8   8 147.707  29.648   2
   1   8   8  8.2254 18.7366   2
  -2   9   8 224.281  35.276   2
   1   8  -9 10.5596 26.8828   3
   0   8  -9  0.5763 24.6521   3
  -1   8  -9 10.2115 26.1591   3
   1  -8   9 22.0554 16.3811   1
  -2   8  -9 -6.8331 21.7982   3
   2  -8   9 -25.292  14.930   1
   3  -8   9 -28.313  14.836   1
   4  -8   9 25.7117 19.7855   1
   3   7  -9 148.887  34.978   3
   2   7  -9 71.8695 28.3179   3
   1   7  -9 116.365  33.804   3
   0   7  -9 -4.1539 21.3652   3
   0  -7   9 14.6080 15.1126   1
  -1   7  -9 148.895  35.123   3
   1  -7   9 83.1334 18.8934   1
  -2   7  -9  7.7870 22.1907   3
   2  -7   9 -15.416  13.436   1
   3  -7   9 410.469  36.834   1
   4  -7   9 234.917  31.181   1
   5  -7   9 -14.217  16.579   1
   4   6  -9 85.2944 25.7244   3
   3   6  -9 66.5995 25.1986   3
   2   6  -9 -0.6513 18.5236   3
   1   6  -9 215.937  37.388   3
  -1  -6   9 271.330  28.795   1
   0   6  -9 333.035  43.479   3
   0  -6   9 318.281  29.820   1
  -1   6  -9 -11.446  19.844   3
   1  -6   9  0.1717 12.6035   1
  -2   6  -9 332.047  44.816   3
   2  -6   9 308.897  30.602   1
   3  -6   9 44.9282 16.0927   1
   4  -6   9 17.8083 15.8744   1
   5  -6   9  9.7966 14.4546   1
   6  -6   9 22.4648 17.4376   1
   5   5  -9  2.1852 17.2105   3
   4   5  -9 30.1423 19.7247   3
   3   5  -9 90.9861 25.0767   3
   2   5  -9 22.0262 18.9502   3
  -2  -5   9 23.5164 13.5113   1
   1   5  -9 407.038  46.380   3
  -1  -5   9 502.421  34.707   1
   0   5  -9 125.834  27.791   3
   0  -5   9 128.842  20.441   1
  -1   5  -9 68.6016 24.2447   3
   1  -5   9 31.4021 13.5289   1
   2  -5   9 537.484  35.696   1
   3  -5   9 -20.264  11.964   1
   4  -5   9 274.899  29.117   1
   5  -5   9 -20.017  11.247   1
   6  -5   9 376.731  36.006   1
   6   4  -9 68.4809 25.4700   3
   5   4  -9 144.397  30.846   3
   4   4  -9 354.721  41.281   3
   3   4  -9 136.452  27.411   3
  -3  -4   9 149.575  18.744   1
   2   4  -9 676.358  50.435   3
  -2  -4   9 694.334  37.924   1
   1   4  -9 55.4336 21.3364   3
  -1  -4   9 64.7771 15.8502   1
   0   4  -9 378.673  41.731   3
   0  -4   9 394.564  30.762   1
  -1   4  -9 92.0727 24.4432   3
   1  -4   9 109.249  17.730   1
   2  -4   9 639.531  37.155   1
   3  -4   9 140.008  19.768   1
   4  -4   9 650.215  39.579   1
   5  -4   9 447.211  34.459   1
   6  -4   9 52.5222 17.3818   1
   7  -4   9 32.8113 16.5332   1
   7  -4   9 14.6758 19.8083   2
   6   3  -9 417.800  50.503   3
   5   3  -9 178.848  30.277   3
   4   3  -9 207.066  29.891   3
  -4  -3   9 131.806  17.439   1
   3   3  -9 93.3286 22.0262   3
  -3  -3   9 121.689  16.139   1
   2   3  -9 139.588  25.135   3
  -2  -3   9 152.113  18.077   1
   1   3  -9 295.835  35.209   3
  -1  -3   9 272.560  25.583   1
   0   3  -9 387.557  39.676   3
   0  -3   9 467.425  32.451   1
  -1   3  -9 381.249  40.619   3
   1  -3   9 425.522  29.058   1
   2  -3   9 90.4102 16.1649   1
   3  -3   9 -4.9178 10.3224   1
   4  -3   9 61.8823 15.6045   2
   4  -3   9 102.894  18.142   1
   5  -3   9 173.018  24.021   2
   5  -3   9 160.120  22.562   1
   6  -3   9  1.2140 12.1848   1
   6  -3   9 23.7654 17.2882   2
   7  -3   9 45.1234 17.3301   1
   7  -3   9 35.1927 22.3982   2
   7   2  -9 31.8828 23.4020   3
   6   2  -9 -4.0252 17.0769   3
   5   2  -9 38.5944 17.6143   3
  -5  -2   9 50.2374 13.5498   1
   4   2  -9 62.8818 18.7029   3
  -4  -2   9 111.887  16.194   1
   3   2  -9 28.9963 14.6263   3
  -3  -2   9 6.96105 9.72652   1
   2   2  -9 115.585  21.307   3
  -2  -2   9 101.999  15.746   1
   1   2  -9 393.895  38.136   3
  -1  -2   9 383.503  26.859   1
   0   2  -9 110.272  22.282   3
   0  -2   9 90.3928 16.0500   1
   1  -2   9 849.433  42.699   1
   2  -2   9 267.088  22.907   1
   2  -2   9 214.633  17.738   2
   3  -2   9 70.5242 14.4923   2
   3  -2   9 91.5767 15.7220   1
   4  -2   9 41.5326 13.4834   1
   4  -2   9 50.8722 15.2865   2
   5  -2   9 352.057  30.616   1
   5  -2   9 388.765  36.412   2
   6  -2   9 18.9919 14.7441   1
   6  -2   9 10.1204 17.3637   2
   7  -2   9 192.608  33.058   2
   7   1  -9 21.0497 19.9907   3
   6   1  -9 86.7647 23.7719   3
   5   1  -9 335.015  36.443   3
  -5  -1   9 284.164  25.119   1
   4   1  -9 97.1277 18.5125   3
  -4  -1   9 82.3990 14.8987   1
   3   1  -9 1259.54   63.57   3
  -3  -1   9 1249.75   53.65   1
   2   1  -9 401.474  32.928   3
  -2  -1   9 365.951  26.929   1
   1   1  -9 544.585  38.365   3
  -1  -1   9 471.472  29.016   1
   0   1  -9 34.7129 15.9654   3
   0  -1   9 72.7998 13.7778   1
   0  -1   9 68.8824  8.2057   2
   1  -1   9 19.8959  9.9420   2
   1  -1   9 18.7826 10.8119   1
   2  -1   9 16.8584 10.7697   1
   2  -1   9 27.4109 10.1333   2
   3  -1   9 158.898  18.586   1
   3  -1   9 167.308  19.642   2
   4  -1   9 273.740  24.238   1
   4  -1   9 263.661  27.746   2
   5  -1   9 13.4693 15.5469   2
   5  -1   9 24.1617 12.8316   1
   6  -1   9 142.539  21.292   1
   6  -1   9 188.748  29.385   2
   7  -1   9 111.010  29.095   2
   7   0  -9 432.660  46.307   3
   6   0  -9 122.833  23.348   3
  -6   0   9 101.954  19.012   1
   5   0  -9 165.856  25.139   3
  -5   0   9 226.297  22.463   1
   4   0  -9 200.883  23.303   3
  -4   0   9 204.785  20.649   1
   3   0  -9 20.6660 11.3384   3
  -3   0   9 45.0634 12.6000   1
   2   0  -9 154.918  20.582   3
  -2   0   9 129.127  17.243   1
   1   0  -9 150.427  20.748   3
  -1   0   9 105.585  12.319   2
  -1   0   9 131.659  16.408   1
   0   0   9 37.9148 10.7443   1
   0   0   9 22.9401  9.3505   2
   1   0   9 188.701  20.399   2
   1   0   9 164.683  18.780   1
   2   0   9 129.226  17.078   1
   2   0   9 112.758  17.572   2
   3   0   9 423.487  30.327   2
   3   0   9 459.257  29.952   1
   4   0   9 250.997  27.809   2
   4   0   9 242.352  23.409   1
   5   0   9 92.8703 16.0664   1
   5   0   9 79.9511 20.8026   2
   6   0   9 319.807  38.364   2
   7   0   9  0.3067 20.7512   2
   7  -1  -9 81.4920 16.6686   1
  -6   1   9  6.1852 12.4122   1
   5  -1  -9 241.998  26.432   3
  -5   1   9 250.642  24.118   1
   4  -1  -9 27.9975 11.5354   3
  -4   1   9 16.2920 11.2046   1
   3  -1  -9 74.3051 14.5581   3
  -3   1   9 73.7487 14.2837   1
   2  -1  -9 5.59650 9.79416   3
  -2   1   9 12.1507  9.0302   1
  -2   1   9 -9.9152  8.3669   2
  -1   1   9 1262.75   54.64   2
  -1   1   9 1235.25   52.74   1
   0   1   9 523.613  31.915   2
   0   1   9 537.511  30.786   1
   1   1   9 392.885  29.948   2
   1   1   9 393.860  25.225   1
   2   1   9 1348.12   65.02   2
   2   1   9 1311.82   54.42   1
   3   1   9 -5.5918  9.0703   1
   3   1   9  6.4890 14.2233   2
   4   1   9 157.756  24.137   2
   4   1   9 186.240  19.671   1
   5   1   9 -2.9231 15.5150   2
   6   1   9 212.746  33.830   2
   7   1   9 67.7881 26.7610   2
   8  -2  -9 33.9023 16.4154   1
   7  -2  -9 122.749  21.120   1
  -6   2   9 70.2600 17.3961   1
  -5   2   9 129.200  19.429   1
  -4   2   9 982.339  46.534   1
  -3   2   9 95.1511 15.5396   1
  -2   2   9 1318.91   62.05   2
  -2   2   9 1315.97   55.68   1
  -1   2   9 113.987  17.310   2
  -1   2   9 114.696  15.583   1
   0   2   9 163.371  17.500   1
   0   2   9 194.393  22.518   2
   1   2   9 14.0437 13.6828   2
   1   2   9 14.4793  9.5631   1
   2   2   9 254.916  21.005   1
   2   2   9 311.582  31.964   2
   3   2   9  6.7821 15.1124   2
   3   2   9 32.2263  9.8942   1
   4   2   9 116.655  24.598   2
   5   2   9 41.9398 22.4479   2
   6   2   9 10.5162 21.9073   2
   8  -3  -9 211.124  28.463   1
   7  -3  -9 11.7087 14.1720   1
  -5   3   9 306.825  28.839   1
  -4   3   9  6.9397 10.6862   1
  -3   3   9 32.4224 11.3448   1
  -3   3   9 19.0703 14.9122   2
  -2   3   9 23.6725 10.3750   1
  -2   3   9 46.6052 15.6495   2
  -1   3   9 11.2087  9.0698   1
  -1   3   9 12.3659 13.2107   2
   0   3   9 183.149  24.463   2
   0   3   9 208.622  19.734   1
   1   3   9 15.2767 14.8574   2
   1   3   9 34.9468 10.2879   1
   2   3   9 158.447  16.568   1
   2   3   9 175.786  27.412   2
   3   3   9 169.397  28.890   2
   4   3   9 120.080  27.517   2
   5   3   9 162.442  33.339   2
   6   3   9  3.3833 21.3896   2
   7  -4  -9 32.2491 19.1589   1
   6  -4  -9 106.603  22.164   1
  -5   4   9 126.129  20.324   1
  -4   4   9 28.5677 12.6508   1
  -3   4   9 171.519  27.087   2
  -3   4   9 206.965  21.428   1
  -2   4   9 58.3095 18.1518   2
  -2   4   9 87.3783 14.4621   1
  -1   4   9 765.170  37.629   1
  -1   4   9 705.959  46.178   2
   0   4   9 117.573  22.188   2
   0   4   9 129.153  16.115   1
   1   4   9 1337.68   53.55   1
   1   4   9 1257.64   68.37   2
   2   4   9 29.2752 18.8466   2
   3   4   9 270.080  36.785   2
   4   4   9 108.468  27.866   2
   5   4   9 30.4623 23.9947   2
   7  -5  -9 171.966  28.966   1
   6  -5  -9 14.3197 16.9884   1
   5  -5  -9 145.640  24.249   1
  -4   5   9 20.8524 11.5776   1
  -4   5   9 22.9647 17.9997   2
  -3   5   9 532.331  42.707   2
  -3   5   9 553.068  34.778   1
  -2   5   9 362.778  36.382   2
  -2   5   9 312.816  26.978   1
  -1   5   9 254.275  22.608   1
  -1   5   9 261.183  31.530   2
   0   5   9 375.616  37.610   2
   0   5   9 276.399  23.405   1
   1   5   9 83.4221 22.9920   2
   2   5   9 -1.5536 16.5493   2
   3   5   9 -9.1522 17.5518   2
   4   5   9  0.1070 20.6702   2
   5   5   9 47.0767 26.6925   2
   6  -6  -9 133.522  28.108   1
   5  -6  -9 11.1041 16.7793   1
   4  -6  -9 482.899  40.847   1
  -4   6   9 469.204  46.689   2
  -3   6   9 527.090  44.052   2
  -2   6   9 -1.4883 10.6141   1
  -2   6   9 -15.270  13.799   2
  -1   6   9 293.485  25.776   1
  -1   6   9 269.527  32.774   2
   0   6   9 -19.217  15.374   2
   1   6   9 192.790  32.029   2
   2   6   9  0.6137 18.7024   2
   3   6   9 320.691  41.419   2
   4   6   9 269.208  40.395   2
   6  -7  -9  0.8538 20.1508   1
   5  -7  -9 299.405  34.714   1
   4  -7  -9 15.6856 15.8649   1
  -4   7   9 39.4685 22.3486   2
   3  -7  -9 61.2541 17.4260   1
  -3   7   9 72.6253 23.7377   2
   2  -7  -9  2.9454 13.8130   1
  -2   7   9 34.0959 18.5962   2
  -1   7   9 87.5923 23.3882   2
   0   7   9 150.413  29.833   2
   1   7   9  9.8514 19.0990   2
   2   7   9 200.453  34.677   2
   4  -8  -9 58.9265 20.5849   1
  -4   8   9 94.2045 30.0129   2
   3  -8  -9 -16.310  13.274   1
  -3   8   9 -7.0161 19.8623   2
  -2   8   9 40.3346 21.9036   2
  -1   8   9 59.0844 23.2957   2
   0   8   9 -25.218  16.763   2
   1   8   9 36.4216 24.5295   2
   1   8 -10 221.790  44.095   3
   0   8 -10 231.560  44.575   3
  -1   8 -10  5.4662 25.1779   3
   1  -8  10 -12.017  15.608   1
   2  -8  10 66.9722 21.3824   1
   3  -8  10  4.7965 18.2160   1
   3   7 -10 -0.7121 20.8417   3
   2   7 -10 -11.640  21.568   3
   1   7 -10 160.316  37.758   3
   0   7 -10 31.0901 25.4487   3
   0  -7  10 19.2400 17.4791   1
  -1   7 -10 45.1911 27.6420   3
   1  -7  10 78.0411 20.7202   1
   2  -7  10 10.8924 15.6123   1
   3  -7  10 232.044  30.051   1
   4  -7  10 161.438  27.066   1
   5  -7  10  0.9814 16.5716   1
   4   6 -10 81.1893 26.9078   3
   3   6 -10 81.3172 27.3359   3
   2   6 -10 28.4484 20.8324   3
   1   6 -10 129.516  32.573   3
  -1  -6  10 128.900  22.926   1
   0   6 -10 146.287  33.389   3
   0  -6  10 202.487  26.865   1
  -1   6 -10 52.9390 25.1347   3
   1  -6  10 35.7463 15.9165   1
   2  -6  10 386.425  34.198   1
   3  -6  10 32.9960 17.1717   1
   4  -6  10 50.8897 18.2422   1
   5  -6  10 81.8990 20.3263   1
   6  -6  10 -26.781  12.619   1
   5   5 -10 10.3446 20.1124   3
   4   5 -10 123.704  28.249   3
   3   5 -10 19.9827 19.5280   3
   2   5 -10 335.789  42.854   3
  -2  -5  10 359.073  30.514   1
   1   5 -10 182.485  34.406   3
  -1  -5  10 221.214  25.625   1
   0   5 -10  5.1548 17.8950   3
   0  -5  10 33.4862 15.9088   1
  -1   5 -10 147.165  31.000   3
   1  -5  10 224.347  25.102   1
   2  -5  10 263.564  27.884   1
   3  -5  10 16.9031 14.5619   1
   4  -5  10 36.4970 16.7765   1
   5  -5  10 -1.5513 12.8309   1
   6  -5  10 -4.5064 13.5872   1
   6   4 -10 16.4358 19.8274   3
   5   4 -10 71.7795 23.9686   3
   4   4 -10 36.0962 20.6922   3
   3   4 -10 275.419  35.964   3
  -3  -4  10 262.838  25.340   1
   2   4 -10 725.938  53.967   3
  -2  -4  10 751.500  40.564   1
   1   4 -10 107.128  26.903   3
  -1  -4  10 122.705  19.841   1
   0   4 -10 174.704  29.923   3
   0  -4  10 148.365  21.548   1
  -1   4 -10 395.270  42.717   3
   1  -4  10 343.344  30.349   1
   2  -4  10  9.6113 11.6845   1
   3  -4  10 113.198  19.377   1
   4  -4  10 125.972  20.436   1
   5  -4  10 738.948  44.967   1
   6  -4  10 -0.5079 13.6057   1
   6   3 -10 438.423  48.072   3
   5   3 -10 115.186  25.953   3
   4   3 -10 188.956  30.463   3
  -4  -3  10 245.060  23.797   1
   3   3 -10 614.935  46.181   3
  -3  -3  10 572.835  33.857   1
   2   3 -10 24.4857 17.3620   3
  -2  -3  10  9.2816 11.0319   1
   1   3 -10 682.749  51.971   3
  -1  -3  10 702.970  39.525   1
   0   3 -10 104.010  24.628   3
   0  -3  10 92.2046 18.4979   1
  -1   3 -10 1426.02   77.55   3
   1  -3  10 1310.33   60.31   1
   2  -3  10 68.0985 15.1095   1
   3  -3  10 767.416  42.401   1
   4  -3  10 416.914  32.601   1
   5  -3  10 12.7823 12.7162   1
   6  -3  10 128.226  22.394   1
   7  -3  10 37.6233 18.0425   1
   6   2 -10 33.2647 18.9049   3
   5   2 -10 141.572  26.959   3
  -5  -2  10 170.620  20.686   1
   4   2 -10 152.317  25.708   3
  -4  -2  10 154.575  19.970   1
   3   2 -10 281.443  32.507   3
  -3  -2  10 300.063  26.658   1
   2   2 -10 513.801  40.069   3
  -2  -2  10 501.281  32.057   1
   1   2 -10 219.001  29.783   3
  -1  -2  10 202.623  21.593   1
   0   2 -10 837.738  55.761   3
   0  -2  10 901.630  45.085   1
   1  -2  10 88.7958 17.5213   1
   2  -2  10 119.257  18.119   1
   3  -2  10 267.481  25.346   1
   4  -2  10 93.3103 18.3598   2
   4  -2  10 76.3715 16.6291   1
   5  -2  10 309.707  29.618   1
   5  -2  10 375.618  36.170   2
   6  -2  10 38.3788 16.2448   1
   6  -2  10 37.6217 20.3349   2
   7  -2  10 174.839  32.437   2
   7   1 -10 -1.8606 17.7801   3
   6   1 -10 239.647  33.193   3
   5   1 -10 -2.3422 12.4237   3
  -5  -1  10 -4.7053 10.4696   1
   4   1 -10 426.966  35.282   3
  -4  -1  10 446.864  31.598   1
   3   1 -10 135.370  22.173   3
  -3  -1  10 139.737  18.865   1
   2   1 -10 15.9082 14.3658   3
  -2  -1  10 34.3903 13.0049   1
   1   1 -10 786.775  48.986   3
  -1  -1  10 780.035  39.615   1
   0   1 -10 120.776  22.391   3
   0  -1  10 121.065  17.604   1
   1  -1  10 228.385  22.624   1
   2  -1  10 219.886  21.415   2
   2  -1  10 175.087  21.389   1
   3  -1  10 180.648  21.102   1
   3  -1  10 168.047  20.419   2
   4  -1  10 107.381  18.196   1
   4  -1  10 146.108  22.011   2
   5  -1  10 52.6396 18.3518   2
   5  -1  10 47.4998 15.8167   1
   6  -1  10 206.174  26.022   1
   6  -1  10 192.531  30.440   2
   7  -1  10 52.4061 26.2118   2
   6   0 -10 13.2405 15.5248   3
  -6   0  10 -18.931  11.732   1
   5   0 -10 383.352  31.875   3
  -5   0  10 377.057  29.747   1
   4   0 -10 302.907  30.203   3
  -4   0  10 376.931  27.897   1
   3   0 -10  5.0243 11.7209   3
  -3   0  10 15.7925 12.0751   1
   2   0 -10 60.3050 17.1192   3
  -2   0  10 43.2383 12.8284   1
   1   0 -10 32.8176 14.3969   3
  -1   0  10 43.5217  9.8255   2
  -1   0  10 52.9643 13.6562   1
   0   0  10 -5.0749  8.4807   1
   0   0  10 17.0992  9.6441   2
   1   0  10 71.5942 14.5965   2
   1   0  10 24.9277 11.7826   1
   2   0  10 298.115  25.256   1
   2   0  10 273.501  27.447   2
   3   0  10 326.007  31.027   2
   3   0  10 317.668  27.133   1
   4   0  10 38.3040 13.9926   1
   4   0  10 36.5409 15.9829   2
   5   0  10 140.951  20.758   1
   5   0  10 125.561  24.293   2
   6   0  10 150.543  29.044   2
   7   0  10  2.1185 22.0259   2
  -7   1  10 -12.636  14.103   1
  -6   1  10 40.7684 15.8189   1
  -5   1  10 122.314  18.664   1
  -4   1  10 103.209  18.035   1
   3  -1 -10 27.3713 12.3315   3
  -3   1  10  4.7094 10.8800   1
   2  -1 -10  7.8566 11.5912   3
  -2   1  10 14.8742 10.2483   2
  -2   1  10 4.68504 9.87214   1
  -1   1  10 593.781  34.676   2
  -1   1  10 594.866  33.632   1
   0   1  10 216.855  21.489   2
   0   1  10 193.147  20.514   1
   1   1  10 260.599  26.090   2
   1   1  10 265.429  22.379   1
   2   1  10 968.538  54.156   2
   2   1  10 1012.86   45.61   1
   3   1  10 85.2940 14.7533   1
   3   1  10 91.8783 21.9614   2
   4   1  10 136.154  25.752   2
   4   1  10 153.865  19.391   1
   5   1  10 90.2343 23.1656   2
   6   1  10 32.2318 21.5871   2
  -6   2  10 132.557  21.647   1
  -5   2  10 101.572  18.859   1
  -4   2  10 498.068  32.319   1
  -3   2  10 342.021  27.996   1
  -2   2  10 1893.17   82.34   2
  -2   2  10 1929.10   76.06   1
  -1   2  10 56.8116 13.1324   1
  -1   2  10 61.3930 15.1229   2
   0   2  10 355.964  25.762   1
   0   2  10 330.978  29.740   2
   1   2  10 537.655  31.012   1
   1   2  10 521.531  37.879   2
   2   2  10  9.8007 15.5589   2
   2   2  10 -1.3574  8.8787   1
   3   2  10 310.042  34.623   2
   3   2  10 278.216  22.213   1
   4   2  10  2.0777 16.8609   2
   5   2  10 388.529  43.787   2
   6   2  10  6.6488 22.3429   2
   7  -3 -10 10.2646 15.6259   1
  -6   3  10 432.219  36.944   1
  -5   3  10 80.7163 18.2418   1
  -4   3  10 244.510  24.700   1
  -3   3  10 438.544  29.899   1
  -3   3  10 502.180  38.417   2
  -2   3  10 74.4922 14.3367   1
  -2   3  10 77.7440 17.7496   2
  -1   3  10 394.753  33.689   2
  -1   3  10 353.543  27.173   1
   0   3  10 45.3395 12.4484   1
   0   3  10 21.7075 14.2007   2
   1   3  10 104.983  21.157   2
   1   3  10 94.0707 14.3212   1
   2   3  10 34.0954 18.9446   2
   2   3  10 53.1919 13.1356   1
   3   3  10 120.201  26.575   2
   4   3  10 253.812  37.290   2
   5   3  10  9.7319 21.2061   2
   7  -4 -10 352.294  37.903   1
  -5   4  10 75.3192 17.7862   1
  -4   4  10 321.504  29.463   1
  -3   4  10 14.2719 15.9990   2
  -3   4  10 18.2167 11.1427   1
  -2   4  10 299.880  31.981   2
  -2   4  10 294.833  25.396   1
  -1   4  10 20.4458 10.4508   1
  -1   4  10  5.3453 14.4308   2
   0   4  10 600.081  43.700   2
   0   4  10 611.093  34.068   1
   1   4  10 286.036  23.506   1
   1   4  10 307.699  34.516   2
   2   4  10 223.763  31.802   2
   3   4  10 328.470  39.890   2
   4   4  10 59.8108 25.7714   2
   5   4  10 87.3725 30.1990   2
   7  -5 -10 59.0836 22.3070   1
   6  -5 -10 35.7069 19.4507   1
  -4   5  10 132.418  28.404   2
  -4   5  10 183.673  23.569   1
  -3   5  10 199.786  23.389   1
  -3   5  10 255.275  32.570   2
  -2   5  10 12.0342 15.0954   2
  -2   5  10 20.6155 11.9495   1
  -1   5  10 663.224  37.374   1
  -1   5  10 658.682  46.830   2
   0   5  10 179.610  28.736   2
   0   5  10 229.217  21.827   1
   1   5  10  2.4307 17.8452   2
   2   5  10 25.9574 20.8786   2
   3   5  10 17.3282 20.4178   2
   4   5  10 -13.024  19.981   2
   6  -6 -10 10.2985 19.1165   1
   5  -6 -10 130.101  26.376   1
   4  -6 -10 373.990  34.826   1
  -4   6  10 259.692  36.695   2
  -3   6  10 23.6016 13.3761   1
  -3   6  10 29.4938 19.7644   2
  -2   6  10 24.5967 13.2880   1
  -2   6  10 40.5999 19.0725   2
  -1   6  10 157.526  26.053   2
  -1   6  10 153.108  20.279   1
   0   6  10 41.6185 21.8708   2
   1   6  10 231.897  35.292   2
   2   6  10 -18.067  17.044   2
   3   6  10 223.655  36.503   2
   5  -7 -10 372.056  39.959   1
   4  -7 -10 79.7301 20.1691   1
  -4   7  10 132.638  29.893   2
   3  -7 -10 117.824  22.125   1
  -3   7  10 92.6390 26.0778   2
   2  -7 -10 190.599  24.711   1
  -2   7  10 146.980  28.909   2
  -1   7  10 128.822  26.139   2
   0   7  10 204.927  33.891   2
   1   7  10 124.392  30.495   2
   2   7  10 428.254  48.994   2
   4  -8 -10 45.6559 19.2467   1
   3  -8 -10 66.1667 19.7276   1
  -3   8  10 25.1706 22.2481   2
  -2   8  10 202.258  33.836   2
  -1   8  10 32.2819 21.4837   2
   0   8  10 43.7174 24.1788   2
  -1   8 -11  7.6989 24.8635   3
   1  -8  11 -3.0366 18.5222   1
   2   7 -11 79.4512 29.9415   3
   1   7 -11 103.854  33.041   3
   0   7 -11 -16.707  20.238   3
   0  -7  11  8.9925 19.0916   1
  -1   7 -11 35.2364 26.7052   3
   1  -7  11 58.7748 20.3614   1
   2  -7  11  2.8023 16.1876   1
   3  -7  11 46.5742 19.8946   1
   4  -7  11 10.6458 20.1123   1
   3   6 -11 79.6455 27.1821   3
   2   6 -11 224.204  38.713   3
   1   6 -11 -21.455  18.745   3
  -1  -6  11 10.5838 16.6101   1
   0   6 -11 57.2250 25.4312   3
   0  -6  11 43.3914 18.9520   1
  -1   6 -11  5.9389 19.3083   3
   1  -6  11  3.8691 15.3159   1
   2  -6  11 208.316  27.418   1
   3  -6  11 -13.426  13.703   1
   4  -6  11 220.420  30.492   1
   5  -6  11 159.850  26.410   1
   4   5 -11 139.026  31.387   3
   3   5 -11 42.7203 21.7954   3
   2   5 -11 171.669  33.698   3
  -2  -5  11 266.205  27.024   1
   1   5 -11  4.4866 17.3499   3
  -1  -5  11  6.1145 15.4963   1
   0   5 -11 215.363  37.103   3
   0  -5  11 309.920  31.830   1
  -1   5 -11 93.9716 26.3053   3
   1  -5  11 130.806  21.835   1
   2  -5  11 19.5905 14.6211   1
   3  -5  11 63.1387 18.7057   1
   4  -5  11 164.977  24.557   1
   5  -5  11 35.1497 17.6253   1
   6  -5  11 81.7339 21.1998   1
   5   4 -11 -11.817  16.770   3
   4   4 -11 20.4967 19.3178   3
   3   4 -11 89.5109 25.0837   3
  -3  -4  11 127.103  19.835   1
   2   4 -11 263.226  37.051   3
  -2  -4  11 282.903  27.221   1
   1   4 -11 20.8725 19.4626   3
  -1  -4  11  8.5094 13.8209   1
   0   4 -11 312.360  40.598   3
   0  -4  11 378.922  33.794   1
  -1   4 -11 74.3400 24.8938   3
   1  -4  11 86.1107 18.9550   1
   2  -4  11 243.692  27.065   1
   3  -4  11 14.0422 12.6683   1
   4  -4  11 178.137  24.480   1
   5  -4  11 55.8546 19.3829   1
   6  -4  11 50.5722 19.8680   1
   6   3 -11 229.681  36.302   3
   5   3 -11 10.3325 16.6351   3
   4   3 -11 425.096  44.733   3
  -4  -3  11 465.789  33.192   1
   3   3 -11 143.129  27.194   3
  -3  -3  11 192.767  22.261   1
   2   3 -11 33.7211 19.2060   3
  -2  -3  11 68.3418 16.0465   1
   1   3 -11 91.5833 23.0765   3
  -1  -3  11 94.7126 18.2356   1
   0   3 -11 405.136  43.464   3
   0  -3  11 351.911  31.623   1
   1  -3  11 112.448  20.833   1
   2  -3  11 172.042  21.766   1
   3  -3  11 262.640  27.080   1
   4  -3  11 29.7484 14.5488   1
   5  -3  11 85.2514 19.6108   1
   6  -3  11 70.4724 19.9597   1
   6   2 -11 22.2230 19.2931   3
   5   2 -11 115.722  24.008   3
  -5  -2  11 106.965  18.942   1
   4   2 -11  6.5054 15.0350   3
  -4  -2  11 14.9881 13.1756   1
   3   2 -11  8.3188 14.4195   3
  -3  -2  11 -11.846  10.783   1
   2   2 -11 12.5812 16.0429   3
  -2  -2  11 -3.9134 11.4312   1
   1   2 -11 128.356  25.277   3
  -1  -2  11 142.929  19.366   1
   0   2 -11 212.588  30.228   3
   0  -2  11 196.155  23.845   1
   1  -2  11 25.4805 13.1369   1
   2  -2  11 416.151  34.197   1
   3  -2  11 141.382  20.637   1
   4  -2  11  6.9115 12.7085   1
   5  -2  11 182.131  24.285   1
   6  -2  11 33.9334 16.7009   1
   6   1 -11  4.7494 14.8491   3
   5   1 -11 57.9127 19.4925   3
  -5  -1  11 65.1483 16.9188   1
   4   1 -11 130.779  23.538   3
  -4  -1  11 92.4777 18.2242   1
   3   1 -11 10.2597 13.8053   3
  -3  -1  11 16.6997 12.0576   1
   2   1 -11 191.888  27.884   3
  -2  -1  11 177.408  21.423   1
   1   1 -11 711.260  48.863   3
  -1  -1  11 778.364  39.997   1
   0  -1  11 179.315  20.958   1
   1  -1  11 406.619  32.406   1
   2  -1  11 468.854  33.609   1
   3  -1  11 54.7533 15.7086   1
   4  -1  11 110.914  20.330   2
   4  -1  11 98.5084 19.3442   1
   5  -1  11 191.969  27.521   2
   5  -1  11 140.807  22.331   1
   6  -1  11 174.213  30.807   2
  -6   0  11  1.6219 13.8474   1
  -5   0  11 616.502  38.599   1
   4   0 -11 219.085  26.742   3
  -4   0  11 222.366  25.020   1
   3   0 -11 341.449  32.322   3
  -3   0  11 276.643  27.003   1
   2   0 -11 809.336  48.531   3
  -2   0  11 802.285  43.378   1
   1   0 -11  6.5098 12.8712   3
  -1   0  11 -5.6319 10.4237   1
   0   0  11 230.255  22.645   1
   1   0  11 -1.5341  9.5703   1
   1   0  11 12.2798 12.0971   2
   2   0  11 442.131  31.144   1
   2   0  11 420.323  33.661   2
   3   0  11 12.0872 11.6081   1
   3   0  11  1.6497 12.9444   2
   4   0  11 83.3545 18.0741   1
   4   0  11 65.5444 20.2959   2
   5   0  11 88.6033 23.1567   2
   5   0  11 106.605  20.744   1
   6   0  11 14.0287 20.1475   2
  -7   1  11 69.0994 20.9223   1
  -6   1  11 133.953  22.228   1
  -5   1  11 77.4564 17.7929   1
  -4   1  11 33.1654 13.9749   1
  -3   1  11  9.8095 11.6519   1
   2  -1 -11  4.2158 11.7249   3
  -2   1  11  4.0383 10.3535   1
  -1   1  11 38.7460 12.2808   2
  -1   1  11 15.1062 10.8778   1
   0   1  11 10.8756 12.1472   2
   0   1  11 19.4970 10.4854   1
   1   1  11 7.65790 9.54539   1
   1   1  11 21.4130 13.9696   2
   2   1  11 346.193  25.952   1
   2   1  11 300.833  32.204   2
   3   1  11 -2.6635  9.4165   1
   3   1  11 15.0517 16.5123   2
   4   1  11 444.503  43.003   2
   4   1  11 465.764  31.568   1
   5   1  11 25.9481 21.0876   2
   6   1  11 175.861  35.259   2
  -7   2  11 30.7394 18.2245   1
  -6   2  11 66.5061 18.9265   1
  -5   2  11 -9.3160 12.2446   1
  -4   2  11 178.565  22.641   1
  -3   2  11  5.8193 10.9691   1
  -2   2  11 836.369  46.687   2
  -2   2  11 796.597  42.879   1
  -1   2  11  3.7377 12.0341   2
  -1   2  11 -1.9114 10.1709   1
   0   2  11 541.566  37.596   2
   0   2  11 548.913  33.228   1
   1   2  11 253.398  28.838   2
   1   2  11 213.702  21.034   1
   2   2  11 163.674  18.703   1
   2   2  11 156.475  25.459   2
   3   2  11 124.354  16.836   1
   3   2  11 132.331  26.634   2
   4   2  11  2.4847 19.3156   2
   5   2  11 92.1516 28.6217   2
   6   2  11 37.6747 26.2964   2
   7  -3 -11 22.2362 15.5699   1
  -6   3  11 223.954  28.439   1
  -5   3  11 38.2142 15.8330   1
  -4   3  11 425.547  31.388   1
  -3   3  11 259.415  26.191   1
  -3   3  11 306.777  31.814   2
  -2   3  11 17.7879 13.2726   2
  -2   3  11  7.6234 10.3943   1
  -1   3  11 108.802  17.244   1
  -1   3  11 92.7822 18.6056   2
   0   3  11 37.2828 16.7947   2
   0   3  11  5.4779 10.4145   1
   1   3  11 21.9185 10.9127   1
   1   3  11  2.1923 14.5309   2
   2   3  11 30.7341 18.4070   2
   2   3  11 3.28249 9.74783   1
   3   3  11 37.0247 21.3093   2
   4   3  11 81.3256 25.0068   2
   5   3  11 10.4712 21.9416   2
   7  -4 -11 201.245  30.209   1
  -6   4  11 -4.1715 14.8903   1
  -5   4  11 31.5695 16.0814   1
  -4   4  11 134.089  21.528   1
  -3   4  11 184.271  29.182   2
  -3   4  11 157.473  20.669   1
  -2   4  11 23.2099 12.3887   1
  -2   4  11 -0.7720 14.0223   2
  -1   4  11  4.0609 10.3824   1
  -1   4  11 -8.3423 12.8470   2
   0   4  11 197.016  20.952   1
   0   4  11 206.690  28.428   2
   1   4  11 45.5270 19.1407   2
   1   4  11 47.8768 13.3848   1
   2   4  11 246.343  34.055   2
   3   4  11 145.042  29.451   2
   4   4  11 26.0578 24.3654   2
   6  -5 -11 37.2489 19.0184   1
  -5   5  11 184.489  25.626   1
  -4   5  11 87.0645 25.5519   2
  -4   5  11 31.9156 15.3152   1
  -3   5  11 106.725  25.213   2
  -3   5  11 81.3504 17.7314   1
  -2   5  11 49.7351 19.3374   2
  -2   5  11 23.1044 13.0308   1
  -1   5  11 454.089  30.957   1
  -1   5  11 355.580  35.880   2
   0   5  11 29.9648 19.7737   2
   0   5  11 44.1696 13.0679   1
   1   5  11 221.330  32.958   2
   2   5  11 143.008  29.055   2
   3   5  11  9.3703 21.2960   2
   4   5  11 35.2920 24.3579   2
   6  -6 -11 26.6038 20.7640   1
   5  -6 -11 145.747  27.222   1
  -4   6  11 40.7437 22.6962   2
  -3   6  11 96.3227 25.9527   2
  -3   6  11 64.1795 17.3631   1
  -2   6  11 151.116  27.584   2
  -2   6  11 131.344  20.765   1
  -1   6  11  3.2725 16.1928   2
  -1   6  11 -7.9323 11.1264   1
   0   6  11 -13.579  16.801   2
   1   6  11 81.1978 26.1797   2
   2   6  11 10.1328 20.6864   2
   3   6  11 59.9435 27.1377   2
   5  -7 -11 170.519  29.795   1
   4  -7 -11 34.2735 18.4337   1
  -4   7  11 -3.3905 18.8956   2
   3  -7 -11 57.7524 19.4072   1
  -3   7  11 72.7589 26.5469   2
   2  -7 -11 194.969  25.469   1
  -2   7  11 174.935  31.013   2
  -1   7  11 27.3297 18.5523   2
   0   7  11 166.949  33.372   2
   1   7  11  3.8706 21.7608   2
   1   7 -12 13.3502 22.9152   3
   0   7 -12 122.063  34.983   3
   0  -7  12 188.922  29.837   1
  -1   7 -12 81.7848 31.0353   3
   1  -7  12 71.8710 24.6838   1
   2  -7  12 12.6086 18.5989   1
   3  -7  12 22.8791 19.1385   1
   3   6 -12 153.059  35.440   3
   2   6 -12 108.444  32.253   3
   1   6 -12 30.1773 22.7156   3
  -1  -6  12 21.2072 18.0238   1
   0   6 -12 41.8625 24.8043   3
   0  -6  12 10.4377 19.0848   1
  -1   6 -12 -9.7734 18.9536   3
   1  -6  12 50.7303 19.3680   1
   2  -6  12 107.864  23.271   1
   3  -6  12 -2.4750 16.2311   1
   4  -6  12 251.038  32.029   1
   4   5 -12 166.941  34.526   3
   3   5 -12 13.1826 21.0825   3
   2   5 -12 67.1967 25.7283   3
  -2  -5  12 88.8673 18.8581   1
   1   5 -12  1.9276 17.6363   3
  -1  -5  12 -4.3491 14.4859   1
   0   5 -12 252.451  39.955   3
   0  -5  12 251.721  30.144   1
  -1   5 -12 182.593  34.047   3
   1  -5  12 184.493  28.110   1
   2  -5  12 45.6604 18.2601   1
   3  -5  12 101.354  21.027   1
   4  -5  12 50.2510 18.6837   1
   5  -5  12 -4.7094 15.1880   1
   5   4 -12 47.8958 24.5894   3
   4   4 -12 82.1977 24.9933   3
   3   4 -12 68.5617 24.1496   3
  -3  -4  12 60.6409 17.3720   1
   2   4 -12 -17.547  16.044   3
  -2  -4  12 -5.7349 12.1444   1
   1   4 -12 79.8823 25.4142   3
  -1  -4  12 147.780  22.106   1
   0   4 -12 177.670  33.368   3
   0  -4  12 182.039  25.648   1
   1  -4  12 53.2907 20.0770   1
   2  -4  12 229.110  27.411   1
   3  -4  12 253.271  29.128   1
   4  -4  12 14.0783 14.1434   1
   5  -4  12 215.387  28.167   1
   5   3 -12 -16.948  16.719   3
   4   3 -12 144.833  28.752   3
  -4  -3  12 201.719  25.464   1
   3   3 -12 137.599  28.581   3
  -3  -3  12 158.656  21.785   1
   2   3 -12 111.599  26.998   3
  -2  -3  12 143.752  21.312   1
   1   3 -12 844.686  57.321   3
  -1  -3  12 763.492  43.564   1
   0   3 -12 11.6121 17.6447   3
   0  -3  12  3.9939 13.3472   1
   1  -3  12 400.124  35.081   1
   2  -3  12 -13.560  12.816   1
   3  -3  12 98.4507 20.1916   1
   4  -3  12 42.3845 15.7652   1
   5  -3  12 211.068  27.123   1
   6  -3  12 154.895  25.325   1
   6   2 -12 54.4877 22.7443   3
   5   2 -12 621.044  49.783   3
  -5  -2  12 701.244  42.124   1
   4   2 -12 -1.2726 15.1505   3
  -4  -2  12  4.8229 13.9145   1
   3   2 -12 462.512  39.636   3
  -3  -2  12 364.561  32.301   1
   2   2 -12 49.2760 19.7058   3
  -2  -2  12 34.3252 14.5368   1
   1   2 -12 338.634  38.897   3
  -1  -2  12 377.644  29.275   1
   0   2 -12 107.267  24.522   3
   0  -2  12 62.0062 16.3180   1
   1  -2  12 124.599  20.338   1
   2  -2  12 384.121  34.227   1
   3  -2  12 -21.110  12.206   1
   4  -2  12 127.821  21.453   1
   5  -2  12 50.2638 18.0757   1
   6  -2  12 23.1632 16.9146   1
   5   1 -12  9.0502 15.0897   3
  -5  -1  12 -5.8643 12.6994   1
   4   1 -12 67.9272 19.8150   3
  -4  -1  12 55.7765 17.3879   1
   3   1 -12 26.3933 16.1093   3
  -3  -1  12 26.1608 13.7012   1
   2   1 -12 199.064  28.178   3
  -2  -1  12 241.409  24.954   1
   1   1 -12 430.212  40.474   3
  -1  -1  12 329.588  29.422   1
   0  -1  12 33.4097 12.6338   1
   1  -1  12 427.499  31.223   1
   2  -1  12 144.753  20.961   1
   3  -1  12 26.4022 14.4635   1
   4  -1  12 119.690  21.528   1
   5  -1  12 21.5944 16.6607   1
  -6   0  12 16.2558 16.2102   1
  -5   0  12 451.711  35.316   1
  -4   0  12 27.3607 15.1541   1
   3   0 -12 495.933  41.202   3
  -3   0  12 533.938  36.275   1
   2   0 -12 810.390  49.647   3
  -2   0  12 739.122  43.032   1
  -1   0  12 64.7536 15.4972   1
   0   0  12 396.933  28.852   1
   1   0  12 32.4820 12.1712   1
   2   0  12 346.332  28.715   1
   3   0  12 47.6630 15.5564   1
   4   0  12 180.982  28.609   2
   4   0  12 172.005  23.027   1
   5   0  12 69.9548 25.5206   2
   6   0  12 55.0680 26.2336   2
  -7   1  12 154.925  26.287   1
  -6   1  12 200.027  27.344   1
  -5   1  12 14.8520 14.0339   1
  -4   1  12 344.162  30.735   1
  -3   1  12 423.294  33.009   1
  -2   1  12 10.9062 11.3971   1
  -1   1  12 135.696  19.442   1
   0   1  12 11.6047 11.5035   1
   1   1  12 79.4026 17.8453   2
   1   1  12 56.0342 14.1218   1
   2   1  12 -9.0087  9.5266   1
   2   1  12 19.6190 15.4897   2
   3   1  12 72.8551 15.1106   1
   3   1  12 44.8409 19.5746   2
   4   1  12 408.492  30.358   1
   4   1  12 357.241  40.739   2
   5   1  12 -4.9337 17.8411   2
  -7   2  12 254.735  32.957   1
  -6   2  12 68.8096 20.1897   1
  -5   2  12 79.4540 19.2552   1
  -4   2  12 72.9382 17.7447   1
  -3   2  12 -10.615  10.591   1
  -2   2  12 122.703  19.230   1
  -1   2  12 76.3184 17.4929   2
  -1   2  12 69.7468 15.4271   1
   0   2  12 400.934  30.125   1
   0   2  12 452.209  34.485   2
   1   2  12 138.516  23.191   2
   1   2  12 179.134  19.854   1
   2   2  12 393.189  37.658   2
   2   2  12 380.061  28.644   1
   3   2  12 520.555  33.416   1
   3   2  12 584.456  48.062   2
   4   2  12 -3.9649 19.3321   2
   5   2  12 156.049  34.207   2
  -6   3  12 111.103  22.891   1
  -5   3  12  8.0523 13.5742   1
  -4   3  12 332.657  30.529   1
  -3   3  12 195.359  24.431   1
  -3   3  12 253.471  30.323   2
  -2   3  12 59.9941 17.8664   2
  -2   3  12 64.3265 15.3790   1
  -1   3  12 757.761  42.203   1
  -1   3  12 730.733  44.931   2
   0   3  12 20.9043 16.3179   2
   0   3  12 40.3681 13.7317   1
   1   3  12 302.219  26.110   1
   1   3  12 214.528  29.946   2
   2   3  12  7.9017 17.5246   2
   2   3  12 18.3417 11.3288   1
   3   3  12 16.0711 19.4775   2
   4   3  12 55.6178 25.5954   2
   5   3  12 -14.609  22.258   2
  -6   4  12 10.9367 16.5953   1
  -5   4  12 160.519  24.610   1
  -4   4  12 19.9322 13.5656   1
  -3   4  12  5.1251 11.2946   1
  -3   4  12 39.4792 18.1458   2
  -2   4  12 18.0629 16.6617   2
  -2   4  12 60.5759 16.2350   1
  -1   4  12  8.4848 11.1561   1
  -1   4  12 16.4524 14.8357   2
   0   4  12 50.3151 14.3965   1
   0   4  12 94.1471 22.9098   2
   1   4  12 75.0456 15.8227   1
   1   4  12 45.2134 20.5647   2
   2   4  12 42.9002 21.2578   2
   3   4  12 45.3300 23.6474   2
   4   4  12 -3.9352 21.1936   2
   6  -5 -12 102.732  24.067   1
  -5   5  12 238.450  29.461   1
  -4   5  12 80.0832 19.2145   1
  -4   5  12 68.3211 25.1045   2
  -3   5  12 189.776  24.626   1
  -3   5  12 196.310  32.024   2
  -2   5  12 21.5942 17.9890   2
  -2   5  12 47.3499 14.9708   1
  -1   5  12 321.327  35.333   2
  -1   5  12 352.673  29.887   1
   0   5  12 48.4962 20.7850   2
   0   5  12 21.3018 12.3563   1
   1   5  12 284.073  37.472   2
   2   5  12 103.315  27.269   2
   3   5  12 45.1790 22.8016   2
   5  -6 -12 153.662  28.726   1
  -4   6  12 17.4863 14.4410   1
  -4   6  12 -9.6122 19.7609   2
  -3   6  12 231.634  28.220   1
  -3   6  12 244.343  36.580   2
  -2   6  12 189.229  24.495   1
  -2   6  12 158.259  30.147   2
  -1   6  12  8.3115 17.2303   2
  -1   6  12  7.4588 13.7067   1
   0   6  12 95.3356 26.2679   2
   1   6  12 187.686  33.705   2
   2   6  12 -4.3429 21.0176   2
   4  -7 -12 77.1973 22.2908   1
   3  -7 -12 247.457  30.420   1
  -3   7  12 289.431  40.424   2
  -2   7  12 49.5674 21.3385   2
  -1   7  12 76.1742 24.7820   2
   0   7  12 50.6870 25.8487   2
  -1   7 -13 82.0458 30.7795   3
   1  -7  13 79.5500 26.3649   1
   2   6 -13  5.1611 21.3119   3
   1   6 -13 250.621  42.141   3
  -1  -6  13 210.824  30.090   1
   0   6 -13 67.8370 28.4659   3
   0  -6  13 40.7436 21.9802   1
  -1   6 -13 71.8551 26.8002   3
   1  -6  13 33.7080 22.5518   1
   2  -6  13 91.1544 24.9346   1
   3  -6  13 10.4685 19.0359   1
   3   5 -13 -2.6115 18.7905   3
   2   5 -13 88.4336 28.2989   3
  -2  -5  13 89.1237 20.2630   1
   1   5 -13 23.4711 20.3691   3
  -1  -5  13 -15.568  15.188   1
   0   5 -13 99.1894 28.7626   3
   0  -5  13 137.641  25.144   1
   1  -5  13 42.9139 21.3880   1
   2  -5  13 56.1538 19.8578   1
   3  -5  13 118.497  25.253   1
   4  -5  13 21.9269 15.7635   1
   4   4 -13 83.7872 27.4757   3
   3   4 -13 24.9998 21.5585   3
  -3  -4  13 -8.4887 13.9951   1
   2   4 -13 37.2185 21.7092   3
  -2  -4  13 21.6653 15.1435   1
   1   4 -13 113.587  29.133   3
  -1  -4  13 199.491  26.686   1
   0   4 -13 -17.969  16.518   3
   0  -4  13 23.7441 17.8644   1
   1  -4  13 36.3924 19.7741   1
   2  -4  13 110.431  24.761   1
   3  -4  13 14.2601 15.9016   1
   4  -4  13 15.0691 15.8548   1
   5  -4  13 73.0194 21.5493   1
   5   3 -13 -10.395  18.126   3
   4   3 -13 41.9090 22.8299   3
  -4  -3  13 36.1229 17.8019   1
   3   3 -13 -13.309  16.189   3
  -3  -3  13 19.2577 15.0455   1
   2   3 -13 148.875  29.586   3
  -2  -3  13 156.509  23.568   1
   1   3 -13 404.838  45.184   3
  -1  -3  13 420.626  35.106   1
   0   3 -13 31.9028 20.6055   3
   0  -3  13 48.0706 16.8055   1
   1  -3  13 379.876  35.233   1
   2  -3  13 60.9225 19.1843   1
   3  -3  13 149.357  24.734   1
   4  -3  13 20.1893 16.3212   1
   5  -3  13 172.031  26.604   1
   5   2 -13 449.379  47.234   3
  -5  -2  13 478.784  36.754   1
   4   2 -13 -15.713  14.804   3
  -4  -2  13 19.8112 15.7938   1
   3   2 -13 467.645  47.008   3
  -3  -2  13 441.255  34.415   1
   2   2 -13 113.741  25.824   3
  -2  -2  13 77.3983 18.6977   1
   1   2 -13 218.225  33.744   3
  -1  -2  13 163.740  22.641   1
   0  -2  13  3.2069 12.5113   1
   1  -2  13 189.867  25.022   1
   2  -2  13 178.721  24.553   1
   3  -2  13 130.215  23.487   1
   4  -2  13 243.084  29.829   1
   5  -2  13 14.5295 16.9243   1
  -5  -1  13 36.1345 17.0201   1
   4   1 -13 111.378  24.244   3
  -4  -1  13 143.252  23.897   1
   3   1 -13 -1.1186 16.3130   3
  -3  -1  13 54.1792 15.9716   1
   2   1 -13 30.4446 17.8722   3
  -2  -1  13 90.7228 18.6939   1
   1   1 -13 27.3964 16.7809   3
  -1  -1  13 -0.2705 11.6275   1
   0  -1  13 19.6035 12.6044   1
   1  -1  13 169.821  21.457   1
   2  -1  13  5.0886 13.0822   1
   3  -1  13 272.357  28.599   1
   4  -1  13 55.0833 17.8449   1
   5  -1  13 57.2306 19.0905   1
  -6   0  13  6.3776 14.9681   1
  -5   0  13 62.7867 19.4004   1
  -4   0  13  4.7995 14.3596   1
  -3   0  13 182.453  24.910   1
  -2   0  13 75.8171 17.8462   1
  -1   0  13 540.757  35.671   1
   0   0  13 274.154  26.761   1
   1   0  13 80.2316 16.4273   1
   2   0  13 276.084  26.019   1
   3   0  13 19.1641 12.6967   1
   4   0  13 29.2694 16.6552   1
  -6   1  13 150.075  26.144   1
  -5   1  13 63.6610 18.3715   1
  -4   1  13 454.031  35.136   1
  -3   1  13 41.6006 15.6104   1
  -2   1  13 193.794  24.065   1
  -1   1  13 34.8437 14.9059   1
   0   1  13 29.2776 13.6955   1
   1   1  13 38.1388 13.4101   1
   2   1  13  9.9275 11.1129   1
   3   1  13 19.1651 12.5354   1
   4   1  13 45.3841 22.2585   2
   5   1  13 50.5173 27.1480   2
  -6   2  13 -13.545  15.455   1
  -5   2  13 54.6901 18.3260   1
  -4   2  13 17.3651 16.1564   1
  -3   2  13 70.5164 17.0718   1
  -2   2  13 47.5835 15.5181   1
  -1   2  13  3.6908 11.3220   1
   0   2  13 194.884  22.166   1
   1   2  13 98.5710 20.2329   2
   1   2  13 55.6848 14.0698   1
   2   2  13 187.449  28.780   2
   2   2  13 230.437  23.558   1
   3   2  13 254.505  34.586   2
   3   2  13 260.917  25.621   1
   4   2  13 23.8661 23.0867   2
   5   2  13 260.430  41.515   2
  -6   3  13 72.4806 21.8650   1
  -5   3  13 19.5916 15.8261   1
  -4   3  13 161.213  23.702   1
  -3   3  13 136.329  21.477   1
  -2   3  13 111.756  18.252   1
  -1   3  13 790.633  47.302   2
  -1   3  13 723.851  43.181   1
   0   3  13 -1.3939 11.5443   1
   0   3  13 -15.112  13.340   2
   1   3  13 855.533  53.621   2
   1   3  13 843.935  44.193   1
   2   3  13 17.5576 17.9379   2
   2   3  13 19.5243 12.5334   1
   3   3  13 119.070  28.559   2
   4   3  13 43.6687 25.9481   2
  -6   4  13 10.7844 17.5179   1
  -5   4  13 282.493  33.382   1
  -4   4  13 -3.5973 11.8044   1
  -3   4  13 267.361  28.385   1
  -3   4  13 282.045  35.222   2
  -2   4  13 167.138  23.400   1
  -2   4  13 142.998  25.497   2
  -1   4  13 18.3816 16.7684   2
  -1   4  13 32.9852 13.6851   1
   0   4  13 78.1103 22.0105   2
   0   4  13 70.5759 16.4157   1
   1   4  13 18.5354 19.0331   2
   1   4  13 45.2582 14.8281   1
   2   4  13 24.7235 19.5942   2
   3   4  13 -25.278  18.640   2
  -5   5  13 73.6932 20.4154   1
  -4   5  13 150.902  32.399   2
  -4   5  13 106.236  21.476   1
  -3   5  13 181.313  32.529   2
  -3   5  13 107.992  21.343   1
  -2   5  13 -9.2919 11.9094   1
  -2   5  13  2.5790 17.3445   2
  -1   5  13 24.5135 13.6925   1
  -1   5  13 41.4345 19.4063   2
   0   5  13 -16.557  16.752   2
   0   5  13 13.7681 12.6997   1
   1   5  13 159.676  30.745   2
   2   5  13 27.5619 22.8214   2
  -4   6  13 -8.6874 14.8569   1
  -4   6  13 37.8595 24.4597   2
  -3   6  13 166.388  25.305   1
  -3   6  13 79.7723 25.9083   2
  -2   6  13 99.5181 20.3625   1
  -2   6  13 68.3868 23.8932   2
  -1   6  13 123.887  27.383   2
  -1   6  13 112.266  21.661   1
   0   6  13 117.665  28.241   2
   1   6  13 -0.7764 20.8165   2
   1   6 -14 170.093  38.097   3
  -1  -6  14 141.109  27.160   1
   0   6 -14 37.5109 23.6549   3
   0  -6  14 -1.1053 19.6391   1
   1  -6  14 34.9049 22.0545   1
   2  -6  14 162.050  31.894   1
   2   5 -14 342.025  47.866   3
  -2  -5  14 375.885  36.967   1
   1   5 -14 281.302  44.243   3
  -1  -5  14 228.596  30.308   1
   0   5 -14 94.9128 29.2579   3
   0  -5  14 123.052  25.991   1
   1  -5  14 178.263  30.088   1
   2  -5  14 81.8272 25.5533   1
   3  -5  14 92.0534 24.3680   1
   3   4 -14 154.162  35.480   3
  -3  -4  14 183.118  26.918   1
   2   4 -14 16.9822 20.7525   3
  -2  -4  14 24.9441 17.0464   1
   1   4 -14 188.056  34.735   3
  -1  -4  14 165.384  24.924   1
   0   4 -14 17.9537 20.2909   3
   0  -4  14 -5.3982 14.9322   1
   1  -4  14 283.287  32.716   1
   2  -4  14 27.5833 20.0462   1
   3  -4  14 87.0383 22.9962   1
   4  -4  14 66.1653 21.4848   1
   4   3 -14 34.1841 22.6167   3
  -4  -3  14 -27.042  15.074   1
   3   3 -14 32.9368 22.1019   3
  -3  -3  14 45.3579 17.6163   1
   2   3 -14 68.4045 24.1076   3
  -2  -3  14 134.656  23.009   1
   1   3 -14 12.0969 19.1339   3
  -1  -3  14 12.6508 15.1054   1
   0  -3  14  5.3725 15.1243   1
   1  -3  14 177.414  27.047   1
   2  -3  14 19.6892 16.3513   1
   3  -3  14 174.277  28.039   1
   4  -3  14 93.0633 23.4931   1
   5  -3  14 33.6996 20.4531   1
  -5  -2  14 141.454  24.283   1
   4   2 -14 12.4776 18.5926   3
  -4  -2  14 -7.6167 16.1582   1
   3   2 -14 166.914  30.237   3
  -3  -2  14 192.507  26.168   1
   2   2 -14 60.5543 21.7050   3
  -2  -2  14 82.4319 19.4284   1
   1   2 -14 108.426  25.680   3
  -1  -2  14 97.2847 19.9552   1
   0  -2  14 182.073  24.743   1
   1  -2  14 16.9979 14.4172   1
   2  -2  14 211.400  26.467   1
   3  -2  14 29.5843 15.7968   1
   4  -2  14 116.730  24.127   1
   5  -2  14 13.7619 19.4523   1
  -5  -1  14 58.9506 20.0490   1
  -4  -1  14 218.540  29.940   1
  -3  -1  14 12.8954 14.3569   1
   2   1 -14 168.817  29.669   3
  -2  -1  14 107.514  20.576   1
  -1  -1  14 12.9005 14.3645   1
   0  -1  14 82.4085 17.2084   1
   1  -1  14 17.8795 12.2258   1
   2  -1  14 60.7319 17.1702   1
   3  -1  14 120.167  22.519   1
   4  -1  14 91.3199 21.0969   1
   5  -1  14 53.2653 19.6277   1
  -5   0  14 -23.677  14.602   1
  -4   0  14 -8.6538 14.0314   1
  -3   0  14  3.2040 15.1646   1
  -2   0  14 34.2340 15.7328   1
  -1   0  14 195.438  23.897   1
   0   0  14 257.117  26.788   1
   1   0  14 10.1137 11.3619   1
   2   0  14 376.776  29.638   1
   3   0  14 191.206  24.091   1
   4   0  14 91.1896 19.7489   1
  -6   1  14 55.4833 21.3719   1
  -5   1  14 47.3823 19.4554   1
  -4   1  14 590.600  41.120   1
  -3   1  14 10.1165 15.4427   1
  -2   1  14 865.587  48.775   1
  -1   1  14 208.127  25.177   1
   0   1  14 253.678  25.491   1
   1   1  14 206.769  23.992   1
   2   1  14 36.0999 13.8505   1
   3   1  14 27.0196 12.7145   1
  -5   2  14 199.319  28.113   1
  -4   2  14 89.0656 21.0708   1
  -3   2  14 97.3346 19.5787   1
  -2   2  14 50.3149 16.5369   1
  -1   2  14 12.9934 12.9444   1
   0   2  14 29.7231 13.6295   1
   1   2  14  1.0939 11.1967   1
   2   2  14 19.3465 12.4898   1
  -5   3  14  0.4226 15.8677   1
  -4   3  14 94.0642 20.7467   1
  -3   3  14 67.8001 18.6692   1
  -2   3  14 36.5772 15.5576   1
  -1   3  14 142.859  22.222   1
   0   3  14 44.4653 16.4086   1
   1   3  14 626.531  38.565   1
   2   3  14 13.7326 18.0944   2
   3   3  14 372.364  43.144   2
  -5   4  14 266.456  33.086   1
  -4   4  14 -31.484  11.538   1
  -3   4  14 395.751  34.894   1
  -2   4  14 109.705  20.505   1
  -1   4  14 148.979  22.442   1
  -1   4  14 192.379  29.578   2
   0   4  14 162.924  23.074   1
   0   4  14 218.041  30.877   2
   1   4  14 -16.902  11.789   1
   1   4  14  5.6485 17.9005   2
   2   4  14 66.0917 24.6916   2
   3   4  14  0.9941 20.4105   2
  -4   5  14 132.946  23.892   1
  -3   5  14 113.265  27.966   2
  -3   5  14 60.4958 18.8677   1
  -2   5  14 -2.9596 13.2036   1
  -2   5  14 -8.1370 15.7167   2
  -1   5  14 -13.829  16.916   2
  -1   5  14 12.8511 14.4282   1
   0   5  14 38.9190 15.6450   1
   0   5  14  7.5042 19.6920   2
   1   5  14 30.8191 22.4747   2
  -3   6  14 22.5483 17.6428   1
  -3   6  14 61.2451 25.2577   2
  -2   6  14 175.297  31.023   2
  -2   6  14 173.350  25.929   1
  -1   6  14 28.3177 23.1510   2
  -1   6  14 34.4134 17.3863   1
   0   6  14 133.812  30.493   2
   1   5 -15 13.4158 24.2577   3
  -1  -5  15 14.4244 18.7489   1
   0   5 -15 25.4763 23.2446   3
   0  -5  15 87.4387 23.5007   1
   1  -5  15 155.947  28.841   1
   2  -5  15 33.1832 22.8667   1
   3   4 -15 242.437  40.373   3
  -3  -4  15 254.169  32.030   1
   2   4 -15 -16.728  19.578   3
  -2  -4  15 21.0088 18.8118   1
   1   4 -15 216.942  38.109   3
  -1  -4  15 132.054  24.626   1
   0  -4  15 -1.7743 16.9981   1
   1  -4  15 216.272  30.737   1
   2  -4  15  1.1104 16.9785   1
   3  -4  15 167.522  29.577   1
   3   3 -15 71.6054 25.3256   3
  -3  -3  15 36.5631 20.2985   1
   2   3 -15 43.7574 23.0325   3
  -2  -3  15  9.3937 16.5543   1
   1   3 -15 113.655  28.230   3
  -1  -3  15 95.4741 21.6262   1
   0  -3  15 92.0310 21.1342   1
   1  -3  15 -11.917  16.160   1
   2  -3  15 43.2143 18.3462   1
   3  -3  15 177.512  27.547   1
   4  -3  15 45.7043 21.5557   1
  -4  -2  15 -9.1012 16.0980   1
   3   2 -15  2.8423 17.4205   3
  -3  -2  15 18.7416 16.2794   1
   2   2 -15 -19.412  16.119   3
  -2  -2  15  7.2176 16.1679   1
   1   2 -15 222.704  33.834   3
  -1  -2  15 214.369  28.226   1
   0  -2  15 356.290  32.756   1
   1  -2  15 -2.6890 12.5652   1
   2  -2  15 397.526  36.806   1
   3  -2  15 23.3817 16.5905   1
   4  -2  15 135.084  24.626   1
  -5  -1  15 156.719  27.227   1
  -4  -1  15 303.923  35.271   1
  -3  -1  15  4.5591 15.4139   1
  -2  -1  15 501.027  38.164   1
  -1  -1  15 23.8573 15.4109   1
   0  -1  15 137.730  21.450   1
   1  -1  15 10.7015 12.6476   1
   2  -1  15 170.796  23.642   1
   3  -1  15 53.6008 17.5565   1
   4  -1  15 41.8567 18.2096   1
  -5   0  15 39.6966 20.6256   1
  -4   0  15  9.9076 17.5016   1
  -3   0  15 30.7376 17.8938   1
  -2   0  15  0.6023 13.3528   1
  -1   0  15 79.6551 18.1079   1
   0   0  15 29.4729 14.5195   1
   1   0  15 49.5933 14.6730   1
   2   0  15 101.062  17.962   1
   3   0  15 46.0787 15.9330   1
   4   0  15 158.078  23.791   1
  -5   1  15  5.9507 16.7580   1
  -4   1  15 131.974  25.092   1
  -3   1  15 -13.069  14.906   1
  -2   1  15 320.670  31.914   1
  -1   1  15 26.5061 14.2064   1
   0   1  15 221.329  24.964   1
   1   1  15 299.874  28.691   1
   2   1  15 18.8454 13.5676   1
   3   1  15 67.7046 16.6197   1
  -5   2  15 141.226  25.440   1
  -4   2  15 231.741  29.524   1
  -3   2  15 280.143  30.806   1
  -2   2  15  6.9819 13.8404   1
  -1   2  15 128.441  21.906   1
   0   2  15 20.7928 13.2143   1
   1   2  15 32.4665 14.6412   1
   2   2  15 14.5774 13.3453   1
  -5   3  15 -0.6755 16.2877   1
  -4   3  15 23.1302 15.1458   1
  -3   3  15 29.2075 15.3731   1
  -2   3  15 -9.2602 12.0922   1
  -1   3  15  7.7544 14.4124   1
   0   3  15 -10.378  12.456   1
   1   3  15 108.221  20.453   1
  -4   4  15  8.2125 15.4867   1
  -3   4  15 225.030  28.101   1
  -2   4  15 60.8002 18.8027   1
  -1   4  15 308.073  31.498   1
   0   4  15 336.703  31.857   1
  -3   5  15 -14.637  13.805   1
  -2   5  15 215.433  28.071   1
  -1   5  15 43.6577 16.9436   1
   0   5  15 -3.6900 18.9924   2
   1   4 -16 221.579  37.562   3
  -1  -4  16 239.466  30.774   1
   0  -4  16 78.0633 20.6284   1
   1  -4  16 97.1693 24.7497   1
   2  -4  16 28.7058 20.7517   1
   2   3 -16 102.859  29.191   3
  -2  -3  16 81.8072 21.9400   1
   1   3 -16 187.611  34.285   3
  -1  -3  16 113.514  23.442   1
   0  -3  16 147.067  25.488   1
   1  -3  16 47.3401 19.1571   1
   2  -3  16 401.438  38.572   1
   3  -3  16 71.1628 22.2267   1
  -3  -2  16 13.3355 16.8396   1
  -2  -2  16 86.4402 21.2165   1
  -1  -2  16 185.783  27.836   1
   0  -2  16 45.4711 16.8604   1
   1  -2  16 55.6046 16.9913   1
   2  -2  16 160.744  24.835   1
   3  -2  16 23.5722 17.6060   1
  -4  -1  16 53.8236 22.5890   1
  -3  -1  16 -7.5654 16.0333   1
  -2  -1  16 459.050  40.950   1
  -1  -1  16 46.2706 17.4733   1
   0  -1  16 131.981  22.316   1
   1  -1  16 24.9684 14.1111   1
   2  -1  16 83.2322 18.7554   1
   3  -1  16 15.0821 14.3888   1
  -4   0  16 69.8210 22.0947   1
  -3   0  16 127.091  25.639   1
  -2   0  16  0.6634 14.9151   1
  -1   0  16 29.7817 15.7907   1
   0   0  16 -1.8508 12.7340   1
   1   0  16 44.3276 16.6078   1
   2   0  16 10.5066 12.7359   1
   3   0  16 26.2013 14.4490   1
  -4   1  16  7.1685 16.9474   1
  -3   1  16 25.4847 17.7757   1
  -2   1  16 24.5683 16.4122   1
  -1   1  16  2.4237 13.2199   1
   0   1  16 179.398  24.292   1
   1   1  16 245.475  26.801   1
   2   1  16 40.6639 15.6026   1
   3   1  16 205.035  25.615   1
  -4   2  16 101.803  24.006   1
  -3   2  16 232.476  29.045   1
  -2   2  16 13.6076 15.1856   1
  -1   2  16 272.560  30.344   1
   0   2  16 81.5935 18.9272   1
   1   2  16 30.3107 15.3177   1
   2   2  16 19.3212 14.1338   1
  -3   3  16 11.8903 16.3644   1
  -2   3  16 93.5573 20.3972   1
  -1   3  16  2.6908 14.4117   1
   0   3  16 15.2182 15.0248   1
   1   3  16  3.8604 14.3253   1
  -2   4  16 -1.1765 14.7639   1
  -1   4  16 119.316  22.401   1
   0   4  16 -25.915  12.322   1
   0  -3  17  0.1542 15.8222   1
   1  -3  17 17.1722 17.8620   1
  -2  -2  17 16.6140 18.4450   1
  -1  -2  17 48.3257 20.0283   1
   0  -2  17 17.3064 16.7103   1
   1  -2  17 135.448  22.290   1
   2  -2  17 19.9524 15.7619   1
  -2  -1  17 197.267  28.505   1
  -1  -1  17  2.5177 15.3301   1
   0  -1  17 236.214  28.820   1
   1  -1  17 126.229  21.973   1
   2  -1  17 14.8879 14.3488   1
  -3   0  17 194.021  29.781   1
  -2   0  17  9.8625 15.9331   1
  -1   0  17 87.1353 20.2292   1
   0   0  17 -4.8338 12.2218   1
   1   0  17 75.4291 18.2176   1
   2   0  17 -1.6723 13.7540   1
  -3   1  17 13.1528 17.2240   1
  -2   1  17 -5.0554 13.8117   1
  -1   1  17 -12.851  11.977   1
   0   1  17 83.9097 19.1750   1
   1   1  17 104.699  19.222   1
  -2   2  17 30.8402 17.7017   1
  -1   2  17 443.333  38.935   1
   0   2  17 58.7683 17.5199   1
   1   2  17 154.604  23.427   1
  -1   3  17  8.6533 15.6288   1
   0   0   0    0.00    0.00   0
;
_shelx_hkl_checksum              17584
#END Tags that were not found in dictionaries
loop_
_space_group_symop_operation_xyz
'x, y, z'
'-x, -y, -z'
loop_
_atom_site_label
_atom_site_type_symbol
_atom_site_fract_x
_atom_site_fract_y
_atom_site_fract_z
_atom_site_U_iso_or_equiv
_atom_site_adp_type
_atom_site_occupancy
_atom_site_site_symmetry_order
_atom_site_calc_flag
_atom_site_refinement_flags_posn
_atom_site_refinement_flags_adp
Y1 Y 0.29334(8) 0.76591(7) 0.45639(4) 0.01372(17) Uani 1 1 d . .
P1 P 0.2451(2) 0.38475(19) 0.61875(11) 0.0136(3) Uani 1 1 d . .
S1 S 0.3967(2) 1.07150(19) 0.30800(10) 0.0166(3) Uani 1 1 d . .
C1 C 0.2334(9) 0.3909(8) 0.7566(4) 0.0185(12) Uani 1 1 d . .
C2 C 0.1858(10) 0.2342(9) 0.8126(5) 0.0252(14) Uani 1 1 d . .
H2 H 0.1541 0.1221 0.7798 0.030 Uiso 1 1 calc R U
C3 C 0.1849(10) 0.2425(9) 0.9135(5) 0.0258(14) Uani 1 1 d . .
H3 H 0.1550 0.1361 0.9493 0.031 Uiso 1 1 calc R U
C4 C 0.2289(10) 0.4116(9) 0.9657(4) 0.0230(13) Uani 1 1 d . .
C5 C 0.2294(11) 0.4319(10) 1.0710(5) 0.0282(15) Uani 1 1 d . .
H5 H 0.2013 0.3301 1.1106 0.034 Uiso 1 1 calc R U
C6 C 0.2707(11) 0.5998(10) 1.1147(5) 0.0340(17) Uani 1 1 d . .
H6 H 0.2709 0.6118 1.1841 0.041 Uiso 1 1 calc R U
C7 C 0.3126(11) 0.7536(10) 1.0567(5) 0.0341(17) Uani 1 1 d . .
H7 H 0.3401 0.8668 1.0883 0.041 Uiso 1 1 calc R U
C8 C 0.3145(11) 0.7429(9) 0.9547(5) 0.0292(15) Uani 1 1 d . .
H8 H 0.3411 0.8469 0.9168 0.035 Uiso 1 1 calc R U
C9 C 0.2746(9) 0.5678(9) 0.9077(5) 0.0208(13) Uani 1 1 d . .
N1 N 0.2761(8) 0.5495(7) 0.8053(4) 0.0183(10) Uani 1 1 d . .
H1A H 0.3062 0.6460 0.7708 0.022 Uiso 1 1 calc R U
O1 O 0.2540(7) 0.5781(5) 0.5889(3) 0.0201(9) Uani 1 1 d . .
O2 O 0.4301(6) 0.3140(6) 0.6001(3) 0.0203(9) Uani 1 1 d . .
O3 O 0.0509(6) 0.2572(5) 0.5839(3) 0.0195(9) Uani 1 1 d . .
O4 O 0.2781(7) 0.8866(6) 0.2882(3) 0.0230(10) Uani 1 1 d . .
O5 O 0.4343(6) 1.0808(5) 0.4204(3) 0.0174(9) Uani 1 1 d . .
O6 O 0.2896(8) 1.2075(6) 0.2732(3) 0.0320(11) Uani 1 1 d . .
O7 O 0.5937(7) 1.0974(6) 0.2610(3) 0.0230(10) Uani 1 1 d . .
O1W O 0.1718(7) 0.4791(6) 0.3717(3) 0.0263(10) Uani 1 1 d . .
H1WA H 0.2213 0.4046 0.3372 0.040 Uiso 1 1 d R U
H1WB H 0.0686 0.4227 0.4016 0.040 Uiso 1 1 d R U
O2W O 0.1397(6) 0.9151(6) 0.5810(3) 0.0223(9) Uani 1 1 d . .
H2WA H 0.1042 0.8404 0.6279 0.033 Uiso 1 1 d R U
H2WB H 0.2263 1.0081 0.6050 0.033 Uiso 1 1 d R U
loop_
_atom_site_aniso_label
_atom_site_aniso_U_11
_atom_site_aniso_U_22
_atom_site_aniso_U_33
_atom_site_aniso_U_23
_atom_site_aniso_U_13
_atom_site_aniso_U_12
Y1 0.0122(3) 0.0134(3) 0.0169(3) 0.0009(2) 0.00275(19) 0.0051(2)
P1 0.0127(7) 0.0142(7) 0.0153(7) 0.0000(6) 0.0022(5) 0.0055(6)
S1 0.0209(8) 0.0158(7) 0.0145(7) 0.0015(5) 0.0012(6) 0.0070(6)
C1 0.013(3) 0.024(3) 0.018(3) 0.002(2) 0.001(2) 0.004(3)
C2 0.032(4) 0.021(3) 0.025(3) -0.001(3) 0.004(3) 0.010(3)
C3 0.032(4) 0.023(3) 0.027(3) 0.006(3) 0.004(3) 0.015(3)
C4 0.024(3) 0.031(3) 0.016(3) -0.001(2) -0.003(2) 0.011(3)
C5 0.035(4) 0.035(4) 0.017(3) 0.007(3) 0.007(3) 0.012(3)
C6 0.036(4) 0.050(5) 0.017(3) -0.009(3) -0.002(3) 0.013(4)
C7 0.036(4) 0.041(4) 0.023(4) -0.011(3) 0.006(3) 0.003(4)
C8 0.036(4) 0.028(4) 0.024(3) 0.002(3) 0.007(3) 0.006(3)
C9 0.017(3) 0.028(3) 0.018(3) -0.003(2) 0.003(2) 0.007(3)
N1 0.021(3) 0.017(2) 0.019(3) 0.003(2) 0.000(2) 0.007(2)
O1 0.027(2) 0.018(2) 0.018(2) 0.0017(17) 0.0022(17) 0.0088(19)
O2 0.010(2) 0.025(2) 0.027(2) -0.0024(18) 0.0015(16) 0.0066(18)
O3 0.018(2) 0.017(2) 0.025(2) -0.0021(17) -0.0006(17) 0.0090(18)
O4 0.025(2) 0.020(2) 0.022(2) -0.0026(18) -0.0019(18) -0.0021(19)
O5 0.019(2) 0.016(2) 0.017(2) -0.0009(16) 0.0023(16) 0.0043(18)
O6 0.047(3) 0.031(3) 0.027(3) 0.005(2) 0.002(2) 0.028(2)
O7 0.026(2) 0.025(2) 0.020(2) 0.0020(18) 0.0092(18) 0.007(2)
O1W 0.025(2) 0.020(2) 0.035(3) -0.0036(19) 0.011(2) 0.006(2)
O2W 0.018(2) 0.021(2) 0.029(2) -0.0088(18) 0.0008(18) 0.0060(19)
loop_
_atom_type_symbol
_atom_type_description
_atom_type_scat_dispersion_real
_atom_type_scat_dispersion_imag
_atom_type_scat_source
C C 0.0033 0.0016 'International Tables Vol C Tables 4.2.6.8 and 6.1.1.4'
O O 0.0106 0.0060 'International Tables Vol C Tables 4.2.6.8 and 6.1.1.4'
P P 0.1023 0.0942 'International Tables Vol C Tables 4.2.6.8 and 6.1.1.4'
S S 0.1246 0.1234 'International Tables Vol C Tables 4.2.6.8 and 6.1.1.4'
N N 0.0061 0.0033 'International Tables Vol C Tables 4.2.6.8 and 6.1.1.4'
H H 0.0000 0.0000 'International Tables Vol C Tables 4.2.6.8 and 6.1.1.4'
Y Y -2.7962 3.5667 'International Tables Vol C Tables 4.2.6.8 and 6.1.1.4'
loop_
_geom_angle_atom_site_label_1
_geom_angle_atom_site_label_2
_geom_angle_atom_site_label_3
_geom_angle
_geom_angle_site_symmetry_1
_geom_angle_site_symmetry_3
O2 Y1 O1 97.24(15) 2_666 .
O2 Y1 O3 141.85(15) 2_666 2_566
O1 Y1 O3 96.20(15) . 2_566
O2 Y1 O1W 74.43(15) 2_666 .
O1 Y1 O1W 79.27(15) . .
O3 Y1 O1W 73.29(15) 2_566 .
O2 Y1 O2W 149.63(15) 2_666 .
O1 Y1 O2W 74.09(15) . .
O3 Y1 O2W 68.52(14) 2_566 .
O1W Y1 O2W 129.95(15) . .
O2 Y1 O5 90.14(15) 2_666 .
O1 Y1 O5 139.64(14) . .
O3 Y1 O5 102.11(14) 2_566 .
O1W Y1 O5 140.44(14) . .
O2W Y1 O5 79.66(14) . .
O2 Y1 O4 81.58(15) 2_666 .
O1 Y1 O4 162.87(14) . .
O3 Y1 O4 75.37(15) 2_566 .
O1W Y1 O4 83.99(15) . .
O2W Y1 O4 115.08(15) . .
O5 Y1 O4 57.47(13) . .
O2 Y1 O5 77.56(14) 2_666 2_676
O1 Y1 O5 77.37(14) . 2_676
O3 Y1 O5 140.38(14) 2_566 2_676
O1W Y1 O5 140.60(15) . 2_676
O2W Y1 O5 72.16(14) . 2_676
O5 Y1 O5 65.57(16) . 2_676
O4 Y1 O5 118.66(13) . 2_676
O2 P1 O3 113.5(2) . .
O2 P1 O1 115.2(2) . .
O3 P1 O1 113.6(2) . .
O2 P1 C1 105.3(3) . .
O3 P1 C1 103.5(3) . .
O1 P1 C1 104.0(3) . .
O6 S1 O4 112.4(3) . .
O6 S1 O7 109.7(3) . .
O4 S1 O7 110.5(3) . .
O6 S1 O5 111.5(3) . .
O4 S1 O5 103.6(2) . .
O7 S1 O5 109.0(2) . .
N1 C1 C2 118.2(5) . .
N1 C1 P1 119.3(4) . .
C2 C1 P1 122.4(5) . .
C3 C2 C1 121.2(6) . .
C3 C2 H2 119.4 . .
C1 C2 H2 119.4 . .
C2 C3 C4 120.7(6) . .
C2 C3 H3 119.6 . .
C4 C3 H3 119.6 . .
C9 C4 C5 118.7(6) . .
C9 C4 C3 117.1(6) . .
C5 C4 C3 124.2(6) . .
C6 C5 C4 120.3(6) . .
C6 C5 H5 119.9 . .
C4 C5 H5 119.9 . .
C5 C6 C7 120.7(6) . .
C5 C6 H6 119.7 . .
C7 C6 H6 119.7 . .
C8 C7 C6 121.8(7) . .
C8 C7 H7 119.1 . .
C6 C7 H7 119.1 . .
C7 C8 C9 118.3(6) . .
C7 C8 H8 120.9 . .
C9 C8 H8 120.9 . .
N1 C9 C4 119.1(6) . .
N1 C9 C8 120.6(6) . .
C4 C9 C8 120.3(6) . .
C1 N1 C9 123.6(5) . .
C1 N1 H1A 118.2 . .
C9 N1 H1A 118.2 . .
P1 O1 Y1 143.0(2) . .
P1 O2 Y1 169.0(3) . 2_666
P1 O3 Y1 144.4(2) . 2_566
S1 O4 Y1 99.7(2) . .
S1 O5 Y1 98.71(19) . .
S1 O5 Y1 136.9(2) . 2_676
Y1 O5 Y1 114.43(16) . 2_676
Y1 O1W H1WA 137.2 . .
Y1 O1W H1WB 107.7 . .
H1WA O1W H1WB 110.4 . .
Y1 O2W H2WA 108.3 . .
Y1 O2W H2WB 109.2 . .
H2WA O2W H2WB 109.8 . .
loop_
_geom_bond_atom_site_label_1
_geom_bond_atom_site_label_2
_geom_bond_distance
_geom_bond_site_symmetry_2
Y1 O2 2.256(4) 2_666
Y1 O1 2.270(4) .
Y1 O3 2.333(4) 2_566
Y1 O1W 2.402(4) .
Y1 O2W 2.409(4) .
Y1 O5 2.435(4) .
Y1 O4 2.436(4) .
Y1 O5 2.484(4) 2_676
P1 O2 1.497(4) .
P1 O3 1.504(4) .
P1 O1 1.510(4) .
P1 C1 1.848(6) .
S1 O6 1.446(5) .
S1 O4 1.472(4) .
S1 O7 1.484(4) .
S1 O5 1.507(4) .
C1 N1 1.330(8) .
C1 C2 1.396(9) .
C2 C3 1.349(9) .
C2 H2 0.9300 .
C3 C4 1.419(9) .
C3 H3 0.9300 .
C4 C9 1.407(9) .
C4 C5 1.414(8) .
C5 C6 1.362(10) .
C5 H5 0.9300 .
C6 C7 1.391(10) .
C6 H6 0.9300 .
C7 C8 1.365(9) .
C7 H7 0.9300 .
C8 C9 1.428(9) .
C8 H8 0.9300 .
C9 N1 1.374(7) .
N1 H1A 0.8600 .
O2 Y1 2.256(4) 2_666
O3 Y1 2.333(4) 2_566
O5 Y1 2.484(4) 2_676
O1W H1WA 0.8584 .
O1W H1WB 0.8594 .
O2W H2WA 0.8569 .
O2W H2WB 0.8612 .
loop_
_geom_hbond_atom_site_label_D
_geom_hbond_atom_site_label_H
_geom_hbond_atom_site_label_A
_geom_hbond_distance_DH
_geom_hbond_distance_HA
_geom_hbond_distance_DA
_geom_hbond_angle_DHA
_geom_hbond_site_symmetry_A
O2W H2WB O2 0.86 2.43 3.234(6) 154.7 1_565
O1W H1WB O1 0.86 2.20 2.905(6) 139.7 2_566
O1W H1WA O6 0.86 1.87 2.716(6) 168.6 1_545
N1 H1A O7 0.86 1.97 2.798(6) 160.0 2_676
N1 H1A O1 0.86 2.47 2.898(6) 111.5 .
N1 H1A S1 0.86 2.86 3.630(5) 150.0 2_676
C8 H8 O7 0.93 2.46 3.176(8) 133.5 2_676
loop_
_geom_torsion_atom_site_label_1
_geom_torsion_atom_site_label_2
_geom_torsion_atom_site_label_3
_geom_torsion_atom_site_label_4
_geom_torsion
_geom_torsion_site_symmetry_4
O2 P1 C1 N1 107.8(5) .
O3 P1 C1 N1 -132.8(5) .
O1 P1 C1 N1 -13.8(5) .
O2 P1 C1 C2 -70.7(6) .
O3 P1 C1 C2 48.7(6) .
O1 P1 C1 C2 167.8(5) .
N1 C1 C2 C3 -0.7(10) .
P1 C1 C2 C3 177.8(5) .
C1 C2 C3 C4 1.1(10) .
C2 C3 C4 C9 -0.5(10) .
C2 C3 C4 C5 179.4(7) .
C9 C4 C5 C6 0.8(10) .
C3 C4 C5 C6 -179.1(7) .
C4 C5 C6 C7 0.1(11) .
C5 C6 C7 C8 -0.1(12) .
C6 C7 C8 C9 -0.8(11) .
C5 C4 C9 N1 179.5(6) .
C3 C4 C9 N1 -0.5(9) .
C5 C4 C9 C8 -1.8(10) .
C3 C4 C9 C8 178.1(6) .
C7 C8 C9 N1 -179.6(6) .
C7 C8 C9 C4 1.8(10) .
C2 C1 N1 C9 -0.4(9) .
P1 C1 N1 C9 -179.0(4) .
C4 C9 N1 C1 1.0(9) .
C8 C9 N1 C1 -177.6(6) .
O2 P1 O1 Y1 59.2(5) .
O3 P1 O1 Y1 -74.2(5) .
C1 P1 O1 Y1 173.9(4) .
O3 P1 O2 Y1 90.2(14) 2_666
O1 P1 O2 Y1 -43.3(15) 2_666
C1 P1 O2 Y1 -157.3(13) 2_666
O2 P1 O3 Y1 -162.8(4) 2_566
O1 P1 O3 Y1 -28.6(5) 2_566
C1 P1 O3 Y1 83.6(5) 2_566
O6 S1 O4 Y1 -126.8(2) .
O7 S1 O4 Y1 110.3(2) .
O5 S1 O4 Y1 -6.3(3) .
O6 S1 O5 Y1 127.4(3) .
O4 S1 O5 Y1 6.3(3) .
O7 S1 O5 Y1 -111.4(2) .
O6 S1 O5 Y1 -91.7(4) 2_676
O4 S1 O5 Y1 147.2(3) 2_676
O7 S1 O5 Y1 29.6(4) 2_676
