#------------------------------------------------------------------------------
#$Date: 2016-03-26 14:47:02 +0200 (Sat, 26 Mar 2016) $
#$Revision: 180276 $
#$URL: svn://www.crystallography.net/cod/cif/7/11/62/7116270.cif $
#------------------------------------------------------------------------------
#
# This file is available in the Crystallography Open Database (COD),
# http://www.crystallography.net/
#
# All data on this site have been placed in the public domain by the
# contributors.
#
data_7116270
loop_
_publ_author_name
'Wang, Bao-Juan'
'Xue, Ping'
'Gu, Peiming'
_publ_section_title
;
 Intramolecular Schmidt reaction of acyl chlorides with alkyl azides:
 preparation of pyrrolizine by intramolecular capture of intermediates
 with alkenes or alkynes.
;
_journal_issue                   12
_journal_name_full
'Chemical communications (Cambridge, England)'
_journal_page_first              2277
_journal_page_last               2279
_journal_paper_doi               10.1039/c4cc07166b
_journal_volume                  51
_journal_year                    2015
_chemical_formula_moiety         'C14 H15 N O'
_chemical_formula_sum            'C14 H15 N O'
_chemical_formula_weight         213.27
_chemical_name_systematic
;
 ?
;
_space_group_crystal_system      triclinic
_space_group_IT_number           2
_space_group_name_Hall           '-P 1'
_space_group_name_H-M_alt        'P -1'
_symmetry_space_group_name_Hall  '-P 1'
_symmetry_space_group_name_H-M   'P -1'
_atom_sites_solution_hydrogens   geom
_atom_sites_solution_primary     iterative
_audit_creation_date             2014-05-05
_audit_creation_method
;
Olex2 1.2
(compiled 2014.03.20 svn.r2914 for OlexSys, GUI svn.r4816)
;
_audit_update_record
;
2014-08-26 deposited with the CCDC.
2014-12-16 downloaded from the CCDC.
;
_cell_angle_alpha                102.282(7)
_cell_angle_beta                 108.921(7)
_cell_angle_gamma                93.927(7)
_cell_formula_units_Z            2
_cell_length_a                   7.8602(6)
_cell_length_b                   8.4121(8)
_cell_length_c                   9.3329(7)
_cell_measurement_reflns_used    1119
_cell_measurement_temperature    294.9(5)
_cell_measurement_theta_max      26.7620
_cell_measurement_theta_min      3.4500
_cell_volume                     564.05(9)
_computing_cell_refinement
;
CrysAlisPro, Agilent Technologies,
Version 1.171.36.28 (release 01-02-2013 CrysAlis171 .NET)
(compiled Feb  1 2013,16:14:44)
;
_computing_data_collection
;
CrysAlisPro, Agilent Technologies,
Version 1.171.36.28 (release 01-02-2013 CrysAlis171 .NET)
(compiled Feb  1 2013,16:14:44)
;
_computing_data_reduction
;
CrysAlisPro, Agilent Technologies,
Version 1.171.36.28 (release 01-02-2013 CrysAlis171 .NET)
(compiled Feb  1 2013,16:14:44)
;
_computing_molecular_graphics    'Olex2 (Dolomanov et al., 2009)'
_computing_publication_material  'Olex2 (Dolomanov et al., 2009)'
_computing_structure_refinement  'ShelXL (Sheldrick, 2008)'
_computing_structure_solution
;
Superflip (Palatinus & Chapuis, 2007;Palatinus & van der Lee, 2008;
Palatinus et al., 2012)
;
_diffrn_ambient_temperature      294.9(5)
_diffrn_detector_area_resol_mean 16.0733
_diffrn_measured_fraction_theta_full 0.997
_diffrn_measured_fraction_theta_max 0.997
_diffrn_measurement_device_type  'SuperNova, Dual, Cu at zero, Eos'
_diffrn_measurement_method       '\w scans'
_diffrn_orient_matrix_UB_11      0.0467733000
_diffrn_orient_matrix_UB_12      0.0604310000
_diffrn_orient_matrix_UB_13      -0.0219507000
_diffrn_orient_matrix_UB_21      -0.0109033000
_diffrn_orient_matrix_UB_22      -0.0572080000
_diffrn_orient_matrix_UB_23      -0.0713245000
_diffrn_orient_matrix_UB_31      -0.0836610000
_diffrn_orient_matrix_UB_32      0.0262771000
_diffrn_orient_matrix_UB_33      -0.0362236000
_diffrn_radiation_monochromator  mirror
_diffrn_radiation_type           MoK\a
_diffrn_radiation_wavelength     0.71073
_diffrn_reflns_av_R_equivalents  0.0231
_diffrn_reflns_av_unetI/netI     0.0420
_diffrn_reflns_Laue_measured_fraction_full 0.997
_diffrn_reflns_Laue_measured_fraction_max 0.997
_diffrn_reflns_limit_h_max       9
_diffrn_reflns_limit_h_min       -9
_diffrn_reflns_limit_k_max       10
_diffrn_reflns_limit_k_min       -9
_diffrn_reflns_limit_l_max       11
_diffrn_reflns_limit_l_min       -11
_diffrn_reflns_number            3586
_diffrn_reflns_point_group_measured_fraction_full 0.997
_diffrn_reflns_point_group_measured_fraction_max 0.997
_diffrn_reflns_theta_full        25.500
_diffrn_reflns_theta_max         26.018
_diffrn_reflns_theta_min         2.960
_diffrn_source                   'SuperNova (Mo) X-ray Source'
_exptl_absorpt_coefficient_mu    0.079
_exptl_absorpt_correction_T_max  1.00000
_exptl_absorpt_correction_T_min  0.23947
_exptl_absorpt_correction_type   multi-scan
_exptl_absorpt_process_details
;
CrysAlisPro, Agilent Technologies,
Version 1.171.36.28 (release 01-02-2013 CrysAlis171 .NET)
(compiled Feb  1 2013,16:14:44)
Empirical absorption correction using spherical harmonics,
 implemented in SCALE3 ABSPACK scaling algorithm.
;
_exptl_crystal_colour            'clear light colourless'
_exptl_crystal_colour_lustre     clear
_exptl_crystal_colour_modifier   light
_exptl_crystal_colour_primary    colourless
_exptl_crystal_density_diffrn    1.256
_exptl_crystal_description       block
_exptl_crystal_F_000             228
_exptl_crystal_size_max          0.37
_exptl_crystal_size_mid          0.32
_exptl_crystal_size_min          0.28
_refine_diff_density_max         0.477
_refine_diff_density_min         -0.226
_refine_diff_density_rms         0.048
_refine_ls_extinction_method     none
_refine_ls_goodness_of_fit_ref   1.090
_refine_ls_hydrogen_treatment    constr
_refine_ls_matrix_type           full
_refine_ls_number_parameters     145
_refine_ls_number_reflns         2223
_refine_ls_number_restraints     0
_refine_ls_restrained_S_all      1.090
_refine_ls_R_factor_all          0.0943
_refine_ls_R_factor_gt           0.0725
_refine_ls_shift/su_max          0.000
_refine_ls_shift/su_mean         0.000
_refine_ls_structure_factor_coef Fsqd
_refine_ls_weighting_details
;
 w=1/[\s^2^(Fo^2^)+(0.0881P)^2^+0.3181P]
 where P=(Fo^2^+2Fc^2^)/3
;
_refine_ls_weighting_scheme      calc
_refine_ls_wR_factor_gt          0.1970
_refine_ls_wR_factor_ref         0.2175
_reflns_Friedel_coverage         0.000
_reflns_number_gt                1594
_reflns_number_total             2223
_reflns_threshold_expression     'I > 2\s(I)'
_cod_data_source_file            c4cc07166b2.cif
_cod_data_source_block           gupm0624
_cod_depositor_comments
'Adding full bibliography for 7116270--7116271.cif.'
_cod_original_cell_volume        564.05(8)
_cod_database_code               7116270
#BEGIN Tags that were not found in dictionaries:
_shelxl_version_number           2013-2
_shelx_space_group_comment
;
The symmetry employed for this shelxl refinement is uniquely defined
by the following loop, which should always be used as a source of
symmetry information in preference to the above space-group names.
They are only intended as comments.
;
_reflns_odcompleteness_completeness 99.74
_reflns_odcompleteness_iscentric 1
_reflns_odcompleteness_theta     26.32
_olex2_refinement_description
;
1. Fixed Uiso
 At 1.2 times of:
  All C(H) groups, All C(H,H) groups
2.a Ternary CH refined with riding coordinates:
 C4(H4)
2.b Secondary CH2 refined with riding coordinates:
 C5(H5A,H5B), C1(H1A,H1B), C3(H3A,H3B), C2(H2A,H2B)
2.c Aromatic/amide H refined with riding coordinates:
 C8(H8), C14(H14), C11(H11), C10(H10), C13(H13), C12(H12)
;
_shelx_res_file
;
TITL CF solution in P-1
CELL 0.71073 7.860226 8.412067 9.332854 102.2818 108.9213 93.927
ZERR 2 0.000604 0.000752 0.00069 0.007 0.007 0.0068
LATT 1

SFAC C H N O
UNIT 28 30 2 2

L.S. 11
PLAN  25
BOND $H
HTAB
CONF
MORE -1
fmap 2
acta 51.0
SHEL 999 0.81
REM <HKL>D:/olex2_gupm0624/gupm0624.hkl</HKL>

WGHT    0.088100    0.318100
FVAR       8.43550
O1    4    0.827128    1.254562    1.029415    11.00000    0.08598    0.05830 =
         0.06184   -0.00533    0.04326    0.00224
N1    3    1.050178    1.193714    0.930038    11.00000    0.05766    0.05459 =
         0.05271   -0.00415    0.02156   -0.00389
C9    1    0.488390    0.828643    0.660353    11.00000    0.04344    0.04558 =
         0.05121    0.01558    0.01996    0.00676
C7    1    0.880932    1.174196    0.932114    11.00000    0.05939    0.04203 =
         0.04456    0.00820    0.02359    0.00473
C6    1    0.775160    1.033600    0.797128    11.00000    0.05413    0.04410 =
         0.04160    0.00659    0.02047    0.00515
C8    1    0.611989    0.964484    0.783170    11.00000    0.05450    0.04794 =
         0.04621    0.01053    0.02567    0.00669
AFIX  43
H8    2    0.570134    1.009012    0.863288    11.00000   -1.20000
AFIX   0
C14   1    0.494605    0.782832    0.510363    11.00000    0.05518    0.05524 =
         0.05519    0.00837    0.02510   -0.00451
AFIX  43
H14   2    0.581702    0.840386    0.485254    11.00000   -1.20000
AFIX   0
C11   1    0.236773    0.609463    0.579935    11.00000    0.04452    0.07626 =
         0.08183    0.02888    0.01847   -0.00770
AFIX  43
H11   2    0.150221    0.550166    0.604247    11.00000   -1.20000
AFIX   0
C10   1    0.354619    0.739876    0.692433    11.00000    0.04658    0.07073 =
         0.05871    0.02417    0.02456    0.00839
AFIX  43
H10   2    0.344700    0.768960    0.790962    11.00000   -1.20000
AFIX   0
C4    1    1.080670    1.083561    0.799741    11.00000    0.05823    0.05318 =
         0.05524    0.00247    0.02545    0.00360
AFIX  13
H4    2    1.157762    1.003881    0.837878    11.00000   -1.20000
AFIX   0
C13   1    0.374457    0.653800    0.397634    11.00000    0.06103    0.05977 =
         0.05849    0.00273    0.02116   -0.00390
AFIX  43
H13   2    0.380798    0.626208    0.297757    11.00000   -1.20000
AFIX   0
C5    1    0.889842    0.995492    0.695977    11.00000    0.05690    0.05997 =
         0.05509   -0.00897    0.02933   -0.00889
AFIX  23
H5A   2    0.845426    1.036706    0.603146    11.00000   -1.20000
H5B   2    0.889371    0.877856    0.664346    11.00000   -1.20000
AFIX   0
C12   1    0.245890    0.566159    0.432146    11.00000    0.05287    0.05817 =
         0.07487    0.00466    0.01497   -0.00899
AFIX  43
H12   2    0.165771    0.478477    0.356600    11.00000   -1.20000
AFIX   0
C1    1    1.191378    1.337613    1.004765    11.00000    0.05743    0.04597 =
         0.06121    0.00115    0.00991   -0.00027
AFIX  23
H1A   2    1.267492    1.332165    1.108266    11.00000   -1.20000
H1B   2    1.138553    1.438577    1.013041    11.00000   -1.20000
AFIX   0
C3    1    1.181422    1.199868    0.744827    11.00000    0.06477    0.08393 =
         0.06410    0.00809    0.02853   -0.01179
AFIX  23
H3A   2    1.098046    1.251807    0.673761    11.00000   -1.20000
H3B   2    1.256421    1.143494    0.692174    11.00000   -1.20000
AFIX   0
C2    1    1.299063    1.326927    0.894902    11.00000    0.06206    0.07001 =
         0.07326    0.00999    0.01676   -0.01266
AFIX  23
H2A   2    1.415305    1.291783    0.940283    11.00000   -1.20000
H2B   2    1.320642    1.432927    0.873487    11.00000   -1.20000
AFIX   0
HKLF 4

REM  CF solution in P-1
REM R1 =  0.0725 for    1594 Fo > 4sig(Fo)  and  0.0943 for all    2223 data
REM    145 parameters refined using      0 restraints

END

WGHT      0.0881      0.3186

REM Instructions for potential hydrogen bonds

REM No hydrogen bonds found for HTAB generation

REM Highest difference peak  0.477,  deepest hole -0.226,  1-sigma level  0.048
Q1    1   1.0336  1.1784  0.7409  11.00000  0.05    0.48
Q2    1   0.9945  1.2796  0.8700  11.00000  0.05    0.43
Q3    1   1.2410  1.1229  0.8170  11.00000  0.05    0.24
Q4    1   0.3268  0.6859  0.2567  11.00000  0.05    0.16
Q5    1   1.2561  1.3099  1.1613  11.00000  0.05    0.16
Q6    1   0.8866  1.2077  1.0591  11.00000  0.05    0.15
Q7    1   0.7887  1.0758  0.5958  11.00000  0.05    0.13
Q8    1   0.4497  0.7921  0.6798  11.00000  0.05    0.13
Q9    1   0.5333  0.8957  0.4472  11.00000  0.05    0.13
Q10   1   0.5588  0.8786  0.7185  11.00000  0.05    0.13
Q11   1   1.0538  1.3368  0.7763  11.00000  0.05    0.13
Q12   1   0.9370  1.1025  1.0678  11.00000  0.05    0.12
Q13   1   1.0804  1.3894  1.1502  11.00000  0.05    0.12
Q14   1   0.8063  1.0855  0.8473  11.00000  0.05    0.12
Q15   1   0.7774  1.1797  1.0836  11.00000  0.05    0.12
Q16   1   1.0990  1.3453  0.7173  11.00000  0.05    0.12
Q17   1   0.8353  1.1745  0.6297  11.00000  0.05    0.11
Q18   1   0.3718  0.5639  0.4544  11.00000  0.05    0.11
Q19   1   1.0899  1.3972  0.8366  11.00000  0.05    0.11
Q20   1   0.8189  1.1501  1.0280  11.00000  0.05    0.11
Q21   1   0.3546  0.8462  0.8599  11.00000  0.05    0.11
Q22   1   0.3115  0.7946  0.7785  11.00000  0.05    0.11
Q23   1   0.1944  0.5106  0.6575  11.00000  0.05    0.11
Q24   1   0.5178  0.7739  0.6148  11.00000  0.05    0.11
Q25   1   1.2192  1.4863  0.9358  11.00000  0.05    0.11
;
_shelx_res_checksum              82563
_shelx_hkl_file
;
   0   0   2 3353.04 170.628   6
   0   0   2 3465.91 131.817   5
   0   0   3 19019.6 442.358   5
   0   0   3 18228.7 534.414   6
   0   0   4 7227.03 258.992   5
   0   0   4 7657.91 355.706   6
   0   0   5 999.201 97.3085   5
   0   0   5 975.287 134.385   6
   0   0   6 244.702 50.5775   5
   0   0   6 290.139 84.8565   6
   0   0   7 1774.85 141.736   5
   0   0   7 1726.77 214.024   6
   0   0   8 1820.80 239.495   6
   0   0   9 285.953 102.679   6
   0   0  10 1131.08 210.743   6
   0  -1  11 43.3908 52.9030   6
   0  -1  10 1752.97 266.307   6
   0  -1   9 926.797 184.017   6
   0  -1   8 559.166 134.192   6
   0  -1   7 138.845 51.7558   5
   0  -1   7 98.9252 57.8319   6
   0  -1   6 626.735 95.2491   5
   0  -1   6 628.200 124.031   6
   0   1  -5 6683.45 398.569   7
   0  -1   5 6342.47 370.195   6
   0  -1   5 6499.75 295.045   5
   0   1  -4 14683.2 553.369   7
   0   1  -3 26548.5 726.564   7
   0   1  -3 27382.3 498.961   1
   0  -1   2 334663. 5200.50   4
   0   1  -2 338048. 5265.40   2
   0   1  -2 341538. 5427.91   7
   0   1  -2 340367. 5209.80   1
   0   1   1 54831.4 947.077   6
   0   1   2 18752.8 388.987   5
   0   1   2 18790.6 475.333   6
   0  -1  -2 19126.0 415.537   5
   0   1   3 15.5938 11.2721   5
   0  -1  -3 0.54302 12.4351   5
   0  -1  -4 4938.86 236.313   5
   0   1   4 4484.56 183.277   5
   0   1   4 4403.82 260.128   6
   0   1   5 1157.99 94.4029   5
   0   1   5 1232.42 148.386   6
   0   1   6 1518.10 112.599   5
   0   1   6 1274.91 167.636   6
   0   1   7 19460.8 501.488   5
   0   1   7 20302.5 764.213   6
   0   1   8 1561.39 211.873   6
   0   1   9 353.154 103.437   6
   0   1  10 242.584 98.8836   6
   0  -2  11 950.058 267.494   6
   0  -2  10 721.452 182.511   6
   0  -2   9 2200.39 293.699   6
   0  -2   8 997.485 194.545   6
   0  -2   8 1334.31 169.691   5
   0  -2   7 51.0660 26.2722   4
   0  -2   7 109.258 50.5314   5
   0  -2   7 112.089 57.2337   6
   0   2  -7 93.9385 59.6638   7
   0  -2   6 3135.87 163.790   4
   0   2  -6 2939.66 286.143   7
   0  -2   5 1678.65 102.987   4
   0   2  -5 1860.26 134.039   2
   0   2  -5 1795.23 205.106   7
   0   2  -4 3429.04 163.365   2
   0  -2   4 3628.22 131.488   4
   0   2  -4 3775.57 265.596   7
   0   2  -3 28583.4 751.420   7
   0   2  -2 170501. 2867.47   7
   0  -2   2 167283. 2704.29   1
   0   2  -1 40149.5 748.260   7
   0   2   0 58567.7 961.707   6
   0   2   1 17149.9 360.346   6
   0   2   2 12931.9 351.701   6
   0  -2  -2 12693.5 265.304   3
   0  -2  -2 13337.2 343.278   5
   0   2   3 33470.9 774.058   6
   0   2   3 33477.8 580.061   3
   0   2   4 533.846 85.9393   6
   0   2   4 475.938 56.7427   5
   0   2   4 465.524 40.4185   3
   0   2   5 20596.8 490.644   5
   0   2   5 19451.0 430.104   3
   0   2   6 836.432 82.0226   5
   0   2   6 871.353 135.424   6
   0   2   7 663.653 126.613   6
   0   2   8 585.989 125.896   6
   0   2   9 107.514 52.6578   6
   0   2  10 67.2824 45.6613   6
   0  -3  11 239.731 119.223   6
   0  -3  10 1385.98 249.883   6
   0  -3   9 1330.89 237.336   6
   0   3  -8-7.51611 71.9307   7
   0   3  -7 51.7759 23.8959   2
   0   3  -7 13.5399 33.5161   7
   0   3  -6 4916.87 385.823   7
   0   3  -5 12204.3 564.699   7
   0   3  -4 232.245 69.0509   7
   0  -3   3 453.430 57.7125   2
   0   3  -3 403.310 79.7357   7
   0   3  -2 4486.95 221.191   7
   0   3  -1 641.519 61.4500   7
   0   3   0 7608.06 201.873   6
   0   3   1 12785.2 300.501   6
   0   3   2 4771.41 186.397   6
   0  -3  -2 4896.74 149.929   3
   0   3   3 814.721 92.5349   6
   0   3   4 693.810 93.9437   6
   0   3   5 5538.24 303.206   6
   0   3   6 1429.26 165.544   6
   0   3   7 6978.12 396.762   6
   0   3   8 198.829 71.5288   6
   0   3   9 533.925 123.706   6
   0  -4  11 756.809 224.251   6
   0   4 -10 84.0965 71.7118   7
   0  -4  10 10.9729 41.2500   6
   0   4  -9 8.80316 35.7852   7
   0   4  -8 3737.21 388.736   7
   0   4  -7 380.383 121.124   7
   0   4  -6 1326.69 201.952   7
   0   4  -5 3427.42 295.882   7
   0   4  -4 28275.3 874.091   7
   0   4  -3 496.627 88.9073   7
   0   4  -2 128.590 37.4066   7
   0   4  -1 1332.87 99.5209   7
   0   4   0 9558.10 269.980   7
   0   4   0 9371.86 261.851   6
   0   4   1 3690.96 150.446   6
   0  -4  -2 9021.41 253.988   3
   0   4   2 8609.76 268.316   6
   0   4   3 17.3913 13.0045   6
   0  -4  -3 6.28158 10.1324   3
   0   4   4 600.689 85.8549   6
   0   4   5 10352.0 411.736   6
   0   4   6 776.263 113.782   6
   0   4   7-17.6841 42.4618   6
   0   4   8 558.045 111.095   6
   0   4   9 5.05041 33.1357   6
   0   5 -10 228.478 138.808   7
   0   5  -9 185.246 88.7281   7
   0   5  -8 53.4117 35.0612   7
   0   5  -7 930.660 186.571   7
   0   5  -6 651.659 147.120   7
   0   5  -5 552.235 128.141   7
   0   5  -4 9521.92 468.955   7
   0   5  -3 1034.20 133.752   7
   0   5  -2 1418.23 133.115   7
   0   5  -1 384.676 62.7817   7
   0   5   0 23005.5 541.613   7
   0   5   1 4980.53 197.414   6
   0   5   2 537.345 63.7695   6
   0  -5  -2 635.702 67.6334   3
   0  -5  -3 557.281 55.5164   3
   0   5   3 727.092 78.5945   6
   0   5   4 1119.58 109.260   6
   0   5   5 3925.79 230.157   6
   0   5   6 675.548 102.730   6
   0   5   7 47.5887 26.6971   6
   0   5   8 863.020 134.097   6
   0   6 -10 2192.22 343.653   7
   0   6  -9 244.747 110.478   7
   0   6  -8 2.96390 43.3737   7
   0   6  -7 657.982 164.002   7
   0   6  -6 2294.36 283.385   7
   0   6  -5 961.596 169.382   7
   0   6  -4 5034.84 343.606   7
   0   6  -3 2430.97 216.124   7
   0   6  -2 913.561 118.069   7
   0   6  -1 355.446 66.9931   7
   0   6   0 3160.64 184.391   7
   0   6   1 2769.56 160.569   6
   0  -6  -2 352.195 56.7861   3
   0   6   2 316.614 53.1516   6
   0   6   3 1402.99 116.798   6
   0   6   4 12.2753 20.9172   6
   0   6   5 235.117 54.5683   6
   0   6   6 143.145 47.7190   6
   0   6   7 104.636 38.1610   6
   0   7  -9 496.815 177.930   7
   0   7  -8 1734.51 287.370   7
   0   7  -7 2948.45 352.413   7
   0   7  -6-4.67794 54.3195   7
   0   7  -5 3622.33 332.259   7
   0   7  -4 1669.53 203.055   7
   0   7  -3 991.739 146.472   7
   0   7  -2 1671.03 174.246   7
   0   7  -1 1406.62 150.951   7
   0   7   0 1062.63 123.082   7
   0   7   1 268.436 58.1534   7
   0   7   2 54.7416 29.3705   6
   0   7   3 4149.30 220.473   6
   0   7   4 100.774 40.8393   6
   0   7   5 333.802 66.5943   6
   0   7   6 52.8621 32.6050   6
   0   8  -9 48.3079 55.8353   7
   0   8  -8 1259.29 252.676   7
   0   8  -7 563.071 155.342   7
   0   8  -6 323.733 120.565   7
   0   8  -5 69.5278 43.7567   7
   0   8  -4 195.050 85.5324   7
   0   8  -3 100.606 60.8524   7
   0   8  -2 876.748 142.266   7
   0   8  -1 210.284 65.0862   7
   0   8   0 1074.46 139.657   7
   0   8   1 1859.12 169.866   7
   0   8   2 45.3275 29.7740   6
   0   8   2 113.723 44.7786   7
   0   8   3 171.714 50.5628   6
   0   8   4 66.0774 34.9507   6
   0   8   5 16.4122 23.2101   6
   0   9  -7 208.890 105.095   7
   0   9  -6 99.2033 76.0946   7
   0   9  -5 287.216 100.810   7
   0   9  -4 779.432 164.745   7
   0   9  -3 143.301 76.8144   7
   0   9  -2 1186.77 187.588   7
   0   9  -1 56.2173 39.3977   7
   0   9   0 115.848 62.7326   7
   0   9   1 952.378 138.767   7
   0   9   2-19.9179 28.1489   7
   0   9   3 68.4452 35.0859   6
   0   9   3 122.609 52.7774   7
   0  10  -5-172.555 89.2759   7
   0  10  -4-70.0882 61.6879   7
   0  10  -3 220.765 111.799   7
   0  10  -2 451.503 132.176   7
   0  10  -1-27.6358 45.0301   7
   0  10   0 76.3783 60.5644   7
   0  10   1 65.3975 51.4575   7
  -1  10   1 15.6240 29.1483   7
  -1  10   0 468.817 122.872   7
  -1  10  -1 1216.25 207.727   7
  -1  10  -2 22.5497 44.4622   7
  -1  10  -3 621.389 166.168   7
  -1  10  -4 62.9883 74.0058   7
  -1  10  -5 67.9556 61.8719   7
  -1   9   4 362.622 82.6739   7
  -1   9   4 214.239 60.3642   6
  -1   9   3-7.86320 19.1050   7
  -1   9   2 1702.33 177.799   7
  -1   9   1 584.260 113.891   7
  -1   9   0 261.347 75.9896   7
  -1   9  -1 38.3852 42.7083   7
  -1   9  -2 231.984 89.1429   7
  -1   9  -3 508.266 133.512   7
  -1   9  -4 64.9582 40.1831   7
  -1   9  -5 34.2485 47.5951   7
  -1   9  -6 298.610 121.509   7
  -1   9  -7 112.798 86.0724   7
  -1   8   6 66.0018 38.0330   6
  -1   8   5 543.287 88.7553   6
  -1   8   4 22.7624 17.6886   6
  -1   8   3 96.0482 42.1782   7
  -1   8   3 20.7773 21.7656   6
  -1   8   2 385.433 77.3550   7
  -1   8   1 853.887 120.043   7
  -1   8   0 2092.17 202.469   7
  -1   8  -1 2829.06 253.883   7
  -1   8  -2 180.477 70.2079   7
  -1   8  -3 206.083 74.4430   7
  -1   8  -4 587.597 139.681   7
  -1   8  -5 161.412 89.7270   7
  -1   8  -6 250.400 100.169   7
  -1   8  -7 192.976 98.4116   7
  -1   8  -8 857.154 218.688   7
  -1   7   7 980.042 119.748   6
  -1   7   6 549.027 87.0881   6
  -1   7   5 144.478 42.6114   6
  -1   7   4 1418.60 126.275   6
  -1   7   3 1440.50 122.319   6
  -1   7   2 2614.01 171.724   6
  -1   7   2 3230.99 195.194   7
  -1   7   1 1332.64 129.293   7
  -1   7   0 1638.08 156.157   7
  -1   7  -1 2124.68 193.352   7
  -1   7  -2 286.370 78.8650   7
  -1   7  -3 123.005 57.6247   7
  -1   7  -4 23.3459 28.3042   7
  -1   7  -5 2296.44 281.822   7
  -1   7  -6 396.774 129.008   7
  -1   7  -7 322.450 126.560   7
  -1   7  -8 1208.33 254.306   7
  -1   7  -9 17.6815 54.8002   7
  -1   6   8 79.9959 47.2010   6
  -1   6   7 1429.95 144.069   6
  -1   6   6 758.907 96.3925   6
  -1   6   5 203.010 49.0681   6
  -1   6   4 3772.94 194.121   6
  -1   6   3 787.689 82.8348   6
  -1   6   2 1412.00 109.621   6
  -1   6   1 9171.03 322.642   7
  -1   6   0 43.7704 29.5243   7
  -1   6  -1 2343.41 182.889   7
  -1   6  -2 132.400 50.2932   7
  -1   6  -3 455.308 99.4520   7
  -1   6  -4 791.848 148.832   7
  -1   6  -5 7933.27 516.409   7
  -1   6  -6 3622.20 371.138   7
  -1   6  -7 45.0084 45.0680   7
  -1   6  -8 34.9592 79.9978   7
  -1   6  -9-2.14665 56.1027   7
  -1   5   9 1945.59 200.605   6
  -1   5   8 1116.85 142.898   6
  -1   5   7-12.6836 36.4569   6
  -1   5   6 2875.22 198.422   6
  -1   5   5 2554.91 169.812   6
  -1   5   4 9162.61 312.513   6
   1  -5  -3 467.166 66.1292   3
  -1   5   3 594.452 65.7981   6
  -1   5   2 395.411 52.4655   6
   1  -5  -2 407.006 65.0495   3
  -1   5   1 4394.72 186.370   7
  -1   5   1 4276.22 179.144   6
  -1   5   0 6124.64 242.493   7
  -1   5  -1 3117.79 189.438   7
  -1   5  -2 2667.25 203.396   7
  -1   5  -3 3539.03 271.425   7
  -1   5  -3 3419.07 140.915   4
  -1   5  -4 28.3452 27.9778   7
  -1   5  -5 590.135 137.224   7
  -1   5  -6 6154.03 467.269   7
  -1   5  -7 362.166 122.814   7
  -1   5  -8 80.7245 66.8570   7
  -1   5  -9 12.3430 83.2233   7
   1  -5  10 482.710 168.175   6
  -1   5 -10 741.123 204.643   7
  -1   4   9 57.0666 36.7227   6
  -1   4   8 911.878 134.399   6
  -1   4   7 364.953 78.0631   6
  -1   4   6 64.7730 32.6589   6
  -1   4   5 1457.75 134.149   6
  -1   4   4 29913.5 689.266   6
  -1   4   3 4826.88 193.786   6
   1  -4  -3 5057.60 210.854   3
  -1   4   2 8072.24 236.986   6
   1  -4  -2 7808.02 275.198   3
  -1   4   1 751.411 61.4601   6
  -1   4   0 6860.25 228.389   7
  -1   4  -1 1746.39 128.313   7
  -1   4  -2 5085.70 275.551   7
  -1   4  -3 33466.1 943.091   7
  -1   4  -4 14065.9 599.619   7
  -1   4  -5 1214.57 186.143   7
  -1   4  -6 217.337 78.9728   7
  -1   4  -7 995.151 191.519   7
  -1   4  -8 207.313 105.392   7
   1  -4   9 1306.69 245.367   6
  -1   4  -9 1391.11 255.264   7
   1  -4  10 392.085 149.326   6
  -1   3  10 638.393 139.690   6
  -1   3   9 133.624 58.4727   6
  -1   3   8 105.334 52.3816   6
  -1   3   7 843.810 126.757   6
  -1   3   7 789.198 99.9621   5
  -1   3   6 38035.2 877.979   5
  -1   3   6 37863.1 969.353   6
  -1   3   5 216.981 52.4060   5
  -1   3   5 172.158 51.7321   6
  -1   3   4 18.8075 20.7352   6
  -1   3   4 45.2662 24.6437   5
   1  -3  -3 2103.53 124.155   3
  -1   3   3 1980.69 141.913   5
  -1   3   3 2032.24 123.498   6
  -1   3   2 10.1469 8.91603   6
   1  -3  -2 18.5027 13.5660   3
  -1   3   1 14761.3 314.865   6
  -1   3   0 2369.79 107.591   7
  -1   3  -1 4484.61 204.636   7
  -1   3  -2 4180.00 132.837   4
  -1   3  -2 4958.95 257.602   7
  -1   3  -3 61472.2 1369.83   7
  -1   3  -4 28181.0 886.143   7
   1  -3   4 29211.9 597.191   1
  -1   3  -5 2251.42 174.782   2
  -1   3  -5 2428.73 251.429   7
  -1   3  -6 4513.30 370.549   7
  -1   3  -6 4604.10 263.602   2
  -1   3  -7 1.54670 23.8495   2
  -1   3  -7-12.8838 34.2857   7
   1  -3   8 214.695 105.166   6
   1  -3   9 373.949 132.346   6
   1  -3  10 15.7763 50.6373   6
  -1   2  10 468.616 106.899   4
  -1   2  10 785.358 155.540   6
  -1   2   9 656.202 133.859   6
  -1   2   8 695.799 135.932   6
  -1   2   7 2810.42 247.784   6
  -1   2   7 3186.91 200.027   5
  -1   2   6 7034.48 301.951   5
  -1   2   6 7216.39 375.351   6
  -1   2   5 6618.30 281.808   5
  -1   2   5 6570.49 325.799   6
  -1   2   4 2088.95 157.067   6
  -1   2   4 1830.35 135.714   5
  -1   2   3 195.894 31.5758   3
  -1   2   3 158.881 36.0427   6
  -1   2   3 198.636 41.0696   5
  -1   2   2 10490.3 262.551   3
  -1   2   2 10002.1 264.363   6
   1  -2  -2 10198.1 277.624   3
  -1   2   2 9894.05 306.676   5
  -1   2   1 1938.82 69.9975   6
  -1   2   1 1909.51 110.631   5
   1  -2  -1 1755.82 77.0946   6
  -1   2   0 22976.9 443.051   7
  -1   2  -1 999999. 15468.7   7
   1  -2   2 24285.2 589.434   2
  -1   2  -2 23466.5 628.857   7
   1  -2   3 1635.01 69.8103   1
  -1   2  -3 1666.04 129.351   2
  -1   2  -3 1499.37 157.521   7
  -1   2  -4 7507.68 414.378   7
  -1   2  -4 7784.22 324.065   2
  -1   2  -5 5989.22 305.488   2
  -1   2  -5 5480.17 379.415   7
   1  -2   6 860.283 156.416   6
  -1   2  -6 1042.08 178.374   7
  -1   2  -6 1178.08 142.713   2
   1  -2   7-2.57505 20.1866   5
   1  -2   7 0.39779 46.3043   6
   1  -2   8 183.808 95.1162   6
  -1   2  -8 120.102 57.4231   2
   1  -2   9 129.739 74.8821   6
   1  -2  10 44.3903 39.3582   6
  -1   1  11 11.8664 33.3744   6
  -1   1  10-16.1622 23.1712   4
  -1   1  10-151.805 74.3289   6
  -1   1   9 1410.85 203.909   6
  -1   1   8 3011.57 213.210   5
  -1   1   8 2669.88 264.190   6
  -1   1   7 812.411 106.830   5
  -1   1   7 591.536 110.094   6
  -1   1   6 149.193 44.9516   5
  -1   1   6 120.391 41.9252   6
  -1   1   5 2866.87 213.578   6
  -1   1   5 2443.67 170.319   5
  -1   1   4 6257.98 290.478   6
  -1   1   4 6154.53 263.687   5
  -1   1   3 15715.0 447.755   6
  -1   1   3 16551.5 387.472   3
  -1   1   3 16410.5 443.601   5
  -1   1   2 2126.51 102.047   3
  -1   1   2 2083.66 108.975   6
  -1   1   2 1975.31 118.734   5
   1  -1  -2 2090.17 119.662   6
   1  -1  -1 277848. 4313.02   6
  -1   1   1 280936. 4358.65   3
  -1   1   1 279398. 4413.13   5
   1  -1   0 514.537 42.4735   4
  -1   1   0 682.035 48.1077   5
   1  -1   1 15731.4 399.139   2
  -1   1  -1 15477.7 406.362   7
  -1   1  -2 49150.5 1060.96   7
  -1   1  -3 17.1239 25.4715   7
  -1   1  -4 5402.67 343.406   7
   1  -1   4 5017.08 316.366   6
   1  -1   5 4146.98 314.027   6
   1  -1   5 3966.39 189.706   5
   1  -1   6 1374.32 113.999   5
   1  -1   6 1355.48 189.642   6
   1  -1   7 734.669 152.942   6
   1  -1   8 3584.61 349.555   6
   1  -1   9 345.648 114.430   6
   1  -1  10 204.099 109.147   6
  -1   0  11 217.088 95.1170   6
  -1   0  10 60.1946 47.4767   6
  -1   0   9 2173.03 263.326   6
  -1   0   9 1889.76 192.113   4
  -1   0   8 4187.64 282.094   4
  -1   0   8 3930.28 334.354   6
  -1   0   8 3809.65 260.411   5
  -1   0   7-33.4133 26.0455   5
  -1   0   7-14.1453 18.2370   6
  -1   0   6 729.145 123.553   6
  -1   0   6 612.310 94.2743   5
  -1   0   5 98.5857 44.7001   6
  -1   0   5 68.9882 29.4002   5
  -1   0   4 4905.59 245.445   5
  -1   0   4 5065.51 266.100   6
  -1   0   3 6077.59 258.588   5
  -1   0   3 6955.75 237.440   4
  -1   0   3 6508.17 262.748   6
  -1   0   2 1698.87 114.154   5
   1   0  -2 1897.62 98.9681   4
   1   0  -2 1585.31 99.6197   7
   1   0  -1 126461. 2006.79   2
   1   0   1 137000. 2277.29   6
   1   0   2 12290.1 393.670   6
   1   0   3 7681.29 177.461   5
   1   0   3 9593.92 377.073   6
   1   0   4 14656.8 539.333   6
  -1   0  -4 13270.1 284.518   1
   1   0   4 13817.0 298.942   5
   1   0   5 915.656 139.418   6
   1   0   5 976.299 65.5834   5
   1   0   6 3916.78 151.551   5
   1   0   6 4619.90 343.861   6
   1   0   7 77.6807 58.2392   6
   1   0   8 356.938 113.379   6
   1   0   9 5.92985 48.5841   6
   1   0  10-128.110 75.3780   6
  -1  -1  11 139.807 87.1233   6
  -1  -1  10 716.844 162.769   6
  -1  -1   9 1795.32 245.213   6
  -1  -1   9 1419.82 161.615   4
  -1  -1   8 2081.84 211.306   5
  -1  -1   8 1970.91 246.822   6
  -1  -1   8 2104.89 185.514   4
  -1  -1   7 67.2983 49.4854   6
  -1  -1   7 30.4714 25.4309   4
  -1  -1   7 74.7206 41.7393   5
  -1  -1   6 14.6815 16.0165   5
  -1  -1   6 60.2386 44.1995   6
  -1  -1   6 53.6994 24.0055   4
   1   1  -5 40.3350 26.0413   7
  -1  -1   5 93.8366 31.6333   4
  -1  -1   5 27.0886 17.0720   5
   1   1  -4 17905.1 586.180   7
  -1  -1   4 17705.4 453.253   4
   1   1  -3 11991.1 406.939   7
   1   1  -3 12435.2 313.903   4
   1   1  -2 12341.1 337.353   7
   1   1  -1 31711.7 546.685   7
  -1  -1   0 33187.9 632.761   1
   1   1   0 33813.8 582.555   6
   1   1   1 408.813 49.0826   6
  -1  -1  -1 351.648 34.9803   1
  -1  -1  -2 45.2659 10.9715   5
   1   1   2 18.2257 16.7592   6
  -1  -1  -2 19.1103 8.65847   1
   1   1   3 7653.84 336.347   6
  -1  -1  -3 7288.57 222.183   5
  -1  -1  -3 7937.21 215.598   1
   1   1   4 200.407 57.8025   6
  -1  -1  -4 284.527 40.5971   1
  -1  -1  -5 1471.51 110.861   1
   1   1   5 769.628 127.598   6
   1   1   6 1969.23 216.455   6
   1   1   7 336.804 97.2809   6
   1   1   8 3765.28 347.264   6
   1   1   9 304.266 111.997   6
   1   1  10 80.5524 52.7037   6
  -1  -2  11 506.409 155.226   6
  -1  -2  10 2513.84 323.184   6
  -1  -2   9 221.459 81.0263   5
  -1  -2   9 112.099 61.9658   6
  -1  -2   8 1033.19 166.864   5
  -1  -2   8 1078.51 188.597   6
  -1  -2   8 1067.79 124.789   4
   1   2  -7 456.032 118.587   7
  -1  -2   7 295.290 89.6210   5
   1   2  -7 558.129 72.3788   1
  -1  -2   7 431.151 74.5815   4
   1   2  -6 7904.68 260.128   2
   1   2  -6 8518.47 296.757   1
   1   2  -6 8126.86 465.162   7
   1   2  -5 6642.10 377.760   7
   1   2  -5 5946.70 183.120   2
   1   2  -5 6322.24 244.861   1
   1   2  -4 55.9585 27.5724   7
   1   2  -4 59.1613 18.2592   4
   1   2  -4 44.0920 17.3826   1
   1   2  -3 17785.1 529.972   7
   1   2  -3 19432.5 465.823   1
   1   2  -2 676.413 68.4479   7
   1   2  -1 5853.03 159.622   7
   1   2   0 1103.69 60.4130   6
   1   2   1 1111.96 79.0483   6
  -1  -2  -2 153.746 27.6208   5
   1   2   2 113.702 37.5034   6
   1   2   3 10452.1 388.906   6
  -1  -2  -3 10540.0 299.596   5
  -1  -2  -4 359.920 56.0481   5
   1   2   4 336.894 73.6516   6
   1   2   5 6481.42 361.012   6
   1   2   6 11416.1 529.277   6
   1   2   7 386.177 101.618   6
   1   2   8-17.8487 44.1384   6
   1   2   9 12.7831 36.5531   6
  -1  -3  11 52.5272 66.6107   6
  -1  -3  10 58.7383 52.5464   6
   1   3  -9 410.159 132.143   7
  -1  -3   9 292.648 92.5052   5
   1   3  -8 253.323 95.2704   7
   1   3  -7 2103.38 154.642   1
   1   3  -7 1319.16 207.361   7
   1   3  -6 334.026 97.3945   7
   1   3  -6 350.491 60.0807   1
   1   3  -5 14.6553 23.9586   7
   1   3  -5 38.4080 22.8470   1
   1   3  -4 58.1410 26.9336   1
  -1  -3   4 32.3368 14.7539   2
   1   3  -3 21152.8 595.515   7
   1   3  -3 21347.5 514.325   1
   1   3  -2 12978.7 366.321   7
   1   3  -1 24129.4 490.543   7
   1   3   0 3259.94 126.090   6
   1   3   1 124992. 2071.72   6
   1   3   2 5010.21 213.551   6
   1   3   3 266.411 53.0832   6
   1   3   4 884.899 112.188   6
   1   3   5 114.183 43.0823   6
   1   3   6 1086.74 152.614   6
   1   3   7 926.240 147.532   6
   1   3   8 88.3718 49.9872   6
   1   3   9 252.553 88.1520   6
  -1  -4  11 113.908 82.8546   6
   1   4 -10 702.549 186.321   7
   1   4  -9 772.024 178.221   7
   1   4  -8 349.983 113.711   7
   1   4  -7 22.5446 45.3714   7
   1   4  -6 23.1571 34.8369   7
   1   4  -5 6.66676 11.0282   4
   1   4  -5 0.39486 25.5265   7
   1   4  -4 32.5420 18.5560   7
   1   4  -3 28019.1 734.017   7
   1   4  -2 8671.39 305.321   7
   1   4  -1 1295.47 91.9365   7
   1   4   0 2926.72 134.041   6
   1   4   1 6491.13 221.543   6
  -1  -4  -2 2398.35 87.0683   3
   1   4   2 3745.30 173.163   6
   1   4   3 169.988 42.1610   6
   1   4   4 1448.20 139.088   6
   1   4   5 117.976 40.7144   6
   1   4   6 120.539 46.8206   6
   1   4   7 103.209 49.4090   6
   1   4   8 236.313 73.4720   6
   1   5 -11-73.8934 71.9954   7
   1   5 -10-110.368 80.7001   7
   1   5  -9 27.1006 44.7261   7
   1   5  -8 1742.03 267.288   7
   1   5  -7 6469.82 480.509   7
   1   5  -6 193.229 81.7696   7
   1   5  -5 1289.72 179.039   7
   1   5  -4 10291.2 462.276   7
   1   5  -3 11130.7 429.809   7
   1   5  -2 9201.26 345.391   7
   1   5  -1 11940.4 364.713   7
   1   5   0 9404.06 295.079   6
   1   5   1 9537.63 300.074   6
  -1  -5  -2 122.139 23.2426   3
   1   5   2 214.220 44.8542   6
   1   5   3 1462.63 122.265   6
   1   5   4 739.753 94.3128   6
   1   5   5 174.832 49.8325   6
   1   5   6 272.039 69.9317   6
   1   5   7-18.3401 31.9795   6
   1   6 -10 359.555 149.807   7
   1   6  -9 1068.74 223.995   7
   1   6  -8 244.355 113.467   7
   1   6  -7 470.296 136.975   7
   1   6  -6 77.7541 64.0290   7
   1   6  -5 1856.72 214.574   7
   1   6  -4 219.153 67.4084   7
   1   6  -3 179.359 56.7813   7
   1   6  -2 46.0449 23.5597   7
   1   6  -1 444.668 71.4503   7
   1   6   0 87.8122 35.5343   7
   1   6   0 33.0089 22.9305   6
   1   6   1 2.50994 13.0375   6
   1   6   2 1842.92 135.240   6
   1   6   3 63.9340 29.4605   6
   1   6   4 63.8971 32.0700   6
   1   6   5 95.8844 39.9011   6
   1   6   6 229.259 62.6284   6
   1   7 -10 11.0799 42.4134   7
   1   7  -9 799.244 202.238   7
   1   7  -8 195.746 110.282   7
   1   7  -7 1162.65 210.904   7
   1   7  -6 1121.02 193.474   7
   1   7  -5 3.96146 38.4530   7
   1   7  -4 1981.41 218.898   7
   1   7  -3 3412.24 266.296   7
   1   7  -2 165.427 48.6981   7
   1   7  -1 2826.49 208.426   7
   1   7   0 1347.45 131.552   7
   1   7   1 2494.64 170.261   6
   1   7   2 16.1742 25.8106   6
   1   7   3 79.6609 33.3982   6
   1   7   4 113.271 39.4514   6
   1   7   5 33.0765 27.2519   6
   1   8  -9 369.579 146.670   7
   1   8  -8-114.743 76.2828   7
   1   8  -7 63.0499 62.5496   7
   1   8  -6-1.71300 57.5659   7
   1   8  -5-4.04154 31.5668   7
   1   8  -4 72.6502 46.5386   7
   1   8  -3 314.874 93.6092   7
   1   8  -2 382.397 131.264   7
   1   8  -1 161.052 68.0161   7
   1   8   0 1019.09 132.058   7
   1   8   1 429.693 80.6500   7
   1   8   2 130.613 47.2507   6
   1   8   3 962.326 115.937   6
   1   8   4 111.382 42.1541   6
   1   9  -8-2.74389 65.4325   7
   1   9  -7 142.889 94.7246   7
   1   9  -6 280.652 104.663   7
   1   9  -5 320.443 113.018   7
   1   9  -4 91.4114 72.7624   7
   1   9  -3 1923.62 243.452   7
   1   9  -2 2958.62 287.539   7
   1   9  -1 172.261 79.4090   7
   1   9   0 214.850 69.8185   7
   1   9   1 5.97320 20.9147   7
   1   9   2 135.961 55.4044   7
   1  10  -5-33.5987 40.3314   7
   1  10  -4 819.874 185.398   7
   1  10  -3 119.326 79.6192   7
   1  10  -2 354.568 110.977   7
   1  10  -1 37.4874 42.9008   7
  -2  10   2 60.6984 47.1176   7
  -2  10   1-6.25422 48.0284   7
  -2  10   0 162.166 81.2214   7
  -2  10  -1 309.972 108.395   7
  -2  10  -2 1821.54 271.089   7
  -2  10  -3 22.4590 41.3219   7
  -2  10  -4-83.6797 68.5977   7
  -2  10  -5 106.541 77.1374   7
  -2   9   4 20.7659 22.9222   7
  -2   9   3 50.6584 37.3375   7
  -2   9   2 23.6493 34.2179   7
  -2   9   1 1107.19 163.512   7
  -2   9   0 583.569 128.377   7
  -2   9  -1 297.330 96.4101   7
  -2   9  -2 515.159 129.025   7
  -2   9  -3-29.2371 37.3032   7
  -2   9  -4 54.2410 40.0164   7
  -2   9  -5 53.1634 56.9424   7
  -2   9  -6 130.966 86.6204   7
  -2   9  -7 57.4050 70.2594   7
  -2   8   6 521.771 84.3264   6
  -2   8   5 777.377 101.307   6
  -2   8   4 157.152 53.3813   7
  -2   8   4 46.8303 29.4653   6
  -2   8   3 410.541 78.2010   7
  -2   8   2 389.553 78.9143   7
   2  -8  -1 839.264 130.891   3
  -2   8   1 786.458 121.495   7
  -2   8   0 3386.76 271.598   7
  -2   8  -1 643.222 125.341   7
  -2   8  -2 142.674 66.5416   7
  -2   8  -3 37.2896 48.5838   7
  -2   8  -4 273.662 101.209   7
  -2   8  -5 954.073 203.935   7
  -2   8  -6 853.677 200.258   7
  -2   8  -7 971.395 229.908   7
  -2   8  -8-119.389 92.1725   7
  -2   7   7 688.862 96.6849   6
  -2   7   6 8.21990 16.2225   6
  -2   7   5 127.614 40.2327   6
  -2   7   4 346.483 61.1959   6
  -2   7   3 3873.31 212.456   7
  -2   7   3 3309.18 190.574   6
  -2   7   2 489.431 78.3000   7
   2  -7  -2 402.962 87.8776   3
  -2   7   1 212.223 59.2288   7
   2  -7  -1 156.276 53.4747   3
  -2   7   0 891.740 122.536   7
  -2   7  -1 419.750 90.0867   7
  -2   7  -2 148.828 57.2944   7
  -2   7  -3 2803.33 276.287   7
  -2   7  -4 822.590 171.810   7
  -2   7  -5 58.8719 81.7089   7
  -2   7  -6 26.0757 51.6121   7
  -2   7  -7 917.258 220.365   7
  -2   7  -8 119.946 88.3106   7
  -2   6   8 23.8306 32.1829   6
  -2   6   7 838.654 101.398   6
  -2   6   6 50.8851 29.7870   6
  -2   6   5 14.9095 22.5099   6
  -2   6   4 426.210 61.5157   6
  -2   6   3 11111.9 342.080   6
   2  -6  -2 4069.44 255.295   3
  -2   6   2 4302.46 205.878   7
  -2   6   1 551.666 76.9189   7
   2  -6  -1 565.873 93.6952   3
  -2   6   0 664.073 92.6816   7
  -2   6  -1 686.048 106.911   7
  -2   6  -2 102.485 47.3433   7
  -2   6  -2 73.7657 30.4162   4
  -2   6  -3 59.8151 54.1743   7
  -2   6  -4 2057.26 256.232   7
  -2   6  -5 1831.90 260.922   7
  -2   6  -6 481.299 157.330   7
  -2   6  -7 71.7620 71.6535   7
  -2   6  -8 82.4040 66.1408   7
  -2   6  -9 82.7017 72.2395   7
  -2   5   9 305.118 71.5149   6
  -2   5   8 8.49882 20.4876   6
  -2   5   7 18.1221 18.2891   6
  -2   5   6 135.708 39.6335   6
  -2   5   5 17648.8 470.550   6
  -2   5   4 747.666 75.0102   6
  -2   5   3 47.5903 20.5067   6
  -2   5   2 30.8725 16.0229   6
  -2   5   1 337.533 52.3226   7
  -2   5   0 195.760 44.5547   7
  -2   5  -1 133.851 44.2529   7
  -2   5  -1 157.263 41.2941   4
  -2   5  -2 584.671 72.9706   4
  -2   5  -2 643.502 110.146   7
  -2   5  -3 505.929 111.446   7
  -2   5  -4 4672.01 372.058   7
  -2   5  -5 5196.41 420.790   7
  -2   5  -6 355.185 120.566   7
  -2   5  -7 1288.51 239.627   7
  -2   5  -8 20.9529 43.5547   7
   2  -5   9 34.3959 65.1838   6
  -2   5  -9-48.2694 70.9305   7
  -2   4  10 109.197 46.0912   6
  -2   4   9 407.920 106.056   4
  -2   4   9 453.248 97.8253   6
  -2   4   8 52.4439 23.7973   6
  -2   4   7 956.502 127.097   5
  -2   4   7 989.095 120.815   6
  -2   4   6 1986.34 156.328   6
  -2   4   6 2029.28 181.983   5
  -2   4   5 3626.41 239.733   5
  -2   4   5 3730.28 191.287   6
  -2   4   4 2537.66 193.409   5
   2  -4  -4 2564.10 175.274   3
  -2   4   4 2470.51 134.412   6
  -2   4   3 3255.54 138.035   6
   2  -4  -3 3256.25 196.067   3
   2  -4  -2 6275.41 274.843   3
  -2   4   2 6779.95 200.996   6
   2  -4  -1 10.7852 10.5175   3
  -2   4   1 46.3489 20.3397   7
  -2   4   0 21.8867 18.1968   7
  -2   4   0-39.6571 22.8008   4
  -2   4  -1 13282.3 455.313   7
  -2   4  -1 12802.7 386.491   4
  -2   4  -2 73926.9 1595.08   7
  -2   4  -3 2281.45 220.890   7
  -2   4  -4 181.734 73.1667   7
  -2   4  -5 1377.16 203.322   7
  -2   4  -6 1254.75 207.262   7
  -2   4  -7-3.04371 42.1403   7
   2  -4   8-3.86582 62.6486   6
  -2   4  -8-21.6717 42.7088   7
   2  -4   9 112.110 94.3032   6
  -2   3  10 172.153 72.7141   6
  -2   3  10 195.201 80.7726   4
  -2   3   9 167.503 63.9652   6
  -2   3   9 163.889 78.9369   4
  -2   3   8-10.4439 19.3761   5
  -2   3   8 50.1208 43.2869   6
  -2   3   7 1098.82 131.730   5
  -2   3   7 1169.37 138.924   6
  -2   3   6 4745.43 272.507   5
  -2   3   6 4536.33 254.669   6
  -2   3   5 594.121 91.7309   5
  -2   3   5 438.002 66.0217   6
  -2   3   4 1708.88 151.281   5
  -2   3   4 1481.70 106.980   6
  -2   3   3 5719.92 185.385   6
  -2   3   3 5559.91 269.693   5
   2  -3  -3 5415.05 246.314   3
  -2   3   2 15.2621 11.1339   5
  -2   3   2 33.8941 12.0227   6
   2  -3  -2 34.4497 21.3970   3
  -2   3   1 46.2856 24.8066   5
  -2   3   1 7.27724 15.8845   4
  -2   3   1 2.85554 7.69741   7
   2  -3  -1 0.37435 16.6074   3
  -2   3   0 40289.4 811.870   7
  -2   3   0 40740.4 848.402   4
  -2   3  -1 1890.41 150.067   7
  -2   3  -2 2211.40 184.741   7
   2  -3   2 2311.25 115.120   4
   2  -3   3 2577.31 116.175   4
  -2   3  -3 2778.37 234.505   7
  -2   3  -4 71.2598 36.8712   2
  -2   3  -4 4.64905 29.1047   7
  -2   3  -5 2542.44 214.485   2
  -2   3  -5 2902.79 289.909   7
  -2   3  -6 1466.91 221.321   7
  -2   3  -6 1379.08 169.619   2
   2  -3   7 889.020 178.635   6
  -2   3  -7 904.909 191.890   7
  -2   3  -7 912.118 145.285   2
   2  -3   8 131.688 73.6823   6
  -2   3  -8 9.99671 37.5969   2
   2  -3   9 219.307 103.674   6
   2  -3  10-81.3990 69.8498   6
  -2   2  11 96.6085 67.1656   4
  -2   2  11 128.281 63.7799   6
  -2   2  10 276.587 90.0099   4
  -2   2  10 221.685 84.2172   6
  -2   2   9 223.549 75.0191   4
  -2   2   9 195.768 68.3034   6
  -2   2   8 3035.39 262.032   6
  -2   2   8 2902.42 261.101   4
  -2   2   8 3268.72 244.085   5
  -2   2   7 1563.59 171.731   6
  -2   2   7 1552.49 164.730   5
  -2   2   7 1745.53 191.901   4
  -2   2   6 22.4125 24.9931   5
  -2   2   6-16.3090 30.1217   6
  -2   2   5 1824.33 151.695   6
  -2   2   5 2096.99 176.622   5
  -2   2   4 8653.71 358.705   5
  -2   2   4 8918.64 309.103   6
   2  -2  -3 14750.1 428.994   3
  -2   2   3 14440.0 464.974   5
  -2   2   3 14593.2 351.827   6
   2  -2  -2 3056.18 162.709   3
  -2   2   2 2918.10 175.448   5
  -2   2   2 3175.36 95.1870   6
   2  -2  -2 3060.06 132.267   6
   2  -2  -1 7200.24 150.908   6
  -2   2   1 7004.98 168.177   7
  -2   2   1 7255.10 264.555   5
  -2   2   0 13746.6 369.616   5
  -2   2   0 13769.9 361.307   7
   2  -2   0 13813.0 305.677   7
   2  -2   0 14597.1 378.522   4
   2  -2   1 46189.0 864.407   4
  -2   2  -1 44309.1 951.226   7
  -2   2  -2 26523.2 689.344   2
  -2   2  -2 25440.7 718.991   7
  -2   2  -3 2657.78 200.162   2
  -2   2  -3 2669.95 228.045   7
  -2   2  -4 604.904 122.538   7
  -2   2  -4 889.844 123.279   2
  -2   2  -5 3430.34 322.234   7
  -2   2  -5 3601.37 272.244   2
   2  -2   5 3200.85 291.850   6
   2  -2   6 41.7220 37.8449   6
  -2   2  -6 97.0574 53.0814   2
  -2   2  -7 2099.01 234.596   2
   2  -2   7 1233.33 202.320   6
   2  -2   8 103.357 59.6850   6
  -2   2  -8 112.841 65.2684   2
   2  -2   9 6.70989 44.1336   6
   2  -2  10 128.877 87.4512   6
  -2   1  11-23.1007 35.1564   6
  -2   1  10 91.0314 54.9768   6
  -2   1  10 23.0711 30.4727   4
  -2   1   9 78.6513 45.6662   6
  -2   1   9 101.926 46.7578   4
  -2   1   8 3449.64 277.200   4
  -2   1   8 3551.69 265.504   5
  -2   1   8 3617.52 296.466   6
  -2   1   7 3662.95 275.340   6
  -2   1   7 3798.12 263.847   5
  -2   1   7 3809.70 276.962   4
  -2   1   6 10.1595 14.3966   5
  -2   1   6 17.0692 25.2423   6
  -2   1   6 42.1519 34.0204   4
  -2   1   5 758.078 106.988   5
  -2   1   5 822.774 105.113   6
  -2   1   5 903.545 115.198   4
  -2   1   4 6900.29 281.537   6
  -2   1   4 6806.95 314.518   5
  -2   1   4 6764.68 302.898   4
  -2   1   3 53296.6 1140.30   5
  -2   1   3 55285.9 1014.36   6
  -2   1   2 15704.1 464.812   5
  -2   1   2 16925.1 316.827   6
   2  -1  -2 17243.4 359.443   6
  -2   1   1 84361.6 1511.74   5
   2  -1   0 114323. 1893.96   7
  -2   1   0 114494. 1931.25   5
   2  -1   0 116149. 1954.94   5
  -2   1   0 115342. 1918.65   7
  -2   1  -1 18052.6 380.702   5
   2  -1   1 18459.5 492.041   7
   2  -1   1 18487.0 406.141   5
  -2   1  -1 18105.7 503.811   7
   2  -1   2 1897.49 156.329   6
  -2   1  -2 2023.52 173.829   7
   2  -1   2 1951.22 88.5634   5
   2  -1   3 657.094 104.745   6
   2  -1   3 761.598 46.7831   5
   2  -1   4 7022.83 390.910   6
   2  -1   4 6890.45 164.576   5
   2  -1   5 677.746 128.788   6
   2  -1   5 218.396 28.6284   5
   2  -1   6 68.8756 61.7025   6
   2  -1   7 437.053 129.450   6
   2  -1   8 1466.45 236.378   6
   2  -1   9 519.932 147.451   6
  -2   0  12 33.8053 38.7550   6
  -2   0  11 377.552 125.161   6
  -2   0  10 294.280 84.9708   4
  -2   0  10 485.206 130.188   6
  -2   0   9 2519.34 272.093   6
  -2   0   9 2669.27 246.479   5
  -2   0   9 2391.63 231.562   4
  -2   0   8 281.962 75.7965   5
  -2   0   8 431.080 94.0933   4
  -2   0   8 334.666 95.7564   6
  -2   0   7 2689.46 221.677   4
  -2   0   7 3091.58 249.040   5
  -2   0   7 2910.84 250.523   6
  -2   0   6 3513.16 255.777   5
  -2   0   6 3213.29 243.239   6
  -2   0   6 3751.49 241.831   4
  -2   0   5 49176.6 1164.23   5
  -2   0   5 50568.3 1097.45   4
  -2   0   5 48724.1 1119.68   6
  -2   0   4 18524.0 584.726   5
  -2   0   4 18086.8 516.336   6
  -2   0   4 17875.7 515.981   4
  -2   0   3 130.511 42.3119   5
  -2   0   3 123.828 33.7109   7
   2   0  -2 8297.64 212.555   7
  -2   0   2 8496.31 327.630   5
   2   0  -2 8788.71 249.289   2
  -2   0   2 8777.64 206.566   7
  -2   0   1 15331.2 426.110   5
   2   0  -1 15068.5 250.645   6
  -2   0   1 15049.4 277.804   6
  -2   0   1 15235.4 380.029   3
   2   0   0 34027.2 683.981   5
   2   0   0 32873.0 637.999   6
  -2   0   0 34283.7 652.645   3
  -2   0   0 33230.1 666.576   6
  -2   0   0 34179.5 689.787   5
   2   0   1 850.193 85.6909   6
  -2   0  -1 819.675 53.5803   5
   2   0   1 901.597 66.2765   3
   2   0   2 79.2701 19.5165   1
   2   0   2 83.3636 36.3172   6
   2   0   3 400.230 81.8083   6
   2   0   4 12502.5 527.970   6
   2   0   5 1546.45 191.372   6
   2   0   6 9097.11 514.386   6
   2   0   7 5325.65 411.427   6
   2   0   8-26.5733 45.0081   6
   2   0   9 19.0402 48.6316   6
  -2  -1  12-25.4854 45.1597   6
  -2  -1  11 172.377 100.285   6
  -2  -1  10 674.236 156.791   6
  -2  -1   9 180.853 77.6333   6
  -2  -1   9 170.780 67.1643   5
  -2  -1   9 165.445 56.7014   4
  -2  -1   8 296.316 76.6642   4
  -2  -1   8 246.903 89.2429   6
  -2  -1   8 335.114 91.3085   5
  -2  -1   7 114.281 56.3038   6
  -2  -1   7 121.838 53.9867   5
  -2  -1   7 132.385 46.5666   4
  -2  -1   6 13358.4 472.128   4
  -2  -1   6 12986.8 565.155   5
   2   1  -6 13781.8 586.293   7
   2   1  -5 8024.68 392.150   7
  -2  -1   5 8005.42 402.701   5
  -2  -1   4 215.103 60.3518   5
   2   1  -4 134.079 46.2056   7
  -2  -1   3 815.397 73.6926   7
   2   1  -3 945.309 91.4715   7
  -2  -1   2 5209.13 178.327   2
  -2  -1   2 5270.74 139.943   7
   2   1  -2 5068.26 168.927   7
  -2  -1   1 13054.2 266.172   6
   2   1  -1 13455.1 254.305   6
   2   1   0 12696.5 303.721   6
  -2  -1   0 14087.9 332.329   3
   2   1   1 1781.80 89.9110   3
  -2  -1  -1 1836.83 84.9529   3
   2   1   1 1849.34 121.222   6
   2   1   1 1929.99 111.140   1
   2   1   2 152612. 2432.67   3
   2   1   2 151528. 2671.82   6
   2   1   3 55.7561 15.1694   3
   2   1   3 79.3042 40.9168   6
   2   1   4 2153.22 206.853   6
   2   1   5 737.624 129.580   6
   2   1   6 637.898 134.934   6
   2   1   7 27.4298 30.3691   6
   2   1   8 41.8777 41.4594   6
   2   1   9 75.3707 51.4072   6
  -2  -2  12-56.3109 59.8532   6
  -2  -2  11 58.9777 58.1614   6
  -2  -2  10-50.2546 52.9940   6
  -2  -2  10 44.9923 56.3045   5
  -2  -2   9 741.305 161.126   6
  -2  -2   9 974.713 178.286   5
   2   2  -8 4487.82 392.485   7
  -2  -2   8 4517.93 366.468   5
   2   2  -7 5474.07 394.105   7
  -2  -2   7 5460.82 378.958   5
   2   2  -6 145.929 64.8655   7
   2   2  -5 4518.29 297.197   7
   2   2  -4 10018.3 398.341   7
   2   2  -3 22224.0 559.848   7
   2   2  -2 27030.5 550.097   7
   2   2  -1 32376.2 582.920   6
   2   2   0 2556.45 109.685   6
   2   2   0 2857.49 154.272   1
   2   2   1 5322.87 209.730   6
  -2  -2  -1 5418.14 159.574   3
   2   2   2 19225.5 529.664   6
  -2  -2  -3 11090.2 281.663   5
   2   2   3 12041.5 439.630   6
   2   2   4 24.3678 27.4458   6
   2   2   5 839.574 132.163   6
   2   2   6-13.2495 44.3250   6
   2   2   7 336.059 96.3328   6
   2   2   8-54.5784 45.2795   6
  -2  -3  12-18.0438 45.1730   6
  -2  -3  11 732.655 183.882   6
  -2  -3  10-6.90864 47.1720   6
  -2  -3  10 64.8108 52.8856   5
   2   3  -9 87.4496 56.3269   7
  -2  -3   9 161.832 70.4427   5
   2   3  -8 289.532 100.964   7
   2   3  -7 4796.80 376.260   7
   2   3  -6 8023.19 452.619   7
   2   3  -5 558.298 103.505   7
   2   3  -4 12409.2 453.162   7
   2   3  -4 10377.1 386.454   1
   2   3  -3 4114.56 213.685   7
   2   3  -2 17015.7 414.435   7
   2   3  -1 10954.1 274.265   6
   2   3   0 30832.4 607.085   6
  -2  -3  -1 18156.0 398.085   3
   2   3   1 18972.8 454.583   6
   2   3   2 24756.9 614.223   6
   2   3   3 31.3485 17.3329   6
   2   3   4 2036.77 179.885   6
   2   3   5 1184.18 149.466   6
   2   3   6-19.8944 27.0743   6
   2   3   7 35.5094 34.5847   6
   2   3   8 123.124 66.9155   6
  -2  -4  11 120.289 40.6790   6
   2   4 -10 205.830 104.033   7
  -2  -4  10 112.024 68.2525   5
   2   4  -9 1971.58 281.157   7
   2   4  -8 1581.42 240.313   7
   2   4  -8 2104.54 178.091   1
   2   4  -7 114.236 50.8544   7
   2   4  -7 167.305 50.5979   1
   2   4  -6 3356.44 291.215   7
   2   4  -5 4979.50 324.389   7
  -2  -4   5 2776.01 116.389   2
   2   4  -4 240.635 58.8348   7
   2   4  -3 4874.40 244.006   7
   2   4  -2 259.025 45.8147   7
   2   4  -1 4.10405 10.6917   6
   2   4  -1 49.1628 22.4116   7
   2   4   0 316.736 45.7939   6
   2   4   1 2592.75 141.605   6
   2   4   2 126.616 36.5197   6
   2   4   3 574.336 81.6838   6
   2   4   4 35.7658 28.2276   6
   2   4   5 122.302 43.8219   6
   2   4   6-22.9160 40.3139   6
   2   4   7 9.56549 34.5688   6
   2   5 -11 89.0866 62.6644   7
  -2  -5  11 36.2573 45.6868   5
   2   5 -10 106.819 60.4003   7
   2   5  -9 402.263 135.451   7
   2   5  -8 2063.38 278.250   7
   2   5  -7 462.929 125.810   7
   2   5  -6 2372.40 254.519   7
   2   5  -5 1712.00 193.219   7
   2   5  -4 2412.92 205.532   7
   2   5  -3 2014.65 164.703   7
   2   5  -2 4350.68 219.779   7
   2   5  -1 2430.26 145.074   7
   2   5   0 4113.02 186.573   6
   2   5   1 1250.29 102.501   6
   2   5   2 4964.30 226.078   6
   2   5   3 1563.41 134.575   6
   2   5   4 2011.80 166.905   6
   2   5   5-34.0268 38.7346   6
   2   5   6 118.399 49.3554   6
   2   5   7 520.045 107.083   6
   2   6 -11-8.60425 38.4239   7
   2   6 -10 175.458 99.0854   7
   2   6  -9 680.764 178.802   7
   2   6  -8 3394.06 367.255   7
   2   6  -7 376.820 114.436   7
   2   6  -6 1023.32 172.396   7
   2   6  -5 261.641 81.4907   7
   2   6  -4 25.3875 38.2438   7
   2   6  -3 186.023 53.0725   7
   2   6  -2 1251.09 130.164   7
   2   6  -1 32.9235 28.6714   7
   2   6   0 222.760 48.6009   6
   2   6   1 3333.01 183.785   6
   2   6   2 1671.65 133.881   6
   2   6   3 1620.02 138.961   6
   2   6   4 313.506 65.7523   6
   2   6   5-14.6583 29.9278   6
   2   6   6 145.772 53.3191   6
   2   7 -10 156.246 88.7762   7
   2   7  -9 120.838 79.5354   7
   2   7  -8 287.226 115.086   7
   2   7  -7 46.0726 48.4072   7
   2   7  -6 2.46350 29.2393   7
   2   7  -5 54.3840 29.7563   7
   2   7  -4 477.070 110.034   7
   2   7  -3-37.4501 60.2213   7
   2   7  -2 7466.72 369.706   7
   2   7  -1 10776.0 418.114   7
   2   7   0 115.347 44.2477   7
   2   7   0 89.9840 34.6291   6
   2   7   1 2728.14 183.473   6
   2   7   2 528.069 79.7260   6
   2   7   3 14.4233 15.9464   6
   2   7   4 69.2599 34.6044   6
   2   8  -9 41.6793 41.4605   7
   2   8  -8 151.993 92.1706   7
   2   8  -7 102.934 65.9385   7
   2   8  -6 96.3058 50.9357   7
   2   8  -5 363.762 108.844   7
   2   8  -4 269.350 89.6007   7
   2   8  -3 4504.56 334.930   7
   2   8  -2 94.3363 47.5662   7
   2   8  -1 1210.97 150.262   7
   2   8   0 873.548 119.394   7
   2   8   1 620.832 95.9924   6
   2   8   1 499.939 87.6280   7
   2   8   2 52.5313 29.7552   6
   2   8   3 348.590 73.5510   6
   2   9  -8 46.5544 59.0648   7
   2   9  -7 98.6796 53.1950   7
   2   9  -6-15.0218 38.4549   7
   2   9  -5 548.172 140.582   7
   2   9  -4 163.859 83.0276   7
   2   9  -3 2152.28 253.829   7
   2   9  -2 75.6868 42.8872   7
   2   9  -1 122.464 62.0178   7
   2   9   0-20.0127 29.1431   7
   2   9   1 46.3570 34.8830   7
   2  10  -5 204.021 95.5581   7
   2  10  -4 70.1176 40.3428   7
   2  10  -3 226.915 99.9656   7
   2  10  -2-98.3554 64.5497   7
  -3  10   3 65.3039 56.3085   7
  -3  10   2 0.15552 60.3703   7
  -3  10   2 31.5514 74.1380   4
  -3  10   1 224.724 88.5856   7
  -3  10   0 41.2627 47.1073   7
   3 -10   0 18.8805 35.4947   3
  -3  10  -1 291.581 120.376   7
  -3  10  -2 89.3189 66.7161   7
  -3  10  -3-96.0006 71.7756   7
  -3  10  -4 3.30106 37.1738   7
  -3  10  -5 20.6490 47.5024   7
  -3   9   5-18.4140 30.8224   7
  -3   9   4 183.231 105.595   4
  -3   9   4 46.2549 47.8367   7
  -3   9   3 14.8193 34.0682   7
  -3   9   3-52.3216 64.1325   4
  -3   9   2 289.245 89.2704   7
  -3   9   2 635.607 197.608   4
  -3   9   1-20.6896 51.9411   7
   3  -9  -1 69.0517 50.0350   3
  -3   9   1-35.8737 62.7353   4
   3  -9   0-35.6266 39.4455   3
  -3   9   0 66.7748 66.9254   7
  -3   9  -1 89.3334 59.6591   7
  -3   9  -2-73.4173 55.7044   7
  -3   9  -3-90.8084 66.3026   7
  -3   9  -4 268.830 116.692   7
  -3   9  -5 124.181 83.6178   7
  -3   9  -6 61.6456 48.6981   7
  -3   8   5 95.9738 43.1300   7
  -3   8   5-7.01613 58.4949   4
  -3   8   4 73.0012 39.6686   7
  -3   8   4 61.5501 67.2294   4
  -3   8   3 9.91140 23.8744   7
  -3   8   3 102.880 90.1802   4
  -3   8   2 1248.49 152.439   7
   3  -8  -2 1320.14 176.282   3
  -3   8   2 1632.24 263.457   4
  -3   8   1 271.082 73.7501   7
   3  -8  -1 183.212 69.1124   3
  -3   8   0 434.073 101.062   7
   3  -8   0 458.669 108.072   3
  -3   8   0 549.744 138.512   4
  -3   8  -1 535.835 120.004   7
  -3   8  -2 48.6547 36.3210   7
  -3   8  -3 27.0172 44.3830   7
  -3   8  -4 35.6574 91.7946   7
  -3   8  -5 43.7835 61.2669   7
  -3   8  -6-87.1062 77.1096   7
  -3   8  -7-110.054 88.1319   7
  -3   7   6 31.2407 53.9587   4
  -3   7   5 509.794 74.4981   6
  -3   7   5 367.216 107.103   4
  -3   7   4 4511.69 232.307   7
  -3   7   4 3807.05 347.749   4
  -3   7   3 1408.10 131.693   7
   3  -7  -3 1282.97 167.723   3
  -3   7   3 1072.24 190.416   4
  -3   7   2 600.344 92.2144   7
   3  -7  -2 510.820 103.260   3
  -3   7   1-36.8345 40.3353   7
   3  -7  -1 59.7681 49.2043   3
  -3   7   1 80.3726 57.0268   4
  -3   7   0 55.5910 36.6199   7
  -3   7   0 1.03104 34.3197   4
  -3   7  -1 382.222 94.6646   7
  -3   7  -1 462.808 94.4004   4
  -3   7  -2 207.745 79.2854   7
  -3   7  -3 293.437 101.040   7
  -3   7  -4 94.0789 62.1107   7
  -3   7  -5 197.850 95.0128   7
  -3   7  -6 372.920 151.693   7
  -3   7  -7 336.958 146.809   7
  -3   7  -8 93.9332 80.5695   7
  -3   6   8 9.12361 27.6759   4
  -3   6   7 183.157 42.9830   6
  -3   6   7 72.1399 48.8924   4
  -3   6   6 973.253 95.3976   6
  -3   6   6 789.922 149.136   4
  -3   6   5 684.998 76.1550   6
  -3   6   5 668.722 144.154   4
  -3   6   4 475.447 63.3629   6
  -3   6   4 351.472 110.002   4
   3  -6  -4 312.292 75.1333   3
  -3   6   3 368.088 58.2049   7
   3  -6  -3 176.919 59.5591   3
  -3   6   3 332.711 102.197   4
  -3   6   2 123.412 36.8112   7
   3  -6  -2 124.675 50.4507   3
  -3   6   2 58.7118 44.8306   4
  -3   6   1 3003.14 199.524   7
   3  -6  -1 3149.82 237.106   3
  -3   6   1 3679.50 291.724   4
  -3   6   0 302.271 75.9558   4
  -3   6   0 368.860 77.6018   7
  -3   6  -1-5.32803 23.0993   7
  -3   6  -2 694.404 132.447   7
  -3   6  -3 14385.5 695.526   7
  -3   6  -4-19.3102 40.5898   7
  -3   6  -5 600.785 162.636   7
  -3   6  -6 442.398 148.984   7
  -3   6  -7 544.833 167.150   7
  -3   6  -8 26.5842 67.3271   7
  -3   5   9 287.899 98.8661   4
  -3   5   8 62.9360 26.5865   6
  -3   5   8 69.5698 55.9313   4
  -3   5   7 109.686 38.0007   6
  -3   5   7 118.386 67.4598   4
  -3   5   6 172.211 39.3010   6
  -3   5   6 283.606 92.8631   4
  -3   5   5 11280.8 325.216   6
  -3   5   5 9749.72 524.273   4
  -3   5   4 449.649 53.6487   6
  -3   5   4 319.253 89.8783   4
   3  -5  -4 372.858 77.0359   3
  -3   5   3 191.389 35.4518   6
   3  -5  -3 190.922 57.4768   3
  -3   5   3 284.202 84.4668   4
  -3   5   2 1614.65 112.594   7
   3  -5  -2 1745.20 165.224   3
  -3   5   2 1923.24 201.019   4
   3  -5  -1 1400.00 142.846   3
  -3   5   1 1245.79 111.287   7
  -3   5   1 1244.62 149.610   4
  -3   5   0 1668.81 151.156   7
  -3   5  -1 7658.94 382.402   7
  -3   5  -1 6774.07 312.425   4
  -3   5  -2 198.282 83.2295   7
  -3   5  -3 111.173 70.5993   7
  -3   5  -4 245.409 96.6955   7
  -3   5  -5 1273.60 213.724   7
  -3   5  -6 52.6557 47.0203   7
  -3   5  -7 103.239 78.5902   7
  -3   5  -8 193.518 97.7553   7
   3  -5   8 237.292 123.241   6
   3  -5   9 185.969 102.808   6
  -3   4   9 564.956 97.7532   6
  -3   4   9 491.870 119.545   4
  -3   4   8 51.3873 42.1196   5
  -3   4   8-31.2221 26.7863   6
  -3   4   8 54.6579 49.8330   4
  -3   4   7 2828.94 239.756   5
  -3   4   7 2688.41 180.344   6
  -3   4   7 2329.84 248.428   4
  -3   4   6 16.9728 39.7322   5
  -3   4   6 5.06848 15.8775   6
  -3   4   6 51.6709 43.2170   4
  -3   4   5 669.395 67.6541   6
  -3   4   5 740.650 114.553   5
  -3   4   5 622.805 124.379   4
  -3   4   4 407.033 85.6771   5
  -3   4   4 500.601 51.9508   6
  -3   4   4 679.551 122.098   4
  -3   4   3 4138.33 292.323   4
  -3   4   3 4646.51 158.262   6
  -3   4   3 4625.52 274.582   5
  -3   4   2 10241.5 415.158   5
  -3   4   2 10203.5 278.439   7
  -3   4   2 10443.9 442.315   4
  -3   4   1 25.3657 15.2919   7
  -3   4   0 1218.71 125.845   7
  -3   4   0 1051.22 118.487   4
  -3   4  -1 2172.83 192.177   7
  -3   4  -2 27053.2 832.374   7
  -3   4  -3 334.517 86.5896   7
   3  -4   3 493.211 61.3389   4
  -3   4  -4 110.545 66.9767   7
  -3   4  -5-18.1179 30.9536   7
  -3   4  -6 711.960 161.111   7
  -3   4  -7 69.8229 44.5771   2
   3  -4   7 107.785 63.1058   6
  -3   4  -7 91.9713 76.8462   7
   3  -4   8 858.124 196.691   6
   3  -4   9 55.7399 72.8697   6
  -3   3  10 84.3255 54.6713   4
  -3   3   9 72.1723 35.9016   5
  -3   3   9 209.673 67.0034   6
  -3   3   9 127.526 70.6579   4
  -3   3   8 11.0806 23.5393   5
  -3   3   8 49.4302 32.5511   6
  -3   3   8-46.8958 41.2629   4
  -3   3   7 5416.40 277.455   6
  -3   3   7 5309.57 330.510   5
  -3   3   7 5361.13 375.255   4
  -3   3   6 7071.26 372.203   5
  -3   3   6 6625.67 278.564   6
  -3   3   6 7299.39 423.615   4
  -3   3   5 208.721 60.0727   5
  -3   3   5 117.866 29.1408   6
  -3   3   5 216.164 69.1677   4
  -3   3   4 75.9018 20.5965   6
  -3   3   4 96.7451 40.1569   5
  -3   3   3 8669.60 211.677   6
  -3   3   3 9495.43 391.179   5
  -3   3   2 41822.6 978.570   5
   3  -3  -2 43006.9 788.108   6
  -3   3   2 43163.4 757.887   7
  -3   3   1 2111.01 120.176   7
   3  -3  -1 2206.06 78.7360   6
  -3   3   1 2258.32 163.226   5
  -3   3   1 2162.96 168.157   4
  -3   3   0 44752.8 960.326   5
  -3   3   0 44443.9 957.798   7
  -3   3  -1 36586.6 895.979   7
  -3   3  -2 543.628 95.1222   7
  -3   3  -3 2779.03 249.303   7
  -3   3  -3 2681.74 228.337   2
  -3   3  -4 474.355 118.063   7
  -3   3  -4 602.656 112.340   2
  -3   3  -5 416.290 120.742   7
   3  -3   5 346.050 96.1941   6
  -3   3  -5 339.873 90.5876   2
   3  -3   6 455.572 129.938   6
  -3   3  -6 546.019 120.047   2
   3  -3   7 105.895 70.9528   6
  -3   3  -7 21.2654 32.0701   2
   3  -3   8 396.319 127.863   6
  -3   3  -8 325.187 111.400   2
   3  -3   9 143.933 84.0736   6
  -3   2  11 75.7144 54.4345   4
  -3   2  10 156.874 75.8352   4
  -3   2  10 164.205 64.7577   6
  -3   2   9-55.8508 44.0852   4
  -3   2   9 33.5490 35.1163   5
  -3   2   9 51.4158 34.8244   6
  -3   2   8 725.689 138.787   4
  -3   2   8 799.865 133.113   5
  -3   2   8 749.298 119.373   6
  -3   2   7 8.58583 39.6896   4
  -3   2   7 1.95893 17.3164   5
  -3   2   7 35.4217 27.4334   6
  -3   2   6 17.2658 33.1934   4
  -3   2   6-3.91413 17.5335   5
  -3   2   6-6.33216 18.0967   6
  -3   2   5 522.789 100.613   4
  -3   2   5 554.292 70.2752   6
  -3   2   5 686.645 107.613   5
  -3   2   4 65727.9 1413.13   5
  -3   2   4 65277.4 1153.75   6
   3  -2  -3 3997.63 227.787   3
  -3   2   3 4245.60 253.682   5
  -3   2   3 4436.13 118.178   6
   3  -2  -3 4291.83 177.893   6
  -3   2   2 503.550 32.5614   7
  -3   2   2 497.296 80.9244   5
   3  -2  -2 495.542 39.3368   6
  -3   2   1 12626.5 316.246   7
  -3   2   1 12273.2 407.485   5
  -3   2   0 8899.44 306.832   7
  -3   2   0 9575.32 317.084   5
   3  -2   0 9444.36 265.404   7
  -3   2  -1 16680.0 528.754   7
  -3   2  -2 6621.53 348.802   2
  -3   2  -2 6738.62 357.026   7
  -3   2  -3 631.760 118.929   7
   3  -2   3 504.886 100.134   6
  -3   2  -3 500.152 100.823   2
   3  -2   4-4.37569 31.5882   6
  -3   2  -4 31.6165 36.1356   2
  -3   2  -5 4266.28 329.188   2
   3  -2   5 4169.90 338.892   6
  -3   2  -6 2926.34 290.619   2
   3  -2   6 2621.07 281.839   6
  -3   2  -7 3066.58 315.896   2
   3  -2   7 2850.56 312.390   6
  -3   2  -8 1291.74 218.898   2
   3  -2   8 1242.25 218.963   6
   3  -2   9-40.9946 49.6595   6
  -3   1  11-89.3549 57.1860   4
  -3   1  11 95.4652 56.8404   6
  -3   1  10 222.716 78.4980   4
  -3   1  10 124.847 58.1386   5
  -3   1  10 212.890 77.2461   6
  -3   1   9 1712.22 203.433   6
  -3   1   9 1734.51 204.452   5
  -3   1   9 1712.92 215.778   4
  -3   1   8 41.0143 32.5437   5
  -3   1   8 53.4156 46.8330   4
  -3   1   8-15.4777 39.1685   6
  -3   1   7 546.792 113.299   4
  -3   1   7 577.041 110.337   5
  -3   1   7 548.330 97.0358   6
  -3   1   6 539.177 102.305   4
  -3   1   6 534.667 102.610   5
  -3   1   6 496.799 84.0878   6
  -3   1   5 12157.5 401.925   6
  -3   1   5 11573.1 477.678   4
  -3   1   5 12619.9 505.548   5
  -3   1   4 31491.4 667.552   6
  -3   1   4 31880.1 859.754   5
  -3   1   3 11180.9 302.046   7
  -3   1   3 10619.6 235.503   6
  -3   1   3 10281.5 417.179   5
  -3   1   2 1107.45 118.573   5
  -3   1   1 877.914 96.3382   5
   3  -1  -1 924.765 47.6487   6
  -3   1   0 5572.64 230.017   5
   3  -1   0 5486.00 209.445   6
   3  -1   0 5998.27 221.008   7
   3  -1   1 316.648 59.5319   6
   3  -1   1 252.956 46.8232   3
  -3   1  -1 377.642 46.4378   5
   3  -1   1 297.403 49.3353   5
   3  -1   2 4996.73 277.924   6
   3  -1   2 5269.96 224.167   3
   3  -1   2 5240.13 196.957   5
   3  -1   3 13362.4 320.042   5
   3  -1   3 16304.0 576.119   6
   3  -1   4 130.486 53.7535   6
   3  -1   5 1779.20 217.548   6
   3  -1   6 32.3440 44.0828   6
   3  -1   7 69.4799 57.2627   6
   3  -1   8 174.223 82.3650   6
   3  -1   9-24.5487 45.9498   6
  -3   0  12 629.582 153.536   6
  -3   0  11-28.9615 46.6612   6
  -3   0  10 226.562 73.8077   4
  -3   0  10 308.420 83.9480   5
  -3   0  10 479.408 123.965   6
  -3   0   9 83.2697 56.7331   5
  -3   0   9 129.862 59.1016   4
  -3   0   9 163.656 68.3093   6
  -3   0   8 19.2705 24.2920   4
  -3   0   8-16.4938 25.8529   5
  -3   0   8 28.1979 33.3711   6
  -3   0   7 1847.09 186.087   6
  -3   0   7 1538.25 177.076   4
  -3   0   7 1594.21 193.522   5
  -3   0   6 13163.6 564.309   5
  -3   0   6 12262.5 471.736   6
  -3   0   6 12289.3 495.326   4
  -3   0   5 1601.07 177.073   5
  -3   0   5 1452.52 133.789   6
  -3   0   4 9016.24 421.035   5
  -3   0   4 9189.55 319.804   7
  -3   0   3 7520.50 202.187   7
  -3   0   3 7520.50 366.655   5
  -3   0   2 40938.9 971.746   5
  -3   0   2 40726.4 880.285   2
  -3   0   2 41136.3 668.258   6
   3   0  -1 461.943 30.1799   6
  -3   0   1 504.698 76.9032   5
  -3   0   1 455.429 45.8533   6
  -3   0   0 34596.2 767.734   5
   3   0   0 34252.1 692.375   6
  -3   0   0 35014.5 757.226   6
   3   0   0 34582.1 741.850   3
   3   0   1 529.763 74.1769   6
  -3   0  -1 529.361 55.9315   5
   3   0   1 587.237 67.2941   3
  -3   0  -2 1194.13 55.6719   5
   3   0   2 1238.44 96.9180   3
   3   0   2 1154.09 129.402   6
   3   0   3 6225.01 200.610   1
   3   0   3 6455.61 240.630   3
   3   0   4 10079.2 318.007   3
   3   0   4 10555.8 501.819   6
   3   0   5 344.255 96.0244   6
   3   0   6 685.187 145.315   6
   3   0   7 592.584 139.743   6
   3   0   8 377.876 111.260   6
   3   0   9 85.0952 61.0476   6
  -3  -1  12 222.706 113.950   6
  -3  -1  11 177.727 84.0845   6
  -3  -1  10 50.0069 37.8712   5
  -3  -1  10 45.4021 47.5291   6
  -3  -1   9 206.047 73.2486   6
  -3  -1   9 216.533 83.3721   5
  -3  -1   8 956.115 161.720   6
  -3  -1   8 1257.15 194.496   5
  -3  -1   7 31.0840 28.7717   6
  -3  -1   7-8.42664 39.3206   5
  -3  -1   6 7746.32 447.695   5
   3   1  -6 7534.43 404.453   7
   3   1  -5 262.074 37.1240   2
   3   1  -5 312.356 67.4351   7
  -3  -1   5 267.080 78.0919   5
   3   1  -4 3392.79 201.446   7
  -3  -1   4 3194.44 250.198   5
  -3  -1   3 24163.1 465.620   7
  -3  -1   3 22753.2 706.035   5
  -3  -1   3 24410.6 548.274   2
   3   1  -3 24396.9 548.632   7
  -3  -1   2 367.170 29.2357   6
   3   1  -2 323.237 31.5097   7
  -3  -1   2 344.724 56.7823   2
  -3  -1   2 259.045 61.3577   5
   3   1  -1 2337.74 85.2688   6
  -3  -1   1 2198.93 115.973   6
  -3  -1   0 5657.59 248.272   5
   3   1   0 6098.76 201.973   6
   3   1   1 3951.27 202.766   1
   3   1   1 3724.44 169.955   3
   3   1   1 3707.77 190.916   6
  -3  -1  -1 3900.29 179.012   5
  -3  -1  -2 3637.55 139.044   5
   3   1   2 4253.08 175.072   3
   3   1   2 4301.99 187.059   1
   3   1   2 4582.17 251.821   6
   3   1   3 20634.2 473.656   3
   3   1   3 21575.5 681.262   6
   3   1   4 44.2988 19.6739   3
   3   1   4-5.15218 19.0925   6
   3   1   5 94.4369 54.8710   6
   3   1   6 2181.95 252.453   6
   3   1   7 356.463 115.111   6
   3   1   8 76.6829 60.0982   6
  -3  -2  12 58.7699 89.2302   6
  -3  -2  11 34.0667 51.8131   6
  -3  -2  11-22.3159 33.9499   5
  -3  -2  10 1854.05 263.066   5
  -3  -2  10 1659.70 250.679   6
  -3  -2   9 296.404 100.021   6
  -3  -2   9 143.956 78.5719   5
   3   2  -8 2967.99 304.846   7
  -3  -2   8 3077.90 317.201   5
   3   2  -7 579.544 118.482   7
  -3  -2   7 526.009 127.295   5
   3   2  -6 174.423 62.3208   7
   3   2  -5 2478.76 203.299   7
   3   2  -4 29253.6 733.873   7
   3   2  -3 1384.76 104.689   7
   3   2  -2 33728.3 637.351   7
   3   2  -1 417.722 39.9057   6
   3   2   0 285.875 57.8920   1
   3   2   0 319.573 41.9388   6
   3   2   1 11487.7 352.438   6
   3   2   1 11297.6 367.095   1
  -3  -2  -1 10835.6 295.507   3
   3   2   2 8828.20 345.508   6
   3   2   3 323.948 69.3263   6
   3   2   4 341.721 80.1508   6
   3   2   5 65.3274 42.1485   6
   3   2   6 103.429 57.8390   6
   3   2   7 300.958 96.9893   6
   3   2   8 46.1226 50.8254   6
  -3  -3  12 132.276 99.1416   6
  -3  -3  11 9.19776 68.4229   6
  -3  -3  11 151.729 81.7395   5
   3   3 -10 134.034 85.5484   7
  -3  -3  10 263.129 109.400   5
   3   3  -9 203.896 92.8513   7
  -3  -3   9 212.373 106.190   5
   3   3  -9 79.8364 48.6962   1
   3   3  -8 2065.40 258.818   7
  -3  -3   8 2347.41 284.689   5
   3   3  -8 2030.17 195.314   1
   3   3  -7 798.301 147.187   7
   3   3  -7 1010.89 134.341   1
   3   3  -6 608.961 104.819   1
   3   3  -6 547.573 111.173   7
   3   3  -5 4844.62 295.453   7
   3   3  -4 5229.31 268.837   7
   3   3  -3 26525.5 625.715   7
   3   3  -2 798.626 69.4022   7
   3   3  -1 754.938 62.1593   6
   3   3   0 2090.68 114.515   6
   3   3   0 2114.03 160.103   1
  -3  -3  -1 2081.45 112.055   3
   3   3   1 2174.50 134.962   6
   3   3   2-4.77198 12.8707   6
   3   3   3 937.570 116.355   6
   3   3   4 1110.39 138.542   6
   3   3   5 3364.22 265.145   6
   3   3   6 125.730 48.7458   6
   3   3   7 428.627 108.469   6
  -3  -4  12 146.847 95.3750   6
   3   4 -11 13.3988 38.5739   7
  -3  -4  11 133.835 78.6815   5
   3   4 -10-52.5107 49.4924   7
  -3  -4  10 12.2820 32.7576   5
   3   4  -9 420.235 131.253   7
   3   4  -9 407.766 84.2016   1
   3   4  -8 2298.96 277.993   7
   3   4  -8 2528.21 210.356   1
   3   4  -7 12414.3 610.091   7
   3   4  -7 12280.1 488.177   1
   3   4  -6 396.650 96.6348   7
   3   4  -6 492.950 87.9818   1
   3   4  -5 5892.70 337.135   7
   3   4  -5 6253.97 326.002   1
   3   4  -4 4227.14 254.821   7
   3   4  -4 4502.31 269.495   1
   3   4  -3 185.980 42.1252   7
   3   4  -2 2975.92 157.646   7
   3   4  -1 503.473 57.8929   6
   3   4  -1 487.742 82.1605   1
   3   4   0 758.906 72.9119   6
   3   4   1 663.363 75.2050   6
   3   4   2 2756.66 171.726   6
   3   4   3 4234.62 242.277   6
   3   4   4 1254.30 142.977   6
   3   4   5-10.8871 36.1093   6
   3   4   6 45.4697 30.6560   6
   3   4   7-183.195 69.8324   6
   3   5 -11 197.889 100.280   7
  -3  -5  11 33.7876 38.5951   5
   3   5 -10 32.3923 40.5145   7
   3   5  -9 2362.38 303.064   7
   3   5  -9 2093.16 197.722   1
   3   5  -8-17.8972 32.5622   7
   3   5  -8 27.0454 23.1412   1
   3   5  -7 548.367 127.060   7
   3   5  -7 899.834 124.905   1
   3   5  -6 15.1406 21.9177   7
   3   5  -6 17.7723 23.4377   1
   3   5  -5 1509.57 177.164   7
   3   5  -5 1525.49 159.774   1
   3   5  -4 1268.75 145.579   7
   3   5  -4 1165.20 139.167   1
   3   5  -3 538.962 82.4569   7
   3   5  -3 670.517 104.101   1
   3   5  -2 897.776 95.3953   7
   3   5  -1 12183.4 365.459   6
   3   5  -1 12320.0 370.876   7
   3   5   0 22768.5 549.319   6
   3   5   1 2134.71 140.996   6
   3   5   2 2385.16 160.621   6
   3   5   3 1537.28 138.341   6
   3   5   4 8.08815 22.5563   6
   3   5   5 46.8104 30.8297   6
   3   5   6-82.0606 43.9877   6
   3   6 -11 158.266 94.7541   7
   3   6 -10 172.959 92.1665   7
   3   6  -9 1792.93 274.911   7
   3   6  -8 1011.18 188.935   7
   3   6  -7 197.581 81.7330   7
   3   6  -6 55.1083 28.4705   7
   3   6  -5 136.845 60.4822   7
   3   6  -4 366.578 87.7968   7
   3   6  -3 1884.03 173.800   7
   3   6  -2 7668.06 333.850   7
   3   6  -1 2501.48 169.080   7
   3   6   0 1461.59 123.061   6
   3   6   1 3199.37 188.079   6
   3   6   2 1032.44 108.726   6
   3   6   3 61.3367 35.3437   6
   3   6   4 60.3304 41.1221   6
   3   6   5 55.9994 33.9997   6
   3   7 -10 78.5272 73.8835   7
   3   7  -9 148.818 80.1275   7
   3   7  -8 605.433 158.492   7
   3   7  -7 1224.49 207.788   7
   3   7  -6 1172.36 186.432   7
   3   7  -5 262.600 89.5811   7
   3   7  -4 15.1009 29.1048   7
   3   7  -3 503.130 102.694   7
   3   7  -2 7013.62 356.146   7
   3   7  -1 70.1492 37.2510   7
   3   7   0 43.5097 33.5444   7
   3   7   0 30.1609 24.5505   6
   3   7   1 35.2057 24.8676   6
   3   7   2 27.2852 30.8718   6
   3   7   3 409.271 77.2728   6
   3   7   4 124.472 48.6440   6
   3   8  -9 662.690 182.166   7
   3   8  -8-59.0560 58.7426   7
   3   8  -7 7.41517 33.8680   7
   3   8  -6 304.849 101.605   7
   3   8  -5 74.4264 49.1878   7
   3   8  -4 796.114 154.395   7
   3   8  -3 1025.65 161.096   7
   3   8  -2 223.495 66.2288   7
   3   8  -1 194.139 62.6254   7
   3   8   0 499.296 91.6064   7
   3   8   1 1018.75 127.536   7
   3   8   1 893.017 117.644   6
   3   8   2 53.7990 36.7096   6
   3   9  -8 564.249 165.084   7
   3   9  -7 32.4659 51.2943   7
   3   9  -6 317.824 113.368   7
   3   9  -5 353.170 112.102   7
   3   9  -4 515.514 135.871   7
   3   9  -3 151.619 73.1158   7
   3   9  -2 85.0350 50.3955   7
   3   9  -1 121.018 54.9356   7
   3   9   0 56.2028 40.4479   7
  -4  10   1 45.5461 50.9332   7
  -4  10   0-54.2199 55.3764   7
   4 -10   0 75.2033 67.7447   3
  -4  10  -1 325.883 127.580   7
   4 -10   1 511.686 135.604   3
  -4  10  -2-185.832 92.8243   7
  -4  10  -3-149.414 91.1806   7
  -4  10  -4 34.0982 41.8018   7
  -4   9   4 86.4887 109.943   4
  -4   9   3 656.817 209.625   4
  -4   9   3 560.057 122.595   7
  -4   9   2 597.556 128.657   7
   4  -9  -2 532.974 128.562   3
  -4   9   1 926.247 225.086   4
  -4   9   1 513.016 129.021   7
   4  -9  -1 685.206 144.533   3
  -4   9   0 15.3761 37.0761   7
   4  -9   0 40.6550 42.5612   3
  -4   9  -1 153.485 79.6071   7
   4  -9   1 133.328 65.2443   3
  -4   9  -2 117.157 67.3614   7
  -4   9  -3 295.321 117.926   7
  -4   9  -4 459.498 151.498   7
  -4   9  -5 12.9103 68.7626   7
  -4   9  -6 164.407 106.362   7
  -4   8   5 778.814 177.134   4
  -4   8   4 70.8249 34.9123   7
  -4   8   4 66.1701 70.2239   4
  -4   8   3 100.990 90.8470   4
  -4   8   3 18.4037 32.7414   7
   4  -8  -3 9.74097 37.5085   3
  -4   8   2 967.440 143.343   7
   4  -8  -2 1220.24 185.369   3
  -4   8   1 1756.41 207.400   7
   4  -8  -1 1610.57 208.809   3
  -4   8   1 2040.94 277.019   4
  -4   8   0 109.688 66.0348   4
   4  -8   0 173.753 68.4704   3
  -4   8   0 209.692 78.0880   7
   4  -8   1 15.2284 42.1244   3
  -4   8  -1 42.3401 42.4806   7
  -4   8  -2 56.6597 52.0687   7
  -4   8  -3-5.84618 46.4703   7
  -4   8  -4 5579.40 506.219   7
  -4   8  -5 45.3001 41.0352   7
  -4   8  -6 62.0584 80.8927   7
  -4   8  -7 195.644 116.524   7
  -4   7   6 102.786 89.9441   4
  -4   7   5 300.030 61.9487   7
  -4   7   5 274.955 112.368   4
  -4   7   4 6408.85 297.716   7
   4  -7  -4 5789.60 388.774   3
  -4   7   4 5678.93 464.203   4
  -4   7   3 1108.49 203.486   4
   4  -7  -3 798.369 143.675   3
  -4   7   3 1000.91 122.222   7
  -4   7   2-21.9824 41.6816   4
   4  -7  -2 19.1176 30.0969   3
  -4   7   1 49.4280 43.7350   7
   4  -7  -1 47.1573 25.5747   3
  -4   7   1 4.58871 27.4227   4
   4  -7   0 28.6137 27.1352   3
  -4   7   0 9.62067 20.7423   7
  -4   7   0 33.0775 38.8381   4
  -4   7  -1 629.486 130.011   7
  -4   7  -2 1502.11 221.431   7
  -4   7  -3 57.4635 63.5100   7
  -4   7  -4 67.5168 79.8680   7
  -4   7  -5 55.9864 49.0188   7
  -4   7  -6 833.039 217.525   7
  -4   7  -7-54.1820 69.4575   7
  -4   6   7 155.597 82.1524   4
  -4   6   6 645.123 146.533   4
  -4   6   5 333.085 116.439   4
   4  -6  -5 194.397 62.5613   3
  -4   6   4 971.290 180.743   4
  -4   6   4 1075.46 101.231   7
   4  -6  -4 923.275 144.763   3
  -4   6   3 3585.44 201.605   7
   4  -6  -3 3841.60 295.515   3
  -4   6   3 3503.42 326.802   4
  -4   6   2 29.6279 35.5327   4
  -4   6   2-8.77225 32.5817   7
   4  -6  -2-0.31702 27.0604   3
   4  -6  -1 1464.54 171.418   3
  -4   6   1 1329.69 144.559   7
  -4   6   1 1726.54 197.430   4
  -4   6   0-26.4243 41.2120   4
  -4   6   0 75.3838 35.3001   7
   4  -6   0 49.2846 35.6479   3
  -4   6  -1 61.6366 54.4394   7
  -4   6  -2 1241.74 190.961   7
  -4   6  -3 4687.74 404.339   7
  -4   6  -4 138.751 92.7515   7
  -4   6  -5 68.7820 54.9982   7
  -4   6  -6 70.3491 74.1578   7
  -4   6  -7 334.633 142.883   7
   4  -6   8-135.966 89.5863   6
  -4   6  -8-27.1911 58.2520   7
  -4   5   9 92.4804 54.6668   5
  -4   5   8-35.4791 41.1890   4
  -4   5   8 18.4439 28.8256   5
  -4   5   7 3.31456 27.8963   4
  -4   5   7 45.6387 36.5131   5
  -4   5   6 1949.50 213.196   5
  -4   5   6 2113.83 257.282   4
  -4   5   5 3953.75 298.896   5
   4  -5  -5 3945.56 286.125   3
  -4   5   5 4426.09 177.493   6
  -4   5   5 4389.54 364.702   4
  -4   5   4 912.442 160.159   4
  -4   5   4 778.884 126.888   5
   4  -5  -4 1017.40 144.410   3
  -4   5   3 111.597 56.2129   4
  -4   5   3 130.074 34.7175   7
   4  -5  -3 77.7417 40.8544   3
  -4   5   3 135.895 56.3234   5
  -4   5   2 173.170 61.9781   4
   4  -5  -2 203.141 60.9671   3
  -4   5   2 133.447 38.1374   7
  -4   5   1 8334.62 355.040   7
   4  -5  -1 7883.89 385.501   3
  -4   5   1 8216.78 410.901   4
  -4   5   0 2959.47 233.028   7
   4  -5   0 3076.32 228.348   3
  -4   5  -1 10982.9 516.100   7
  -4   5  -2 6229.77 403.674   7
  -4   5  -3-29.6550 39.3717   7
  -4   5  -4 721.706 156.225   7
  -4   5  -5 1229.77 218.727   7
  -4   5  -6 217.437 101.144   7
   4  -5   7-104.817 73.9598   6
  -4   5  -7-157.790 92.2599   7
   4  -5   8-35.1624 52.8829   6
  -4   4   9 37.7448 35.2971   4
  -4   4   9 46.1412 29.9803   5
  -4   4   8 67.1633 61.9135   4
  -4   4   8 132.945 61.7854   5
  -4   4   7-37.0215 39.7842   4
  -4   4   7 21.1325 25.0382   5
  -4   4   6 57.2633 47.6528   4
  -4   4   6-6.72553 37.8558   5
  -4   4   6 71.2001 23.3661   6
  -4   4   5 2060.32 104.931   6
  -4   4   5 1650.47 184.122   5
  -4   4   5 1893.39 224.898   4
   4  -4  -4 3957.18 274.491   3
  -4   4   4 4350.94 294.184   5
  -4   4   4 3981.19 314.165   4
  -4   4   3 13431.7 525.038   5
   4  -4  -3 13889.4 527.601   3
  -4   4   3 13635.1 337.451   7
  -4   4   3 12754.7 556.302   4
  -4   4   2 513.696 99.3218   4
  -4   4   2 633.618 102.389   5
  -4   4   2 459.645 58.5228   7
   4  -4  -2 584.952 97.0840   3
  -4   4   1 1139.36 132.224   5
   4  -4  -1 1210.44 133.510   3
  -4   4   1 1118.25 117.627   7
  -4   4   0 2034.69 181.841   7
  -4   4  -1 1245.21 151.319   7
   4  -4   1 1137.59 130.812   3
  -4   4  -2 2468.70 235.755   7
  -4   4  -3 3639.95 310.163   7
  -4   4  -4 1105.44 186.370   7
  -4   4  -5 46.0784 35.9986   7
   4  -4   5-38.7364 40.7798   6
   4  -4   6 354.974 120.257   6
  -4   4  -6 497.395 126.592   2
  -4   4  -6 385.011 125.929   7
  -4   4  -7 670.544 154.394   2
   4  -4   7 745.611 175.841   6
   4  -4   8 574.304 168.331   6
  -4   4  -8 918.091 188.983   2
  -4   3  10 69.8642 46.5974   5
  -4   3  10 19.2287 45.9953   4
  -4   3   9 33.6022 39.5570   4
  -4   3   9 58.3874 50.5096   5
  -4   3   8 453.778 120.437   4
  -4   3   8 647.305 126.439   5
  -4   3   7-38.2490 46.8220   4
  -4   3   7-37.9162 45.2167   5
  -4   3   7-14.5232 21.6187   6
  -4   3   6 1157.93 160.005   5
  -4   3   6 1144.82 89.4310   6
  -4   3   6 1279.45 182.374   4
  -4   3   5 1267.83 76.6497   6
  -4   3   5 1116.50 151.795   5
  -4   3   5 1143.95 166.097   4
   4  -3  -4 823.009 117.315   3
  -4   3   4 817.966 123.340   5
  -4   3   4 875.403 51.0961   6
  -4   3   4 863.565 134.196   4
  -4   3   3 5361.11 308.813   5
  -4   3   3 5517.17 158.889   7
   4  -3  -3 5477.50 303.537   3
   4  -3  -3 5055.01 193.006   6
  -4   3   2 2853.42 138.888   7
  -4   3   2 2686.37 203.883   5
   4  -3  -2 2782.41 103.141   6
  -4   3   1 131.720 38.4707   7
  -4   3   1 103.903 36.6900   5
   4  -3  -1 120.431 16.7260   6
  -4   3   0 2395.05 176.018   7
  -4   3   0 2799.15 186.859   5
   4  -3   1 4281.23 246.473   3
  -4   3  -1 4221.81 269.158   7
  -4   3  -2 1339.01 169.319   7
   4  -3   2 1531.37 151.923   3
  -4   3  -3 4099.11 320.581   7
  -4   3  -3 4219.04 318.874   2
   4  -3   4 106.689 59.3249   6
  -4   3  -4 112.131 63.0854   7
  -4   3  -4 135.093 61.2917   2
   4  -3   5-7.10614 38.6538   6
  -4   3  -5-5.99370 30.3729   2
   4  -3   6 521.793 136.451   6
  -4   3  -6 581.194 136.479   2
  -4   3  -7 299.756 98.6039   2
   4  -3   7 25.9466 47.7466   6
  -4   3  -8 15.2655 41.6722   2
   4  -3   8 39.9647 34.8470   6
  -4   2  11 4.17085 30.8748   4
  -4   2  10 25.2415 31.5199   4
  -4   2  10 120.310 60.3163   5
  -4   2   9 1004.53 178.980   4
  -4   2   9 1225.19 181.126   5
  -4   2   8 517.970 120.543   4
  -4   2   8 435.924 104.884   5
  -4   2   8 517.245 89.2269   6
  -4   2   7 1205.51 177.018   4
  -4   2   7 1226.49 119.935   6
  -4   2   7 1257.13 170.631   5
  -4   2   6 1725.92 192.598   5
  -4   2   6 1624.20 117.902   6
  -4   2   6 1607.85 194.429   4
  -4   2   5 2364.07 113.378   6
  -4   2   5 2184.82 209.477   5
  -4   2   5 2121.87 210.434   4
  -4   2   4 49.6773 36.6642   5
  -4   2   4 34.6864 9.62116   6
  -4   2   3 5844.87 136.801   7
  -4   2   3 5585.54 316.634   5
  -4   2   2-5.05341 19.9030   5
  -4   2   2 15.2520 9.04783   7
  -4   2   1 1903.81 116.113   7
  -4   2   1 1791.03 155.141   5
   4  -2  -1 2032.16 69.4411   7
   4  -2  -1 1874.75 102.153   6
  -4   2   0 733.502 91.7552   7
  -4   2   0 803.383 92.9057   5
   4  -2   0 807.415 86.6629   6
  -4   2  -1 5581.22 307.002   7
  -4   2  -1 5558.58 236.836   5
   4  -2   1 5393.18 267.050   3
   4  -2   1 5167.23 267.994   6
   4  -2   2 2453.81 177.889   3
  -4   2  -2 2759.77 250.643   2
   4  -2   2 2286.32 195.271   6
   4  -2   3 203.451 63.9587   6
   4  -2   3 245.726 56.2422   3
  -4   2  -3 282.718 88.5644   2
   4  -2   4 86.8071 58.0291   6
  -4   2  -4-1.81371 37.7261   2
  -4   2  -5 1786.56 235.084   2
   4  -2   5 1380.62 193.210   6
  -4   2  -6 125.516 70.0770   2
   4  -2   6 135.515 62.6482   6
  -4   2  -7 469.422 134.023   2
   4  -2   7 430.029 127.122   6
  -4   2  -8 785.216 186.345   2
   4  -2   8 614.518 155.193   6
  -4   1  11-1.12973 38.9459   4
  -4   1  10 236.504 89.5204   4
  -4   1  10 117.481 65.0894   5
  -4   1   9-6.26201 30.5360   4
  -4   1   9-26.5567 48.8577   5
  -4   1   9-35.6444 32.9412   6
  -4   1   8 788.971 146.125   4
  -4   1   8 748.068 138.064   5
  -4   1   8 766.689 115.329   6
  -4   1   7 1923.42 217.252   5
  -4   1   7 1829.93 162.431   6
  -4   1   7 1869.58 212.789   4
  -4   1   6 1259.84 117.174   6
  -4   1   6 1245.55 161.581   4
  -4   1   6 1263.25 172.381   5
  -4   1   5 59.3150 36.6963   5
  -4   1   5 39.7901 18.0565   6
  -4   1   4 529.680 57.9267   7
  -4   1   4 529.835 103.311   5
  -4   1   4 541.662 39.6993   6
  -4   1   3 1803.56 179.334   5
  -4   1   2 8680.69 390.139   5
  -4   1   1 1527.79 142.826   5
   4  -1  -1 1445.40 70.4929   6
   4  -1  -1 1400.30 72.6922   7
   4  -1   0 82.4222 30.8964   7
  -4   1   0 38.6091 21.2430   5
   4  -1   0 9.45090 21.1864   3
   4  -1   0 29.4203 11.4418   6
   4  -1   1 7903.78 322.116   3
  -4   1  -1 8383.63 282.344   5
   4  -1   1 8377.45 343.591   6
   4  -1   2 897.124 100.235   3
   4  -1   2 822.135 118.156   6
  -4   1  -3 510.888 118.259   2
   4  -1   3 542.259 79.9265   3
   4  -1   3 494.270 103.031   6
   4  -1   4 6018.49 385.242   6
   4  -1   4 5983.30 279.375   3
   4  -1   5 65.4612 31.6257   3
   4  -1   5 91.0384 62.4652   6
   4  -1   6 1821.77 245.366   6
   4  -1   7 612.048 153.682   6
  -4   1  -8-44.6149 57.6019   2
   4  -1   8 58.6048 50.6250   6
  -4   1  -9-143.909 89.9828   2
  -4   0  11 29.2679 38.5389   5
  -4   0  10-39.9181 43.7482   5
  -4   0  10 30.4485 34.4193   6
  -4   0   9 4689.14 379.034   5
  -4   0   9 4151.86 321.823   6
  -4   0   8 5622.79 406.772   5
  -4   0   8 5825.01 351.007   6
  -4   0   7 5.82036 36.1979   5
  -4   0   7 25.7847 26.4105   6
  -4   0   6 111.863 39.8730   6
  -4   0   6 190.870 70.3533   5
  -4   0   5 736.274 133.493   5
  -4   0   5 743.839 85.7036   6
  -4   0   4 1066.91 69.2489   7
  -4   0   4 2328.22 231.862   5
  -4   0   3 15241.0 578.311   5
  -4   0   3 15187.2 274.856   6
  -4   0   2 36.2363 29.0460   5
  -4   0   2 15.7907 18.4857   2
  -4   0   2 17.9018 8.39792   6
   4   0  -1 24726.5 556.960   7
  -4   0   1 25484.3 705.814   5
   4   0  -1 24976.7 655.405   3
   4   0  -1 24610.0 463.021   6
  -4   0   1 24193.6 563.293   6
  -4   0   0 726.737 94.2433   5
   4   0   0 766.443 93.9963   3
   4   0   0 712.235 71.8435   6
  -4   0  -1 605.800 69.6323   5
   4   0   1 574.847 79.5796   3
   4   0   1 625.601 85.6677   6
  -4   0  -2 17919.5 382.486   5
   4   0   2 17049.6 496.870   3
   4   0   2 17564.0 588.892   6
   4   0   3 1385.15 120.453   3
   4   0   3 1554.36 110.203   1
   4   0   3 1355.73 163.596   6
   4   0   4 1298.30 116.518   3
   4   0   4 2257.37 230.390   6
   4   0   5 33.3992 43.6370   6
   4   0   6 345.238 109.451   6
   4   0   7 71.2865 49.5539   6
   4   0   8 57.8747 54.0706   6
  -4  -1  11 48.3896 52.5216   5
  -4  -1  10 650.612 150.523   5
  -4  -1  10 478.062 122.895   6
  -4  -1   9 179.056 73.5111   6
  -4  -1   9 218.254 94.4306   5
  -4  -1   8 2723.59 298.230   5
  -4  -1   8 2843.76 261.128   6
  -4  -1   7 89.3948 55.6197   5
   4   1  -6 89.6456 40.1505   7
  -4  -1   6 217.847 75.5498   5
   4   1  -5 214.178 53.5217   7
  -4  -1   5 172.822 66.4885   5
   4   1  -4 6028.21 253.568   7
  -4  -1   4 5929.99 167.499   7
  -4  -1   4 5811.68 365.079   5
   4   1  -3 10745.1 290.935   7
  -4  -1   3 10906.1 386.035   2
  -4  -1   3 10755.7 481.039   5
  -4  -1   3 11165.1 235.143   6
   4   1  -2 27314.5 496.249   7
  -4  -1   2 27020.7 748.589   2
  -4  -1   2 25994.4 778.571   5
  -4  -1   2 27827.0 565.642   6
  -4  -1   1 3920.47 249.790   5
   4   1  -1 4282.97 137.931   6
  -4  -1   0 17757.9 544.052   5
   4   1   0 17589.4 431.433   6
   4   1   1 360.466 60.3766   3
   4   1   1 579.902 88.0097   1
  -4  -1  -1 508.117 72.1484   5
   4   1   1 504.620 71.5196   6
  -4  -1  -2 124.516 27.6809   5
   4   1   2 121.949 35.7882   1
   4   1   2 184.226 53.4822   6
   4   1   2 146.360 37.5683   3
   4   1   3 360.472 56.7786   3
   4   1   3 458.250 91.2662   6
   4   1   4 0.44382 24.3685   6
   4   1   5 235.752 81.4115   6
   4   1   6 1286.40 194.432   6
   4   1   7 95.5339 58.8704   6
  -4  -2  11 556.562 145.328   6
  -4  -2  11 521.886 146.098   5
  -4  -2  10 1383.68 218.719   6
  -4  -2  10 1250.00 230.134   5
  -4  -2   9 729.146 170.722   5
  -4  -2   8 1932.87 266.665   5
   4   2  -8 1723.39 223.626   7
   4   2  -7 5198.60 359.935   7
  -4  -2   7 5328.48 422.422   5
   4   2  -6 27544.3 840.113   7
  -4  -2   6 27984.3 991.717   5
   4   2  -5 1264.71 134.975   7
  -4  -2   5 1201.24 176.117   5
   4   2  -4 5178.42 239.684   7
  -4  -2   4 5167.43 226.460   2
   4   2  -3 2027.80 122.145   7
   4   2  -2 480.283 45.7724   7
   4   2  -2 542.896 47.1866   6
   4   2  -1 2473.79 206.856   1
   4   2  -1 2598.75 113.685   6
   4   2   0 1623.68 155.626   1
   4   2   0 1420.54 97.8998   6
   4   2   1 25.0401 14.2602   6
   4   2   1 16.5938 16.4044   1
   4   2   2 41.8315 28.7691   1
  -4  -2  -2 31.5016 18.6819   5
   4   2   3 1543.57 160.966   6
   4   2   4 5535.18 339.772   6
   4   2   5 110.722 52.9534   6
   4   2   6 146.689 66.7162   6
   4   2   7 38.6187 40.0361   6
  -4  -3  12 23.7672 67.8277   5
  -4  -3  11 42.1587 43.8257   6
  -4  -3  11 93.5803 70.7995   5
   4   3 -10 927.443 189.125   7
  -4  -3  10 747.114 185.644   5
  -4  -3   9 1401.14 236.236   5
   4   3  -9 1228.72 207.191   7
  -4  -3   8 3668.80 374.906   5
   4   3  -8 3357.99 317.533   7
   4   3  -7 172.044 61.9777   7
   4   3  -6 1381.02 162.486   7
   4   3  -5-11.7278 26.8620   7
  -4  -3   5 4.43351 9.90332   2
   4   3  -4 4439.83 239.127   7
   4   3  -3 1808.00 126.694   7
   4   3  -2 10909.4 303.428   7
   4   3  -2 11381.4 478.240   1
   4   3  -1 9151.21 409.957   1
   4   3  -1 9926.83 277.334   6
   4   3   0 4582.91 264.982   1
   4   3   0 4554.48 186.611   6
   4   3   1 15114.7 429.148   6
   4   3   1 14634.3 483.828   1
   4   3   2 6411.88 291.564   6
   4   3   3 334.705 71.5459   6
   4   3   4 602.089 104.221   6
   4   3   5-25.4015 47.9188   6
   4   3   6 23.0602 31.3657   6
  -4  -4  12 467.364 148.616   6
  -4  -4  12 414.173 133.285   5
   4   4 -11 34.7087 62.4932   7
  -4  -4  11 157.620 91.7275   5
   4   4 -10 64.4366 48.6938   7
  -4  -4  10 50.2652 44.3249   5
   4   4  -9-23.4797 47.4205   1
   4   4  -9-14.8827 47.1562   7
  -4  -4   9 3.23052 38.6030   5
   4   4  -8 6046.65 377.474   1
   4   4  -8 5957.40 431.721   7
   4   4  -7 2231.62 236.383   7
   4   4  -7 2740.11 248.346   1
   4   4  -6-12.9655 33.3536   1
   4   4  -6 51.0530 34.2617   7
   4   4  -5 1007.25 131.108   7
   4   4  -5 845.438 131.463   1
   4   4  -4 528.625 87.8396   7
   4   4  -4 624.495 116.899   1
   4   4  -3 155.742 36.7867   7
   4   4  -3 264.272 70.1257   1
   4   4  -2 8837.67 293.138   7
   4   4  -2 8531.59 408.799   1
   4   4  -1 754.170 111.541   1
   4   4  -1 719.725 72.0322   6
   4   4   0 2110.89 130.905   6
   4   4   1 1237.44 107.355   6
   4   4   2 3716.83 212.136   6
   4   4   3 397.337 74.9616   6
   4   4   4-5.63305 29.1375   6
   4   4   5-134.695 55.0947   6
   4   4   6 56.6141 39.8690   6
   4   5 -12 634.347 167.769   7
  -4  -5  12 424.411 151.617   5
   4   5 -11 42.2098 53.4083   7
  -4  -5  11 5.55529 38.7270   5
   4   5 -10 134.192 68.4290   7
   4   5  -9 864.157 177.225   7
   4   5  -9 1077.47 152.372   1
   4   5  -8 0.24367 39.0251   7
   4   5  -8 14.0198 23.7074   1
   4   5  -7 917.176 156.413   7
   4   5  -7 998.062 147.196   1
   4   5  -6 3291.48 281.410   7
   4   5  -6 3785.60 279.860   1
   4   5  -5 2579.91 229.603   7
   4   5  -5 2434.93 225.203   1
   4   5  -4 2419.16 202.587   7
   4   5  -4 2435.86 222.060   1
   4   5  -3 5736.74 288.026   7
   4   5  -3 5869.59 343.518   1
   4   5  -2 251.440 52.6966   7
   4   5  -2 202.292 69.9371   1
   4   5  -1 13742.5 404.425   6
   4   5   0 41.9715 19.9195   6
   4   5   1 790.995 90.0091   6
   4   5   2 150.594 44.5929   6
   4   5   3 14.2966 21.7169   6
   4   5   4 319.714 72.3631   6
   4   5   5 1.31281 23.6654   6
   4   6 -11 12.3158 42.0752   7
   4   6 -10 383.099 128.432   7
   4   6  -9 306.984 110.684   7
   4   6  -9 337.811 92.8795   1
   4   6  -8 1154.51 201.018   7
   4   6  -8 1202.03 161.445   1
   4   6  -7 95.3450 62.4971   7
   4   6  -7 70.2690 45.1138   1
   4   6  -6 13.5263 30.7727   7
   4   6  -6-2.14418 31.0821   1
   4   6  -5 226.996 78.7708   7
   4   6  -5 456.408 101.757   1
   4   6  -4 91.1528 52.4858   7
   4   6  -3 527.469 89.2612   7
   4   6  -2 10229.9 395.797   7
   4   6  -1 1267.66 121.351   7
   4   6  -1 1350.51 122.489   6
   4   6   0 422.710 69.0229   6
   4   6   1 283.764 55.8209   6
   4   6   2 345.113 67.7023   6
   4   6   3 36.9922 30.1582   6
   4   6   4 234.633 64.6596   6
   4   7 -10 288.356 119.496   7
   4   7  -9 114.753 75.8457   7
   4   7  -8 316.465 111.449   7
   4   7  -7 1849.06 258.148   7
   4   7  -6-175.388 77.5073   7
   4   7  -5 2330.79 258.935   7
   4   7  -4 3939.36 311.235   7
   4   7  -3 1058.87 147.667   7
   4   7  -2 39.3341 24.8833   7
   4   7  -1 46.3499 35.2609   7
   4   7   0 30.6202 33.5919   7
   4   7   0-5.56966 18.5518   6
   4   7   1-22.0376 20.9322   6
   4   7   2 20.3920 29.1799   6
   4   8  -9 5.19886 33.7934   7
   4   8  -8-4.12821 31.8879   7
   4   8  -7 275.108 102.951   7
   4   8  -6 298.786 107.809   7
   4   8  -5 78.4269 56.5443   7
   4   8  -4 353.226 109.598   7
   4   8  -3 80.4445 53.6316   7
   4   8  -2 106.975 44.8197   7
   4   8  -1 7.34069 21.0656   7
   4   8   0 688.153 107.963   7
   4   8   1 526.581 94.5422   7
   4   8   1 277.951 70.0321   6
   4   9  -8-70.9207 67.6693   7
   4   9  -7 445.952 149.768   7
   4   9  -6 85.5366 66.1466   7
   4   9  -5 108.432 62.9244   7
   4   9  -4 61.3912 66.3342   7
   4   9  -3 217.164 85.4174   7
   4   9  -2 83.9474 55.2524   7
   4   9  -1 12.4962 36.6029   7
   5 -10  -1 156.126 66.2429   3
   5 -10   0 584.653 151.612   3
  -5   9   4 119.832 105.361   4
  -5   9   3 886.770 249.804   4
  -5   9   2 209.379 110.329   4
   5  -9  -2 350.559 115.940   3
   5  -9  -1-16.5337 35.5972   3
   5  -9   0-23.5245 48.1737   3
   5  -9   1 67.8566 55.5016   3
  -5   9  -2 44.3173 54.2953   7
   5  -9   2 15.3687 61.0215   3
   5  -9   3 52.8950 38.1056   3
  -5   9  -3 168.204 91.0281   7
  -5   9  -4 171.234 100.686   7
  -5   9  -5 334.848 150.678   7
  -5   8   5 258.639 135.684   4
  -5   8   4 346.249 144.347   4
  -5   8   3 98.1590 72.2169   4
   5  -8  -3 93.7335 68.7707   3
  -5   8   2 1199.18 227.195   4
   5  -8  -2 1344.37 206.017   3
  -5   8   1 639.425 146.478   4
   5  -8  -1 801.860 158.723   3
  -5   8   0-41.1811 49.9597   7
   5  -8   0 19.9880 42.9558   3
  -5   8  -1-22.9973 42.6913   7
   5  -8   1 11.4416 28.7800   3
  -5   8  -2 9.19031 40.5021   7
   5  -8   2 16.3554 27.5974   3
  -5   8  -3 189.575 108.611   7
  -5   8  -4 251.383 116.597   7
  -5   8  -5-31.3601 55.1585   7
  -5   8  -6-69.0517 75.2192   7
  -5   7   6 47.4732 61.1716   4
  -5   7   5 291.163 104.352   4
  -5   7   4 197.791 91.4988   4
   5  -7  -4 417.119 113.305   3
  -5   7   3 685.339 165.317   4
   5  -7  -3 561.121 126.907   3
  -5   7   2-26.4954 40.1610   4
   5  -7  -2 8.54980 46.5112   3
  -5   7   1 458.110 101.353   7
   5  -7  -1 348.714 96.3975   3
  -5   7   0 182.618 69.7518   7
   5  -7   0 311.910 92.8962   3
  -5   7  -1 249.030 89.3740   7
   5  -7   1 334.675 94.5777   3
  -5   7  -2 1947.01 265.280   7
   5  -7   2 1766.67 200.870   3
  -5   7  -3 258.960 106.626   7
  -5   7  -4-38.7816 54.6944   7
  -5   7  -5 57.3203 62.0922   7
  -5   7  -6 184.297 111.643   7
  -5   7  -7 100.235 88.3720   7
  -5   6   7 49.2306 42.2638   4
  -5   6   6 308.426 109.015   4
   5  -6  -5 11.0310 37.6479   3
  -5   6   5 36.3298 57.1668   4
  -5   6   4 803.677 169.761   4
   5  -6  -4 949.594 157.924   3
   5  -6  -3 2358.79 247.578   3
  -5   6   3 2000.87 254.161   4
  -5   6   2 409.535 103.637   4
  -5   6   2 578.708 96.6922   7
   5  -6  -2 659.389 125.823   3
  -5   6   1 87.7751 38.5478   7
   5  -6  -1 115.636 58.2023   3
  -5   6   0 387.361 100.212   7
   5  -6   0 425.079 98.0535   3
  -5   6  -1 440.050 108.105   7
   5  -6   1 237.225 72.4672   3
  -5   6  -2 73.5196 60.1806   7
   5  -6   2 70.5796 42.2726   3
  -5   6  -3-1.78363 53.2899   7
  -5   6  -4 837.676 183.566   7
  -5   6  -5 946.573 207.158   7
  -5   6  -6-20.2602 68.8815   7
   5  -6   7-234.443 108.538   6
  -5   6  -7 144.135 94.0194   7
  -5   5   9 180.159 71.3704   5
  -5   5   8 49.6576 51.5260   4
  -5   5   8 79.6037 59.8143   5
  -5   5   7-18.6989 42.3846   4
  -5   5   7-20.1318 37.0803   5
  -5   5   6 176.170 86.3207   4
  -5   5   6 192.706 72.4380   5
   5  -5  -5 325.628 90.0031   3
  -5   5   5 356.334 110.452   4
  -5   5   5 475.444 106.612   5
  -5   5   4 524.613 126.401   4
  -5   5   4 665.488 124.575   5
   5  -5  -4 646.930 124.501   3
  -5   5   3 336.148 94.6735   4
  -5   5   3 380.210 94.0864   5
  -5   5   3 323.881 59.5000   7
   5  -5  -3 313.499 86.0627   3
  -5   5   2 49.2367 29.7822   5
  -5   5   2 91.6606 45.1239   7
   5  -5  -2 69.7389 36.5609   3
  -5   5   1-14.8275 38.4564   7
   5  -5  -1-13.6999 28.8199   3
  -5   5   0 175.772 61.5438   7
   5  -5   0 157.499 58.7587   3
  -5   5  -1 1135.40 164.588   7
   5  -5   1 1099.70 146.953   3
  -5   5  -2 3072.00 289.122   7
   5  -5   2 2799.84 237.293   3
   5  -5   3 77.7452 46.0673   3
  -5   5  -3 95.0345 68.1576   7
  -5   5  -4 566.364 146.934   7
   5  -5   5 48.9224 38.5750   6
  -5   5  -5 67.7895 44.7502   7
   5  -5   6-3.72724 40.5014   6
  -5   5  -6-3.65800 39.7823   7
   5  -5   7 117.453 79.1055   6
  -5   4  10 101.353 52.2568   5
  -5   4   9 73.9139 38.9205   4
  -5   4   9-51.4237 42.5300   5
  -5   4   8 971.633 188.112   4
  -5   4   8 927.676 160.211   5
  -5   4   7 170.576 70.6186   4
  -5   4   7 66.6305 53.0187   5
  -5   4   6 440.308 116.448   4
  -5   4   6 478.887 106.639   5
  -5   4   5 2900.01 257.763   5
   5  -4  -5 3172.22 266.938   3
  -5   4   5 2615.27 273.569   4
  -5   4   4 14.2192 31.0473   4
  -5   4   4 78.3990 48.8177   5
   5  -4  -4 58.0582 39.9276   3
  -5   4   3 1057.51 143.990   5
  -5   4   3 1047.54 91.7545   7
   5  -4  -3 1098.58 147.976   3
  -5   4   2 1670.36 176.265   5
  -5   4   2 1599.09 133.360   7
   5  -4  -2 1463.13 167.112   3
  -5   4   1 77.7606 45.8927   5
   5  -4  -1 40.0570 25.5378   3
  -5   4   1 34.7106 16.4002   7
  -5   4   0 683.798 106.936   7
   5  -4   0 708.773 110.875   3
  -5   4  -1 496.588 100.887   7
   5  -4   1 621.377 107.561   3
  -5   4  -2 392.465 98.1014   7
   5  -4   2 501.689 99.7415   3
   5  -4   3 1289.86 157.573   3
  -5   4  -3 840.479 156.455   7
   5  -4   3 935.982 151.868   6
   5  -4   4 18.6540 25.4582   6
  -5   4  -4 50.7035 57.7197   7
   5  -4   5 77.9151 64.2115   6
   5  -4   6 98.0901 62.0504   6
  -5   4  -6 15.9576 32.6744   2
  -5   4  -7 189.322 103.718   2
   5  -4   7 57.0124 55.9918   6
  -5   4  -8 397.523 145.790   2
  -5   3  10-76.3270 60.9363   4
  -5   3  10 46.8544 49.1527   5
  -5   3   9-54.7653 53.4512   4
  -5   3   9-33.8391 32.7139   5
  -5   3   8 630.906 149.404   4
  -5   3   8 588.402 127.107   5
  -5   3   7 383.565 107.738   4
  -5   3   7 359.932 98.7639   5
  -5   3   6 1813.26 212.269   5
  -5   3   6 1239.03 187.114   4
  -5   3   5 1948.79 214.377   5
  -5   3   5 1887.51 216.563   4
  -5   3   4 5963.99 369.828   5
  -5   3   4 6159.66 175.468   7
   5  -3  -4 6631.49 373.500   3
  -5   3   3 244.454 37.9450   7
  -5   3   3 197.213 62.6675   5
   5  -3  -3 224.979 68.0907   3
  -5   3   2 2140.12 123.098   7
  -5   3   2 2301.11 201.725   5
   5  -3  -2 2343.86 204.534   3
   5  -3  -2 1943.19 67.5465   6
   5  -3  -2 1830.28 84.4798   6
  -5   3   1 49.1369 26.1504   7
  -5   3   1 86.9902 37.2874   5
   5  -3  -1 138.499 47.6715   3
   5  -3   0-14.0084 20.9166   6
  -5   3   0 34.8122 28.7490   7
  -5   3   0 3.77578 21.9574   5
   5  -3   0 10.8644 25.6727   3
   5  -3   1 144.849 49.3784   6
  -5   3  -1 95.7512 43.2485   7
   5  -3   1 140.367 44.2469   3
  -5   3  -2 904.141 143.503   7
   5  -3   2 724.118 111.848   3
   5  -3   2 757.502 121.191   6
   5  -3   3 629.749 118.291   6
   5  -3   3 743.880 115.727   3
  -5   3  -3 652.261 142.246   2
   5  -3   4 813.905 149.483   6
   5  -3   4 1254.72 152.963   3
  -5   3  -4 1117.81 189.161   2
   5  -3   5 730.476 121.197   3
  -5   3  -5 905.332 175.184   2
   5  -3   5 687.281 141.669   6
   5  -3   6 242.762 72.8452   3
  -5   3  -6 286.723 113.998   2
   5  -3   6 265.001 99.0849   6
  -5   3  -7 1057.83 208.427   2
   5  -3   7 806.980 179.358   6
  -5   3  -8-16.5196 47.7995   2
  -5   2  11 284.862 99.1930   5
  -5   2  10 35.8855 46.1639   4
  -5   2  10 208.884 78.3051   5
  -5   2   9 126.710 77.6182   4
  -5   2   9 112.288 60.8071   5
  -5   2   8 2458.57 263.320   5
  -5   2   8 2252.56 269.711   4
  -5   2   7 5236.06 377.459   5
  -5   2   7 5760.21 407.127   4
  -5   2   6 2723.15 261.152   5
  -5   2   5 835.878 138.139   5
   5  -2  -4 681.270 111.573   3
  -5   2   4 581.700 33.1507   7
  -5   2   4 695.225 122.242   5
  -5   2   3 981.903 141.441   5
   5  -2  -3 1292.40 152.375   3
  -5   2   2 2513.05 216.227   5
   5  -2  -1 152.126 20.8944   7
  -5   2   1 169.457 52.6423   5
   5  -2  -1 210.481 62.8529   3
   5  -2  -1 188.854 30.8396   6
  -5   2   0 3209.46 207.774   5
   5  -2   0 3226.19 227.448   3
  -5   2   0 3485.97 283.689   2
   5  -2   0 3120.71 184.874   6
  -5   2  -1 30.2417 23.3963   5
   5  -2   1 21.9614 21.4398   3
  -5   2  -1-6.49960 26.2588   2
   5  -2   1-15.1015 15.2472   6
   5  -2   2 1318.44 143.657   3
  -5   2  -2 1290.05 189.607   2
   5  -2   2 1166.41 144.686   6
   5  -2   3 5977.46 321.774   3
  -5   2  -3 6238.20 444.435   2
   5  -2   3 6303.67 374.027   6
   5  -2   4 52.9795 36.8420   3
  -5   2  -4 43.3293 48.0083   2
   5  -2   4 108.114 55.7663   6
   5  -2   5 38.3949 34.4765   3
  -5   2  -5-1.00273 52.2518   2
   5  -2   5-4.76339 24.9940   6
  -5   2  -6 154.841 95.1786   2
   5  -2   6 201.084 85.5996   6
  -5   2  -7 200.699 113.331   2
   5  -2   7 342.312 116.758   6
  -5   2  -8 42.7117 55.8903   2
  -5   1  11 34.6293 42.5216   5
  -5   1  10-53.1207 46.7224   5
  -5   1   9 207.314 91.3072   5
  -5   1   8 141.632 60.9436   5
  -5   1   7 4158.07 347.450   5
  -5   1   6 2310.99 247.883   5
  -5   1   5 1743.15 206.227   5
  -5   1   4 1285.69 172.088   5
  -5   1   3 4020.65 295.535   5
  -5   1   2 9105.07 428.878   5
   5  -1  -2 9011.21 404.138   3
   5  -1  -1 9138.86 271.091   7
  -5   1   1 9331.54 406.541   5
  -5   1   1 8447.23 447.520   2
   5  -1  -1 9477.23 405.119   3
   5  -1  -1 9065.18 230.560   6
  -5   1   0 445.032 77.4838   5
   5  -1   0 534.015 70.1275   6
  -5   1   0 389.542 98.9139   2
   5  -1   0 460.741 82.7732   3
  -5   1  -1 6494.89 268.492   5
  -5   1  -1 6153.02 415.680   2
   5  -1   1 6041.64 311.226   3
   5  -1   1 6490.59 311.308   6
  -5   1  -2 1464.89 204.925   2
   5  -1   2 1594.48 152.178   3
   5  -1   2 1553.07 166.744   6
  -5   1  -3 174.132 80.4544   2
   5  -1   3 121.204 43.7080   3
   5  -1   3 96.9112 44.0240   6
  -5   1  -4 522.142 133.419   2
   5  -1   4 454.567 82.0763   3
   5  -1   4 357.537 94.1099   6
  -5   1  -5 83.7408 63.1027   2
   5  -1   5 12.1929 39.2289   6
  -5   1  -6 46.3233 61.7252   2
   5  -1   6 62.9969 61.5969   6
  -5   1  -7 43.6067 53.4354   2
   5  -1   7-54.3090 49.9604   6
  -5   1  -8 79.7466 74.1743   2
  -5   0  11 285.855 106.579   5
  -5   0  10 284.736 101.669   5
  -5   0   9 1242.19 206.709   5
  -5   0   8 2600.70 293.210   5
  -5   0   7 4054.74 352.046   5
  -5   0   6 4271.56 348.301   5
  -5   0   6 3670.55 194.769   6
  -5   0   5 18528.3 738.310   5
  -5   0   5 17599.0 428.692   6
  -5   0   4 3024.79 268.882   5
  -5   0   4 2351.57 73.1482   6
  -5   0   3 2775.98 241.854   5
  -5   0   3 2143.36 86.3978   6
  -5   0   2-10.5711 11.5893   6
   5   0  -2 16.3320 10.1508   7
   5   0  -2 12.2928 5.85056   7
   5   0  -2 9.98584 4.93556   6
  -5   0   2 1.97487 31.6794   5
   5   0  -1 436.849 81.1213   3
   5   0  -1 348.002 56.2823   7
   5   0  -1 357.203 37.6918   6
  -5   0   1 352.939 88.8051   2
  -5   0   1 415.389 85.7642   5
  -5   0   0 86.3370 36.9078   5
   5   0   0 116.295 31.2023   6
   5   0   0 37.5211 28.5881   3
  -5   0  -1 1115.50 178.329   2
  -5   0  -1 1345.36 118.609   5
   5   0   1 1041.60 121.450   3
   5   0   1 1011.51 113.306   6
   5   0   2-12.5248 24.2755   3
   5   0   2 6.32740 15.8795   6
   5   0   3 1952.83 143.973   1
   5   0   3 1772.88 155.085   3
   5   0   3 1894.16 202.336   6
   5   0   4 1350.82 184.189   6
   5   0   5 3263.76 304.616   6
   5   0   6 44.7169 52.0698   6
   5   0   7 185.456 78.7145   6
  -5  -1  12-137.048 81.9415   5
  -5  -1  11 408.555 129.874   5
  -5  -1  10-104.136 71.0807   5
  -5  -1   9 947.994 190.182   5
  -5  -1   8 6480.02 492.034   5
  -5  -1   8 6308.95 374.320   6
  -5  -1   7 5.16096 27.9991   5
   5   1  -6-36.6861 27.2669   7
  -5  -1   6 8.44566 39.9432   5
   5   1  -5 4292.01 223.806   7
  -5  -1   5 3654.19 320.525   5
   5   1  -4 245.299 44.1557   7
  -5  -1   4 215.994 73.6469   5
   5   1  -3 7315.54 214.538   7
  -5  -1   3 7526.31 420.415   5
   5   1  -2 497.848 40.1846   7
   5   1  -2 547.610 43.6001   6
  -5  -1   2 396.258 89.7198   5
  -5  -1   1 3482.37 253.788   5
   5   1  -1 3852.23 140.507   6
  -5  -1   0 7417.01 356.300   5
   5   1   0 7597.89 261.078   6
   5   1   1 47.0593 29.6609   3
  -5  -1  -1 17.4710 12.1658   5
   5   1   1-3.91432 20.6045   1
   5   1   1 5.24178 16.8042   6
   5   1   2 5772.53 283.009   1
   5   1   2 5517.55 269.680   3
   5   1   2 5654.16 300.758   6
   5   1   3 5161.87 318.853   6
   5   1   3 4579.79 228.145   1
   5   1   4 97.7617 55.2956   6
   5   1   5 78.3692 50.2566   6
   5   1   6 218.132 80.1916   6
   5   1   7 12.6185 31.9705   6
  -5  -2  12 254.475 113.713   5
  -5  -2  11 400.051 145.104   5
  -5  -2  10 492.687 146.907   5
  -5  -2   9 190.241 90.7274   5
   5   2  -8 236.435 84.6667   7
  -5  -2   8 51.7948 44.2461   5
   5   2  -7 9664.49 481.077   7
  -5  -2   7 9916.63 612.688   5
   5   2  -6 5202.82 310.179   7
  -5  -2   6 5325.54 421.256   5
   5   2  -5 3.86899 19.2846   7
  -5  -2   5-16.1419 45.5007   5
   5   2  -4 5089.60 226.746   7
  -5  -2   4 5372.61 279.748   2
  -5  -2   4 5467.87 384.184   5
   5   2  -3 108.046 26.0371   7
  -5  -2   3 133.753 55.6263   5
   5   2  -2 54.5186 21.3108   7
   5   2  -2 11.8219 12.2104   6
  -5  -2   2 37.3499 22.4554   5
   5   2  -1 3954.80 287.331   1
  -5  -2   1 3813.30 283.260   5
   5   2  -1 4124.70 158.770   6
   5   2   0 688.828 110.479   1
   5   2   0 726.141 72.9517   6
  -5  -2   0 700.752 114.651   5
  -5  -2  -1 18.1366 28.6568   5
   5   2   1 16.0539 22.1586   1
   5   2   1 21.5033 17.3589   6
   5   2   2 2091.94 173.313   6
   5   2   2 2352.03 173.496   1
   5   2   3 3458.12 248.666   6
   5   2   4 133.483 49.4360   6
   5   2   5 235.350 76.8900   6
   5   2   6 134.233 65.5497   6
  -5  -3  12-2.46256 81.0727   5
  -5  -3  11 925.133 216.248   5
  -5  -3  10 40.1390 46.9233   5
   5   3  -9-8.31263 31.9304   7
  -5  -3   9 61.5180 63.0778   5
   5   3  -8 8784.91 508.975   7
  -5  -3   8 8656.14 614.577   5
   5   3  -7 235.946 73.6018   7
  -5  -3   7 84.2595 42.5504   5
   5   3  -6 624.284 106.425   7
  -5  -3   6 641.786 149.802   5
   5   3  -5 4733.17 265.012   7
  -5  -3   5 4712.14 239.660   2
  -5  -3   4 674.739 101.088   2
   5   3  -4 524.590 79.4551   7
   5   3  -3 533.448 67.4775   7
   5   3  -3 556.114 108.913   1
   5   3  -2 15731.3 400.378   7
   5   3  -2 15570.0 627.310   1
   5   3  -2 16470.6 401.663   6
   5   3  -1 264.224 76.5080   1
   5   3  -1 382.828 51.5915   6
   5   3   0 13644.3 525.287   1
   5   3   0 13831.0 383.058   6
   5   3   1 287.988 66.9574   1
   5   3   1 349.306 61.2944   6
   5   3   2 127.340 39.3165   6
   5   3   3 463.646 89.8649   6
   5   3   4-51.0594 36.8396   6
   5   3   5 580.567 116.385   6
  -5  -4  11 175.885 91.7736   5
   5   4 -10 217.794 83.2248   1
   5   4 -10 251.127 98.4520   7
  -5  -4  10 178.333 112.429   5
   5   4  -9 305.531 102.866   1
   5   4  -9 437.984 118.622   7
  -5  -4   9 259.445 118.188   5
   5   4  -8 1025.79 170.136   7
   5   4  -8 1071.84 174.416   1
   5   4  -7 1852.08 208.452   7
   5   4  -7 2536.49 261.133   1
   5   4  -6 49.9833 37.6221   1
   5   4  -6 68.5182 48.1433   7
   5   4  -5 549.335 116.577   1
  -5  -4   5 536.388 85.2660   2
   5   4  -5 493.921 90.9802   7
   5   4  -4-26.5971 48.5719   1
   5   4  -4 21.8558 24.9989   7
   5   4  -3 284.267 55.3451   7
   5   4  -3 403.626 100.153   1
   5   4  -2 1565.23 117.361   7
   5   4  -2 1371.91 170.498   1
   5   4  -1 31747.9 682.521   6
   5   4  -1 29579.9 893.608   1
   5   4   0 38.7857 26.5557   1
   5   4   0 57.8085 22.0817   6
   5   4   1 599.333 77.7777   6
   5   4   2 79.7152 33.0195   6
   5   4   3 63.1083 34.7013   6
   5   4   4 36.5217 32.0009   6
   5   4   5-20.7329 38.9183   6
  -5  -5  11 370.587 157.503   5
   5   5 -10 269.521 99.5942   7
  -5  -5  10 484.919 166.568   5
   5   5 -10 451.168 113.606   1
   5   5  -9 742.533 154.808   7
   5   5  -9 704.527 137.823   1
   5   5  -8 75.1705 50.4892   7
   5   5  -8-12.4813 46.9011   1
   5   5  -7 227.217 82.2858   7
   5   5  -7 193.735 71.9556   1
   5   5  -6 1574.13 190.152   7
   5   5  -6 1621.12 201.071   1
   5   5  -5 809.067 129.216   7
   5   5  -5 753.093 135.342   1
   5   5  -4 2721.24 220.168   7
   5   5  -4 2844.90 258.978   1
   5   5  -3 14495.5 499.183   7
   5   5  -3 14302.5 607.767   1
   5   5  -2 2798.69 177.765   7
   5   5  -2 2486.24 233.444   1
   5   5  -1 73.9636 30.9851   6
   5   5   0 82.9083 31.5400   6
   5   5   1 31.0400 22.5616   6
   5   5   2 1.52093 17.2283   6
   5   5   3 169.836 50.4803   6
   5   5   4 164.554 58.6390   6
   5   6 -10 716.663 170.281   7
   5   6 -10 883.319 156.474   1
   5   6  -9-181.757 84.1185   7
   5   6  -9-41.0735 31.1399   1
   5   6  -8 75.0243 56.3244   7
   5   6  -8 65.8185 45.0107   1
   5   6  -7 159.435 65.7650   7
   5   6  -7 135.365 63.7827   1
   5   6  -6 546.854 121.339   7
   5   6  -6 468.812 116.071   1
   5   6  -5 1823.07 215.433   7
   5   6  -5 1785.58 209.332   1
   5   6  -4 75.0030 52.6668   1
   5   6  -4 4.09862 29.1572   7
   5   6  -3 2740.61 221.145   7
   5   6  -2 104.072 43.8110   7
   5   6  -1 2247.49 166.739   7
   5   6  -1 1787.05 148.695   6
   5   6   0 60.3460 27.6279   6
   5   6   1 352.451 68.5033   6
   5   6   2 914.820 114.257   6
   5   6   3 138.044 48.2988   6
   5   7 -10 10.9321 40.8210   7
   5   7  -9 13.5945 37.6817   7
   5   7  -8 96.7955 65.2024   7
   5   7  -7 480.332 134.435   7
   5   7  -6 1345.89 208.674   7
   5   7  -5 423.407 110.182   7
   5   7  -4 439.960 106.023   7
   5   7  -3 31.4788 22.4427   7
   5   7  -2 49.6700 31.3764   7
   5   7  -1 53.1141 35.8951   7
   5   7   0 54.7977 39.1369   7
   5   7   0 1.10766 17.2295   6
   5   7   1-24.7254 27.8834   6
   5   8  -9 155.588 90.7700   7
   5   8  -8 75.3083 64.2885   7
   5   8  -7 45.5381 55.0776   7
   5   8  -6 113.580 69.2427   7
   5   8  -5 1864.92 256.519   7
   5   8  -4 75.5985 67.7562   7
   5   8  -3-50.3724 56.7396   7
   5   8  -2 179.048 59.3118   7
   5   8  -1 2.34289 21.9799   7
   5   8   0 673.555 111.376   7
   5   9  -7 400.582 141.694   7
   5   9  -6-92.6717 74.6243   7
   5   9  -5 809.089 185.348   7
   5   9  -4 108.959 73.8360   7
   5   9  -3 56.5448 48.0840   7
  -6   9   3 120.808 109.584   4
   6  -9  -3 25.3189 53.0340   3
   6  -9  -2 124.365 83.9046   3
   6  -9  -1 90.5313 65.3715   3
   6  -9   0 231.561 98.4670   3
  -6   8   4-34.0897 64.9207   4
   6  -8  -4 88.9245 60.1170   3
   6  -8  -3 10.7048 42.5419   3
   6  -8  -2 547.000 140.368   3
   6  -8  -1 20.8749 31.0206   3
   6  -8   0 22.2877 33.0279   3
   6  -8   1 547.769 130.286   3
   6  -8   2 139.632 65.2838   3
   6  -8   3 42.6533 44.2301   3
  -6   7   6-103.277 79.7997   4
  -6   7   5 106.972 66.6244   4
   6  -7  -5 217.292 94.1067   3
  -6   7   4-190.150 96.9798   4
   6  -7  -4-12.5502 40.9838   3
   6  -7  -3 93.3190 65.6882   3
   6  -7  -2 323.329 102.132   3
   6  -7  -1 492.149 122.952   3
   6  -7   0 494.433 118.040   3
   6  -7   1 401.017 108.986   3
   6  -7   2 228.856 78.0427   3
   6  -7   3 642.352 131.695   3
   6  -7   4 20.9188 30.6403   3
  -6   6   7 330.862 126.426   4
  -6   6   7 344.432 106.910   5
  -6   6   6-82.9541 69.0194   4
  -6   6   6 20.1185 34.9092   5
   6  -6  -5 24.9647 35.9084   3
  -6   6   5 8.07241 26.0566   5
   6  -6  -4 454.713 124.878   3
   6  -6  -3 136.908 67.3678   3
   6  -6  -2 791.985 148.293   3
   6  -6  -1 194.580 76.7443   3
   6  -6   0 575.169 123.280   3
   6  -6   1 155.812 60.9330   3
   6  -6   2 269.849 79.7341   3
   6  -6   3 290.165 92.9411   3
  -6   6  -4 9.60873 36.7077   7
   6  -6   4 206.067 78.1677   3
   6  -6   5 26.1085 49.7324   6
  -6   6  -5 79.9696 66.2537   7
   6  -6   5 86.9518 65.4668   3
   6  -6   6 63.7485 58.2803   6
   6  -6   6 102.076 58.9367   3
  -6   5   8 53.6564 51.4184   4
  -6   5   8 64.8907 58.3337   5
  -6   5   7 360.024 119.276   4
  -6   5   7 553.044 127.609   5
  -6   5   6-99.9167 70.3688   4
  -6   5   6 9.38550 21.9184   5
   6  -5  -5 617.624 135.200   3
  -6   5   5 870.550 155.855   5
  -6   5   4 655.036 130.365   5
   6  -5  -4 722.121 140.731   3
  -6   5   3 4427.88 330.523   5
   6  -5  -3 4705.32 354.340   3
  -6   5   2 1051.50 156.505   5
   6  -5  -2 1110.49 165.232   3
   6  -5  -1 1855.93 211.033   3
   6  -5   0 532.140 107.337   3
   6  -5   1 90.4311 45.0646   3
  -6   5  -2 52.4701 50.4157   7
   6  -5   2 96.6716 54.9203   3
   6  -5   3-6.06349 42.4842   6
  -6   5  -3-4.78670 26.3981   7
   6  -5   3 9.15354 29.4556   3
   6  -5   4-80.7256 52.7920   6
  -6   5  -4-13.5319 43.4005   7
   6  -5   4 21.7483 24.7086   3
   6  -5   5 204.975 91.4653   6
   6  -5   5 280.726 92.2783   3
   6  -5   6-93.5426 62.9255   6
   6  -5   6 65.6701 49.2297   3
   6  -5   7-2.38405 54.4754   6
  -6   4   9 29.0275 50.2255   4
  -6   4   9 51.2670 41.1435   5
  -6   4   8 93.9004 75.2841   4
  -6   4   8-30.4946 43.6698   5
  -6   4   7 420.120 112.571   5
  -6   4   6 1126.72 177.643   5
  -6   4   5 1171.31 176.288   5
   6  -4  -5 1268.46 181.750   3
  -6   4   4 322.518 91.2599   5
   6  -4  -4 342.215 91.1205   3
  -6   4   3 218.720 73.9187   5
   6  -4  -3 299.308 85.2575   3
  -6   4   2 500.760 104.680   5
   6  -4  -2 605.707 119.069   3
  -6   4   1 722.068 118.442   5
   6  -4  -1 862.442 136.992   3
   6  -4   0 155.487 62.6908   3
   6  -4   1 114.333 47.1187   6
  -6   4  -1 64.9799 46.6165   7
   6  -4   1 97.1899 49.2410   3
   6  -4   2 35.8301 31.0943   6
  -6   4  -2 24.3286 32.1217   7
   6  -4   2-14.7956 26.5939   3
   6  -4   3 609.864 122.556   6
   6  -4   3 749.256 131.589   3
   6  -4   4 386.384 103.055   6
   6  -4   4 552.017 118.479   3
   6  -4   5 85.0313 51.2591   3
   6  -4   5 28.7015 39.3978   6
   6  -4   6 23.1734 39.1042   3
   6  -4   6-8.19670 50.0303   6
   6  -4   7 457.899 138.911   6
  -6   3  10-21.6295 40.8365   5
  -6   3   9 412.719 119.988   5
  -6   3   8 79.4064 45.2019   5
  -6   3   7 241.324 84.3904   5
  -6   3   6 1927.87 235.243   5
  -6   3   5 2427.74 257.695   5
  -6   3   4 1693.02 206.140   5
   6  -3  -4 1831.28 206.811   3
  -6   3   3 4720.25 335.341   5
   6  -3  -3 4592.02 326.104   3
  -6   3   2 3755.36 278.660   5
   6  -3  -2 3092.55 258.390   3
  -6   3   1 4732.74 297.532   5
   6  -3  -1 4776.55 316.731   3
  -6   3   0 2077.58 186.397   5
   6  -3   0 2105.91 208.175   3
   6  -3   0 1938.05 153.890   6
   6  -3   1 87.8127 41.8797   3
   6  -3   1 81.6837 38.6912   6
   6  -3   2 56.2336 42.0210   3
   6  -3   2 99.7051 45.1029   6
  -6   3  -3 454.461 129.761   2
   6  -3   3 297.058 81.7819   3
   6  -3   3 271.679 78.7572   6
   6  -3   4 216.751 76.5253   3
  -6   3  -4 240.030 94.8778   2
   6  -3   4 134.745 64.6714   6
   6  -3   5 243.323 79.3499   3
  -6   3  -5 343.719 127.012   2
   6  -3   5 263.015 91.1842   6
  -6   3  -6 61.8319 76.7017   2
   6  -3   6 81.1734 59.7416   6
  -6   3  -7 69.0111 94.1117   2
   6  -3   7 241.417 102.307   6
  -6   2  11 27.1002 43.4932   5
  -6   2  10 385.483 125.154   5
  -6   2   9 195.431 93.7387   5
  -6   2   8-4.99295 33.3210   5
  -6   2   7 760.579 151.404   5
  -6   2   6 2551.47 269.415   5
  -6   2   5 750.389 140.519   5
  -6   2   4 5401.68 371.936   5
  -6   2   3 1011.68 153.620   5
   6  -2  -3 1009.18 146.461   3
  -6   2   2 2689.72 239.949   5
   6  -2  -2 2588.43 231.064   3
  -6   2   1 276.178 70.3451   5
   6  -2  -1 246.091 71.6793   3
  -6   2   0 1261.10 137.740   5
   6  -2   0 1182.00 152.167   3
  -6   2   0 1475.66 204.074   2
   6  -2   0 1353.52 121.946   6
  -6   2  -1 39.7250 25.5748   5
   6  -2   1 38.9083 37.2523   3
   6  -2   1 5.62691 15.6310   6
  -6   2  -1 2.17860 42.1063   2
   6  -2   2-28.2103 50.4131   3
  -6   2  -2-14.1270 29.6905   2
   6  -2   2-22.6759 29.8146   6
   6  -2   3 284.619 80.4409   3
  -6   2  -3 244.786 86.4413   2
   6  -2   3 253.239 74.1330   6
   6  -2   4 1279.51 158.025   3
  -6   2  -4 1410.34 233.768   2
   6  -2   4 967.196 158.831   6
  -6   2  -5 1177.09 227.404   2
   6  -2   5 999.411 171.516   6
  -6   2  -6 699.467 191.731   2
   6  -2   6 739.785 158.995   6
   6  -2   7 18.1897 31.2299   6
  -6   1  11 11.1901 36.7014   5
  -6   1  10 1402.27 234.765   5
  -6   1   9 52.2300 57.1511   5
  -6   1   8 49.7431 41.9671   5
  -6   1   7 4513.83 381.329   5
  -6   1   6 482.203 120.375   5
  -6   1   5 769.224 148.278   5
  -6   1   4 6843.64 428.604   5
  -6   1   3 1809.48 205.067   5
  -6   1   2 5100.28 335.972   5
   6  -1  -2 6017.60 350.854   3
  -6   1   1 1530.99 168.525   5
  -6   1   1 1428.00 191.756   2
   6  -1  -1 1611.87 175.934   3
   6  -1  -1 1503.38 82.0514   6
  -6   1   0 29.5552 23.8600   5
  -6   1   0 41.2646 57.4679   2
   6  -1   0-19.1077 15.2698   6
   6  -1   0-26.6817 27.3271   3
  -6   1  -1 134.051 42.2695   5
  -6   1  -1 283.425 102.455   2
   6  -1   1 150.224 51.3238   3
   6  -1   1 172.317 50.0513   6
  -6   1  -2 641.311 151.560   2
   6  -1   2 748.905 117.244   3
   6  -1   2 707.295 117.125   6
  -6   1  -3 1650.20 251.782   2
   6  -1   3 1598.27 169.313   3
   6  -1   3 1737.39 199.230   6
  -6   1  -4 1695.06 258.981   2
   6  -1   4 1701.40 209.755   6
  -6   1  -5 21.1518 45.8056   2
   6  -1   5 82.2148 58.1135   6
  -6   1  -6 30.5261 61.0356   2
   6  -1   6 105.293 62.7293   6
  -6   0  11 271.283 102.100   5
  -6   0  10-40.8051 49.7415   5
  -6   0   9 23.0008 42.8114   5
  -6   0   8 779.735 172.905   5
  -6   0   7 264.267 100.732   5
  -6   0   6 6870.37 468.036   5
  -6   0   5 6558.56 438.698   5
  -6   0   4 2498.45 255.231   5
  -6   0   3 2614.63 250.990   5
   6   0  -2 620.251 40.9354   6
  -6   0   2 525.329 107.527   5
  -6   0   2 521.457 109.018   2
   6   0  -1 50.1589 34.5094   3
  -6   0   1 21.3950 16.9952   5
  -6   0   1 94.4293 49.7870   2
   6   0  -1 98.8257 22.4244   6
   6   0   0 285.426 75.5568   3
  -6   0   0 285.186 71.6694   5
  -6   0   0 398.518 112.737   2
   6   0   0 198.278 41.1394   6
  -6   0  -1 80.3586 65.5554   2
  -6   0  -1 107.767 36.7714   5
   6   0   1 157.773 45.4352   6
   6   0   1 94.0426 43.1746   3
   6   0   2 169.919 62.8911   1
  -6   0  -2 147.175 74.4362   2
   6   0   2 117.324 49.5780   6
   6   0   2 86.9946 39.6666   3
  -6   0  -3 1401.47 232.721   2
   6   0   3 1333.98 150.919   3
   6   0   3 1426.07 173.880   6
  -6   0  -4 1843.35 281.725   2
   6   0   4 1846.27 213.147   6
  -6   0  -5 45.5221 59.2321   2
   6   0   5 200.908 72.0884   6
  -6   0  -6 12.6110 75.5445   2
   6   0   6 31.1637 36.0654   6
  -6  -1  11 27.7444 56.9304   5
  -6  -1  10 461.785 147.017   5
  -6  -1   9-62.6517 58.6171   5
  -6  -1   8 141.114 50.6630   5
  -6  -1   7 19145.4 875.996   5
  -6  -1   6 1855.80 245.999   5
  -6  -1   5 3.85376 33.2099   5
  -6  -1   4 4122.38 338.785   5
  -6  -1   3 226.203 77.0777   5
  -6  -1   3 205.850 65.1400   2
   6   1  -2 601.950 47.7097   7
   6   1  -2 656.690 52.5733   6
  -6  -1   2 599.878 120.353   2
  -6  -1   2 452.470 102.860   5
  -6  -1   1 3892.78 334.483   2
  -6  -1   1 3910.40 288.910   5
   6   1  -1 4345.23 160.246   6
  -6  -1   0 232.941 91.2412   2
  -6  -1   0 177.967 64.7513   5
   6   1   0 280.039 46.0710   6
   6   1   1 8275.98 416.818   1
   6   1   1 7486.34 315.351   6
   6   1   2 141.334 56.9011   1
   6   1   2 154.399 49.5139   6
   6   1   3 123.701 52.0365   6
   6   1   4 231.404 76.6150   6
   6   1   5 97.0225 52.8933   6
   6   1   6 469.053 118.502   6
  -6  -2  11 564.899 171.923   5
  -6  -2  10 285.831 119.952   5
  -6  -2   9 688.561 177.762   5
  -6  -2   8 429.006 139.569   5
  -6  -2   7 2611.80 320.885   5
  -6  -2   6 4499.93 400.920   5
  -6  -2   5 927.248 172.211   5
   6   2  -4 745.799 79.9498   7
  -6  -2   4 804.644 152.499   5
   6   2  -3 29.1637 17.2630   7
  -6  -2   3 84.7227 45.8232   2
  -6  -2   3 28.0307 39.6036   5
  -6  -2   2 1294.22 183.695   2
   6   2  -2 1588.73 94.0155   7
  -6  -2   2 1397.57 191.151   5
   6   2  -2 1506.12 93.5744   6
   6   2  -1 4371.08 326.623   1
  -6  -2   1 4716.22 337.089   5
   6   2  -1 4869.89 184.652   6
   6   2   0 22719.4 767.214   1
  -6  -2   0 21892.8 736.081   5
   6   2   0 21484.5 524.645   6
   6   2   1 334.926 78.9368   1
   6   2   1 345.111 61.5890   6
   6   2   2 490.994 87.4747   1
   6   2   2 348.162 71.4554   6
   6   2   3-96.9597 44.8837   6
   6   2   4-31.1826 45.4270   6
   6   2   5-132.833 61.4751   6
  -6  -3  11-12.2806 42.0867   5
  -6  -3  10 871.275 212.357   5
  -6  -3   9 1543.20 270.882   5
  -6  -3   8 1058.31 221.459   5
  -6  -3   7 1359.15 235.542   5
  -6  -3   6 224.304 93.4177   5
   6   3  -5 1195.75 124.437   7
  -6  -3   5 1536.97 231.632   5
   6   3  -4 3203.81 199.512   7
  -6  -3   4 2767.85 240.047   2
  -6  -3   4 2959.27 317.516   5
   6   3  -3 64.6694 28.1892   7
   6   3  -3-30.4052 60.2099   1
  -6  -3   3 150.584 78.1210   5
   6   3  -2 14536.0 386.973   7
  -6  -3   2 14546.9 716.871   5
   6   3  -2 14066.5 380.216   6
   6   3  -1 3852.01 302.223   1
  -6  -3   1 4077.72 362.459   5
   6   3  -1 4012.54 179.413   6
   6   3   0 256.600 49.5558   6
   6   3   0 252.925 75.7240   1
   6   3   1 45.0684 40.0703   1
   6   3   1 32.5183 22.5808   6
   6   3   2 56.7035 27.3779   6
   6   3   3 127.061 46.5807   6
   6   3   4 14.5767 26.3498   6
  -6  -4  10 85.4490 75.5736   5
   6   4 -10 100.071 71.8153   1
  -6  -4   9 1453.09 271.591   5
   6   4  -9 1543.59 231.600   1
  -6  -4   8 213.596 106.635   5
   6   4  -8 284.616 112.088   1
  -6  -4   7 633.815 167.793   5
   6   4  -7 886.147 166.459   1
   6   4  -6-10.3838 19.9436   7
   6   4  -6 55.7073 35.6089   1
   6   4  -5 107.685 56.7259   1
   6   4  -5 100.475 45.7038   7
   6   4  -4 4164.37 257.787   7
   6   4  -4 3470.80 311.787   1
   6   4  -3 1565.38 139.534   7
   6   4  -3 1457.34 196.014   1
   6   4  -2 4056.82 202.201   7
   6   4  -2 3726.50 305.287   1
   6   4  -2 4181.33 201.578   6
   6   4  -1 186.810 75.5051   1
   6   4  -1 111.330 34.3829   6
   6   4   0 4350.59 211.852   6
   6   4   0 4248.23 301.272   1
   6   4   1 217.072 49.6860   6
   6   4   2 100.624 39.0722   6
   6   4   3 405.714 79.0848   6
   6   4   4 309.094 78.3421   6
   6   5 -10 2.91576 58.0516   1
  -6  -5  10-13.5764 47.8788   5
   6   5  -9 134.259 80.4217   1
  -6  -5   9 58.3906 63.9729   5
   6   5  -8 24.7092 47.2202   1
   6   5  -7 1.68232 38.1287   1
   6   5  -6 2570.30 246.688   7
   6   5  -6 2098.57 247.247   1
   6   5  -5 357.966 89.8847   7
   6   5  -5 179.128 77.8400   1
   6   5  -4 90.5842 64.9144   1
   6   5  -4 51.3597 44.8120   7
   6   5  -3 17.8520 26.2413   1
   6   5  -3 25.6175 16.6489   7
   6   5  -2 297.507 89.9657   1
   6   5  -2 522.836 77.4220   7
   6   5  -1 158.545 68.7011   1
   6   5  -1 55.6204 31.2565   6
   6   5   0 37.7643 26.2028   6
   6   5   1 113.191 36.9412   6
   6   5   2 40.0615 32.0049   6
   6   5   3 160.170 58.4528   6
   6   6 -10-6.64432 37.8105   1
   6   6  -9 459.917 121.612   1
   6   6  -8 216.531 91.0440   1
   6   6  -7 407.244 113.983   1
   6   6  -6 237.345 82.8036   7
   6   6  -6 185.800 78.7995   1
   6   6  -5 133.126 61.5804   7
   6   6  -5 94.4989 63.1609   1
   6   6  -4 966.194 149.482   7
   6   6  -4 1027.86 174.984   1
   6   6  -3 268.165 91.9596   1
   6   6  -3 167.278 58.5043   7
   6   6  -2-7.41589 16.7005   7
   6   6  -1 775.367 102.216   7
   6   6  -1 799.779 102.106   6
   6   6   0-12.4515 19.9262   6
   6   6   1 267.969 59.9478   6
   6   6   2 31.7303 29.9005   6
   6   7  -9 159.742 89.8455   1
   6   7  -8 188.042 90.9812   1
   6   7  -7 60.6197 65.6680   7
   6   7  -7 17.7690 29.4870   1
   6   7  -6 179.100 92.1834   7
   6   7  -6 445.691 119.878   1
   6   7  -5 186.062 86.8780   7
   6   7  -4 1528.25 204.699   7
   6   7  -3-32.0619 42.1173   7
   6   7  -2 520.699 101.222   7
   6   7  -1-0.20518 16.6500   7
   6   7   0 1114.02 132.891   7
   6   7   0 814.709 112.200   6
   6   8  -7-61.0395 65.2403   7
   6   8  -6 259.693 109.357   7
   6   8  -5 206.132 90.4737   7
   6   8  -4 1004.92 181.247   7
   6   8  -3-29.2191 54.3925   7
   6   8  -2 206.064 72.9743   7
   6   8  -1 27.8083 34.8381   7
   7  -8  -4-25.9119 53.7823   3
   7  -8  -3-23.2839 54.8978   3
   7  -8  -2-67.3804 58.5907   3
   7  -8  -1 174.894 85.6661   3
   7  -7  -5-112.781 75.2696   3
   7  -7  -4 291.841 107.407   3
   7  -7  -3 31.7231 54.7127   3
   7  -7  -2 718.465 157.764   3
   7  -7  -1 323.172 105.540   3
   7  -7   0 492.362 122.413   3
   7  -7   1 390.496 113.759   3
   7  -7   2 77.2868 51.7168   3
  -7   6   6 355.957 115.981   5
   7  -6  -5 4.29311 31.9298   3
  -7   6   5 65.6172 57.9238   5
  -7   6   4 104.194 60.2511   5
   7  -6  -4 8.73652 47.2389   3
   7  -6  -3-12.7991 50.4037   3
   7  -6  -2 59.2588 54.7380   3
   7  -6  -1 362.897 106.636   3
   7  -6   0 51.9325 58.8513   3
   7  -6   1 571.263 134.798   3
   7  -6   2-1.74562 27.1247   3
   7  -6   3 56.3829 58.7721   3
   7  -6   4 40.2532 45.4340   3
  -7   5   7 64.5581 53.5124   5
  -7   5   6 357.014 113.353   5
   7  -5  -5 202.750 87.5027   3
  -7   5   5 188.549 81.9555   5
  -7   5   4 338.718 100.666   5
   7  -5  -4 398.442 110.927   3
  -7   5   3-10.5063 35.8859   5
   7  -5  -3 17.8896 28.6061   3
  -7   5   2 1422.50 192.317   5
   7  -5  -2 1667.91 218.352   3
   7  -5  -1 1915.90 229.633   3
   7  -5   0 1026.14 165.793   3
   7  -5   1 241.240 85.0175   3
   7  -5   2-25.4132 34.6335   3
   7  -5   3 63.7818 49.4509   3
   7  -5   4 66.4136 68.3727   3
   7  -5   5 98.2067 56.4540   3
  -7   4   8 556.990 138.757   5
  -7   4   7 125.573 58.9983   5
  -7   4   6 18.4340 39.7527   5
   7  -4  -5 312.876 99.5576   3
  -7   4   5 236.719 81.6649   5
   7  -4  -4 158.638 68.8805   3
  -7   4   4 61.8385 48.0931   5
  -7   4   3 1420.20 192.317   5
   7  -4  -3 1580.71 205.992   3
  -7   4   2 334.651 91.2725   5
   7  -4  -2 331.490 92.4896   3
  -7   4   1 1696.58 193.382   5
   7  -4  -1 1666.15 205.702   3
   7  -4   0 539.353 116.878   3
   7  -4   1 740.000 142.410   3
   7  -4   2 74.1901 59.9932   3
   7  -4   3 9.90145 29.0956   3
   7  -4   4 409.830 111.229   3
   7  -4   5 46.1255 61.9653   3
  -7   3   9 411.236 127.772   5
  -7   3   8 140.725 78.5895   5
  -7   3   7 35.2888 40.4234   5
  -7   3   6 595.772 138.680   5
  -7   3   5-11.3528 49.3206   5
   7  -3  -4 236.166 77.6666   3
  -7   3   4 190.984 76.3479   5
  -7   3   3 3712.90 309.812   5
   7  -3  -3 3400.75 298.973   3
  -7   3   2 1399.87 181.261   5
   7  -3  -2 1246.34 173.627   3
  -7   3   1 2740.19 239.337   5
   7  -3  -1 2836.69 267.461   3
  -7   3   0 189.549 61.5949   5
   7  -3   0 132.687 63.1959   3
   7  -3   1 42.4197 29.0810   3
   7  -3   2 347.183 95.7407   3
  -7   3  -3 448.535 147.842   2
   7  -3   3 207.494 71.3732   3
   7  -3   4 456.090 109.735   3
  -7   3  -4 572.838 168.761   2
   7  -3   5 259.829 93.2643   6
  -7   3  -5 308.458 144.422   2
   7  -3   6-56.7231 48.4583   6
  -7   2  10 533.601 156.362   5
  -7   2   9 67.7843 55.2440   5
  -7   2   8 304.793 103.117   5
  -7   2   7 83.0931 56.9811   5
  -7   2   6 137.930 72.6510   5
  -7   2   5 3288.67 313.473   5
  -7   2   4 3441.65 310.608   5
  -7   2   3 4383.76 341.625   5
   7  -2  -3 4501.63 337.357   3
  -7   2   2 141.992 54.4446   5
   7  -2  -2 102.587 38.3539   3
  -7   2   1 22.0004 27.9694   5
   7  -2  -1 76.6686 43.6290   3
  -7   2   0 230.781 66.7533   5
   7  -2   0 284.441 85.6210   3
   7  -2   1 95.7402 44.1477   3
  -7   2  -1 58.2880 57.4038   2
   7  -2   2 82.8167 36.7768   3
  -7   2  -2 39.5569 39.8584   2
   7  -2   3-27.2796 44.8227   3
  -7   2  -3 11.1268 39.9707   2
   7  -2   3 21.1551 36.8857   6
  -7   2  -4 278.255 107.693   2
   7  -2   4 240.282 84.2400   6
  -7   2  -5 388.062 141.375   2
   7  -2   5 588.650 133.968   6
   7  -2   6-35.6858 44.5805   6
  -7   1  10 156.948 80.7662   5
  -7   1   9 160.716 78.9539   5
  -7   1   8-5.00580 23.5076   5
  -7   1   7 980.404 183.777   5
  -7   1   6 10427.8 599.506   5
  -7   1   5 1369.56 202.911   5
  -7   1   4 88.8379 48.7956   5
  -7   1   3 1768.23 212.904   5
   7  -1  -2 258.789 80.2257   3
  -7   1   2 215.854 72.8615   5
  -7   1   1 168.668 63.4858   5
  -7   1   1 268.161 88.1636   2
   7  -1  -1 119.003 44.7101   3
  -7   1   0 254.592 70.9994   5
  -7   1   0 153.820 74.0878   2
   7  -1   0 297.914 84.0863   3
  -7   1  -1-63.5119 63.2578   2
   7  -1   1-12.3958 41.5698   3
  -7   1  -2 2119.76 294.769   2
   7  -1   2 1966.95 207.342   3
   7  -1   2 1957.01 190.478   6
  -7   1  -3-0.54592 41.2528   2
   7  -1   3 23.6420 34.7496   3
   7  -1   3-34.7964 32.8956   6
  -7   1  -4 261.362 126.931   2
   7  -1   4 172.219 75.8785   6
  -7   1  -5-27.7302 37.5505   2
   7  -1   5 41.9110 40.9523   6
   7  -1   6 2.62299 55.5795   6
  -7   0  10 1078.16 222.321   5
  -7   0   9 13.7385 40.7252   5
  -7   0   8 647.542 159.213   5
  -7   0   7 349.541 113.431   5
  -7   0   6 1892.20 253.657   5
  -7   0   5 3199.15 317.258   5
  -7   0   4 2958.10 292.471   5
  -7   0   3 19.3315 26.3723   5
  -7   0   2 26.5357 24.5998   5
  -7   0   2 202.488 76.9889   2
  -7   0   1 735.055 124.883   5
  -7   0   1 848.999 166.297   2
  -7   0   0 5455.91 452.218   2
   7   0   0 5020.06 334.574   3
  -7   0  -1 5213.59 454.499   2
   7   0   1 4825.62 324.673   3
   7   0   1 5419.22 266.900   6
  -7   0  -2 165.736 90.5910   2
   7   0   2 160.343 50.6041   6
   7   0   2 57.5216 30.8971   3
  -7   0  -3 14.4806 55.8115   2
   7   0   3 15.5898 26.1785   6
  -7   0  -4 40.1170 56.8883   2
   7   0   4 22.2269 31.3471   6
   7   0   5 0.95221 27.4081   6
  -7  -1  10 291.921 118.112   5
  -7  -1   9 270.842 125.770   5
  -7  -1   8 1443.05 243.989   5
  -7  -1   7 14.7173 40.5442   5
  -7  -1   6 3379.13 347.528   5
  -7  -1   5-0.49336 39.9674   5
  -7  -1   4 2170.64 255.550   5
  -7  -1   3 1344.42 192.728   5
  -7  -1   3 1631.01 201.401   2
  -7  -1   2 612.820 122.776   5
  -7  -1   2 849.079 162.855   2
  -7  -1   1 4365.01 318.259   5
  -7  -1   1 4340.34 388.296   2
  -7  -1   0 2154.21 283.609   2
   7   1   0 2261.15 137.246   6
   7   1   1 230.713 69.1986   1
  -7  -1  -1 155.286 77.3012   2
   7   1   1 224.369 49.7159   6
  -7  -1  -2 50.2443 56.7437   2
   7   1   2-6.19981 23.0449   6
  -7  -1  -3-243.826 115.546   2
   7   1   3-93.4820 46.0443   6
  -7  -1  -4 509.417 176.613   2
   7   1   4 193.216 72.1039   6
   7   1   5-153.166 66.3674   6
  -7  -2  10 237.292 117.273   5
  -7  -2   9 266.491 114.216   5
  -7  -2   8 467.849 146.374   5
  -7  -2   7 196.083 96.1010   5
  -7  -2   6 2030.00 278.168   5
  -7  -2   5 463.556 132.230   5
  -7  -2   4 54.8044 60.0362   5
  -7  -2   4-7.17068 24.0284   2
  -7  -2   3 2177.58 246.096   2
  -7  -2   3 2331.23 273.103   5
  -7  -2   2 4101.19 363.204   2
  -7  -2   2 4293.35 357.495   5
  -7  -2   1 1767.36 250.019   2
   7   2  -1 1856.76 225.766   1
  -7  -2   1 1824.60 217.040   5
   7   2  -1 2068.18 121.234   6
   7   2   0 2175.62 233.374   1
   7   2   0 2057.17 133.397   6
   7   2   1 1947.95 204.794   1
   7   2   1 2101.49 153.655   6
   7   2   2 127.344 47.1302   6
   7   2   3-88.6207 42.4856   6
   7   2   4-40.7892 50.5760   6
  -7  -3  10 987.639 235.206   5
  -7  -3   9 8.65978 45.8671   5
  -7  -3   8 64.3636 77.3150   5
  -7  -3   7 343.792 139.040   5
  -7  -3   6 93.7607 55.7421   5
  -7  -3   5 1442.53 244.192   5
   7   3  -4-19.8482 49.4985   1
  -7  -3   4 68.4668 60.6574   2
  -7  -3   4-13.4825 38.7992   5
  -7  -3   3 70.4641 50.8578   2
  -7  -3   3-7.92730 31.8608   5
   7   3  -3 43.2390 28.3563   1
   7   3  -2 1059.14 173.557   1
   7   3  -2 860.671 84.1055   6
  -7  -3   2 976.782 194.343   5
   7   3  -1 1291.09 184.121   1
   7   3  -1 1189.19 99.0488   6
   7   3   0 68.1394 41.5432   1
   7   3   0 26.5132 22.1080   6
   7   3   1-20.2264 28.8512   1
   7   3   1 29.1095 25.1100   6
   7   3   2 399.119 75.3649   6
   7   3   3 75.5638 37.2324   6
   7   4 -10 1764.95 276.366   1
  -7  -4   9 66.0465 66.1748   5
   7   4  -9 29.8683 82.0854   1
  -7  -4   8 751.089 197.811   5
   7   4  -8 1313.15 223.201   1
  -7  -4   7 72.6116 73.6607   5
   7   4  -7 26.5522 54.7935   1
  -7  -4   6 648.219 173.532   5
   7   4  -6 1045.17 193.531   1
   7   4  -5 53.2446 51.1428   1
  -7  -4   5 30.6418 43.8426   5
   7   4  -4 346.957 102.576   1
  -7  -4   4 201.737 83.8243   2
  -7  -4   4 267.124 111.134   5
   7   4  -3 77.7548 47.0982   1
  -7  -4   3 18.4394 47.3752   5
  -7  -4   2 110.297 93.6770   5
   7   4  -2 29.0159 41.7654   1
   7   4  -1 115.950 56.2008   1
   7   4  -1 150.897 43.0404   6
   7   4   0 445.756 109.191   1
   7   4   0 435.219 69.4969   6
   7   4   1 2.66539 15.9681   6
   7   4   2 85.2129 39.1749   6
   7   4   3 52.6411 33.5371   6
   7   5 -10 413.124 140.796   1
   7   5  -9 50.4352 67.1489   1
  -7  -5   9-23.6075 98.3644   5
   7   5  -8 23.0418 39.9850   1
  -7  -5   8 91.6196 74.5381   5
   7   5  -7 21.8932 37.6995   1
  -7  -5   7-83.6060 67.3287   5
   7   5  -6 15.0425 30.7425   1
  -7  -5   6 157.272 91.5422   5
   7   5  -5 27.5515 30.6199   1
   7   5  -4 94.6762 59.0968   1
   7   5  -3 1500.34 212.402   1
   7   5  -2 57.0245 69.0585   1
   7   5  -1 270.048 97.3156   1
   7   5  -1 150.498 46.5986   7
   7   5  -1 154.867 45.6025   6
   7   5   0 37.0287 23.5478   6
   7   5   1 1619.77 147.929   6
   7   5   2 47.6205 37.0502   6
   7   6  -8-5.30580 54.0217   1
   7   6  -7 2.64081 43.1109   1
   7   6  -6 197.436 87.6535   1
   7   6  -5 267.277 95.3298   1
   7   6  -4 3.91357 28.6153   1
   7   6  -3 1190.50 191.139   1
   7   6  -1 452.770 81.2000   7
   7   6  -1 380.297 74.2155   6
   7   6   0-6.29083 18.4688   6
   8  -6  -5 7.94205 73.4944   3
  -8   6   4-18.0170 40.9183   5
   8  -6  -4-113.643 73.2698   3
   8  -6  -3-8.79000 37.3029   3
   8  -6  -2 201.927 91.2228   3
   8  -6  -1 269.688 98.9834   3
   8  -6   0 247.035 97.4977   3
   8  -6   1 184.419 92.6987   3
  -8   5   6 22.0948 52.4474   5
   8  -5  -5 29.0245 42.6654   3
  -8   5   5 7.77914 30.6027   5
  -8   5   4 50.7997 37.8777   5
   8  -5  -4 163.782 88.3682   3
  -8   5   3 76.6457 51.5039   5
   8  -5  -3 70.5039 53.1035   3
  -8   5   2 416.861 109.524   5
   8  -5  -2 341.602 98.0775   3
   8  -5  -1 360.910 111.397   3
   8  -5   0 643.378 146.421   3
   8  -5   1 155.463 74.7970   3
   8  -5   2-126.965 68.9851   3
   8  -5   3 195.833 88.2839   3
  -8   4   7 96.2768 69.5089   5
  -8   4   6 38.3728 52.0621   5
  -8   4   5 122.571 64.6886   5
  -8   4   4 1508.65 215.561   5
   8  -4  -4 1699.95 235.214   3
  -8   4   3 460.695 115.338   5
   8  -4  -3 431.959 119.547   3
  -8   4   2 1458.48 196.640   5
   8  -4  -2 1238.17 197.931   3
  -8   4   1 38.7302 36.1434   5
   8  -4  -1-40.6318 44.7309   3
   8  -4   0 676.622 150.224   3
   8  -4   1 147.628 73.4963   3
   8  -4   2 14.2999 33.9409   3
   8  -4   3 81.9607 59.0049   3
   8  -4   4 37.7310 52.6487   3
  -8   3   8 57.6929 52.4199   5
  -8   3   7 101.184 69.0628   5
  -8   3   6 1310.39 213.815   5
  -8   3   5 1719.96 240.025   5
   8  -3  -4 214.801 96.3265   3
  -8   3   4 65.8166 53.6749   5
   8  -3  -3 9.22443 31.2523   3
  -8   3   3-69.1505 51.1449   5
  -8   3   2 414.660 103.741   5
   8  -3  -2 236.216 86.6270   3
  -8   3   1 227.634 76.5530   5
   8  -3  -1 80.1464 49.6355   3
   8  -3   0-2.15295 31.5089   3
   8  -3   1 41.5591 50.2075   3
   8  -3   2 60.1689 51.0314   3
   8  -3   3 201.107 80.8636   3
  -8   2   8 37.3508 54.5342   5
  -8   2   7 294.899 108.982   5
  -8   2   6 2.72600 42.2725   5
  -8   2   5 972.218 180.119   5
  -8   2   4 463.578 118.768   5
   8  -2  -3 1039.56 169.788   3
  -8   2   3 1156.27 183.162   5
   8  -2  -2 770.661 149.697   3
  -8   2   2 798.143 144.292   5
  -8   2   1-20.4565 31.7270   5
   8  -2  -1 3.25041 28.8374   3
   8  -2   0 206.371 77.0272   3
  -8   2  -1 1556.31 263.734   2
   8  -2   1 1346.85 192.258   3
   8  -2   2 256.332 89.3000   3
  -8   2  -2 608.330 184.585   2
  -8   2  -3 9.07316 53.4030   2
  -8   1   9 583.153 154.900   5
  -8   1   8 1.01431 48.1443   5
  -8   1   7 617.817 150.407   5
  -8   1   6 1440.09 223.694   5
  -8   1   5 1200.79 195.706   5
  -8   1   4 138.862 67.9425   5
  -8   1   3 672.513 141.135   5
  -8   1   2 120.682 58.3367   5
  -8   1   1 195.909 74.2256   2
   8  -1  -1 353.371 99.0737   3
  -8   1   1 263.784 79.9399   5
   8  -1   0 1001.31 164.605   3
  -8   1   0 806.771 179.905   2
  -8   1  -1 687.393 176.510   2
   8  -1   1 640.394 129.013   3
  -8   1  -2 359.141 131.393   2
   8  -1   2 101.446 48.8532   3
  -8   1  -3-0.49888 69.6947   2
  -8   0   9-17.0195 85.6240   5
  -8   0   8 947.832 198.366   5
  -8   0   7 76.9630 75.4901   5
  -8   0   6 11.0657 30.2829   5
  -8   0   5 547.462 135.592   5
  -8   0   4 1004.43 177.602   5
  -8   0   3 63.4129 55.5390   5
  -8   0   2 693.569 139.788   5
  -8   0   2 710.480 160.834   2
  -8   0   1 2327.55 299.484   2
  -8   0   0 1341.60 237.223   2
  -8   0  -1 2704.87 353.212   2
  -8   0  -2 261.156 116.400   2
  -8  -1   9 514.397 162.662   5
  -8  -1   8 530.603 151.954   5
  -8  -1   7 243.508 95.0757   5
  -8  -1   6 282.251 95.6696   5
  -8  -1   5 28.5671 34.2338   5
  -8  -1   4 226.785 83.6996   5
  -8  -1   3 154.968 73.0877   5
  -8  -1   3 97.7053 52.0939   2
  -8  -1   2-93.6220 55.1125   5
  -8  -1   2-90.3504 64.6259   2
  -8  -1   1 1934.14 275.613   2
  -8  -1   0 385.542 134.912   2
   8   1   0 511.745 128.651   1
  -8  -1  -1-226.356 106.841   2
  -8  -1  -2-108.154 82.8511   2
  -8  -2   9 1283.23 248.204   5
  -8  -2   8 111.263 83.7374   5
  -8  -2   7 227.547 104.868   5
  -8  -2   6 33.6584 53.5769   5
  -8  -2   5 1696.13 260.518   5
  -8  -2   4 66.8290 55.4632   5
  -8  -2   4 119.933 69.9577   2
  -8  -2   3-1.64661 36.1101   5
  -8  -2   3 1.26019 44.0371   2
   8   2  -2-19.9991 49.2967   1
  -8  -2   2 44.3475 33.9089   2
  -8  -2   2 9.23324 34.0229   5
  -8  -2   1 377.097 122.720   2
   8   2  -1 108.674 65.6632   1
   8   2   0 165.329 58.5947   1
  -8  -2   0 498.542 144.086   2
  -8  -2  -1-43.5985 50.5403   2
  -8  -2  -2 61.4027 74.6950   2
  -8  -3   9 28.6513 57.1602   5
  -8  -3   8 80.3222 68.8813   5
  -8  -3   7 111.313 89.4953   5
  -8  -3   6 181.718 75.8857   5
  -8  -3   5 94.7407 99.2878   5
  -8  -3   4 178.789 86.7448   2
  -8  -3   4 136.904 99.7791   5
   8   3  -4 85.3369 63.9186   1
  -8  -3   3-65.4499 55.8441   2
   8   3  -3-20.4623 45.6367   1
   8   3  -2 702.065 153.429   1
  -8  -3   2 593.050 145.527   2
  -8  -3   1 373.435 120.773   2
   8   3  -1 490.115 121.691   1
   8   3   0 3.85409 36.5053   1
   8   4  -9 385.154 137.474   1
  -8  -4   8 203.917 100.467   5
   8   4  -8 185.187 97.5597   1
  -8  -4   7 33.6290 60.9902   5
   8   4  -7-41.3609 59.0064   1
   8   4  -6-5.50517 48.7870   1
  -8  -4   6 135.820 89.9467   5
   8   4  -5 274.141 104.988   1
  -8  -4   5 500.879 176.287   5
   8   4  -4 304.717 108.888   1
  -8  -4   4 386.055 154.975   5
  -8  -4   3 52.5544 34.4272   2
   8   4  -3 75.9188 62.0619   1
  -8  -4   3 36.3470 67.8182   5
   8   4  -2 171.613 84.2249   1
   8   4  -1 86.4304 64.6494   1
   8   4   0 187.775 83.6511   1
   8   5  -7 201.785 93.5860   1
  -8  -5   7 38.8999 70.0982   5
   8   5  -6 145.613 65.9773   1
  -8  -5   6 99.1432 62.9352   5
   8   5  -5 28.7244 58.0091   1
  -8  -5   5 58.5109 116.180   5
   8   5  -4 224.679 89.0781   1
  -8  -5   4 200.656 126.679   5
   8   5  -3-17.8658 49.4958   1
   8   5  -2 192.489 84.3167   1
   8   5  -1 189.096 81.2710   1
  -8  -6   6 302.432 149.363   5
  -8  -6   5 178.596 117.342   5
  -8  -6   4 681.690 265.138   5
  -9   5   4 94.5435 79.0785   5
  -9   5   3 117.216 66.1269   5
  -9   4   5 33.5068 47.5476   5
   9  -4  -4 512.765 138.939   3
  -9   4   4 434.969 122.527   5
   9  -4  -3 34.9554 33.2497   3
  -9   4   3 61.9788 58.6056   5
  -9   4   2 17.2820 40.6168   5
   9  -4  -2-1.90064 46.1753   3
   9  -4  -1 79.0743 58.6228   3
   9  -4   0-122.517 69.7981   3
   9  -4   1 76.8280 69.6717   3
  -9   3   6 474.413 148.917   5
  -9   3   5 1930.42 264.558   5
  -9   3   4 3.74746 35.2988   5
   9  -3  -3 85.7426 51.1618   3
  -9   3   3 115.872 59.3932   5
   9  -3  -2 45.2271 56.4920   3
  -9   3   2-15.9730 31.3347   5
   9  -3  -1 70.5084 56.0775   3
   9  -3   0-35.6545 45.4913   3
   9  -3   1 138.905 71.0547   3
   9  -3   2 35.8533 35.4862   3
  -9   2   7 1018.84 201.267   5
  -9   2   6 83.6342 87.4860   5
  -9   2   5 88.4316 72.7194   5
  -9   2   4 38.0930 45.0728   5
  -9   2   3 71.4615 52.1754   5
   9  -2  -2 42.3828 43.1258   3
  -9   2   2 21.7950 31.9139   5
   9  -2  -1 96.6284 72.9305   3
   9  -2   0 579.886 138.447   3
   9  -2   1 234.560 91.3012   3
  -9   1   7 441.732 140.515   5
  -9   1   6 487.517 132.859   5
  -9   1   5 109.109 65.9788   5
  -9   1   4 21.7072 35.1528   5
  -9   1   3 295.931 96.4113   5
  -9   1   2 96.9568 54.1743   5
  -9   1   0 1391.21 264.207   2
   9  -1   0 1000.33 172.745   3
  -9   1  -1 157.374 127.174   2
  -9   0   8 723.652 178.759   5
  -9   0   7 84.0345 66.0053   5
  -9   0   6 294.894 111.393   5
  -9   0   5 111.760 76.3447   5
  -9   0   4 573.329 137.210   5
  -9   0   3 21.5083 30.4756   5
  -9   0   2 43.2840 55.3727   2
  -9   0   1-24.1897 42.0069   2
  -9   0   0 383.767 143.189   2
  -9  -1   8 71.4503 65.7927   5
  -9  -1   7 44.4561 43.9055   5
  -9  -1   6 6.21838 31.7735   5
  -9  -1   5 125.118 68.8127   5
  -9  -1   4 28.3999 39.0490   5
  -9  -1   3-59.3097 51.0115   5
  -9  -1   3 71.3671 59.2769   2
  -9  -1   2 30.0233 61.0754   2
  -9  -1   1 120.867 80.0986   2
  -9  -1   0 945.169 220.418   2
  -9  -2   7-75.9710 67.7798   5
  -9  -2   6-24.7299 34.1405   5
  -9  -2   5 422.447 139.368   5
  -9  -2   4 468.268 144.883   5
  -9  -2   3 35.3406 49.7904   2
  -9  -2   2 207.267 104.887   2
   9   2  -2 226.020 79.9961   1
   9   2  -1 113.803 60.8495   1
  -9  -2   1 21.6978 48.1686   2
  -9  -2   0 117.186 83.6246   2
  -9  -3   7-91.4286 80.0744   5
  -9  -3   6 113.018 83.1088   5
   9   3  -5-80.7405 68.7160   1
  -9  -3   5-30.7564 52.8515   5
  -9  -3   4-64.7945 70.7825   5
   9   3  -4-65.4057 60.7641   1
   9   3  -3 208.671 88.8186   1
  -9  -3   3 402.763 136.773   2
   9   3  -2 73.4528 58.7355   1
  -9  -3   2 50.6320 56.0640   2
  -9  -3   1 52.4649 63.5882   2
   9   3  -1 469.969 186.668   1
  -9  -4   6 450.252 184.482   5
  -9  -4   5 125.199 105.095   5
   9   4  -3 519.696 146.935   1
   9   4  -2 678.780 159.015   1
  -9  -4   2 632.007 174.756   2
  -9  -5   5 9.91757 69.7360   5
 -10   4   3 61.9046 52.3751   5
 -10   3   4 103.954 67.2910   5
 -10   3   3-1.16535 32.2793   5
 -10   2   5 97.8981 75.4933   5
 -10   2   4 174.019 86.8089   5
 -10   2   3-10.3331 52.5722   5
 -10   1   6 145.834 79.4221   5
 -10   1   5 75.1732 57.2105   5
 -10   1   4 113.756 75.7318   5
 -10   0   6 281.603 118.292   5
 -10   0   5 2.11540 36.7065   5
 -10   0   4 343.491 120.119   5
 -10  -1   6-86.7240 73.1440   5
 -10  -1   5-40.5092 54.9344   5
 -10  -1   2-4.93497 45.1338   2
 -10  -2   6-20.9165 54.6282   5
 -10  -2   5 199.451 101.239   5
   0   0   0    0.00    0.00   0
TITL gupm0624 in P-1
REM P-1 (#2 in standard setting)
CELL 0.71073   7.860226   8.412067   9.332854 102.2818 108.9213  93.9270
ZERR    3.00   0.000604   0.000752   0.000690   0.0070   0.0070   0.0068
LATT  1
SFAC C H N O
UNIT 33.00 30.00 3.00 3.00
TREF
HKLF 4
END
;
_shelx_hkl_checksum              49604
#END Tags that were not found in dictionaries
loop_
_space_group_symop_operation_xyz
'x, y, z'
'-x, -y, -z'
loop_
_atom_site_label
_atom_site_type_symbol
_atom_site_fract_x
_atom_site_fract_y
_atom_site_fract_z
_atom_site_U_iso_or_equiv
_atom_site_adp_type
_atom_site_occupancy
_atom_site_site_symmetry_order
_atom_site_calc_flag
_atom_site_refinement_flags_posn
O1 O 0.8271(3) 1.2546(3) 1.0294(2) 0.0680(7) Uani 1 1 d .
N1 N 1.0502(3) 1.1937(3) 0.9300(3) 0.0578(7) Uani 1 1 d .
C9 C 0.4884(3) 0.8286(3) 0.6604(3) 0.0453(6) Uani 1 1 d .
C7 C 0.8809(4) 1.1742(3) 0.9321(3) 0.0478(7) Uani 1 1 d .
C6 C 0.7752(4) 1.0336(3) 0.7971(3) 0.0464(7) Uani 1 1 d .
C8 C 0.6120(4) 0.9645(3) 0.7832(3) 0.0477(7) Uani 1 1 d .
H8 H 0.5701 1.0090 0.8633 0.057 Uiso 1 1 calc R
C14 C 0.4946(4) 0.7828(4) 0.5104(3) 0.0552(8) Uani 1 1 d .
H14 H 0.5817 0.8404 0.4853 0.066 Uiso 1 1 calc R
C11 C 0.2368(4) 0.6095(4) 0.5799(4) 0.0678(9) Uani 1 1 d .
H11 H 0.1502 0.5502 0.6042 0.081 Uiso 1 1 calc R
C10 C 0.3546(4) 0.7399(4) 0.6924(4) 0.0558(8) Uani 1 1 d .
H10 H 0.3447 0.7690 0.7910 0.067 Uiso 1 1 calc R
C4 C 1.0807(4) 1.0836(4) 0.7997(3) 0.0561(8) Uani 1 1 d .
H4 H 1.1578 1.0039 0.8379 0.067 Uiso 1 1 calc R
C13 C 0.3745(4) 0.6538(4) 0.3976(4) 0.0622(8) Uani 1 1 d .
H13 H 0.3808 0.6262 0.2978 0.075 Uiso 1 1 calc R
C5 C 0.8898(4) 0.9955(4) 0.6960(4) 0.0594(8) Uani 1 1 d .
H5A H 0.8454 1.0367 0.6031 0.071 Uiso 1 1 calc R
H5B H 0.8894 0.8779 0.6643 0.071 Uiso 1 1 calc R
C12 C 0.2459(4) 0.5662(4) 0.4321(4) 0.0666(9) Uani 1 1 d .
H12 H 0.1658 0.4785 0.3566 0.080 Uiso 1 1 calc R
C1 C 1.1914(4) 1.3376(4) 1.0048(4) 0.0599(8) Uani 1 1 d .
H1A H 1.2675 1.3322 1.1083 0.072 Uiso 1 1 calc R
H1B H 1.1386 1.4386 1.0130 0.072 Uiso 1 1 calc R
C3 C 1.1814(5) 1.1999(5) 0.7448(4) 0.0722(10) Uani 1 1 d .
H3A H 1.0980 1.2518 0.6738 0.087 Uiso 1 1 calc R
H3B H 1.2564 1.1435 0.6922 0.087 Uiso 1 1 calc R
C2 C 1.2991(5) 1.3269(4) 0.8949(4) 0.0725(10) Uani 1 1 d .
H2A H 1.4153 1.2918 0.9403 0.087 Uiso 1 1 calc R
H2B H 1.3206 1.4329 0.8735 0.087 Uiso 1 1 calc R
loop_
_atom_site_aniso_label
_atom_site_aniso_U_11
_atom_site_aniso_U_22
_atom_site_aniso_U_33
_atom_site_aniso_U_23
_atom_site_aniso_U_13
_atom_site_aniso_U_12
O1 0.0860(15) 0.0583(13) 0.0618(13) -0.0053(10) 0.0433(12) 0.0022(11)
N1 0.0577(14) 0.0546(14) 0.0527(14) -0.0042(11) 0.0216(12) -0.0039(11)
C9 0.0434(14) 0.0456(14) 0.0512(16) 0.0156(12) 0.0200(12) 0.0068(11)
C7 0.0594(16) 0.0420(14) 0.0446(15) 0.0082(12) 0.0236(13) 0.0047(12)
C6 0.0541(15) 0.0441(14) 0.0416(14) 0.0066(11) 0.0205(12) 0.0052(12)
C8 0.0545(16) 0.0479(15) 0.0462(15) 0.0105(12) 0.0257(13) 0.0067(12)
C14 0.0552(16) 0.0552(17) 0.0552(17) 0.0084(13) 0.0251(14) -0.0045(13)
C11 0.0445(16) 0.076(2) 0.082(2) 0.0289(19) 0.0185(16) -0.0077(15)
C10 0.0466(15) 0.0707(19) 0.0587(18) 0.0242(15) 0.0246(14) 0.0084(14)
C4 0.0582(17) 0.0532(16) 0.0552(17) 0.0025(13) 0.0255(14) 0.0036(13)
C13 0.0610(18) 0.0598(18) 0.0585(18) 0.0027(15) 0.0212(15) -0.0039(14)
C5 0.0569(17) 0.0600(17) 0.0551(17) -0.0090(14) 0.0293(15) -0.0089(14)
C12 0.0529(17) 0.0582(18) 0.075(2) 0.0047(16) 0.0150(16) -0.0090(14)
C1 0.0574(17) 0.0460(15) 0.0612(19) 0.0012(14) 0.0099(15) -0.0003(13)
C3 0.065(2) 0.084(2) 0.064(2) 0.0081(18) 0.0285(17) -0.0118(17)
C2 0.0621(19) 0.070(2) 0.073(2) 0.0100(18) 0.0168(17) -0.0127(16)
loop_
_atom_type_symbol
_atom_type_description
_atom_type_scat_dispersion_real
_atom_type_scat_dispersion_imag
_atom_type_scat_source
C C 0.0033 0.0016 'International Tables Vol C Tables 4.2.6.8 and 6.1.1.4'
H H 0.0000 0.0000 'International Tables Vol C Tables 4.2.6.8 and 6.1.1.4'
N N 0.0061 0.0033 'International Tables Vol C Tables 4.2.6.8 and 6.1.1.4'
O O 0.0106 0.0060 'International Tables Vol C Tables 4.2.6.8 and 6.1.1.4'
loop_
_geom_angle_atom_site_label_1
_geom_angle_atom_site_label_2
_geom_angle_atom_site_label_3
_geom_angle
C7 N1 C4 115.4(2)
C7 N1 C1 128.9(2)
C4 N1 C1 112.5(2)
C14 C9 C8 123.5(2)
C14 C9 C10 117.3(3)
C10 C9 C8 119.2(3)
O1 C7 N1 125.6(3)
O1 C7 C6 127.4(3)
N1 C7 C6 106.9(2)
C7 C6 C5 107.2(2)
C8 C6 C7 121.5(2)
C8 C6 C5 131.3(2)
C9 C8 H8 115.3
C6 C8 C9 129.4(2)
C6 C8 H8 115.3
C9 C14 H14 119.2
C13 C14 C9 121.5(3)
C13 C14 H14 119.2
C10 C11 H11 119.6
C12 C11 H11 119.6
C12 C11 C10 120.7(3)
C9 C10 H10 119.6
C11 C10 C9 120.9(3)
C11 C10 H10 119.6
N1 C4 H4 110.1
N1 C4 C5 103.5(2)
N1 C4 C3 101.8(2)
C5 C4 H4 110.1
C3 C4 H4 110.1
C3 C4 C5 120.5(3)
C14 C13 H13 119.8
C12 C13 C14 120.3(3)
C12 C13 H13 119.8
C6 C5 C4 104.5(2)
C6 C5 H5A 110.8
C6 C5 H5B 110.8
C4 C5 H5A 110.8
C4 C5 H5B 110.8
H5A C5 H5B 108.9
C11 C12 H12 120.4
C13 C12 C11 119.2(3)
C13 C12 H12 120.4
N1 C1 H1A 111.1
N1 C1 H1B 111.1
N1 C1 C2 103.2(2)
H1A C1 H1B 109.1
C2 C1 H1A 111.1
C2 C1 H1B 111.1
C4 C3 H3A 110.9
C4 C3 H3B 110.9
C4 C3 C2 104.2(3)
H3A C3 H3B 108.9
C2 C3 H3A 110.9
C2 C3 H3B 110.9
C1 C2 C3 105.5(3)
C1 C2 H2A 110.6
C1 C2 H2B 110.6
C3 C2 H2A 110.6
C3 C2 H2B 110.6
H2A C2 H2B 108.8
loop_
_geom_bond_atom_site_label_1
_geom_bond_atom_site_label_2
_geom_bond_distance
O1 C7 1.220(3)
N1 C7 1.336(4)
N1 C4 1.461(3)
N1 C1 1.462(4)
C9 C8 1.460(4)
C9 C14 1.388(4)
C9 C10 1.394(4)
C7 C6 1.493(4)
C6 C8 1.326(4)
C6 C5 1.506(4)
C8 H8 0.9300
C14 H14 0.9300
C14 C13 1.381(4)
C11 H11 0.9300
C11 C10 1.380(4)
C11 C12 1.376(5)
C10 H10 0.9300
C4 H4 0.9800
C4 C5 1.529(4)
C4 C3 1.489(4)
C13 H13 0.9300
C13 C12 1.371(4)
C5 H5A 0.9700
C5 H5B 0.9700
C12 H12 0.9300
C1 H1A 0.9700
C1 H1B 0.9700
C1 C2 1.520(5)
C3 H3A 0.9700
C3 H3B 0.9700
C3 C2 1.532(4)
C2 H2A 0.9700
C2 H2B 0.9700
loop_
_geom_torsion_atom_site_label_1
_geom_torsion_atom_site_label_2
_geom_torsion_atom_site_label_3
_geom_torsion_atom_site_label_4
_geom_torsion
O1 C7 C6 C8 -10.5(5)
O1 C7 C6 C5 170.2(3)
N1 C7 C6 C8 167.7(3)
N1 C7 C6 C5 -11.7(3)
N1 C4 C5 C6 -13.6(3)
N1 C4 C3 C2 35.3(3)
N1 C1 C2 C3 13.5(4)
C9 C14 C13 C12 -0.6(5)
C7 N1 C4 C5 7.3(4)
C7 N1 C4 C3 133.0(3)
C7 N1 C1 C2 -149.2(3)
C7 C6 C8 C9 179.3(3)
C7 C6 C5 C4 15.6(3)
C8 C9 C14 C13 -179.8(3)
C8 C9 C10 C11 -179.2(3)
C8 C6 C5 C4 -163.7(3)
C14 C9 C8 C6 -22.3(5)
C14 C9 C10 C11 1.5(4)
C14 C13 C12 C11 0.7(5)
C10 C9 C8 C6 158.5(3)
C10 C9 C14 C13 -0.5(4)
C10 C11 C12 C13 0.3(5)
C4 N1 C7 O1 -179.2(3)
C4 N1 C7 C6 2.6(3)
C4 N1 C1 C2 9.3(3)
C4 C3 C2 C1 -31.0(4)
C5 C6 C8 C9 -1.5(5)
C5 C4 C3 C2 148.9(3)
C12 C11 C10 C9 -1.5(5)
C1 N1 C7 O1 -21.2(5)
C1 N1 C7 C6 160.6(3)
C1 N1 C4 C5 -154.3(3)
C1 N1 C4 C3 -28.6(3)
C3 C4 C5 C6 -126.3(3)
