#------------------------------------------------------------------------------
#$Date: 2016-03-26 14:56:23 +0200 (Sat, 26 Mar 2016) $
#$Revision: 180281 $
#$URL: svn://www.crystallography.net/cod/cif/7/11/67/7116752.cif $
#------------------------------------------------------------------------------
#
# This file is available in the Crystallography Open Database (COD),
# http://www.crystallography.net/
#
# All data on this site have been placed in the public domain by the
# contributors.
#
data_7116752
loop_
_publ_author_name
'Gang He'
'Benjamin D. Wiltshire'
'Paul Choi'
'Aliaksandr Savin'
'Shuai Sun'
'Arash Mohammadpour'
'Michael J. Ferguson'
'Robert McDonald'
'Samira Farsinezhad'
'Alex Brown'
'Karthik Shankar'
'Eric Rivard'
_publ_section_title
;
 Phosphorescence within benzotellurophenes and color tunable tellurophenes
 under ambient conditions
;
_journal_name_full               Chem.Commun.
_journal_page_first              5444
_journal_paper_doi               10.1039/C4cc06529H
_journal_volume                  51
_journal_year                    2015
_chemical_formula_moiety         'C20 H14 Te'
_chemical_formula_sum            'C20 H14 Te'
_chemical_formula_weight         381.91
_chemical_name_systematic
; 
 2,3-diphenyl-1-benzotellurophene 
;
_space_group_crystal_system      triclinic
_space_group_IT_number           2
_space_group_name_Hall           '-P 1'
_space_group_name_H-M_alt        'P -1'
_symmetry_space_group_name_Hall  '-P 1'
_symmetry_space_group_name_H-M   'P -1'
_atom_sites_solution_hydrogens   geom
_audit_creation_method           SHELXL-2013
_cell_angle_alpha                80.1921(7)
_cell_angle_beta                 87.5978(7)
_cell_angle_gamma                79.9810(6)
_cell_formula_units_Z            2
_cell_length_a                   5.7439(4)
_cell_length_b                   11.1587(7)
_cell_length_c                   12.0325(8)
_cell_measurement_reflns_used    9533
_cell_measurement_temperature    173(2)
_cell_measurement_theta_max      28.29
_cell_measurement_theta_min      2.33
_cell_volume                     748.30(9)
_computing_cell_refinement       'Bruker SAINT'
_computing_data_collection       'Bruker APEX2'
_computing_data_reduction        'Bruker SAINT'
_computing_molecular_graphics    'Bruker SHELXTL'
_computing_publication_material  'Bruker SHELXTL'
_computing_structure_refinement  'SHELXL-2013 (Sheldrick, 2013)'
_computing_structure_solution    'DIRDIF-2008 (Beurskens et al., 2008)'
_diffrn_ambient_temperature      173(2)
_diffrn_measured_fraction_theta_full 0.999
_diffrn_measured_fraction_theta_max 0.956
_diffrn_measurement_device_type  'Bruker APEX-II CCD'
_diffrn_measurement_method       '\w scans'
_diffrn_radiation_type           MoK\a
_diffrn_radiation_wavelength     0.71073
_diffrn_reflns_av_R_equivalents  0.0076
_diffrn_reflns_av_unetI/netI     0.0125
_diffrn_reflns_Laue_measured_fraction_full 0.999
_diffrn_reflns_Laue_measured_fraction_max 0.956
_diffrn_reflns_limit_h_max       7
_diffrn_reflns_limit_h_min       -7
_diffrn_reflns_limit_k_max       14
_diffrn_reflns_limit_k_min       -14
_diffrn_reflns_limit_l_max       15
_diffrn_reflns_limit_l_min       -16
_diffrn_reflns_number            6591
_diffrn_reflns_point_group_measured_fraction_full 0.999
_diffrn_reflns_point_group_measured_fraction_max 0.956
_diffrn_reflns_theta_full        25.242
_diffrn_reflns_theta_max         28.292
_diffrn_reflns_theta_min         1.718
_exptl_absorpt_coefficient_mu    1.977
_exptl_absorpt_correction_T_max  0.7917
_exptl_absorpt_correction_T_min  0.2814
_exptl_absorpt_correction_type   integration
_exptl_absorpt_process_details   'SADABS (Sheldrick, 2008)'
_exptl_crystal_colour            yellow
_exptl_crystal_density_diffrn    1.695
_exptl_crystal_description       prism
_exptl_crystal_F_000             372
_exptl_crystal_size_max          0.829
_exptl_crystal_size_mid          0.185
_exptl_crystal_size_min          0.174
_refine_diff_density_max         0.328
_refine_diff_density_min         -0.576
_refine_diff_density_rms         0.075
_refine_ls_extinction_method     none
_refine_ls_goodness_of_fit_ref   1.127
_refine_ls_hydrogen_treatment    constr
_refine_ls_matrix_type           full
_refine_ls_number_parameters     190
_refine_ls_number_reflns         3553
_refine_ls_number_restraints     0
_refine_ls_restrained_S_all      1.127
_refine_ls_R_factor_all          0.0148
_refine_ls_R_factor_gt           0.0146
_refine_ls_shift/su_max          0.001
_refine_ls_shift/su_mean         0.000
_refine_ls_structure_factor_coef Fsqd
_refine_ls_weighting_details
'w=1/[\s^2^(Fo^2^)+(0.0194P)^2^+0.3735P] where P=(Fo^2^+2Fc^2^)/3'
_refine_ls_weighting_scheme      calc
_refine_ls_wR_factor_gt          0.0395
_refine_ls_wR_factor_ref         0.0396
_reflns_Friedel_coverage         0.000
_reflns_number_gt                3513
_reflns_number_total             3553
_reflns_threshold_expression     'I > 2\s(I)'
_cod_data_source_file            c4cc06529h2-3.cif
_cod_data_source_block           riv13j6
_cod_database_code               7116752
#BEGIN Tags that were not found in dictionaries:
_shelx_space_group_comment
; 
The symmetry employed for this shelxl refinement is uniquely defined 
by the following loop, which should always be used as a source of 
symmetry information in preference to the above space-group names. 
They are only intended as comments. 
;
_shelx_estimated_absorpt_t_min   0.291
_shelx_estimated_absorpt_t_max   0.725
_shelxl_version_number           2013-4
_shelx_res_file
; 
TITL riv13j6 in P-1 
CELL 0.71073 5.7439 11.1587 12.0325 80.1921 87.5978 79.9810 
ZERR    2.00 0.0004  0.0007  0.0008  0.0007  0.0007  0.0006 
LATT 1 
SFAC C  H  TE 
UNIT 40 28 2 
TEMP -100.000 
SIZE 0.174 0.185 0.829 
L.S. 4 
ACTA 
CONF 2.1 
WGHT    0.019400    0.373500 
FVAR       0.23950 
TE    3    0.007482    0.356512    0.441044    11.00000    0.02405    0.02148 = 
         0.01647   -0.00764   -0.00522    0.00107 
C1    1    0.092526    0.261751    0.304433    11.00000    0.01883    0.01760 = 
         0.01773   -0.00581   -0.00065   -0.00280 
C2    1   -0.061189    0.305478    0.217894    11.00000    0.01842    0.01722 = 
         0.01678   -0.00522   -0.00024   -0.00311 
C3    1   -0.251206    0.407112    0.232401    11.00000    0.01898    0.01629 = 
         0.01688   -0.00351   -0.00063   -0.00252 
C4    1   -0.260722    0.454439    0.334194    11.00000    0.02103    0.01849 = 
         0.01727   -0.00349   -0.00196   -0.00212 
C5    1   -0.437291    0.551404    0.354693    11.00000    0.02611    0.02026 = 
         0.01987   -0.00678    0.00098   -0.00167 
AFIX  43 
H5    2   -0.439204    0.583873    0.422824    11.00000   -1.20000 
AFIX   0 
C6    1   -0.610088    0.599847    0.274352    11.00000    0.02468    0.01948 = 
         0.02535   -0.00400    0.00099    0.00264 
AFIX  43 
H6    2   -0.732590    0.664832    0.288198    11.00000   -1.20000 
AFIX   0 
C7    1   -0.604916    0.553584    0.173207    11.00000    0.02405    0.02244 = 
         0.02233   -0.00210   -0.00450    0.00190 
AFIX  43 
H7    2   -0.724521    0.586705    0.118904    11.00000   -1.20000 
AFIX   0 
C8    1   -0.425817    0.459585    0.152013    11.00000    0.02319    0.02090 = 
         0.01722   -0.00386   -0.00311   -0.00140 
AFIX  43 
H8    2   -0.421112    0.430262    0.082181    11.00000   -1.20000 
AFIX   0 
C11   1    0.290548    0.156747    0.315942    11.00000    0.01796    0.01929 = 
         0.01632   -0.00265    0.00014   -0.00110 
C12   1    0.493818    0.160388    0.375044    11.00000    0.02011    0.02551 = 
         0.01796   -0.00189   -0.00056   -0.00445 
AFIX  43 
H12   2    0.505938    0.232258    0.405377    11.00000   -1.20000 
AFIX   0 
C13   1    0.677649    0.060463    0.389876    11.00000    0.01885    0.03602 = 
         0.02074    0.00307   -0.00096   -0.00121 
AFIX  43 
H13   2    0.814347    0.064592    0.429908    11.00000   -1.20000 
AFIX   0 
C14   1    0.662563   -0.044887    0.346670    11.00000    0.02500    0.02956 = 
         0.02477    0.00274    0.00465    0.00779 
AFIX  43 
H14   2    0.788702   -0.113057    0.356812    11.00000   -1.20000 
AFIX   0 
C15   1    0.462193   -0.050872    0.288282    11.00000    0.03302    0.02194 = 
         0.02869   -0.00685    0.00268    0.00323 
AFIX  43 
H15   2    0.451425   -0.123401    0.258739    11.00000   -1.20000 
AFIX   0 
C16   1    0.277078    0.049080    0.272912    11.00000    0.02320    0.02272 = 
         0.02495   -0.00701   -0.00118   -0.00073 
AFIX  43 
H16   2    0.140732    0.044211    0.232971    11.00000   -1.20000 
AFIX   0 
C21   1   -0.042175    0.256294    0.109407    11.00000    0.01807    0.01818 = 
         0.01573   -0.00468   -0.00204    0.00053 
C22   1    0.137419    0.281254    0.031670    11.00000    0.02064    0.03065 = 
         0.02317   -0.00821    0.00147   -0.00624 
AFIX  43 
H22   2    0.248093    0.329822    0.047927    11.00000   -1.20000 
AFIX   0 
C23   1    0.155492    0.235553   -0.069369    11.00000    0.02515    0.03666 = 
         0.02240   -0.00879    0.00566   -0.00136 
AFIX  43 
H23   2    0.277909    0.253328   -0.121947    11.00000   -1.20000 
AFIX   0 
C24   1   -0.004347    0.164154   -0.093731    11.00000    0.03204    0.02568 = 
         0.01903   -0.01002   -0.00174    0.00485 
AFIX  43 
H24   2    0.010517    0.131558   -0.162142    11.00000   -1.20000 
AFIX   0 
C25   1   -0.186087    0.140370   -0.018038    11.00000    0.02828    0.01989 = 
         0.02353   -0.00719   -0.00635   -0.00234 
AFIX  43 
H25   2   -0.297310    0.092564   -0.035198    11.00000   -1.20000 
AFIX   0 
C26   1   -0.205718    0.186479    0.083075    11.00000    0.02183    0.02039 = 
         0.01868   -0.00426   -0.00113   -0.00394 
AFIX  43 
H26   2   -0.331026    0.170382    0.134465    11.00000   -1.20000 
  
AFIX   0 
HKLF 4 
  
REM  riv13j6 in P-1 
REM R1 =  0.0146 for    3513 Fo > 4sig(Fo)  and  0.0148 for all    3553 data 
REM    190 parameters refined using      0 restraints 
  
END 
  
WGHT      0.0194      0.3735 
  
REM Highest difference peak  0.328,  deepest hole -0.576,  1-sigma level  0.075 
Q1    1  -0.0504  0.2838  0.1622  11.00000  0.05    0.33 
Q2    1   0.0674  0.2046 -0.0759  11.00000  0.05    0.31 
Q3    1   0.1323  0.2658 -0.0208  11.00000  0.05    0.30 
Q4    1  -0.2604  0.4318  0.2783  11.00000  0.05    0.29 
Q5    1  -0.1530  0.3571  0.2186  11.00000  0.05    0.29 
Q6    1   0.0298  0.2750  0.0646  11.00000  0.05    0.27 
Q7    1  -0.1195  0.1725 -0.0651  11.00000  0.05    0.27 
Q8    1   0.3974  0.1612  0.3453  11.00000  0.05    0.27 
Q9    1   0.2007  0.2115  0.3003  11.00000  0.05    0.26 
Q10   1   0.6038  0.1197  0.3594  11.00000  0.05    0.25 
Q11   1  -0.1168  0.2213  0.0936  11.00000  0.05    0.25 
Q12   1  -0.3436  0.5051  0.3391  11.00000  0.05    0.25 
Q13   1  -0.2021  0.1724  0.0243  11.00000  0.05    0.25 
Q14   1   0.3829  0.0068  0.2846  11.00000  0.05    0.24 
Q15   1  -0.3552  0.4282  0.1988  11.00000  0.05    0.24 
Q16   1  -0.5263  0.4979  0.1751  11.00000  0.05    0.23 
Q17   1  -0.5892  0.5833  0.2194  11.00000  0.05    0.22 
Q18   1  -0.5363  0.5619  0.3195  11.00000  0.05    0.22 
Q19   1   0.3020  0.1133  0.2806  11.00000  0.05    0.22 
Q20   1  -0.3153  0.4514  0.1796  11.00000  0.05    0.22 
;
_shelx_res_checksum              92185
_shelx_hkl_file
; 
   0  -3 -16    5.05    0.25 
  -2  -5 -15   19.39    0.51 
  -1  -5 -15   24.12    0.58 
  -2  -4 -15   33.57    0.76 
  -1  -4 -15   40.85    0.86 
   0  -4 -15   46.04    0.93 
  -2  -3 -15    0.77    0.11 
  -1  -3 -15   25.17    0.61 
   0  -3 -15    2.86    0.16 
   1  -3 -15    9.98    0.32 
  -2  -2 -15   20.90    0.56 
  -1  -2 -15   11.07    0.36 
   0  -2 -15    0.35    0.07 
   1  -2 -15    2.00    0.16 
  -1  -1 -15   34.18    0.78 
   0  -1 -15   66.52    1.30 
  -1   0 -15   20.69    0.55 
   0   0 -15   36.97    0.81 
   0   1 -15    0.71    0.10 
   2  -7 -14   17.43    0.49 
  -3  -6 -14    6.51    0.27 
  -2  -6 -14    4.08    0.20 
   2  -6 -14    0.17    0.07 
  -3  -5 -14   40.88    0.89 
  -2  -5 -14   50.89    1.02 
  -1  -5 -14   36.58    0.76 
   2  -5 -14   18.02    0.49 
  -3  -4 -14   29.89    0.72 
  -2  -4 -14   36.58    0.79 
  -1  -4 -14   75.42    1.40 
   0  -4 -14   32.89    0.70 
   1  -4 -14   51.02    1.00 
   2  -4 -14   50.11    1.04 
   3  -4 -14   51.03    1.09 
  -3  -3 -14    0.64    0.11 
  -2  -3 -14    0.13    0.06 
  -1  -3 -14    1.62    0.14 
   0  -3 -14    1.56    0.13 
   2  -3 -14    0.15    0.07 
   3  -3 -14    2.37    0.19 
  -3  -2 -14   42.92    0.95 
  -2  -2 -14   55.55    1.14 
  -1  -2 -14   47.24    0.97 
   0  -2 -14   54.60    1.08 
   2  -2 -14   31.64    0.72 
   3  -2 -14   15.60    0.46 
  -3  -1 -14   48.58    1.07 
  -2  -1 -14   51.82    1.08 
  -1  -1 -14   47.36    0.98 
   0  -1 -14   81.14    1.52 
   2  -1 -14   48.09    1.00 
   3  -1 -14   21.74    0.57 
  -2   0 -14    8.27    0.32 
  -1   0 -14    3.71    0.19 
   0   0 -14   13.08    0.38 
   2   0 -14   20.44    0.54 
   3   0 -14    5.16    0.25 
  -2   1 -14   10.08    0.36 
  -1   1 -14    6.10    0.26 
   0   1 -14   15.36    0.43 
   3   1 -14    0.65    0.11 
  -2   2 -14   25.05    0.66 
  -1   2 -14   56.63    1.15 
   0   2 -14   39.74    0.86 
   3   2 -14   30.41    0.73 
  -1   3 -14   26.99    0.66 
   0   3 -14   26.92    0.65 
   1  -9 -13   56.19    1.12 
   1  -8 -13   37.00    0.80 
   2  -8 -13   43.84    0.94 
  -4  -7 -13    0.24    0.08 
   1  -7 -13    3.06    0.17 
   2  -7 -13    6.35    0.26 
  -4  -6 -13   54.97    1.15 
  -3  -6 -13   22.68    0.56 
  -2  -6 -13   37.93    0.80 
   1  -6 -13   20.18    0.50 
   2  -6 -13   22.23    0.56 
   3  -6 -13   38.45    0.87 
  -4  -5 -13   56.58    1.16 
  -3  -5 -13   61.52    1.21 
  -2  -5 -13  150.11    2.60 
  -1  -5 -13   52.31    1.01 
   0  -5 -13   95.96    1.72 
   1  -5 -13   84.83    1.57 
   2  -5 -13   52.76    1.07 
   3  -5 -13   40.21    0.89 
  -4  -4 -13   12.54    0.41 
  -3  -4 -13    4.25    0.21 
  -2  -4 -13   10.56    0.33 
  -1  -4 -13   39.81    0.81 
   0  -4 -13   15.16    0.39 
   1  -4 -13   15.02    0.28 
   2  -4 -13   14.73    0.42 
   3  -4 -13   20.71    0.55 
  -4  -3 -13    7.78    0.32 
  -3  -3 -13   18.60    0.50 
  -2  -3 -13    7.31    0.27 
  -1  -3 -13   42.03    0.86 
   0  -3 -13    1.17    0.11 
   2  -3 -13    8.11    0.29 
   3  -3 -13    0.35    0.09 
  -4  -2 -13   31.81    0.79 
  -3  -2 -13   77.01    1.49 
  -2  -2 -13   52.35    1.04 
  -1  -2 -13   53.65    1.05 
   0  -2 -13   80.41    1.48 
   2  -2 -13   33.69    0.73 
   3  -2 -13   23.84    0.60 
  -4  -1 -13   15.71    0.51 
  -3  -1 -13   41.21    0.92 
  -2  -1 -13   48.41    1.00 
  -1  -1 -13   55.71    1.10 
   0  -1 -13   54.78    1.08 
   2  -1 -13   75.01    1.43 
   3  -1 -13   26.33    0.64 
  -3   0 -13    2.77    0.22 
  -2   0 -13    0.56    0.09 
  -1   0 -13    0.38    0.08 
   0   0 -13    0.05    0.04 
   2   0 -13    1.24    0.13 
   3   0 -13    2.13    0.17 
  -3   1 -13   16.65    0.52 
  -2   1 -13   56.29    1.15 
  -1   1 -13   47.80    0.98 
   0   1 -13   29.51    0.66 
   2   1 -13   21.67    0.54 
   3   1 -13   33.86    0.76 
  -3   2 -13   46.46    1.08 
  -2   2 -13   72.14    1.43 
  -1   2 -13   58.38    1.16 
   0   2 -13   33.26    0.73 
   2   2 -13   32.38    0.73 
   3   2 -13   39.65    0.88 
  -3   3 -13    4.32    0.34 
  -2   3 -13   10.35    0.37 
  -1   3 -13   17.57    0.47 
   0   3 -13   23.60    0.58 
   2   3 -13    5.76    0.25 
   3   3 -13    5.28    0.26 
  -2   4 -13    0.91    0.13 
  -1   4 -13   13.63    0.41 
   0   4 -13    8.26    0.30 
   2   4 -13    0.36    0.09 
   3   4 -13    1.95    0.18 
  -1   5 -13   35.82    0.81 
   0   5 -13   54.73    1.11 
   2   5 -13    4.50    0.25 
   0   6 -13    7.58    0.30 
   1 -10 -12   26.07    0.62 
   1  -9 -12   86.79    1.62 
   2  -9 -12   32.51    0.74 
   1  -8 -12   31.92    0.70 
   2  -8 -12    9.80    0.33 
  -4  -7 -12   11.05    0.36 
  -3  -7 -12   13.44    0.39 
   1  -7 -12    0.11    0.05 
   2  -7 -12    9.12    0.31 
   3  -7 -12    6.29    0.27 
  -4  -6 -12   51.80    1.07 
  -3  -6 -12   79.30    1.50 
  -2  -6 -12   89.27    1.62 
   1  -6 -12   41.99    0.86 
   2  -6 -12   48.17    0.99 
   3  -6 -12    6.79    0.28 
  -4  -5 -12   27.84    0.68 
  -3  -5 -12   52.43    1.05 
  -2  -5 -12   78.14    1.43 
  -1  -5 -12   57.21    1.07 
   0  -5 -12   88.20    1.57 
   1  -5 -12   46.89    0.93 
   2  -5 -12   62.16    1.22 
   3  -5 -12   36.56    0.82 
  -5  -4 -12    1.87    0.17 
  -4  -4 -12    0.02    0.05 
  -3  -4 -12    0.23    0.06 
  -2  -4 -12    0.08    0.04 
  -1  -4 -12    9.35    0.28 
   0  -4 -12   16.83    0.40 
   1  -4 -12    2.42    0.14 
   2  -4 -12   12.46    0.36 
   3  -4 -12    7.48    0.29 
   4  -4 -12   11.49    0.39 
  -5  -3 -12   23.36    0.59 
  -4  -3 -12   56.61    1.19 
  -3  -3 -12   44.39    0.93 
  -2  -3 -12   39.00    0.80 
  -1  -3 -12   86.86    1.56 
   0  -3 -12   29.07    0.62 
   1  -3 -12   53.42    1.03 
   2  -3 -12   21.19    0.52 
   3  -3 -12   16.13    0.45 
   4  -3 -12    6.90    0.29 
  -5  -2 -12   19.40    0.52 
  -4  -2 -12   40.17    0.91 
  -3  -2 -12   82.57    1.57 
  -2  -2 -12  121.25    2.15 
  -1  -2 -12   91.78    1.65 
   0  -2 -12  115.26    2.05 
   1  -2 -12  123.99    2.18 
   2  -2 -12   38.04    0.81 
   3  -2 -12   56.84    1.14 
   4  -2 -12   42.35    0.93 
  -4  -1 -12   19.44    0.55 
  -3  -1 -12    9.45    0.33 
  -2  -1 -12   28.72    0.66 
  -1  -1 -12   10.31    0.31 
   0  -1 -12   23.42    0.53 
   1  -1 -12   30.48    0.65 
   2  -1 -12   29.37    0.65 
   3  -1 -12   11.36    0.36 
   4  -1 -12   13.52    0.42 
  -4   0 -12    3.21    0.24 
  -3   0 -12    5.54    0.26 
  -2   0 -12   24.80    0.60 
  -1   0 -12   22.20    0.53 
   1   0 -12   -0.01    0.04 
   2   0 -12   10.15    0.32 
   3   0 -12    0.36    0.09 
   4   0 -12    1.79    0.17 
  -4   1 -12   48.23    0.73 
  -3   1 -12   65.13    1.34 
  -2   1 -12   53.95    1.10 
  -1   1 -12  104.85    1.92 
   1   1 -12   96.88    1.75 
   2   1 -12   53.90    1.06 
   3   1 -12   17.10    0.47 
   4   1 -12    6.24    0.28 
  -4   2 -12   40.10    0.66 
  -3   2 -12   35.51    0.87 
  -2   2 -12   38.37    0.84 
  -1   2 -12   64.68    1.26 
   1   2 -12   56.37    1.08 
   2   2 -12   29.75    0.68 
   3   2 -12   31.58    0.72 
   4   2 -12   19.46    0.54 
  -3   3 -12    0.10    0.07 
  -2   3 -12    2.72    0.21 
  -1   3 -12    0.28    0.07 
   2   3 -12    3.90    0.20 
   3   3 -12    0.61    0.11 
   4   3 -12    7.26    0.31 
  -3   4 -12   25.97    0.46 
  -2   4 -12   20.61    0.57 
  -1   4 -12   27.13    0.64 
   2   4 -12   15.00    0.43 
   3   4 -12    3.80    0.21 
  -3   5 -12   32.93    0.82 
  -2   5 -12   49.66    1.07 
  -1   5 -12   19.95    0.52 
   2   5 -12   47.07    0.99 
   3   5 -12   27.56    0.69 
  -2   6 -12    1.31    0.10 
  -1   6 -12   33.21    0.76 
   0   6 -12   20.53    0.53 
   2   6 -12   26.24    0.63 
   3   6 -12   12.41    0.41 
  -1   7 -12    0.87    0.12 
   0   7 -12    0.24    0.07 
   2   7 -12    0.10    0.07 
   0 -12 -11   13.66    0.40 
   0 -11 -11    4.82    0.21 
   1 -11 -11    1.28    0.13 
   0 -10 -11   61.90    1.20 
   1 -10 -11   36.62    0.81 
   2 -10 -11   30.79    0.72 
   0  -9 -11   50.17    1.00 
   1  -9 -11   45.38    0.93 
   2  -9 -11   25.86    0.62 
  -5  -8 -11    1.71    0.16 
  -4  -8 -11    3.24    0.19 
   0  -8 -11   19.85    0.47 
   1  -8 -11    5.80    0.22 
   2  -8 -11    3.56    0.19 
   3  -8 -11   13.43    0.41 
  -5  -7 -11   12.93    0.42 
  -4  -7 -11   35.84    0.80 
  -3  -7 -11   61.82    1.18 
   0  -7 -11   24.17    0.53 
   1  -7 -11    9.94    0.30 
   2  -7 -11    5.61    0.23 
   3  -7 -11    7.98    0.30 
  -5  -6 -11   53.28    1.14 
  -4  -6 -11   59.72    1.19 
  -3  -6 -11   81.95    1.50 
  -2  -6 -11  145.44    2.49 
  -1  -6 -11  125.01    2.14 
   0  -6 -11  110.28    1.94 
   1  -6 -11  120.00    2.15 
   2  -6 -11   92.42    1.71 
   3  -6 -11   18.40    0.49 
   4  -6 -11   61.43    1.26 
  -5  -5 -11   20.90    0.57 
  -4  -5 -11   14.27    0.42 
  -3  -5 -11   13.40    0.38 
  -2  -5 -11   12.32    0.33 
  -1  -5 -11  102.67    1.79 
   0  -5 -11   50.11    0.66 
   1  -5 -11   39.54    0.80 
   2  -5 -11   36.54    0.78 
   3  -5 -11   64.00    1.27 
   4  -5 -11   12.37    0.40 
  -5  -4 -11    5.07    0.17 
  -4  -4 -11    8.16    0.30 
  -3  -4 -11   13.49    0.38 
  -2  -4 -11    5.65    0.21 
  -1  -4 -11   32.05    0.65 
   0  -4 -11   16.53    0.27 
   1  -4 -11    1.67    0.12 
   2  -4 -11    0.50    0.08 
   3  -4 -11    0.50    0.09 
   4  -4 -11    2.45    0.18 
  -5  -3 -11   33.16    0.54 
  -4  -3 -11   52.80    1.08 
  -3  -3 -11   86.82    1.61 
  -2  -3 -11   65.96    1.23 
  -1  -3 -11  104.17    1.82 
   0  -3 -11  108.92    1.35 
   1  -3 -11   92.48    1.68 
   2  -3 -11   44.70    0.90 
   3  -3 -11   23.98    0.58 
   4  -3 -11   30.50    0.72 
  -5  -2 -11   37.71    0.60 
  -4  -2 -11   83.50    1.60 
  -3  -2 -11   98.41    1.82 
  -2  -2 -11   35.16    0.73 
  -1  -2 -11   65.14    1.20 
   0  -2 -11   77.32    1.39 
   1  -2 -11  100.87    1.79 
   2  -2 -11  100.00    1.82 
   3  -2 -11   44.11    0.92 
   4  -2 -11   49.61    1.04 
  -5  -1 -11    1.20    0.10 
  -4  -1 -11    9.49    0.35 
  -3  -1 -11    0.28    0.07 
  -2  -1 -11    0.59    0.08 
  -1  -1 -11   11.91    0.33 
   1  -1 -11    2.10    0.12 
   2  -1 -11    1.82    0.14 
   3  -1 -11    6.73    0.26 
   4  -1 -11   28.78    0.70 
  -5   0 -11   46.32    0.71 
  -4   0 -11   64.99    1.33 
  -3   0 -11   40.81    0.88 
  -2   0 -11   57.83    1.14 
  -1   0 -11    4.85    0.20 
   1   0 -11   44.35    0.86 
   2   0 -11   41.61    0.85 
   3   0 -11   10.75    0.34 
   4   0 -11    0.51    0.10 
  -5   1 -11   43.27    1.05 
  -4   1 -11   37.81    0.59 
  -3   1 -11   88.26    1.68 
  -2   1 -11   90.99    1.71 
  -1   1 -11   71.45    1.36 
   1   1 -11   44.80    0.87 
   2   1 -11   44.47    0.90 
   3   1 -11   46.96    0.98 
   4   1 -11   29.34    0.70 
  -4   2 -11    7.51    0.21 
  -3   2 -11   38.04    0.87 
  -2   2 -11   30.28    0.72 
  -1   2 -11   12.86    0.37 
   1   2 -11   24.26    0.55 
   2   2 -11   21.21    0.51 
   3   2 -11   29.15    0.68 
   4   2 -11   15.04    0.45 
  -4   3 -11    4.19    0.16 
  -3   3 -11   11.11    0.40 
  -2   3 -11    2.46    0.19 
  -1   3 -11    2.94    0.17 
   1   3 -11   14.20    0.37 
   2   3 -11    3.58    0.18 
   3   3 -11   13.15    0.39 
   4   3 -11    0.07    0.07 
  -4   4 -11   19.28    0.57 
  -3   4 -11   34.92    0.56 
  -2   4 -11  100.90    1.89 
  -1   4 -11   38.42    0.82 
   1   4 -11   39.83    0.82 
   2   4 -11   57.92    1.14 
   3   4 -11    6.46    0.27 
   4   4 -11   21.98    0.58 
  -3   5 -11   25.68    0.45 
  -2   5 -11   34.32    0.79 
  -1   5 -11   86.30    1.62 
   1   5 -11   51.36    1.02 
   2   5 -11   48.21    1.00 
   3   5 -11   46.49    0.99 
   4   5 -11    6.87    0.30 
  -3   6 -11    1.34    0.10 
  -2   6 -11    2.95    0.14 
  -1   6 -11    0.23    0.07 
   1   6 -11    3.87    0.19 
   2   6 -11   13.81    0.41 
   3   6 -11    2.72    0.20 
  -2   7 -11   13.27    0.28 
  -1   7 -11   35.63    0.79 
   0   7 -11   24.15    0.58 
   2   7 -11    2.69    0.19 
   3   7 -11   10.03    0.37 
   0   8 -11   30.51    0.70 
   2   8 -11   27.42    0.68 
   0 -12 -10    0.32    0.07 
   1 -12 -10    2.10    0.17 
  -1 -11 -10    8.81    0.30 
   0 -11 -10   17.04    0.45 
   1 -11 -10    1.07    0.12 
  -1 -10 -10   64.95    1.25 
   0 -10 -10   60.27    1.18 
   1 -10 -10   38.59    0.82 
   2 -10 -10   38.38    0.83 
   0  -9 -10   75.80    1.40 
   1  -9 -10   40.25    0.84 
   2  -9 -10   52.15    1.06 
   3  -9 -10   22.40    0.57 
  -5  -8 -10    5.45    0.25 
  -4  -8 -10    5.46    0.23 
   0  -8 -10    0.25    0.05 
   1  -8 -10    0.12    0.05 
   2  -8 -10    1.03    0.11 
   3  -8 -10    0.27    0.07 
  -5  -7 -10   47.65    1.01 
  -4  -7 -10   67.00    1.30 
  -3  -7 -10   77.65    1.43 
  -2  -7 -10   60.89    1.14 
   0  -7 -10   95.29    1.68 
   1  -7 -10   74.25    1.39 
   2  -7 -10   42.35    0.87 
   3  -7 -10   24.71    0.60 
   4  -7 -10   14.42    0.44 
  -5  -6 -10   48.64    1.02 
  -4  -6 -10   35.67    0.77 
  -3  -6 -10   44.09    0.88 
  -2  -6 -10  135.18    2.31 
  -1  -6 -10   98.72    1.71 
   0  -6 -10   62.69    1.16 
   1  -6 -10   83.30    1.51 
   2  -6 -10  108.35    1.98 
   3  -6 -10   52.68    1.07 
   4  -6 -10   35.32    0.81 
  -5  -5 -10    0.16    0.07 
  -4  -5 -10    5.33    0.23 
  -3  -5 -10   23.19    0.54 
  -2  -5 -10    0.34    0.06 
  -1  -5 -10   19.97    0.43 
   0  -5 -10    3.37    0.09 
   1  -5 -10   10.10    0.29 
   2  -5 -10   28.91    0.64 
   3  -5 -10   33.04    0.73 
   4  -5 -10   13.15    0.41 
  -5  -4 -10   31.55    0.50 
  -4  -4 -10   61.67    1.23 
  -3  -4 -10   66.62    1.25 
  -2  -4 -10   13.72    0.35 
  -1  -4 -10   65.33    1.17 
   0  -4 -10   42.62    0.57 
   1  -4 -10   12.15    0.32 
   2  -4 -10   20.59    0.49 
   3  -4 -10   45.47    0.94 
   4  -4 -10    0.49    0.09 
  -5  -3 -10   82.36    1.09 
  -4  -3 -10   98.58    1.82 
  -3  -3 -10  125.72    2.22 
  -2  -3 -10  108.95    1.90 
  -1  -3 -10   85.77    1.51 
   0  -3 -10  129.94    1.58 
   1  -3 -10  145.09    2.47 
   2  -3 -10   64.24    1.20 
   3  -3 -10   86.68    1.61 
   4  -3 -10   61.61    1.23 
   5  -3 -10   41.16    0.92 
  -6  -2 -10   11.41    0.37 
  -5  -2 -10   13.16    0.28 
  -4  -2 -10   10.45    0.34 
  -3  -2 -10   10.89    0.33 
  -2  -2 -10   28.45    0.61 
  -1  -2 -10  118.09    2.06 
   0  -2 -10   77.12    1.38 
   1  -2 -10   10.38    0.28 
   2  -2 -10   37.61    0.78 
   3  -2 -10   40.81    0.87 
   4  -2 -10   46.17    0.97 
   5  -2 -10   30.22    0.73 
  -5  -1 -10   10.01    0.24 
  -4  -1 -10   15.15    0.44 
  -3  -1 -10    3.61    0.18 
  -2  -1 -10    8.20    0.26 
  -1  -1 -10    7.90    0.25 
   0  -1 -10    2.68    0.12 
   1  -1 -10    0.84    0.08 
   2  -1 -10    0.48    0.07 
   3  -1 -10    6.01    0.23 
   4  -1 -10    3.00    0.18 
   5  -1 -10    0.00    0.06 
  -5   0 -10   26.23    0.45 
  -4   0 -10   36.62    0.56 
  -3   0 -10   54.43    1.09 
  -2   0 -10  115.66    2.09 
  -1   0 -10   52.76    1.02 
   0   0 -10   80.40    1.42 
   1   0 -10   38.38    0.76 
   2   0 -10   17.78    0.43 
   3   0 -10   36.85    0.78 
   4   0 -10   27.35    0.65 
   5   0 -10   39.48    0.89 
  -5   1 -10   36.85    0.59 
  -4   1 -10   51.59    0.73 
  -3   1 -10   83.45    1.59 
  -2   1 -10  103.11    1.88 
  -1   1 -10   64.13    1.21 
   0   1 -10  237.06    4.03 
   1   1 -10  162.85    2.79 
   2   1 -10   93.93    1.71 
   3   1 -10   62.94    1.23 
   4   1 -10   36.70    0.82 
   5   1 -10   26.49    0.66 
  -5   2 -10    2.42    0.14 
  -4   2 -10    5.47    0.17 
  -3   2 -10    5.66    0.25 
  -2   2 -10    3.61    0.19 
  -1   2 -10    2.08    0.15 
   0   2 -10   99.93    1.77 
   1   2 -10   23.60    0.52 
   2   2 -10   17.34    0.43 
   3   2 -10   10.46    0.33 
   4   2 -10    7.01    0.28 
   5   2 -10    7.63    0.31 
  -5   3 -10    6.22    0.29 
  -4   3 -10   28.57    0.48 
  -3   3 -10   44.37    0.96 
  -2   3 -10   15.59    0.45 
  -1   3 -10   56.70    1.10 
   0   3 -10   30.84    0.63 
   1   3 -10   81.40    1.49 
   2   3 -10   18.65    0.46 
   3   3 -10    4.88    0.22 
   4   3 -10    2.25    0.18 
   5   3 -10    3.91    0.23 
  -4   4 -10   41.30    0.63 
  -3   4 -10   26.45    0.44 
  -2   4 -10  144.06    2.59 
  -1   4 -10   93.61    1.70 
   1   4 -10  140.41    2.43 
   2   4 -10   81.92    1.53 
   3   4 -10   23.79    0.59 
   4   4 -10   30.85    0.73 
   5   4 -10    9.25    0.36 
  -4   5 -10   20.30    0.39 
  -3   5 -10   41.52    0.63 
  -2   5 -10   14.24    0.42 
  -1   5 -10   35.41    0.76 
   1   5 -10   35.02    0.73 
   2   5 -10   21.93    0.53 
   3   5 -10   49.25    1.03 
   4   5 -10   10.36    0.37 
  -3   6 -10    4.46    0.16 
  -2   6 -10    0.27    0.05 
  -1   6 -10   17.44    0.46 
   1   6 -10    1.17    0.12 
   2   6 -10    4.04    0.20 
   3   6 -10    4.21    0.22 
   4   6 -10    1.06    0.14 
  -3   7 -10   40.88    0.87 
  -2   7 -10   36.90    0.56 
  -1   7 -10   41.32    0.87 
   1   7 -10   46.31    0.96 
   2   7 -10   30.82    0.72 
   3   7 -10   21.90    0.57 
   4   7 -10    9.25    0.37 
  -2   8 -10   21.81    0.53 
   0   8 -10   20.24    0.51 
   1   8 -10   15.92    0.44 
   2   8 -10   23.11    0.59 
   3   8 -10    9.26    0.35 
   1   9 -10    2.34    0.18 
   2   9 -10    0.62    0.11 
  -1 -13  -9   14.08    0.41 
   0 -13  -9   23.08    0.58 
  -1 -12  -9    0.13    0.06 
   0 -12  -9    2.66    0.16 
   1 -12  -9    0.30    0.07 
  -1 -11  -9   43.35    0.88 
   0 -11  -9   38.55    0.82 
   1 -11  -9   22.86    0.56 
   2 -11  -9   32.99    0.75 
  -1 -10  -9   96.15    1.72 
   0 -10  -9   59.92    1.16 
   1 -10  -9   73.92    1.41 
   2 -10  -9   48.78    1.01 
  -1  -9  -9   13.24    0.34 
   0  -9  -9   24.57    0.54 
   1  -9  -9   11.28    0.32 
   2  -9  -9   12.04    0.36 
   3  -9  -9    9.41    0.32 
  -5  -8  -9   31.02    0.71 
  -4  -8  -9   23.44    0.56 
  -1  -8  -9   16.53    0.38 
   0  -8  -9   25.81    0.55 
   1  -8  -9    8.98    0.27 
   2  -8  -9    0.40    0.07 
   3  -8  -9   11.62    0.36 
   4  -8  -9   -0.06    0.05 
  -6  -7  -9   35.28    0.84 
  -5  -7  -9   39.40    0.86 
  -4  -7  -9   36.64    0.78 
  -3  -7  -9  117.36    2.04 
  -2  -7  -9  206.21    3.43 
  -1  -7  -9  107.25    1.85 
   0  -7  -9   83.00    1.47 
   1  -7  -9   81.17    1.49 
   2  -7  -9  129.07    2.32 
   3  -7  -9   39.36    0.84 
   4  -7  -9   33.20    0.76 
  -6  -6  -9    8.56    0.34 
  -5  -6  -9   21.04    0.55 
  -4  -6  -9   11.44    0.34 
  -3  -6  -9   56.95    1.07 
  -2  -6  -9   38.51    0.75 
  -1  -6  -9   61.36    0.77 
   0  -6  -9   99.20    1.75 
   1  -6  -9   92.98    1.68 
   2  -6  -9   73.67    1.39 
   3  -6  -9   74.78    1.43 
   4  -6  -9   21.67    0.56 
  -6  -5  -9    1.57    0.16 
  -5  -5  -9    3.27    0.19 
  -4  -5  -9   25.45    0.59 
  -3  -5  -9    0.30    0.06 
  -2  -5  -9   21.73    0.47 
  -1  -5  -9    1.43    0.06 
   0  -5  -9    1.12    0.06 
   1  -5  -9    0.84    0.08 
   2  -5  -9    3.60    0.17 
   3  -5  -9    5.14    0.22 
   4  -5  -9    4.07    0.21 
   5  -5  -9    6.94    0.29 
  -6  -4  -9   23.77    0.63 
  -5  -4  -9   44.92    0.64 
  -4  -4  -9   80.00    1.49 
  -3  -4  -9   14.67    0.38 
  -2  -4  -9   63.49    1.16 
  -1  -4  -9  114.56    1.37 
   0  -4  -9  113.67    1.38 
   1  -4  -9   74.89    1.34 
   2  -4  -9   20.89    0.48 
   3  -4  -9   48.18    0.97 
   4  -4  -9   21.07    0.54 
   5  -4  -9   21.95    0.58 
  -6  -3  -9   47.95    1.04 
  -5  -3  -9   57.11    0.79 
  -4  -3  -9   38.19    0.81 
  -3  -3  -9   19.09    0.46 
  -2  -3  -9  232.24    3.91 
  -1  -3  -9  135.31    1.62 
   0  -3  -9  142.15    1.71 
   1  -3  -9  162.05    2.79 
   2  -3  -9   95.05    1.70 
   3  -3  -9  162.14    2.83 
   4  -3  -9   38.47    0.83 
   5  -3  -9   36.34    0.82 
  -6  -2  -9    0.13    0.05 
  -5  -2  -9    5.16    0.16 
  -4  -2  -9   39.88    0.84 
  -3  -2  -9   10.98    0.32 
  -2  -2  -9   96.23    1.73 
  -1  -2  -9   12.83    0.32 
   0  -2  -9   40.57    0.76 
   1  -2  -9   38.23    0.74 
   2  -2  -9   90.91    1.64 
   3  -2  -9   80.64    1.50 
   4  -2  -9    1.45    0.14 
   5  -2  -9    8.24    0.31 
  -6  -1  -9   20.56    0.39 
  -5  -1  -9    9.60    0.23 
  -4  -1  -9   36.46    0.79 
  -3  -1  -9   34.60    0.73 
  -2  -1  -9   15.30    0.38 
  -1  -1  -9   41.11    0.80 
   0  -1  -9   44.90    0.83 
   1  -1  -9   24.98    0.52 
   2  -1  -9   49.70    0.97 
   3  -1  -9    3.81    0.18 
   4  -1  -9   41.38    0.88 
   5  -1  -9    0.06    0.06 
  -6   0  -9   20.15    0.39 
  -5   0  -9   81.95    1.08 
  -4   0  -9  146.86    1.77 
  -3   0  -9  166.26    2.92 
  -2   0  -9   62.35    1.18 
  -1   0  -9  265.93    4.55 
   0   0  -9  150.32    2.54 
   1   0  -9  241.76    3.99 
   2   0  -9  149.31    2.58 
   3   0  -9   77.73    1.47 
   4   0  -9   57.52    1.14 
   5   0  -9   13.96    0.42 
  -5   1  -9   17.47    0.34 
  -4   1  -9   43.51    0.63 
  -3   1  -9   51.14    1.01 
  -2   1  -9   67.73    1.28 
  -1   1  -9  118.11    2.08 
   0   1  -9  119.77    2.07 
   1   1  -9   61.55    1.12 
   2   1  -9   11.10    0.31 
   3   1  -9   48.76    0.97 
   4   1  -9   81.75    1.56 
   5   1  -9    2.62    0.20 
  -5   2  -9    4.41    0.16 
  -4   2  -9    3.00    0.12 
  -3   2  -9   12.96    0.37 
  -2   2  -9    0.17    0.06 
  -1   2  -9    1.44    0.12 
   0   2  -9   11.42    0.28 
   1   2  -9    6.63    0.21 
   2   2  -9    2.37    0.14 
   3   2  -9   -0.02    0.05 
   4   2  -9    1.89    0.16 
   5   2  -9   -0.02    0.05 
  -5   3  -9   22.89    0.42 
  -4   3  -9   43.89    0.64 
  -3   3  -9  105.33    1.32 
  -2   3  -9  118.14    2.12 
  -1   3  -9  101.68    1.81 
   0   3  -9   71.81    1.28 
   1   3  -9   46.89    0.91 
   2   3  -9   84.27    1.53 
   3   3  -9    7.60    0.27 
   4   3  -9   25.90    0.62 
   5   3  -9   17.43    0.50 
  -5   4  -9   31.50    0.76 
  -4   4  -9   46.46    0.68 
  -3   4  -9   75.69    0.99 
  -2   4  -9   82.07    1.54 
  -1   4  -9   91.20    1.64 
   0   4  -9   95.85    1.70 
   1   4  -9   94.19    1.69 
   2   4  -9   61.08    1.17 
   3   4  -9   46.34    0.95 
   4   4  -9   34.46    0.78 
   5   4  -9   20.36    0.56 
  -4   5  -9    1.50    0.11 
  -3   5  -9    7.79    0.20 
  -2   5  -9    3.29    0.17 
  -1   5  -9    7.80    0.27 
   0   5  -9   12.26    0.32 
   1   5  -9   11.68    0.33 
   2   5  -9    6.94    0.25 
   3   5  -9    1.39    0.13 
   4   5  -9   16.74    0.48 
   5   5  -9   13.37    0.43 
  -4   6  -9   23.16    0.58 
  -3   6  -9   18.87    0.35 
  -2   6  -9   17.08    0.31 
  -1   6  -9   23.11    0.54 
   0   6  -9   24.22    0.54 
   1   6  -9   10.86    0.32 
   2   6  -9    7.80    0.27 
   3   6  -9    7.50    0.28 
   4   6  -9    0.15    0.08 
  -3   7  -9   29.24    0.66 
  -2   7  -9   52.96    0.73 
  -1   7  -9   32.99    0.48 
   0   7  -9   31.78    0.69 
   1   7  -9   52.18    1.04 
   2   7  -9   21.24    0.53 
   3   7  -9   25.74    0.64 
   4   7  -9   12.39    0.41 
  -3   8  -9    7.51    0.29 
  -2   8  -9   30.68    0.67 
  -1   8  -9   15.04    0.39 
   1   8  -9   17.60    0.47 
   2   8  -9   25.78    0.62 
   3   8  -9   19.29    0.53 
   4   8  -9   12.38    0.42 
  -2   9  -9    0.45    0.08 
   1   9  -9    0.98    0.12 
   2   9  -9    0.32    0.08 
   3   9  -9    2.59    0.20 
   1  10  -9    8.95    0.33 
   2  10  -9   19.03    0.53 
  -2 -13  -8    7.32    0.28 
  -1 -13  -8   14.13    0.41 
   0 -13  -8   17.46    0.47 
  -2 -12  -8   11.53    0.35 
  -1 -12  -8    5.27    0.22 
   0 -12  -8    3.26    0.17 
   1 -12  -8    5.19    0.22 
  -2 -11  -8   61.50    1.18 
  -1 -11  -8   65.06    1.24 
   0 -11  -8   65.62    1.26 
   1 -11  -8   44.77    0.93 
   2 -11  -8   12.26    0.38 
  -2 -10  -8   47.58    0.93 
  -1 -10  -8   78.29    1.43 
   0 -10  -8   81.66    1.51 
   1 -10  -8   52.03    1.04 
   2 -10  -8   42.20    0.89 
   3 -10  -8   52.75    1.08 
  -6  -9  -8    3.05    0.22 
  -5  -9  -8    0.36    0.08 
  -2  -9  -8    4.28    0.17 
  -1  -9  -8    3.99    0.16 
   0  -9  -8   11.41    0.31 
   1  -9  -8    3.96    0.18 
   2  -9  -8    7.16    0.26 
   3  -9  -8    9.31    0.31 
  -6  -8  -8   37.99    0.86 
  -5  -8  -8    5.03    0.22 
  -4  -8  -8   38.18    0.78 
  -3  -8  -8   89.19    1.61 
  -1  -8  -8   57.86    1.05 
   0  -8  -8   52.60    0.99 
   1  -8  -8  124.10    2.19 
   2  -8  -8   19.06    0.47 
   3  -8  -8   26.78    0.62 
   4  -8  -8   15.73    0.44 
  -6  -7  -8   26.98    0.67 
  -5  -7  -8   37.79    0.82 
  -4  -7  -8   86.89    1.58 
  -3  -7  -8   18.05    0.42 
  -2  -7  -8   86.08    1.52 
  -1  -7  -8   88.82    1.55 
   0  -7  -8  114.69    1.98 
   1  -7  -8  229.86    3.91 
   2  -7  -8  128.09    2.27 
   3  -7  -8   41.36    0.86 
   4  -7  -8   47.54    0.99 
  -6  -6  -8    2.99    0.22 
  -5  -6  -8    1.56    0.14 
  -4  -6  -8   23.33    0.54 
  -3  -6  -8   50.90    0.97 
  -2  -6  -8   10.56    0.27 
  -1  -6  -8   38.07    0.50 
   0  -6  -8   46.62    0.87 
   1  -6  -8   79.08    1.43 
   2  -6  -8    1.47    0.12 
   3  -6  -8  119.22    2.15 
   4  -6  -8   36.79    0.80 
   5  -6  -8   12.83    0.41 
  -6  -5  -8   22.37    0.59 
  -5  -5  -8   25.88    0.62 
  -4  -5  -8    2.22    0.16 
  -3  -5  -8    5.68    0.19 
  -2  -5  -8    0.29    0.05 
  -1  -5  -8   42.95    0.55 
   0  -5  -8   50.25    0.64 
   1  -5  -8    3.97    0.16 
   2  -5  -8   23.98    0.54 
   3  -5  -8   10.99    0.33 
   4  -5  -8    1.39    0.13 
   5  -5  -8    0.08    0.06 
  -6  -4  -8   53.67    1.13 
  -5  -4  -8   71.87    0.93 
  -4  -4  -8   86.47    1.58 
  -3  -4  -8  181.61    3.05 
  -2  -4  -8  278.55    4.63 
  -1  -4  -8  178.30    2.09 
   0  -4  -8   92.97    1.13 
   1  -4  -8  185.57    3.12 
   2  -4  -8  293.55    5.01 
   3  -4  -8  100.10    1.81 
   4  -4  -8   92.44    1.72 
   5  -4  -8   37.44    0.84 
  -6  -3  -8   18.54    0.52 
  -5  -3  -8   37.34    0.55 
  -4  -3  -8   86.88    1.58 
  -3  -3  -8  155.04    2.65 
  -2  -3  -8  202.98    3.41 
  -1  -3  -8  130.25    1.55 
   0  -3  -8  102.27    1.77 
   1  -3  -8   97.10    1.71 
   2  -3  -8  154.43    2.70 
   3  -3  -8   33.77    0.72 
   4  -3  -8   45.28    0.93 
   5  -3  -8   25.21    0.62 
  -6  -2  -8    1.01    0.09 
  -5  -2  -8    7.91    0.19 
  -4  -2  -8    4.83    0.20 
  -3  -2  -8    9.31    0.27 
  -2  -2  -8    1.40    0.10 
  -1  -2  -8    1.72    0.06 
   0  -2  -8    0.31    0.04 
   1  -2  -8    1.70    0.10 
   2  -2  -8    5.73    0.20 
   3  -2  -8    8.82    0.28 
   4  -2  -8    0.10    0.06 
   5  -2  -8    5.58    0.24 
   6  -2  -8    2.20    0.19 
  -6  -1  -8   34.71    0.55 
  -5  -1  -8   63.48    0.86 
  -4  -1  -8  121.12    1.47 
  -3  -1  -8  120.10    2.09 
  -2  -1  -8  124.72    2.17 
  -1  -1  -8  179.12    2.12 
   0  -1  -8  162.87    2.76 
   1  -1  -8   41.97    0.80 
   2  -1  -8   39.18    0.78 
   3  -1  -8   40.33    0.81 
   4  -1  -8   17.03    0.45 
   5  -1  -8   15.13    0.43 
   6  -1  -8    4.59    0.24 
  -6   0  -8   31.28    0.51 
  -5   0  -8   72.06    0.96 
  -4   0  -8   58.03    0.77 
  -3   0  -8  122.74    2.17 
  -2   0  -8  150.67    2.60 
  -1   0  -8  443.42    5.34 
   0   0  -8  184.82    3.10 
   1   0  -8   70.49    1.28 
   2   0  -8   94.24    1.68 
   3   0  -8   73.56    1.39 
   4   0  -8   48.19    0.98 
   5   0  -8   25.36    0.61 
   6   0  -8   14.79    0.45 
  -6   1  -8   11.63    0.27 
  -5   1  -8    1.50    0.10 
  -4   1  -8    1.82    0.10 
  -3   1  -8   16.18    0.41 
  -2   1  -8   13.80    0.36 
  -1   1  -8   14.23    0.23 
   0   1  -8   38.31    0.72 
   1   1  -8   57.92    1.06 
   2   1  -8   64.27    1.18 
   4   1  -8   18.53    0.47 
   5   1  -8    5.55    0.24 
   6   1  -8   17.01    0.49 
  -6   2  -8   17.76    0.52 
  -5   2  -8   13.08    0.28 
  -4   2  -8   19.87    0.35 
  -3   2  -8   93.69    1.70 
  -2   2  -8   59.92    1.13 
  -1   2  -8   34.35    0.47 
   0   2  -8   73.34    1.31 
   1   2  -8   39.53    0.77 
   2   2  -8    6.53    0.22 
   3   2  -8   12.10    0.34 
   4   2  -8    1.89    0.15 
   5   2  -8    0.31    0.08 
   6   2  -8    0.51    0.11 
  -5   3  -8   53.79    0.77 
  -4   3  -8   84.98    1.10 
  -3   3  -8   40.20    0.57 
  -2   3  -8  119.08    2.11 
  -1   3  -8  115.61    1.42 
   0   3  -8  131.30    2.27 
   1   3  -8  109.32    1.90 
   2   3  -8  160.04    2.72 
   3   3  -8   24.81    0.57 
   4   3  -8   23.58    0.57 
   5   3  -8   25.71    0.63 
   6   3  -8   15.21    0.47 
  -5   4  -8   14.41    0.30 
  -4   4  -8   19.41    0.35 
  -3   4  -8   54.15    0.73 
  -2   4  -8    8.76    0.28 
  -1   4  -8   60.97    1.15 
   0   4  -8   82.52    1.48 
   1   4  -8   70.57    1.30 
   2   4  -8   18.34    0.45 
   3   4  -8  116.92    2.09 
   4   4  -8   47.23    0.98 
   5   4  -8   20.23    0.55 
  -4   5  -8    0.32    0.05 
  -3   5  -8    0.15    0.04 
  -2   5  -8    0.53    0.05 
  -1   5  -8    1.46    0.12 
   0   5  -8    2.57    0.12 
   1   5  -8    3.59    0.16 
   2   5  -8    4.20    0.18 
   3   5  -8    2.28    0.16 
   4   5  -8    8.18    0.30 
   5   5  -8    6.20    0.27 
  -4   6  -8   36.04    0.78 
  -3   6  -8   34.83    0.52 
  -2   6  -8   49.62    0.68 
  -1   6  -8   33.11    0.70 
   0   6  -8   46.91    0.92 
   1   6  -8   39.75    0.81 
   2   6  -8   37.44    0.78 
   3   6  -8   23.03    0.56 
   4   6  -8   16.91    0.47 
   5   6  -8   18.38    0.52 
  -4   7  -8   32.88    0.73 
  -3   7  -8   43.85    0.88 
  -2   7  -8   70.31    0.78 
  -1   7  -8   53.10    0.71 
   0   7  -8   86.71    1.58 
   1   7  -8   39.06    0.81 
   2   7  -8   65.72    1.27 
   3   7  -8   36.74    0.81 
   4   7  -8   35.22    0.81 
   5   7  -8   20.91    0.58 
  -3   8  -8    1.12    0.12 
  -2   8  -8   10.39    0.22 
  -1   8  -8    4.30    0.12 
   0   8  -8   14.26    0.38 
   1   8  -8    3.39    0.18 
   2   8  -8   13.46    0.40 
   3   8  -8    6.93    0.28 
   4   8  -8    3.17    0.23 
  -3   9  -8   10.23    0.25 
  -2   9  -8   14.07    0.27 
   0   9  -8    5.83    0.23 
   1   9  -8    5.84    0.24 
   2   9  -8    0.77    0.11 
   3   9  -8    1.27    0.14 
   4   9  -8    1.24    0.15 
  -2  10  -8   13.49    0.38 
   0  10  -8   23.55    0.58 
   1  10  -8   22.70    0.58 
   2  10  -8   17.34    0.49 
   3  10  -8   15.65    0.48 
   1  11  -8   27.22    0.67 
   2  11  -8    6.69    0.30 
  -2 -14  -7   31.83    0.75 
  -1 -14  -7   25.93    0.64 
  -2 -13  -7    1.02    0.12 
  -1 -13  -7    1.72    0.15 
   0 -13  -7    6.51    0.26 
   1 -13  -7    1.70    0.15 
  -2 -12  -7   27.92    0.64 
  -1 -12  -7   49.52    1.01 
   0 -12  -7   37.74    0.80 
   1 -12  -7    7.60    0.28 
   2 -12  -7   10.04    0.34 
  -2 -11  -7   53.07    1.03 
  -1 -11  -7   99.24    1.80 
   0 -11  -7   51.90    1.02 
   1 -11  -7   98.20    1.81 
   2 -11  -7   57.02    1.14 
  -2 -10  -7   12.31    0.33 
  -1 -10  -7   19.25    0.46 
   0 -10  -7   25.85    0.57 
   1 -10  -7   41.60    0.85 
   2 -10  -7   31.52    0.52 
   3 -10  -7   29.42    0.68 
  -6  -9  -7    2.46    0.19 
  -5  -9  -7    2.27    0.17 
  -2  -9  -7    0.57    0.07 
  -1  -9  -7    0.16    0.04 
   0  -9  -7   19.54    0.45 
   1  -9  -7   19.17    0.46 
   2  -9  -7    4.81    0.15 
   3  -9  -7    0.07    0.05 
   4  -9  -7    0.40    0.09 
  -6  -8  -7   33.69    0.78 
  -5  -8  -7   30.68    0.69 
  -4  -8  -7   88.56    1.59 
  -3  -8  -7   78.23    1.41 
  -2  -8  -7   69.09    1.24 
  -1  -8  -7  101.51    1.78 
   0  -8  -7  153.02    2.65 
   1  -8  -7  122.06    2.13 
   2  -8  -7   98.62    1.31 
   3  -8  -7   51.98    1.03 
   4  -8  -7   56.77    1.14 
  -6  -7  -7   17.99    0.50 
  -5  -7  -7   21.25    0.53 
  -4  -7  -7  128.72    2.23 
  -3  -7  -7   76.11    1.36 
  -2  -7  -7  196.75    2.33 
  -1  -7  -7  186.76    3.13 
   0  -7  -7  123.66    2.11 
   1  -7  -7   79.54    1.44 
   2  -7  -7   68.08    0.93 
   3  -7  -7  106.41    1.94 
   4  -7  -7   91.87    1.69 
   5  -7  -7   34.76    0.79 
  -6  -6  -7    0.36    0.08 
  -5  -6  -7    4.24    0.20 
  -4  -6  -7    7.10    0.25 
  -3  -6  -7    6.21    0.20 
  -2  -6  -7    4.55    0.10 
  -1  -6  -7    1.54    0.05 
   0  -6  -7    8.06    0.22 
   1  -6  -7    6.63    0.15 
   2  -6  -7    6.83    0.16 
   3  -6  -7    0.28    0.04 
   4  -6  -7    0.24    0.07 
   5  -6  -7    1.16    0.13 
  -6  -5  -7   29.79    0.71 
  -5  -5  -7   38.54    0.82 
  -4  -5  -7   41.69    0.84 
  -3  -5  -7  339.26    5.67 
  -2  -5  -7  117.86    1.41 
  -1  -5  -7   99.78    1.20 
   0  -5  -7  110.83    1.32 
   1  -5  -7   55.98    0.75 
   2  -5  -7   93.29    1.21 
   3  -5  -7   47.49    0.67 
   4  -5  -7   27.57    0.63 
   5  -5  -7   16.67    0.46 
  -6  -4  -7   51.56    1.07 
  -5  -4  -7  103.81    1.28 
  -4  -4  -7   74.01    1.37 
  -3  -4  -7  205.91    3.51 
  -2  -4  -7  205.73    3.42 
  -1  -4  -7  196.36    2.31 
   0  -4  -7  190.66    2.39 
   1  -4  -7  227.07    2.77 
   2  -4  -7  119.81    1.53 
   3  -4  -7    6.09    0.14 
   4  -4  -7   34.65    0.74 
   5  -4  -7   61.09    1.22 
   6  -4  -7   25.92    0.66 
  -6  -3  -7   11.91    0.39 
  -5  -3  -7    4.16    0.13 
  -4  -3  -7    8.01    0.17 
  -3  -3  -7   41.38    0.80 
  -2  -3  -7   12.78    0.30 
  -1  -3  -7   67.77    0.83 
   0  -3  -7  165.88    2.78 
   1  -3  -7   30.47    0.41 
   2  -3  -7   87.41    1.13 
   3  -3  -7    9.10    0.18 
   4  -3  -7   51.15    1.02 
   5  -3  -7   16.72    0.46 
   6  -3  -7   13.87    0.43 
  -6  -2  -7   20.49    0.37 
  -5  -2  -7   35.09    0.52 
  -4  -2  -7   40.24    0.55 
  -3  -2  -7    7.92    0.24 
  -2  -2  -7  106.29    1.86 
  -1  -2  -7   62.37    0.77 
   0  -2  -7   80.57    1.39 
   1  -2  -7    0.08    0.04 
   2  -2  -7    0.49    0.03 
   3  -2  -7    0.87    0.05 
   4  -2  -7    0.60    0.08 
   5  -2  -7    0.03    0.05 
   6  -2  -7    2.24    0.19 
  -6  -1  -7   51.25    0.73 
  -5  -1  -7   95.71    1.21 
  -4  -1  -7   94.18    1.16 
  -3  -1  -7  143.04    2.47 
  -2  -1  -7  242.53    4.14 
  -1  -1  -7  278.49    3.33 
   0  -1  -7  178.85    2.99 
   1  -1  -7  168.29    2.87 
   2  -1  -7  127.65    1.59 
   3  -1  -7  157.75    1.97 
   4  -1  -7    7.83    0.26 
   5  -1  -7   22.23    0.55 
   6  -1  -7   23.54    0.60 
  -6   0  -7   11.41    0.26 
  -5   0  -7   39.97    0.58 
  -4   0  -7   32.01    0.47 
  -3   0  -7   80.33    1.43 
  -2   0  -7   97.17    1.70 
  -1   0  -7   46.73    0.59 
   0   0  -7  136.36    2.31 
   1   0  -7  204.70    3.47 
   2   0  -7  196.99    2.40 
   3   0  -7  114.74    1.46 
   5   0  -7   39.36    0.84 
   6   0  -7   17.72    0.50 
  -6   1  -7    0.13    0.04 
  -5   1  -7    0.37    0.05 
  -4   1  -7    8.60    0.19 
  -3   1  -7    0.04    0.03 
  -2   1  -7    0.31    0.05 
  -1   1  -7    0.28    0.03 
   0   1  -7    2.56    0.10 
   1   1  -7    0.03    0.03 
   2   1  -7   36.15    0.50 
   3   1  -7   11.17    0.28 
   4   1  -7   10.99    0.33 
   5   1  -7   23.39    0.57 
   6   1  -7   14.52    0.44 
  -6   2  -7   38.11    0.60 
  -5   2  -7   22.47    0.39 
  -4   2  -7   44.69    0.62 
  -3   2  -7   64.53    0.83 
  -2   2  -7   60.10    1.12 
  -1   2  -7   54.10    0.70 
   0   2  -7   95.05    1.20 
   1   2  -7  103.77    1.30 
   2   2  -7   37.86    0.53 
   3   2  -7   45.97    0.64 
   4   2  -7   13.84    0.38 
   5   2  -7    8.16    0.29 
   6   2  -7    6.57    0.28 
  -6   3  -7   30.64    0.74 
  -5   3  -7   50.31    0.72 
  -4   3  -7  135.69    1.65 
  -3   3  -7   33.97    0.49 
  -2   3  -7  197.57    3.39 
  -1   3  -7  167.70    2.02 
   0   3  -7  151.37    1.89 
   1   3  -7  148.70    1.84 
   2   3  -7  149.34    1.85 
   3   3  -7  152.99    1.93 
   4   3  -7   84.42    1.59 
   5   3  -7   56.45    1.14 
   6   3  -7   21.90    0.58 
  -5   4  -7    2.42    0.13 
  -4   4  -7   12.57    0.25 
  -3   4  -7   47.66    0.64 
  -2   4  -7   17.04    0.41 
  -1   4  -7   26.68    0.39 
   0   4  -7   60.44    0.80 
   1   4  -7   55.14    0.73 
   2   4  -7    9.68    0.19 
   3   4  -7   73.95    0.99 
   4   4  -7   17.78    0.46 
   5   4  -7   21.16    0.55 
   6   4  -7   11.74    0.40 
  -5   5  -7   21.64    0.56 
  -4   5  -7   10.87    0.24 
  -3   5  -7   47.85    0.66 
  -2   5  -7    2.87    0.10 
  -1   5  -7   18.57    0.25 
   0   5  -7   39.71    0.56 
   1   5  -7    7.75    0.16 
   2   5  -7    9.62    0.20 
   3   5  -7    7.45    0.18 
   4   5  -7   12.80    0.38 
   5   5  -7    0.20    0.08 
   6   5  -7    1.07    0.14 
  -4   6  -7   29.86    0.68 
  -3   6  -7   65.82    0.86 
  -2   6  -7   82.90    1.04 
  -1   6  -7   92.73    0.98 
   0   6  -7   41.81    0.59 
   1   6  -7   72.11    0.96 
   2   6  -7   64.78    0.88 
   3   6  -7   33.56    0.52 
   4   6  -7   31.68    0.72 
   5   6  -7   20.90    0.56 
  -4   7  -7   14.90    0.42 
  -3   7  -7   43.16    0.86 
  -2   7  -7   50.23    0.68 
  -1   7  -7   37.44    0.38 
   0   7  -7   63.83    0.69 
   1   7  -7   23.77    0.39 
   2   7  -7   77.76    1.05 
   3   7  -7   18.58    0.34 
   4   7  -7   32.08    0.74 
   5   7  -7    9.93    0.36 
  -4   8  -7    4.79    0.23 
  -3   8  -7    0.49    0.06 
  -2   8  -7   -0.01    0.02 
  -1   8  -7    4.84    0.10 
   0   8  -7    4.81    0.14 
   1   8  -7    4.80    0.14 
   2   8  -7    5.23    0.16 
   3   8  -7    4.33    0.15 
   4   8  -7    0.62    0.11 
   5   8  -7    2.71    0.21 
  -3   9  -7   20.03    0.31 
  -2   9  -7   23.56    0.33 
  -1   9  -7   27.73    0.44 
   0   9  -7   21.68    0.38 
   1   9  -7   21.43    0.38 
   2   9  -7    9.07    0.22 
   3   9  -7   21.67    0.56 
   4   9  -7    4.30    0.23 
  -2  10  -7   35.80    0.57 
  -1  10  -7   59.20    0.83 
   0  10  -7   58.15    0.84 
   1  10  -7   44.40    0.68 
   2  10  -7   16.50    0.34 
   3  10  -7   32.05    0.77 
  -1  11  -7    6.79    0.29 
   0  11  -7    8.64    0.22 
   1  11  -7    7.59    0.21 
   2  11  -7   10.34    0.36 
   1  12  -7    5.69    0.28 
  -3 -14  -6   13.04    0.43 
  -2 -14  -6   23.84    0.61 
  -1 -14  -6   15.98    0.46 
  -3 -13  -6    2.23    0.18 
  -2 -13  -6    4.46    0.21 
  -1 -13  -6    8.96    0.31 
   0 -13  -6    0.23    0.07 
   1 -13  -6    0.35    0.08 
  -3 -12  -6   47.01    0.97 
  -2 -12  -6   50.01    1.01 
  -1 -12  -6   48.55    0.97 
   0 -12  -6   35.19    0.76 
   1 -12  -6   34.16    0.75 
   2 -12  -6   59.92    1.18 
  -3 -11  -6   48.25    0.97 
  -2 -11  -6   46.75    0.93 
  -1 -11  -6  145.17    2.52 
   0 -11  -6   49.81    1.00 
   1 -11  -6   74.86    1.40 
   2 -11  -6   52.81    0.79 
   3 -11  -6   42.35    0.67 
  -6 -10  -6   18.75    0.52 
  -3 -10  -6    0.57    0.08 
  -2 -10  -6   16.64    0.41 
  -1 -10  -6   15.76    0.40 
   0 -10  -6    0.19    0.05 
   1 -10  -6   12.12    0.34 
   2 -10  -6    4.80    0.15 
   3 -10  -6    2.61    0.13 
   4 -10  -6    8.61    0.36 
  -6  -9  -6   10.19    0.34 
  -5  -9  -6   40.22    0.83 
  -4  -9  -6   18.88    0.45 
  -3  -9  -6   59.83    1.13 
  -2  -9  -6   90.24    1.60 
  -1  -9  -6   71.66    1.32 
   0  -9  -6  162.52    2.77 
   1  -9  -6   30.77    0.65 
   2  -9  -6   10.81    0.24 
   3  -9  -6   33.60    0.55 
   4  -9  -6   34.76    0.57 
  -6  -8  -6   26.36    0.64 
  -5  -8  -6   90.29    1.65 
  -4  -8  -6   83.29    1.51 
  -3  -8  -6   92.32    1.63 
  -2  -8  -6  168.79    2.87 
  -1  -8  -6  159.28    2.69 
   0  -8  -6  211.49    3.55 
   1  -8  -6   22.45    0.37 
   2  -8  -6  188.29    2.39 
   3  -8  -6   53.11    0.77 
   4  -8  -6   25.21    0.44 
   5  -8  -6   25.83    0.47 
  -6  -7  -6    3.71    0.20 
  -5  -7  -6   43.63    0.90 
  -4  -7  -6   20.87    0.49 
  -3  -7  -6   33.87    0.67 
  -2  -7  -6    2.40    0.07 
  -1  -7  -6   18.28    0.40 
   0  -7  -6  103.00    1.79 
   1  -7  -6   30.13    0.46 
   2  -7  -6   24.62    0.40 
   3  -7  -6   35.86    0.54 
   4  -7  -6   14.22    0.28 
   5  -7  -6   10.82    0.25 
  -6  -6  -6   10.42    0.35 
  -5  -6  -6    5.75    0.23 
  -4  -6  -6   41.86    0.82 
  -3  -6  -6   25.82    0.54 
  -2  -6  -6   18.74    0.28 
  -1  -6  -6    2.51    0.10 
   0  -6  -6    8.72    0.15 
   1  -6  -6   54.88    0.75 
   2  -6  -6   12.39    0.33 
   3  -6  -6    0.65    0.05 
   4  -6  -6    2.38    0.11 
   5  -6  -6    3.28    0.13 
  -6  -5  -6   61.06    1.23 
  -5  -5  -6   84.53    1.57 
  -4  -5  -6  138.37    2.43 
  -3  -5  -6  152.40    2.58 
  -2  -5  -6  122.71    1.47 
  -1  -5  -6  107.85    1.30 
   0  -5  -6  214.31    2.54 
   1  -5  -6  234.56    2.90 
   2  -5  -6   40.59    0.57 
   3  -5  -6   35.04    0.52 
   4  -5  -6   29.21    0.46 
   5  -5  -6   39.08    0.60 
   6  -5  -6   13.95    0.43 
  -6  -4  -6   15.00    0.43 
  -5  -4  -6   53.23    1.06 
  -4  -4  -6   84.02    1.02 
  -3  -4  -6  107.91    1.88 
  -2  -4  -6  207.92    2.50 
  -1  -4  -6  133.69    1.58 
   0  -4  -6  168.92    2.00 
   1  -4  -6  172.35    2.12 
   2  -4  -6  116.50    1.48 
   3  -4  -6  188.83    2.38 
   4  -4  -6  109.53    1.42 
   5  -4  -6   44.21    0.66 
   6  -4  -6   26.55    0.65 
  -6  -3  -6    7.78    0.29 
  -5  -3  -6    7.78    0.18 
  -4  -3  -6    0.17    0.03 
  -3  -3  -6    0.22    0.04 
  -2  -3  -6    1.37    0.04 
  -1  -3  -6    2.17    0.06 
   0  -3  -6   70.19    1.24 
   1  -3  -6   10.91    0.18 
   2  -3  -6   20.86    0.31 
   3  -3  -6   35.11    0.50 
   4  -3  -6   20.13    0.34 
   5  -3  -6   15.80    0.30 
   6  -3  -6    4.70    0.16 
  -6  -2  -6   51.32    0.71 
  -5  -2  -6   25.10    0.39 
  -4  -2  -6   93.33    1.14 
  -3  -2  -6   84.59    1.52 
  -2  -2  -6  198.35    3.46 
  -1  -2  -6   63.92    0.77 
   0  -2  -6   15.56    0.32 
   1  -2  -6   82.28    1.02 
   2  -2  -6  105.97    1.33 
   3  -2  -6   23.63    0.36 
   4  -2  -6   19.39    0.33 
   5  -2  -6    2.83    0.11 
   6  -2  -6    6.93    0.19 
  -7  -1  -6   26.19    0.61 
  -6  -1  -6   33.07    0.51 
  -5  -1  -6   50.72    0.69 
  -4  -1  -6   92.30    1.13 
  -3  -1  -6  179.78    3.05 
  -2  -1  -6  119.55    2.06 
  -1  -1  -6  360.79    4.32 
   0  -1  -6  170.04    2.83 
   1  -1  -6  397.33    6.89 
   2  -1  -6  179.73    2.23 
   3  -1  -6  181.80    2.24 
   4  -1  -6   79.68    1.05 
   5  -1  -6   69.26    0.95 
   6  -1  -6   50.39    0.75 
  -6   0  -6   18.96    0.35 
  -5   0  -6   10.42    0.22 
  -4   0  -6   22.91    0.35 
  -3   0  -6   42.06    0.80 
  -2   0  -6  119.65    2.04 
  -1   0  -6   89.21    1.07 
   0   0  -6  110.02    1.88 
   1   0  -6  334.51    5.82 
   2   0  -6   58.59    0.77 
   3   0  -6   71.51    0.94 
   4   0  -6  103.40    1.34 
   5   0  -6   53.86    0.78 
   6   0  -6   20.66    0.38 
  -6   1  -6    7.90    0.20 
  -5   1  -6   17.36    0.31 
  -4   1  -6    5.12    0.14 
  -3   1  -6   28.19    0.40 
  -2   1  -6   41.66    0.78 
  -1   1  -6    4.22    0.09 
   0   1  -6   38.35    0.70 
   1   1  -6   41.21    0.54 
   2   1  -6    0.24    0.03 
   3   1  -6    2.10    0.08 
   4   1  -6    6.53    0.16 
   5   1  -6    2.11    0.11 
   6   1  -6    4.04    0.15 
  -6   2  -6   41.45    0.62 
  -5   2  -6   88.29    1.13 
  -4   2  -6  119.55    1.45 
  -3   2  -6  101.92    1.24 
  -2   2  -6  215.34    3.62 
  -1   2  -6  191.06    2.56 
   0   2  -6  273.01    3.45 
   1   2  -6   61.35    0.79 
   2   2  -6  396.70    4.93 
   3   2  -6   89.02    1.15 
   4   2  -6   55.51    0.77 
   5   2  -6   47.55    0.70 
   6   2  -6   30.02    0.51 
  -6   3  -6    9.95    0.24 
  -5   3  -6   39.10    0.58 
  -4   3  -6   51.25    0.69 
  -3   3  -6   75.34    0.95 
  -2   3  -6  119.42    2.06 
  -1   3  -6   70.90    0.88 
   0   3  -6  191.82    2.37 
   1   3  -6  123.46    1.55 
   2   3  -6   57.40    0.76 
   3   3  -6  106.20    1.36 
   4   3  -6   71.03    0.97 
   5   3  -6   33.33    0.53 
   6   3  -6   14.16    0.31 
  -5   4  -6    1.28    0.09 
  -4   4  -6    1.18    0.08 
  -3   4  -6    5.97    0.14 
  -2   4  -6    6.33    0.14 
  -1   4  -6    0.39    0.04 
   0   4  -6   28.01    0.40 
   1   4  -6    0.93    0.05 
   2   4  -6   20.20    0.32 
   3   4  -6    2.67    0.10 
   4   4  -6    2.01    0.10 
   5   4  -6   15.24    0.31 
   6   4  -6    2.16    0.13 
  -5   5  -6   11.67    0.36 
  -4   5  -6   31.74    0.48 
  -3   5  -6   70.35    0.90 
  -2   5  -6   51.57    0.67 
  -1   5  -6   60.19    0.65 
   0   5  -6   10.33    0.19 
   1   5  -6   41.65    0.45 
   2   5  -6   21.29    0.34 
   3   5  -6   27.38    0.43 
   4   5  -6   13.90    0.28 
   5   5  -6    8.32    0.22 
   6   5  -6    5.83    0.19 
  -5   6  -6   34.23    0.76 
  -4   6  -6   51.79    1.01 
  -3   6  -6   85.30    1.06 
  -2   6  -6  137.21    1.62 
  -1   6  -6  157.19    1.35 
   0   6  -6   78.09    0.81 
   1   6  -6  198.96    2.47 
   2   6  -6   84.43    1.12 
   3   6  -6   58.46    0.82 
   4   6  -6   43.62    0.66 
   5   6  -6   28.56    0.49 
   6   6  -6   31.65    0.55 
  -4   7  -6   12.79    0.38 
  -3   7  -6    4.69    0.20 
  -2   7  -6   35.06    0.69 
  -1   7  -6   30.29    0.28 
   0   7  -6   71.23    0.75 
   1   7  -6   71.96    0.97 
   2   7  -6   32.87    0.51 
   3   7  -6   16.32    0.31 
   4   7  -6   17.26    0.33 
   5   7  -6    8.98    0.24 
   6   7  -6   10.22    0.39 
  -4   8  -6   10.93    0.25 
  -3   8  -6    2.84    0.12 
  -2   8  -6    9.74    0.18 
  -1   8  -6   16.58    0.20 
   0   8  -6   14.88    0.21 
   1   8  -6    1.16    0.08 
   2   8  -6    6.05    0.17 
   3   8  -6    0.75    0.07 
   4   8  -6    1.79    0.11 
   5   8  -6    0.68    0.08 
  -3   9  -6   31.04    0.48 
  -2   9  -6   27.58    0.37 
  -1   9  -6  132.67    1.36 
   0   9  -6   61.23    0.86 
   1   9  -6   34.07    0.53 
   2   9  -6   44.44    0.68 
   3   9  -6   37.05    0.59 
   4   9  -6   11.43    0.27 
   5   9  -6    2.63    0.15 
  -3  10  -6   29.01    0.40 
  -2  10  -6   35.18    0.56 
  -1  10  -6   38.88    0.47 
   0  10  -6    9.27    0.22 
   1  10  -6   73.78    1.03 
   2  10  -6   48.07    0.73 
   3  10  -6   25.57    0.46 
   4  10  -6   18.85    0.39 
   5  10  -6    4.95    0.28 
  -2  11  -6    0.24    0.05 
  -1  11  -6    2.57    0.10 
   0  11  -6    2.49    0.12 
   1  11  -6    0.09    0.04 
   2  11  -6    5.02    0.17 
   3  11  -6    0.57    0.08 
   4  11  -6    0.98    0.14 
  -1  12  -6    8.09    0.33 
   0  12  -6   39.72    0.64 
   1  12  -6    7.25    0.21 
   2  12  -6   28.90    0.52 
   3  12  -6    6.43    0.31 
  -3 -14  -5    2.65    0.20 
  -2 -14  -5    3.00    0.21 
  -1 -14  -5    7.54    0.29 
   0 -14  -5   20.36    0.59 
  -3 -13  -5   13.00    0.40 
  -2 -13  -5   45.86    0.96 
  -1 -13  -5    9.84    0.33 
   0 -13  -5   32.31    0.73 
   1 -13  -5   11.10    0.35 
  -3 -12  -5   36.13    0.79 
  -2 -12  -5  102.18    1.86 
  -1 -12  -5   67.17    1.29 
   0 -12  -5  105.17    1.91 
   1 -12  -5   74.91    1.43 
   2 -12  -5   37.54    0.61 
   3 -12  -5   43.04    1.06 
  -3 -11  -5   27.02    0.62 
  -2 -11  -5   34.66    0.72 
  -1 -11  -5    1.38    0.12 
   0 -11  -5   19.56    0.47 
   1 -11  -5   20.44    0.50 
   2 -11  -5   42.79    0.67 
   3 -11  -5   24.22    0.45 
  -6 -10  -5    5.03    0.23 
  -3 -10  -5    2.21    0.13 
  -2 -10  -5    7.15    0.24 
  -1 -10  -5   55.04    1.05 
   0 -10  -5    5.94    0.21 
   1 -10  -5    1.28    0.11 
   2 -10  -5    0.80    0.12 
   3 -10  -5    0.43    0.06 
   4 -10  -5    1.06    0.09 
  -6  -9  -5   41.33    0.88 
  -5  -9  -5   73.48    1.37 
  -4  -9  -5   52.57    1.01 
  -3  -9  -5   70.06    1.29 
  -2  -9  -5   66.92    1.24 
  -1  -9  -5   52.61    0.99 
   0  -9  -5   26.06    0.55 
   1  -9  -5   89.66    1.20 
   2  -9  -5   51.79    0.76 
   3  -9  -5   40.81    0.63 
   4  -9  -5   11.85    0.27 
  -6  -8  -5   14.92    0.43 
  -5  -8  -5   67.23    1.28 
  -4  -8  -5  105.60    1.87 
  -3  -8  -5   28.61    0.41 
  -2  -8  -5  104.74    1.82 
  -1  -8  -5  122.70    2.12 
   0  -8  -5   90.76    1.61 
   1  -8  -5   49.00    0.70 
   2  -8  -5  120.08    1.57 
   3  -8  -5   83.49    1.13 
   4  -8  -5   56.33    0.82 
   5  -8  -5   35.77    0.58 
  -6  -7  -5    0.14    0.06 
  -5  -7  -5    0.03    0.04 
  -4  -7  -5   15.03    0.38 
  -3  -7  -5   23.95    0.35 
  -2  -7  -5   40.02    0.53 
  -1  -7  -5   24.00    0.49 
   0  -7  -5   17.02    0.38 
   1  -7  -5   25.35    0.40 
   2  -7  -5    2.73    0.10 
   3  -7  -5   52.16    0.74 
   4  -7  -5   28.37    0.46 
   5  -7  -5   13.84    0.29 
  -6  -6  -5   38.59    0.85 
  -5  -6  -5   42.43    0.86 
  -4  -6  -5   71.76    1.30 
  -3  -6  -5  131.54    1.58 
  -2  -6  -5   21.47    0.30 
  -1  -6  -5   58.61    0.72 
   0  -6  -5   72.67    0.88 
   1  -6  -5   39.32    0.55 
   3  -6  -5   36.36    0.53 
   4  -6  -5   52.55    0.75 
   5  -6  -5    5.75    0.17 
   6  -6  -5    1.05    0.09 
  -6  -5  -5   25.49    0.61 
  -5  -5  -5   53.25    1.06 
  -4  -5  -5  126.05    2.19 
  -3  -5  -5  125.79    1.50 
  -2  -5  -5  242.59    2.93 
  -1  -5  -5  397.65    4.72 
   0  -5  -5   99.93    1.19 
   1  -5  -5  161.14    2.03 
   2  -5  -5  165.91    2.09 
   3  -5  -5  124.93    1.59 
   4  -5  -5   96.45    1.27 
   5  -5  -5   55.39    0.79 
   6  -5  -5   22.33    0.41 
  -7  -4  -5    1.89    0.18 
  -6  -4  -5    3.67    0.19 
  -5  -4  -5   12.08    0.35 
  -4  -4  -5   33.02    0.45 
  -3  -4  -5   39.45    0.75 
  -2  -4  -5   57.23    0.71 
  -1  -4  -5  188.15    2.28 
   0  -4  -5  337.98    4.00 
   1  -4  -5  208.76    2.58 
   2  -4  -5  120.22    1.52 
   3  -4  -5   71.88    0.96 
   4  -4  -5   74.17    0.99 
   5  -4  -5   14.78    0.29 
   6  -4  -5   45.20    0.69 
  -7  -3  -5    2.82    0.22 
  -6  -3  -5    5.27    0.23 
  -5  -3  -5    5.96    0.15 
  -4  -3  -5   12.92    0.22 
  -3  -3  -5   14.13    0.34 
  -2  -3  -5   24.88    0.32 
  -1  -3  -5    0.41    0.03 
   0  -3  -5    4.86    0.14 
   1  -3  -5    2.58    0.07 
   2  -3  -5    1.30    0.07 
   3  -3  -5    6.83    0.15 
   4  -3  -5    0.28    0.04 
   5  -3  -5    0.09    0.04 
   6  -3  -5    0.01    0.04 
  -7  -2  -5   25.38    0.65 
  -6  -2  -5   56.49    0.77 
  -5  -2  -5   49.65    0.66 
  -4  -2  -5  144.99    1.71 
  -3  -2  -5  133.39    2.32 
  -2  -2  -5  256.24    4.35 
  -1  -2  -5  318.59    3.87 
   0  -2  -5  490.33    8.23 
   1  -2  -5  348.15    4.34 
   2  -2  -5  153.98    1.91 
   3  -2  -5  143.20    1.80 
   4  -2  -5   48.14    0.68 
   5  -2  -5   58.44    0.82 
   6  -2  -5   20.86    0.38 
  -7  -1  -5   28.08    0.47 
  -6  -1  -5   29.17    0.46 
  -5  -1  -5   54.12    0.72 
  -4  -1  -5  118.86    1.42 
  -3  -1  -5  132.71    2.27 
  -2  -1  -5  184.51    3.29 
  -1  -1  -5  291.67    3.52 
   0  -1  -5  344.16    5.91 
   1  -1  -5  345.88    4.30 
   2  -1  -5  237.55    2.90 
   3  -1  -5  194.62    2.40 
   4  -1  -5  108.43    1.40 
   5  -1  -5   77.67    1.05 
   6  -1  -5   11.85    0.26 
   7  -1  -5   18.59    0.37 
  -7   0  -5    2.14    0.13 
  -6   0  -5    2.91    0.12 
  -5   0  -5    0.08    0.03 
  -4   0  -5    0.04    0.03 
  -3   0  -5    1.82    0.07 
  -2   0  -5   45.54    0.82 
  -1   0  -5    5.72    0.12 
   0   0  -5    0.30    0.04 
   1   0  -5   47.93    0.62 
   2   0  -5    3.40    0.08 
   3   0  -5   25.33    0.38 
   4   0  -5    8.60    0.19 
   5   0  -5   14.76    0.28 
   6   0  -5    8.14    0.21 
   7   0  -5    4.30    0.16 
  -7   1  -5   14.42    0.45 
  -6   1  -5   33.96    0.53 
  -5   1  -5   60.59    0.80 
  -4   1  -5   15.49    0.27 
  -3   1  -5  117.85    1.39 
  -2   1  -5   54.45    0.96 
  -1   1  -5   76.19    0.92 
   0   1  -5   61.33    0.77 
   1   1  -5  200.49    2.48 
   2   1  -5   36.59    0.50 
   3   1  -5   18.74    0.30 
   4   1  -5   41.86    0.60 
   5   1  -5    3.12    0.12 
   6   1  -5    2.81    0.13 
   7   1  -5    0.32    0.06 
  -6   2  -5   28.27    0.46 
  -5   2  -5   49.38    0.68 
  -4   2  -5  153.62    1.82 
  -3   2  -5   85.35    1.04 
  -2   2  -5  168.66    1.98 
  -1   2  -5  372.16    4.51 
   0   2  -5  274.67    3.42 
   1   2  -5   42.71    0.56 
   2   2  -5  347.92    4.40 
   3   2  -5   99.34    1.27 
   4   2  -5  108.52    1.41 
   5   2  -5   38.76    0.59 
   6   2  -5   47.29    0.72 
   7   2  -5   11.89    0.28 
  -6   3  -5    5.62    0.17 
  -5   3  -5   27.94    0.44 
  -4   3  -5   20.56    0.33 
  -3   3  -5  128.53    1.52 
  -2   3  -5   52.38    0.65 
  -1   3  -5  113.30    1.35 
   0   3  -5  165.17    2.06 
   1   3  -5  289.51    3.60 
   2   3  -5   42.49    0.58 
   3   3  -5   69.96    0.92 
   4   3  -5   87.55    1.16 
   5   3  -5   19.00    0.35 
   6   3  -5   22.83    0.42 
   7   3  -5   23.64    0.45 
  -6   4  -5   12.17    0.39 
  -5   4  -5    1.41    0.09 
  -4   4  -5    1.09    0.07 
  -3   4  -5   42.46    0.57 
  -2   4  -5   13.69    0.22 
  -1   4  -5    0.12    0.02 
   0   4  -5   13.27    0.22 
   1   4  -5   11.79    0.15 
   2   4  -5    0.62    0.05 
   3   4  -5    2.47    0.09 
   4   4  -5    1.72    0.09 
   5   4  -5    0.22    0.05 
   6   4  -5   -0.05    0.04 
   7   4  -5    0.32    0.07 
  -5   5  -5   47.44    0.93 
  -4   5  -5   84.97    1.07 
  -3   5  -5  118.88    1.43 
  -2   5  -5   92.32    1.11 
  -1   5  -5  172.63    2.03 
   0   5  -5  153.41    1.91 
   1   5  -5  228.77    2.26 
   2   5  -5  120.25    1.52 
   3   5  -5   37.66    0.55 
   4   5  -5   19.08    0.34 
   5   5  -5   49.57    0.74 
   6   5  -5    8.15    0.22 
  -5   6  -5   25.24    0.60 
  -4   6  -5   47.30    0.92 
  -3   6  -5   89.35    1.10 
  -2   6  -5   77.00    0.94 
  -1   6  -5  122.29    1.05 
   0   6  -5  155.86    1.55 
   1   6  -5  109.53    1.10 
   2   6  -5  105.83    1.37 
   3   6  -5   35.65    0.54 
   4   6  -5   71.18    0.99 
   5   6  -5   17.40    0.34 
   6   6  -5   10.05    0.26 
  -5   7  -5    2.48    0.19 
  -4   7  -5    4.48    0.21 
  -3   7  -5   12.37    0.34 
  -2   7  -5    1.56    0.11 
  -1   7  -5    4.26    0.08 
   0   7  -5    0.63    0.03 
   1   7  -5    9.73    0.15 
   2   7  -5    7.82    0.18 
   3   7  -5   11.95    0.25 
   4   7  -5   18.64    0.35 
   5   7  -5    3.52    0.14 
   6   7  -5    1.99    0.13 
  -4   8  -5   20.17    0.36 
  -3   8  -5   28.86    0.44 
  -2   8  -5   97.35    1.17 
  -1   8  -5   38.16    0.44 
   0   8  -5   32.96    0.39 
   1   8  -5   22.79    0.38 
   2   8  -5   39.65    0.60 
   3   8  -5   36.17    0.56 
   4   8  -5    0.26    0.05 
   5   8  -5    0.68    0.08 
   6   8  -5    0.32    0.07 
  -4   9  -5   44.37    0.90 
  -3   9  -5   86.90    1.09 
  -2   9  -5   72.48    0.78 
  -1   9  -5   48.19    0.55 
   0   9  -5   61.55    0.67 
   1   9  -5   61.55    0.86 
   2   9  -5   76.19    1.06 
   3   9  -5   50.24    0.76 
   4   9  -5    9.80    0.25 
   5   9  -5   26.46    0.49 
  -3  10  -5    4.94    0.14 
  -2  10  -5   15.47    0.31 
  -1  10  -5    6.19    0.14 
   0  10  -5    6.00    0.13 
   1  10  -5   24.19    0.42 
   2  10  -5    7.18    0.20 
   3  10  -5    4.68    0.17 
   4  10  -5    8.51    0.24 
   5  10  -5   33.68    0.87 
  -2  11  -5    5.45    0.17 
  -1  11  -5    2.51    0.10 
   0  11  -5    1.67    0.10 
   1  11  -5    7.88    0.21 
   2  11  -5    0.77    0.08 
   3  11  -5    0.07    0.04 
   4  11  -5    0.37    0.07 
  -1  12  -5   31.50    0.42 
   0  12  -5   23.62    0.43 
   1  12  -5    0.34    0.06 
   2  12  -5   14.08    0.32 
   3  12  -5   13.37    0.33 
   1  13  -5   15.85    0.50 
   2  13  -5   16.30    0.55 
  -3 -14  -4    1.54    0.16 
  -2 -14  -4    3.52    0.20 
  -1 -14  -4    4.06    0.21 
   0 -14  -4    1.77    0.16 
  -4 -13  -4   26.60    0.67 
  -3 -13  -4   26.03    0.64 
  -2 -13  -4   43.32    0.93 
  -1 -13  -4   16.22    0.45 
   0 -13  -4   40.07    0.86 
   1 -13  -4   20.82    0.53 
  -4 -12  -4   24.79    0.62 
  -3 -12  -4   56.33    1.11 
  -2 -12  -4   32.53    0.72 
  -1 -12  -4   10.91    0.34 
   0 -12  -4   18.39    0.47 
   1 -12  -4   49.87    1.00 
   2 -12  -4   29.70    0.51 
   3 -12  -4   43.03    1.06 
  -4 -11  -4    3.57    0.19 
  -3 -11  -4    1.94    0.15 
  -2 -11  -4   11.79    0.34 
  -1 -11  -4    0.50    0.07 
   0 -11  -4   36.42    0.76 
   1 -11  -4   21.45    0.51 
   2 -11  -4    7.35    0.20 
   3 -11  -4    3.31    0.14 
  -6 -10  -4   22.20    0.55 
  -3 -10  -4   29.90    0.64 
  -2 -10  -4   15.11    0.38 
  -1 -10  -4   12.12    0.33 
   0 -10  -4    0.21    0.05 
   1 -10  -4   27.43    0.60 
   2 -10  -4   15.00    0.30 
   3 -10  -4    2.59    0.12 
   4 -10  -4    5.19    0.17 
  -6  -9  -4   46.80    0.96 
  -5  -9  -4   39.14    0.81 
  -4  -9  -4   52.96    0.99 
  -3  -9  -4   73.22    1.35 
  -2  -9  -4  120.63    2.12 
  -1  -9  -4  189.66    3.23 
   0  -9  -4   81.25    1.46 
   1  -9  -4   66.73    0.93 
   2  -9  -4   91.95    1.25 
   3  -9  -4   57.30    0.82 
   4  -9  -4   58.12    0.85 
   5  -9  -4   42.50    0.68 
  -6  -8  -4    6.76    0.26 
  -5  -8  -4    1.66    0.14 
  -4  -8  -4   27.93    0.59 
  -3  -8  -4   41.08    0.56 
  -2  -8  -4   98.74    1.75 
  -1  -8  -4  120.98    2.09 
   0  -8  -4   63.11    1.16 
   1  -8  -4  140.50    1.80 
   2  -8  -4   63.98    0.88 
   3  -8  -4   48.47    0.71 
   4  -8  -4   41.35    0.63 
   5  -8  -4   19.38    0.37 
  -6  -7  -4    2.30    0.17 
  -5  -7  -4    4.97    0.20 
  -4  -7  -4   17.13    0.41 
  -3  -7  -4    0.97    0.08 
  -2  -7  -4    0.55    0.05 
  -1  -7  -4    7.12    0.13 
   1  -7  -4   36.04    0.53 
   2  -7  -4   10.12    0.20 
   3  -7  -4    0.55    0.07 
   4  -7  -4    1.11    0.08 
   5  -7  -4    0.08    0.04 
  -7  -6  -4   13.22    0.43 
  -6  -6  -4   40.94    0.87 
  -5  -6  -4   47.71    0.94 
  -4  -6  -4   45.71    0.88 
  -3  -6  -4  192.56    2.27 
  -2  -6  -4  120.23    1.45 
  -1  -6  -4  166.96    1.97 
   0  -6  -4  201.99    3.43 
   1  -6  -4  151.80    1.90 
   2  -6  -4   96.29    1.25 
   3  -6  -4   60.66    0.82 
   4  -6  -4   25.04    0.41 
   5  -6  -4   18.23    0.34 
   6  -6  -4   14.66    0.31 
  -7  -5  -4    9.71    0.35 
  -6  -5  -4   29.76    0.69 
  -5  -5  -4   63.95    1.22 
  -4  -5  -4  115.50    2.02 
  -3  -5  -4  115.28    2.01 
  -2  -5  -4  209.98    2.53 
  -1  -5  -4  513.93    6.01 
   0  -5  -4  279.39    3.31 
   1  -5  -4  364.25    4.65 
   2  -5  -4  260.54    3.26 
   3  -5  -4  152.29    1.93 
   4  -5  -4   70.00    0.94 
   5  -5  -4   46.10    0.68 
   6  -5  -4   29.50    0.49 
  -7  -4  -4    0.01    0.05 
  -6  -4  -4    7.31    0.27 
  -5  -4  -4    0.03    0.04 
  -4  -4  -4    6.98    0.14 
  -3  -4  -4    7.07    0.13 
  -2  -4  -4    7.04    0.12 
  -1  -4  -4   34.61    0.44 
   0  -4  -4   39.17    0.49 
   1  -4  -4   17.17    0.26 
   2  -4  -4   53.85    0.72 
   3  -4  -4   45.24    0.63 
   4  -4  -4   39.79    0.58 
   5  -4  -4    6.85    0.17 
   6  -4  -4    8.79    0.22 
  -7  -3  -4   21.44    0.57 
  -6  -3  -4   20.86    0.53 
  -5  -3  -4   34.56    0.49 
  -4  -3  -4   67.59    0.83 
  -3  -3  -4   73.20    0.89 
  -2  -3  -4  200.53    2.38 
  -1  -3  -4   52.48    0.65 
   0  -3  -4  448.24    5.24 
   1  -3  -4   59.85    0.77 
   2  -3  -4  133.13    1.66 
   3  -3  -4    7.93    0.16 
   4  -3  -4   22.38    0.36 
   5  -3  -4    5.45    0.15 
   6  -3  -4    0.32    0.05 
  -7  -2  -4   40.92    0.91 
  -6  -2  -4   41.11    0.59 
  -5  -2  -4   94.88    1.16 
  -4  -2  -4   90.57    1.10 
  -3  -2  -4  185.51    2.13 
  -2  -2  -4  170.79    2.90 
  -1  -2  -4  280.50    3.37 
   0  -2  -4  394.94    6.60 
   1  -2  -4  247.55    3.14 
   2  -2  -4  214.10    2.67 
   3  -2  -4  229.08    2.84 
   4  -2  -4   84.06    1.10 
   5  -2  -4   42.49    0.62 
   6  -2  -4   16.29    0.32 
   7  -2  -4   17.07    0.51 
  -7  -1  -4   13.82    0.29 
  -6  -1  -4   18.34    0.32 
  -5  -1  -4   41.71    0.57 
  -4  -1  -4   38.65    0.52 
  -3  -1  -4   55.61    0.69 
  -2  -1  -4  230.36    3.99 
  -1  -1  -4   74.44    0.89 
   0  -1  -4  210.12    3.59 
   1  -1  -4  171.90    2.11 
   2  -1  -4  233.80    2.98 
   3  -1  -4   65.24    0.86 
   4  -1  -4  109.86    1.40 
   5  -1  -4   93.83    1.24 
   6  -1  -4   16.43    0.32 
   7  -1  -4   30.82    0.77 
  -7   0  -4    5.53    0.17 
  -6   0  -4    7.81    0.19 
  -5   0  -4    3.12    0.11 
  -4   0  -4    0.44    0.04 
  -3   0  -4    0.09    0.02 
  -2   0  -4    1.85    0.08 
  -1   0  -4   17.25    0.30 
   0   0  -4    8.77    0.19 
   1   0  -4   53.85    0.69 
   2   0  -4   12.31    0.20 
   3   0  -4    3.22    0.13 
   4   0  -4    0.11    0.03 
   5   0  -4    0.02    0.03 
   6   0  -4   15.59    0.31 
   7   0  -4    1.62    0.17 
  -7   1  -4   15.67    0.32 
  -6   1  -4   66.42    0.88 
  -5   1  -4   99.64    1.24 
  -4   1  -4   92.64    1.12 
  -3   1  -4  197.89    2.25 
  -2   1  -4  164.16    2.88 
  -1   1  -4  392.02    6.29 
   0   1  -4  244.85    3.07 
   1   1  -4  186.18    2.32 
   2   1  -4  275.74    3.38 
   3   1  -4  179.22    2.23 
   4   1  -4   67.41    0.91 
   5   1  -4   23.47    0.39 
   6   1  -4   50.97    0.75 
   7   1  -4    3.43    0.21 
  -7   2  -4    6.12    0.27 
  -6   2  -4   26.79    0.44 
  -5   2  -4   64.87    0.85 
  -4   2  -4  240.87    2.78 
  -3   2  -4  168.74    1.96 
  -2   2  -4  161.38    1.85 
  -1   2  -4  396.24    4.78 
   0   2  -4  246.48    3.06 
   1   2  -4  247.66    3.14 
   2   2  -4  239.45    3.03 
   3   2  -4  143.59    1.80 
   4   2  -4  104.31    1.35 
   5   2  -4   50.59    0.73 
   6   2  -4   27.44    0.47 
   7   2  -4   31.02    0.53 
  -6   3  -4    5.33    0.16 
  -5   3  -4    3.76    0.12 
  -4   3  -4    4.55    0.12 
  -3   3  -4   24.20    0.50 
  -2   3  -4   20.97    0.42 
  -1   3  -4   89.66    1.52 
   0   3  -4    6.14    0.12 
   1   3  -4   12.66    0.20 
   2   3  -4    5.46    0.12 
   3   3  -4   16.20    0.39 
   4   3  -4   23.57    0.38 
   5   3  -4    9.25    0.21 
   6   3  -4    8.83    0.22 
   7   3  -4    4.98    0.18 
  -6   4  -4   19.69    0.51 
  -5   4  -4   48.55    0.67 
  -4   4  -4   47.29    0.63 
  -3   4  -4  125.42    1.47 
  -2   4  -4   49.41    0.62 
  -1   4  -4    8.70    0.21 
   0   4  -4  189.98    2.39 
   1   4  -4   78.92    0.79 
   2   4  -4    3.73    0.10 
   3   4  -4   16.27    0.28 
   4   4  -4   12.91    0.25 
   5   4  -4    7.21    0.19 
   6   4  -4    0.03    0.04 
   7   4  -4    0.01    0.05 
  -5   5  -4   72.37    1.31 
  -4   5  -4   94.98    1.17 
  -3   5  -4  176.86    2.05 
  -2   5  -4  228.93    2.58 
  -1   5  -4  363.99    4.10 
   0   5  -4  178.33    1.76 
   1   5  -4  118.47    1.18 
   2   5  -4   71.02    0.94 
   3   5  -4  128.79    1.66 
   4   5  -4   58.47    0.82 
   5   5  -4   47.59    0.71 
   6   5  -4    7.93    0.22 
   7   5  -4    8.17    0.24 
  -5   6  -4    7.01    0.27 
  -4   6  -4   23.61    0.54 
  -3   6  -4   45.49    0.85 
  -2   6  -4   30.76    0.42 
  -1   6  -4   40.72    0.52 
   0   6  -4  157.76    1.32 
   1   6  -4   49.73    0.53 
   2   6  -4   87.99    1.15 
   3   6  -4   42.02    0.61 
   4   6  -4   44.55    0.66 
   5   6  -4   22.14    0.40 
   6   6  -4   22.82    0.43 
  -5   7  -4    1.46    0.10 
  -4   7  -4   18.46    0.32 
  -3   7  -4   18.29    0.30 
  -2   7  -4  100.40    1.20 
  -1   7  -4    0.68    0.03 
   0   7  -4    0.71    0.03 
   1   7  -4    0.55    0.04 
   2   7  -4    7.87    0.18 
   3   7  -4    2.92    0.11 
   4   7  -4    1.46    0.10 
   5   7  -4    1.13    0.09 
   6   7  -4    0.91    0.09 
  -4   8  -4   40.40    0.58 
  -3   8  -4   42.90    0.59 
  -2   8  -4   75.34    0.92 
  -1   8  -4   28.18    0.34 
   0   8  -4  102.69    0.89 
   1   8  -4   79.38    0.83 
   2   8  -4   18.96    0.34 
   3   8  -4   20.84    0.37 
   4   8  -4    6.05    0.18 
   5   8  -4   13.58    0.30 
   6   8  -4   15.93    0.35 
  -4   9  -4   13.76    0.28 
  -3   9  -4   10.49    0.22 
  -2   9  -4   51.63    0.59 
  -1   9  -4   15.26    0.28 
   0   9  -4   78.70    0.84 
   1   9  -4   85.77    0.90 
   2   9  -4   43.50    0.65 
   3   9  -4   32.13    0.53 
   4   9  -4   35.65    0.59 
   5   9  -4   63.95    0.95 
   6   9  -4    6.49    0.32 
  -3  10  -4    4.93    0.15 
  -2  10  -4   12.91    0.27 
  -1  10  -4    1.46    0.09 
   0  10  -4   16.49    0.24 
   1  10  -4    7.02    0.18 
   2  10  -4   25.32    0.44 
   3  10  -4   30.69    0.52 
   4  10  -4    8.45    0.23 
   5  10  -4    6.98    0.22 
  -2  11  -4   10.39    0.25 
  -1  11  -4   27.66    0.45 
   0  11  -4    0.25    0.04 
   1  11  -4    9.98    0.24 
   2  11  -4   12.94    0.29 
   3  11  -4    8.60    0.24 
   4  11  -4    5.07    0.19 
   5  11  -4    0.01    0.07 
  -2  12  -4   23.52    0.55 
  -1  12  -4   35.97    0.56 
   0  12  -4   14.90    0.31 
   1  12  -4   42.00    0.66 
   2  12  -4   53.49    0.82 
   3  12  -4   31.12    0.56 
   4  12  -4   16.54    0.56 
   0  13  -4    7.31    0.21 
   1  13  -4   26.90    0.49 
   2  13  -4    7.24    0.33 
  -3 -14  -3   18.21    0.52 
  -2 -14  -3    1.04    0.13 
  -1 -14  -3    7.12    0.28 
   0 -14  -3    0.90    0.12 
  -3 -13  -3   39.51    0.89 
  -2 -13  -3   12.71    0.38 
  -1 -13  -3   33.88    0.75 
   0 -13  -3   39.74    0.85 
   1 -13  -3   43.97    0.92 
  -3 -12  -3   23.20    0.57 
  -2 -12  -3    5.43    0.22 
  -1 -12  -3   78.08    1.46 
   0 -12  -3   61.39    1.17 
   1 -12  -3   53.37    1.06 
   2 -12  -3   26.01    0.46 
   3 -12  -3   19.97    0.40 
  -3 -11  -3    1.33    0.12 
  -2 -11  -3    0.21    0.06 
  -1 -11  -3    3.38    0.16 
   0 -11  -3    0.58    0.08 
   1 -11  -3    1.20    0.11 
   2 -11  -3    1.28    0.09 
   3 -11  -3    0.57    0.07 
  -6 -10  -3   26.87    0.62 
  -5 -10  -3   32.20    0.68 
  -3 -10  -3   48.08    0.95 
  -2 -10  -3   74.75    1.39 
  -1 -10  -3   43.85    0.88 
   0 -10  -3   41.95    0.83 
   1 -10  -3   69.64    0.96 
   2 -10  -3   33.84    0.55 
   3 -10  -3   16.55    0.33 
   4 -10  -3   16.76    0.34 
  -6  -9  -3   17.54    0.46 
  -5  -9  -3   23.72    0.54 
  -4  -9  -3   78.67    1.42 
  -3  -9  -3  121.94    2.13 
  -2  -9  -3   97.96    1.76 
  -1  -9  -3  115.10    2.04 
   0  -9  -3  179.91    3.06 
   1  -9  -3   68.54    0.95 
   2  -9  -3  179.30    2.31 
   3  -9  -3   69.14    0.97 
   4  -9  -3   28.73    0.48 
   5  -9  -3   20.08    0.51 
  -6  -8  -3    1.74    0.15 
  -5  -8  -3    6.03    0.22 
  -4  -8  -3    1.07    0.10 
  -3  -8  -3   63.97    0.82 
  -2  -8  -3   17.73    0.27 
  -1  -8  -3   28.92    0.59 
   0  -8  -3   39.19    0.76 
   1  -8  -3  128.26    1.65 
   2  -8  -3   16.31    0.29 
   3  -8  -3   10.70    0.23 
   4  -8  -3   34.44    0.54 
   5  -8  -3   21.00    0.39 
  -6  -7  -3   17.92    0.47 
  -5  -7  -3   23.53    0.54 
  -4  -7  -3   39.02    0.77 
  -3  -7  -3   43.07    0.57 
  -2  -7  -3  107.78    1.30 
  -1  -7  -3   25.98    0.34 
   0  -7  -3   47.50    0.90 
   1  -7  -3  103.10    1.34 
   2  -7  -3   10.06    0.20 
   3  -7  -3   20.02    0.34 
   4  -7  -3    2.50    0.10 
   5  -7  -3    0.91    0.08 
  -7  -6  -3   23.37    0.60 
  -6  -6  -3   44.49    0.93 
  -5  -6  -3   62.96    1.18 
  -4  -6  -3  110.79    1.95 
  -3  -6  -3  129.11    1.56 
  -2  -6  -3  324.30    3.87 
  -1  -6  -3  271.56    3.25 
   0  -6  -3  269.71    4.58 
   1  -6  -3  190.59    2.39 
   2  -6  -3  170.30    2.15 
   3  -6  -3  128.73    1.64 
   4  -6  -3   29.38    0.46 
   5  -6  -3   57.76    0.82 
   6  -6  -3   14.34    0.44 
  -7  -5  -3    5.90    0.26 
  -6  -5  -3   10.43    0.33 
  -5  -5  -3   22.10    0.51 
  -4  -5  -3   69.46    1.29 
  -3  -5  -3   28.25    0.36 
  -2  -5  -3  120.67    1.44 
  -1  -5  -3   90.84    1.09 
   0  -5  -3  164.24    2.74 
   1  -5  -3  132.46    1.67 
   2  -5  -3  109.08    2.03 
   3  -5  -3  119.76    1.53 
   4  -5  -3   60.95    0.83 
   5  -5  -3   40.62    0.60 
   6  -5  -3   24.01    0.43 
  -7  -4  -3    1.98    0.18 
  -6  -4  -3   -0.01    0.04 
  -5  -4  -3    8.00    0.26 
  -4  -4  -3    0.82    0.05 
  -3  -4  -3    9.72    0.16 
  -2  -4  -3    2.02    0.08 
  -1  -4  -3   24.93    0.32 
   0  -4  -3    1.01    0.03 
   1  -4  -3    3.31    0.12 
   2  -4  -3    0.01    0.02 
   3  -4  -3   14.74    0.25 
   4  -4  -3    2.24    0.09 
   5  -4  -3   18.91    0.33 
   6  -4  -3    4.00    0.14 
  -7  -3  -3   17.55    0.49 
  -6  -3  -3   62.20    1.22 
  -5  -3  -3   71.98    0.90 
  -4  -3  -3   67.90    0.83 
  -3  -3  -3  110.10    1.28 
  -2  -3  -3  142.84    1.70 
  -1  -3  -3  212.02    2.55 
   0  -3  -3  273.04    3.20 
   1  -3  -3  163.31    2.06 
   2  -3  -3  246.29    3.13 
   3  -3  -3   58.73    0.78 
   4  -3  -3   68.82    0.91 
   5  -3  -3   16.33    0.30 
   6  -3  -3   13.47    0.28 
  -7  -2  -3   37.37    0.84 
  -6  -2  -3   43.10    0.60 
  -5  -2  -3   95.40    1.16 
  -4  -2  -3  102.30    1.21 
  -3  -2  -3  570.64    6.64 
  -2  -2  -3  178.71    3.14 
  -1  -2  -3  458.37    5.40 
   0  -2  -3  392.03    6.32 
   1  -2  -3  345.13    4.33 
   2  -2  -3  347.37    4.42 
   3  -2  -3  224.98    2.77 
   4  -2  -3  190.04    2.36 
   5  -2  -3   81.43    1.09 
   6  -2  -3   58.44    0.83 
   7  -2  -3   27.42    0.71 
  -7  -1  -3    0.21    0.05 
  -6  -1  -3    1.60    0.10 
  -5  -1  -3    7.89    0.17 
  -4  -1  -3   13.18    0.22 
  -3  -1  -3   73.75    0.88 
  -2  -1  -3   77.78    1.34 
  -1  -1  -3   36.40    0.64 
   1  -1  -3  105.66    1.30 
   2  -1  -3   93.57    1.18 
   3  -1  -3    0.15    0.03 
   4  -1  -3   51.41    0.55 
   5  -1  -3   38.69    0.57 
   6  -1  -3   15.84    0.31 
   7  -1  -3   11.52    0.40 
  -7   0  -3    8.28    0.21 
  -6   0  -3   16.42    0.30 
  -5   0  -3   82.08    1.02 
  -4   0  -3   58.38    0.74 
  -3   0  -3   78.89    0.94 
  -2   0  -3  324.65    5.54 
   0   0  -3   13.78    0.26 
   1   0  -3  373.76    4.68 
   2   0  -3   60.91    0.79 
   3   0  -3   75.53    0.76 
   4   0  -3    3.98    0.11 
   5   0  -3   19.63    0.34 
   6   0  -3    0.21    0.05 
   7   0  -3    1.09    0.14 
  -7   1  -3   22.84    0.40 
  -6   1  -3   47.88    0.68 
  -5   1  -3  115.25    1.40 
  -4   1  -3  210.57    2.42 
  -3   1  -3  191.14    2.20 
  -2   1  -3  403.06    4.70 
  -1   1  -3  377.41    4.50 
   0   1  -3  663.65    8.35 
   1   1  -3    0.27    0.03 
   2   1  -3  212.49    2.64 
   3   1  -3  184.99    1.80 
   4   1  -3   43.65    0.61 
   5   1  -3   48.53    0.69 
   6   1  -3   73.21    1.02 
   7   1  -3    8.10    0.33 
  -7   2  -3   19.29    0.38 
  -6   2  -3   28.45    0.45 
  -5   2  -3   50.73    0.68 
  -4   2  -3    4.33    0.12 
  -3   2  -3  101.57    1.76 
  -2   2  -3  305.50    3.58 
  -1   2  -3  277.95    4.81 
   0   2  -3  189.59    2.41 
   1   2  -3  338.83    4.21 
   2   2  -3   76.67    0.98 
   3   2  -3   87.99    1.13 
   4   2  -3   70.37    0.95 
   5   2  -3   79.00    1.07 
   6   2  -3   18.83    0.35 
   7   2  -3   34.33    0.85 
  -6   3  -3    4.44    0.14 
  -5   3  -3    3.29    0.11 
  -4   3  -3   48.51    0.64 
  -3   3  -3    2.52    0.08 
  -2   3  -3   24.03    0.33 
  -1   3  -3   41.70    0.73 
   0   3  -3    1.01    0.04 
   1   3  -3    0.38    0.02 
   2   3  -3  145.37    1.80 
   3   3  -3   10.43    0.28 
   4   3  -3    6.17    0.15 
   5   3  -3    5.96    0.16 
   6   3  -3    6.54    0.19 
   7   3  -3    2.00    0.20 
  -6   4  -3   50.28    1.00 
  -5   4  -3   42.43    0.60 
  -4   4  -3  123.95    1.49 
  -3   4  -3   95.66    1.14 
  -2   4  -3  306.15    3.52 
  -1   4  -3  314.11    3.62 
   0   4  -3  166.91    3.22 
   1   4  -3  139.31    1.38 
   2   4  -3   19.86    0.22 
   3   4  -3  119.51    1.53 
   4   4  -3   16.50    0.29 
   5   4  -3   13.82    0.27 
   6   4  -3   10.91    0.25 
   7   4  -3   13.45    0.46 
  -6   5  -3    9.73    0.33 
  -5   5  -3   49.85    0.96 
  -4   5  -3  108.13    1.30 
  -3   5  -3   12.21    0.21 
  -2   5  -3   64.92    0.79 
  -1   5  -3  114.72    1.32 
   0   5  -3  207.06    2.53 
   1   5  -3  305.42    3.06 
   2   5  -3  107.76    1.07 
   3   5  -3  191.75    2.39 
   4   5  -3   42.96    0.63 
   5   5  -3   26.05    0.44 
   6   5  -3   44.80    0.69 
   7   5  -3   18.18    0.57 
  -5   6  -3    1.02    0.12 
  -4   6  -3   11.41    0.33 
  -3   6  -3   11.65    0.31 
  -2   6  -3   23.79    0.33 
  -1   6  -3    7.14    0.11 
   0   6  -3   43.53    0.45 
   1   6  -3   30.52    0.34 
   2   6  -3   26.17    0.30 
   3   6  -3  158.08    2.01 
   4   6  -3   34.75    0.54 
   5   6  -3   26.00    0.45 
   6   6  -3   11.38    0.27 
   7   6  -3    5.82    0.31 
  -5   7  -3    9.35    0.22 
  -4   7  -3   21.75    0.35 
  -3   7  -3   12.97    0.24 
  -2   7  -3    0.46    0.04 
  -1   7  -3   16.73    0.18 
   0   7  -3   47.65    0.50 
   1   7  -3   33.95    0.38 
   2   7  -3   31.64    0.37 
   3   7  -3   12.50    0.25 
   4   7  -3   11.42    0.25 
   5   7  -3    0.59    0.07 
   6   7  -3    1.07    0.09 
  -5   8  -3   21.74    0.55 
  -4   8  -3   41.17    0.59 
  -3   8  -3  107.50    1.29 
  -2   8  -3   33.09    0.46 
  -1   8  -3  104.44    1.05 
   0   8  -3  125.57    1.23 
   1   8  -3  112.06    1.14 
   2   8  -3  101.44    1.34 
   3   8  -3  101.38    1.35 
   4   8  -3  156.98    2.04 
   5   8  -3   21.27    0.40 
   6   8  -3   10.26    0.27 
  -4   9  -3   30.21    0.47 
  -3   9  -3   39.80    0.56 
  -2   9  -3   44.28    0.59 
  -1   9  -3   57.24    0.62 
   0   9  -3   17.65    0.30 
   1   9  -3   91.71    0.95 
   2   9  -3   66.53    0.94 
   3   9  -3   28.53    0.48 
   4   9  -3   63.14    0.92 
   5   9  -3   25.99    0.48 
   6   9  -3    9.67    0.27 
  -4  10  -3    0.80    0.11 
  -3  10  -3    2.27    0.11 
  -2  10  -3    5.18    0.16 
  -1  10  -3    0.83    0.07 
   0  10  -3   14.30    0.26 
   1  10  -3    6.00    0.13 
   2  10  -3    6.70    0.19 
   3  10  -3    2.05    0.12 
   4  10  -3    1.30    0.10 
   5  10  -3    2.98    0.16 
  -3  11  -3   38.15    0.62 
  -2  11  -3   25.51    0.44 
  -1  11  -3   22.87    0.39 
   0  11  -3   42.36    0.61 
   1  11  -3   14.21    0.29 
   2  11  -3   48.41    0.74 
   3  11  -3   19.04    0.38 
   4  11  -3    8.38    0.24 
   5  11  -3   12.07    0.31 
  -2  12  -3   36.89    0.59 
  -1  12  -3   48.39    0.71 
   0  12  -3   39.43    0.59 
   1  12  -3   47.17    0.72 
   2  12  -3   19.08    0.38 
   3  12  -3    7.57    0.23 
   4  12  -3   22.32    0.45 
  -1  13  -3    5.14    0.22 
   0  13  -3    4.56    0.13 
   1  13  -3    6.57    0.20 
   2  13  -3    9.19    0.25 
   3  13  -3    1.95    0.21 
  -3 -14  -2    6.62    0.29 
  -2 -14  -2    5.51    0.25 
  -1 -14  -2    9.66    0.34 
   0 -14  -2   44.57    0.95 
  -3 -13  -2   27.37    0.67 
  -2 -13  -2   26.58    0.64 
  -1 -13  -2   57.28    1.15 
   0 -13  -2   45.70    0.95 
   1 -13  -2   33.11    0.75 
   2 -13  -2   22.67    0.58 
  -3 -12  -2   20.24    0.52 
  -2 -12  -2   22.33    0.55 
  -1 -12  -2   22.26    0.53 
   0 -12  -2   13.67    0.38 
   1 -12  -2    4.05    0.19 
   2 -12  -2   26.69    0.47 
   3 -12  -2   12.71    0.31 
  -3 -11  -2   12.72    0.37 
  -2 -11  -2   10.85    0.33 
  -1 -11  -2    3.69    0.17 
   0 -11  -2    3.92    0.17 
   1 -11  -2   12.57    0.35 
   2 -11  -2    3.48    0.13 
   3 -11  -2    4.17    0.15 
   4 -11  -2    3.25    0.18 
  -6 -10  -2   22.30    0.54 
  -5 -10  -2   44.22    0.88 
  -3 -10  -2   94.42    1.72 
  -2 -10  -2  118.46    2.12 
  -1 -10  -2  100.10    1.81 
   0 -10  -2   80.35    1.47 
   1 -10  -2  109.77    1.45 
   2 -10  -2   50.78    0.75 
   3 -10  -2   52.99    0.79 
   4 -10  -2   25.73    0.46 
  -6  -9  -2    9.32    0.31 
  -5  -9  -2    4.41    0.18 
  -4  -9  -2   65.73    1.19 
  -3  -9  -2   46.09    0.63 
  -2  -9  -2   58.66    1.11 
  -1  -9  -2   95.06    1.70 
   0  -9  -2  137.18    2.39 
   1  -9  -2   67.85    0.94 
   2  -9  -2   33.26    0.52 
   3  -9  -2   43.99    0.66 
   4  -9  -2   32.37    0.53 
   5  -9  -2   28.64    0.65 
  -6  -8  -2    0.44    0.08 
  -4  -8  -2   17.25    0.40 
  -3  -8  -2    0.17    0.03 
  -2  -8  -2    0.98    0.05 
  -1  -8  -2    0.18    0.04 
   0  -8  -2    4.19    0.15 
   1  -8  -2   24.50    0.39 
   2  -8  -2    0.04    0.03 
   3  -8  -2    7.60    0.18 
   4  -8  -2    5.58    0.16 
   5  -8  -2    3.75    0.14 
  -7  -7  -2   12.34    0.42 
  -6  -7  -2   15.56    0.43 
  -5  -7  -2   57.57    1.09 
  -4  -7  -2   21.81    0.48 
  -3  -7  -2  123.85    1.49 
  -2  -7  -2  139.61    1.65 
  -1  -7  -2   51.75    0.64 
   0  -7  -2  123.95    2.16 
   1  -7  -2   90.75    1.18 
   2  -7  -2   35.57    0.52 
   3  -7  -2   14.85    0.27 
   4  -7  -2   22.93    0.39 
   5  -7  -2    8.50    0.21 
  -7  -6  -2   20.74    0.54 
  -6  -6  -2   17.17    0.45 
  -5  -6  -2   75.94    1.38 
  -4  -6  -2  113.49    1.96 
  -3  -6  -2   94.00    1.66 
  -2  -6  -2  172.58    2.04 
  -1  -6  -2  312.19    3.67 
   0  -6  -2  288.40    4.87 
   1  -6  -2  138.99    1.75 
   2  -6  -2  268.28    3.36 
   3  -6  -2  141.57    1.80 
   4  -6  -2   65.80    0.89 
   5  -6  -2   68.76    0.95 
   6  -6  -2   27.53    0.69 
  -7  -5  -2    6.06    0.26 
  -6  -5  -2    5.67    0.23 
  -5  -5  -2   12.82    0.35 
  -4  -5  -2   11.23    0.29 
  -3  -5  -2   47.30    0.57 
  -2  -5  -2  113.02    1.37 
  -1  -5  -2   12.12    0.17 
   0  -5  -2  182.98    2.30 
   1  -5  -2   28.78    0.41 
   2  -5  -2  141.11    1.78 
   3  -5  -2   47.09    0.64 
   4  -5  -2   76.79    1.02 
   5  -5  -2   31.28    0.49 
   6  -5  -2   26.20    0.65 
  -7  -4  -2   11.99    0.38 
  -6  -4  -2   18.17    0.47 
  -5  -4  -2   14.33    0.37 
  -4  -4  -2   50.92    0.64 
  -3  -4  -2   53.40    0.64 
  -2  -4  -2  104.28    1.25 
  -1  -4  -2   68.49    0.82 
   0  -4  -2   93.14    1.18 
   1  -4  -2  106.65    1.33 
   2  -4  -2   40.38    0.55 
   3  -4  -2   16.92    0.27 
   4  -4  -2   14.29    0.20 
   5  -4  -2    0.34    0.04 
   6  -4  -2    4.40    0.21 
  -7  -3  -2   44.90    0.95 
  -6  -3  -2   51.50    1.02 
  -5  -3  -2   66.00    0.83 
  -4  -3  -2  188.43    2.17 
  -3  -3  -2  334.23    3.92 
  -2  -3  -2  366.93    4.22 
  -1  -3  -2  338.84    4.02 
   0  -3  -2  218.27    2.80 
   1  -3  -2  421.18    5.33 
   2  -3  -2   77.21    0.98 
   3  -3  -2  242.43    2.38 
   4  -3  -2  100.63    1.02 
   5  -3  -2   50.78    0.56 
   6  -3  -2   33.88    0.79 
  -7  -2  -2   24.43    0.61 
  -6  -2  -2   20.24    0.33 
  -5  -2  -2   66.65    0.84 
  -4  -2  -2   90.47    1.08 
  -3  -2  -2  131.83    1.52 
  -2  -2  -2   77.13    0.90 
  -1  -2  -2  149.80    1.84 
   0  -2  -2  369.42    3.74 
   1  -2  -2  287.79    3.61 
   2  -2  -2   83.67    1.06 
   3  -2  -2   71.16    0.73 
   4  -2  -2   66.96    0.70 
   5  -2  -2  105.35    1.08 
   6  -2  -2   37.81    0.86 
   7  -2  -2   14.73    0.47 
  -7  -1  -2    2.65    0.13 
  -6  -1  -2    4.22    0.13 
  -5  -1  -2    0.50    0.05 
  -4  -1  -2    5.48    0.12 
  -3  -1  -2   17.83    0.26 
  -2  -1  -2    1.16    0.05 
  -1  -1  -2    0.26    0.03 
   0  -1  -2   85.18    1.45 
   1  -1  -2    7.79    0.18 
   2  -1  -2    1.79    0.04 
   3  -1  -2   36.01    0.38 
   4  -1  -2   15.70    0.20 
   5  -1  -2    2.31    0.10 
   6  -1  -2    8.13    0.21 
   7  -1  -2    5.58    0.27 
  -7   0  -2   28.81    0.47 
  -6   0  -2  104.80    1.29 
  -5   0  -2  144.13    1.71 
  -4   0  -2   83.22    1.02 
  -3   0  -2  102.16    1.20 
  -2   0  -2  365.68    4.28 
   0   0  -2   39.23    0.67 
   1   0  -2  499.52    6.03 
   2   0  -2   41.31    0.42 
   3   0  -2   15.27    0.19 
   4   0  -2   36.56    0.40 
   5   0  -2   24.93    0.40 
   6   0  -2   39.45    0.60 
   7   0  -2    4.90    0.25 
  -7   1  -2   48.70    0.70 
  -6   1  -2   81.63    1.05 
  -5   1  -2   14.93    0.26 
  -4   1  -2  212.31    2.44 
  -3   1  -2  170.98    1.97 
  -2   1  -2  327.68    3.82 
  -1   1  -2  299.61    5.14 
   0   1  -2  361.97    4.35 
   1   1  -2  406.72    5.00 
   2   1  -2  376.10    3.69 
   3   1  -2  256.95    2.49 
   4   1  -2  119.03    1.18 
   5   1  -2   49.15    0.70 
   6   1  -2   65.20    0.92 
   7   1  -2   23.43    0.65 
  -7   2  -2    1.03    0.09 
  -6   2  -2    0.25    0.05 
  -5   2  -2    2.27    0.10 
  -4   2  -2    0.08    0.04 
  -3   2  -2   53.62    0.66 
  -2   2  -2   35.19    0.44 
  -1   2  -2   27.18    0.47 
   0   2  -2   42.42    0.55 
   1   2  -2  963.95    9.73 
   2   2  -2   76.35    1.41 
   3   2  -2   79.03    0.79 
   4   2  -2   68.01    0.91 
   5   2  -2   42.63    0.62 
   6   2  -2   24.64    0.42 
   7   2  -2    3.85    0.23 
  -6   3  -2   23.41    0.39 
  -5   3  -2   53.85    0.71 
  -4   3  -2   12.73    0.22 
  -3   3  -2   53.95    0.68 
  -2   3  -2   54.63    0.95 
  -1   3  -2    0.27    0.02 
   0   3  -2   10.42    0.27 
   1   3  -2    8.20    0.10 
   2   3  -2   85.28    0.84 
   3   3  -2    0.80    0.03 
   4   3  -2    0.94    0.06 
   5   3  -2    4.01    0.13 
   6   3  -2    0.78    0.08 
   7   3  -2   12.43    0.44 
  -6   4  -2   25.34    0.59 
  -5   4  -2   70.09    0.90 
  -4   4  -2  110.08    1.32 
  -3   4  -2   81.50    0.98 
  -2   4  -2   79.09    0.94 
  -1   4  -2  303.01    3.45 
   0   4  -2  206.44    2.03 
   1   4  -2  180.78    1.78 
   2   4  -2  409.25    4.08 
   3   4  -2  195.56    1.91 
   4   4  -2   63.74    0.87 
   5   4  -2   74.03    1.01 
   6   4  -2   24.35    0.43 
   7   4  -2   24.73    0.69 
  -6   5  -2   20.20    0.35 
  -5   5  -2   18.75    0.46 
  -4   5  -2   30.09    0.62 
  -3   5  -2   54.36    0.68 
  -2   5  -2  297.21    3.42 
  -1   5  -2  247.76    2.32 
   0   5  -2  212.89    2.08 
   1   5  -2   78.80    0.79 
   2   5  -2  364.04    3.65 
   3   5  -2  153.07    1.95 
   4   5  -2  196.94    2.48 
   5   5  -2   65.10    0.91 
   6   5  -2   42.06    0.65 
   7   5  -2   12.60    0.46 
  -6   6  -2    0.08    0.06 
  -5   6  -2    3.54    0.12 
  -4   6  -2    0.70    0.05 
  -3   6  -2    0.24    0.04 
  -2   6  -2   10.07    0.14 
  -1   6  -2    0.62    0.03 
   0   6  -2    5.28    0.09 
   1   6  -2    4.99    0.07 
   2   6  -2    2.66    0.06 
   3   6  -2    0.54    0.05 
   4   6  -2    0.54    0.06 
   5   6  -2    0.56    0.06 
   6   6  -2    4.50    0.16 
   7   6  -2   11.11    0.43 
  -5   7  -2   24.32    0.40 
  -4   7  -2   41.64    0.58 
  -3   7  -2   92.55    1.11 
  -2   7  -2   79.77    0.96 
  -1   7  -2  142.42    1.60 
   0   7  -2  108.62    1.07 
   1   7  -2   64.64    0.83 
   2   7  -2   66.22    0.70 
   3   7  -2  132.14    1.70 
   4   7  -2   90.81    1.22 
   5   7  -2   14.29    0.29 
   6   7  -2    4.64    0.17 
  -5   8  -2   32.79    0.51 
  -4   8  -2   48.28    0.66 
  -3   8  -2  102.75    1.23 
  -2   8  -2   51.04    0.65 
  -1   8  -2  131.16    1.29 
   0   8  -2  167.53    1.61 
   1   8  -2  111.09    1.38 
   2   8  -2   95.57    0.99 
   3   8  -2   50.09    0.73 
   4   8  -2   38.22    0.59 
   5   8  -2   41.17    0.65 
   6   8  -2   18.96    0.38 
  -4   9  -2    5.20    0.15 
  -3   9  -2    3.59    0.12 
  -2   9  -2    8.04    0.17 
  -1   9  -2   61.66    0.65 
   0   9  -2   21.55    0.34 
   1   9  -2   15.49    0.26 
   2   9  -2   16.74    0.24 
   3   9  -2    8.28    0.31 
   4   9  -2   11.60    0.26 
   5   9  -2    3.44    0.14 
   6   9  -2    8.91    0.25 
  -4  10  -2    5.02    0.22 
  -3  10  -2   11.46    0.23 
  -2  10  -2   24.00    0.32 
  -1  10  -2   15.19    0.29 
   0  10  -2    6.92    0.16 
   1  10  -2   37.49    0.54 
   2  10  -2    2.35    0.11 
   3  10  -2    0.22    0.05 
   4  10  -2    0.82    0.08 
   5  10  -2    9.97    0.26 
   6  10  -2    1.73    0.17 
  -3  11  -2   51.97    0.79 
  -2  11  -2   46.58    0.70 
  -1  11  -2   55.59    0.78 
   0  11  -2  110.17    1.41 
   1  11  -2   31.70    0.40 
   2  11  -2   29.60    0.50 
   3  11  -2   32.48    0.55 
   4  11  -2   19.16    0.39 
   5  11  -2    8.27    0.25 
  -2  12  -2   19.80    0.38 
  -1  12  -2   15.88    0.31 
   0  12  -2   13.63    0.27 
   1  12  -2   47.83    0.57 
   2  12  -2   21.93    0.42 
   3  12  -2   14.04    0.33 
   4  12  -2   13.25    0.32 
  -1  13  -2    0.56    0.07 
   0  13  -2    0.01    0.03 
   1  13  -2    0.08    0.04 
   2  13  -2    0.31    0.06 
   3  13  -2    2.86    0.17 
   0  14  -2   14.34    0.40 
  -3 -14  -1   16.83    0.51 
  -2 -14  -1   44.93    0.98 
  -1 -14  -1   26.41    0.65 
   0 -14  -1   22.69    0.59 
  -3 -13  -1   36.63    0.83 
  -2 -13  -1   34.53    0.78 
  -1 -13  -1   44.02    0.93 
   0 -13  -1   21.97    0.55 
   1 -13  -1   34.68    0.77 
   2 -13  -1   16.47    0.46 
  -3 -12  -1    1.43    0.14 
  -2 -12  -1    1.12    0.12 
  -1 -12  -1    1.19    0.12 
   0 -12  -1    0.78    0.10 
   1 -12  -1    1.79    0.14 
   2 -12  -1    5.75    0.18 
   3 -12  -1    0.16    0.06 
  -3 -11  -1   25.46    0.59 
  -2 -11  -1   52.71    1.07 
  -1 -11  -1   39.48    0.82 
   0 -11  -1   19.06    0.46 
   1 -11  -1   33.43    0.71 
   2 -11  -1   11.43    0.26 
   3 -11  -1    3.04    0.14 
   4 -11  -1    2.21    0.16 
  -6 -10  -1   11.78    0.35 
  -5 -10  -1   14.73    0.38 
  -3 -10  -1   43.88    0.89 
  -2 -10  -1   83.31    1.54 
  -1 -10  -1   74.35    1.39 
   0 -10  -1  146.55    2.57 
   1 -10  -1   44.81    0.67 
   2 -10  -1   42.22    0.65 
   3 -10  -1   61.39    0.89 
   4 -10  -1   29.93    0.51 
  -6  -9  -1    6.09    0.24 
  -5  -9  -1    1.95    0.14 
  -4  -9  -1   13.05    0.33 
  -3  -9  -1    7.25    0.15 
  -2  -9  -1   42.82    0.83 
  -1  -9  -1   30.67    0.65 
   0  -9  -1   39.60    0.78 
   1  -9  -1   93.28    1.26 
   2  -9  -1   44.14    0.65 
   3  -9  -1   52.41    0.77 
   4  -9  -1   26.13    0.45 
  -6  -8  -1    2.58    0.15 
  -5  -8  -1    5.29    0.20 
  -4  -8  -1   19.15    0.43 
  -3  -8  -1   32.04    0.45 
  -2  -8  -1    8.87    0.16 
  -1  -8  -1   26.58    0.56 
   0  -8  -1    9.78    0.26 
   1  -8  -1   14.03    0.26 
   2  -8  -1    2.01    0.09 
   3  -8  -1    0.91    0.07 
   4  -8  -1    2.23    0.10 
   5  -8  -1    0.33    0.09 
  -7  -7  -1   20.00    0.57 
  -6  -7  -1   39.62    0.83 
  -5  -7  -1   90.26    1.62 
  -4  -7  -1   34.07    0.67 
  -3  -7  -1  139.98    2.35 
  -2  -7  -1  196.81    2.29 
  -1  -7  -1  269.53    3.20 
   0  -7  -1  190.69    3.22 
   1  -7  -1  176.33    2.21 
   2  -7  -1  157.12    1.98 
   3  -7  -1   87.66    1.16 
   4  -7  -1   63.58    0.88 
   5  -7  -1   23.70    0.62 
  -7  -6  -1   25.81    0.63 
  -6  -6  -1   18.63    0.48 
  -5  -6  -1   45.84    0.91 
  -4  -6  -1   56.31    1.04 
  -3  -6  -1   73.46    1.29 
  -2  -6  -1   76.34    0.93 
  -1  -6  -1  210.20    2.82 
   1  -6  -1  120.72    1.53 
   2  -6  -1  145.88    1.84 
   3  -6  -1  108.70    1.39 
   4  -6  -1   82.71    1.10 
   5  -6  -1   35.47    0.54 
   6  -6  -1   41.51    0.95 
  -7  -5  -1    5.83    0.25 
  -6  -5  -1    0.21    0.06 
  -5  -5  -1    2.68    0.14 
  -4  -5  -1    0.48    0.07 
  -3  -5  -1    0.34    0.05 
  -1  -5  -1   38.02    0.48 
   1  -5  -1    0.98    0.05 
   2  -5  -1   28.48    0.41 
   3  -5  -1    4.87    0.09 
   4  -5  -1    9.90    0.16 
   5  -5  -1    7.15    0.14 
   6  -5  -1   14.35    0.44 
  -7  -4  -1   27.87    0.66 
  -6  -4  -1   52.11    1.03 
  -5  -4  -1   39.00    0.78 
  -4  -4  -1  175.13    2.01 
  -3  -4  -1   59.43    0.70 
  -2  -4  -1   86.74    1.05 
  -1  -4  -1   44.36    0.54 
   0  -4  -1  186.66    2.45 
   1  -4  -1  103.28    1.28 
   2  -4  -1   89.53    0.90 
   3  -4  -1   22.37    0.27 
   4  -4  -1   26.68    0.32 
   5  -4  -1    9.29    0.16 
   6  -4  -1    7.23    0.28 
  -7  -3  -1   31.22    0.72 
  -6  -3  -1   60.89    1.18 
  -5  -3  -1  148.57    1.74 
  -4  -3  -1  195.46    2.24 
  -3  -3  -1  203.31    2.36 
  -2  -3  -1   69.26    0.80 
  -1  -3  -1  418.43    4.90 
   0  -3  -1  364.13    4.64 
   1  -3  -1  507.45    6.45 
   2  -3  -1   70.21    0.71 
   3  -3  -1  246.76    2.44 
   4  -3  -1  175.78    1.76 
   5  -3  -1   61.19    0.67 
   6  -3  -1   50.36    1.09 
  -7  -2  -1    0.26    0.08 
  -6  -2  -1    0.24    0.04 
  -5  -2  -1    7.35    0.16 
  -4  -2  -1   39.31    0.51 
  -3  -2  -1    9.03    0.15 
  -2  -2  -1  212.59    2.44 
  -1  -2  -1  351.74    4.18 
   0  -2  -1    0.47    0.05 
   1  -2  -1   69.02    0.68 
   2  -2  -1  204.26    2.08 
   3  -2  -1  170.82    1.68 
   4  -2  -1   94.28    0.96 
   5  -2  -1   55.41    0.61 
   6  -2  -1   22.49    0.58 
   7  -2  -1   14.45    0.46 
  -7  -1  -1   22.65    0.57 
  -6  -1  -1   69.24    0.89 
  -5  -1  -1   46.09    0.61 
  -4  -1  -1   40.54    0.52 
  -3  -1  -1   49.27    0.82 
  -2  -1  -1   43.03    0.52 
  -1  -1  -1   41.52    0.71 
   0  -1  -1   19.74    0.26 
   1  -1  -1   57.29    0.57 
   2  -1  -1   42.55    0.44 
   3  -1  -1    1.27    0.04 
   4  -1  -1    0.32    0.03 
   5  -1  -1   37.61    0.43 
   6  -1  -1    6.64    0.27 
   7  -1  -1   -0.03    0.05 
  -7   0  -1   15.63    0.30 
  -6   0  -1   35.30    0.51 
  -5   0  -1   27.79    0.41 
  -4   0  -1  169.93    1.97 
  -3   0  -1  347.21    4.09 
  -2   0  -1  288.53    3.37 
  -1   0  -1   52.69    0.61 
   0   0  -1  129.93    2.47 
   1   0  -1  132.56    1.30 
   2   0  -1  346.66    3.45 
   3   0  -1  207.05    2.04 
   4   0  -1  140.73    1.40 
   5   0  -1   32.46    0.38 
   6   0  -1   41.34    0.94 
   7   0  -1   21.24    0.60 
  -7   1  -1    6.36    0.18 
  -6   1  -1   17.74    0.31 
  -5   1  -1    0.28    0.04 
  -4   1  -1  154.13    1.78 
  -3   1  -1  156.06    1.77 
  -2   1  -1  194.05    3.22 
  -1   1  -1  454.29    5.07 
   1   1  -1 1000.00   19.25 
   2   1  -1  244.82    2.45 
   3   1  -1  128.30    1.26 
   4   1  -1  188.72    1.84 
   5   1  -1  191.88    2.42 
   6   1  -1   24.00    0.62 
   7   1  -1   23.91    0.65 
  -7   2  -1    0.07    0.04 
  -6   2  -1    2.02    0.11 
  -5   2  -1    0.31    0.04 
  -4   2  -1    0.12    0.03 
  -3   2  -1    4.36    0.10 
  -2   2  -1   19.42    0.38 
  -1   2  -1  207.26    2.41 
   0   2  -1  163.87    2.05 
   1   2  -1  183.83    1.84 
   2   2  -1    1.91    0.04 
   3   2  -1   28.40    0.31 
   4   2  -1   32.42    0.42 
   5   2  -1   17.12    0.30 
   6   2  -1    2.88    0.18 
   7   2  -1    3.25    0.21 
  -6   3  -1   26.63    0.42 
  -5   3  -1   98.76    1.22 
  -4   3  -1    3.79    0.10 
  -3   3  -1  157.25    1.82 
  -2   3  -1  339.28    3.92 
  -1   3  -1  349.62    3.98 
   0   3  -1  458.88    4.32 
   1   3  -1  109.41    1.10 
   2   3  -1  309.35    3.09 
   3   3  -1   72.53    0.73 
   4   3  -1   66.85    0.69 
   5   3  -1   69.26    0.94 
   6   3  -1   24.66    0.64 
   7   3  -1    2.54    0.22 
  -6   4  -1   35.18    0.75 
  -5   4  -1   71.28    0.91 
  -4   4  -1   34.47    0.47 
  -3   4  -1  235.72    2.68 
  -2   4  -1  243.81    2.78 
  -1   4  -1  631.45    5.89 
   0   4  -1  387.84    3.74 
   1   4  -1  260.40    2.62 
   2   4  -1  531.26    5.26 
   3   4  -1  174.46    1.71 
   4   4  -1   96.69    1.25 
   5   4  -1   74.99    1.02 
   6   4  -1   39.44    0.91 
   7   4  -1   16.23    0.52 
  -6   5  -1   16.41    0.31 
  -5   5  -1   12.33    0.24 
  -4   5  -1   12.60    0.33 
  -3   5  -1   60.66    0.61 
  -2   5  -1   28.17    0.30 
  -1   5  -1    0.80    0.03 
   0   5  -1   77.25    0.75 
   1   5  -1   45.37    0.58 
   2   5  -1  266.64    2.72 
   3   5  -1    1.66    0.05 
   4   5  -1   17.98    0.31 
   5   5  -1   15.28    0.29 
   6   5  -1   21.69    0.40 
   7   5  -1   13.93    0.48 
  -6   6  -1    6.41    0.19 
  -5   6  -1    5.59    0.15 
  -4   6  -1   28.49    0.42 
  -3   6  -1    1.16    0.06 
  -2   6  -1   65.87    0.64 
  -1   6  -1   29.38    0.30 
   0   6  -1   45.44    0.47 
   1   6  -1   11.47    0.14 
   2   6  -1   24.82    0.34 
   3   6  -1   36.53    0.41 
   4   6  -1    0.33    0.05 
   5   6  -1    1.57    0.10 
   6   6  -1    1.11    0.09 
   7   6  -1    0.10    0.08 
  -5   7  -1   88.00    1.11 
  -4   7  -1   80.32    1.00 
  -3   7  -1   84.11    1.03 
  -2   7  -1  106.81    1.24 
  -1   7  -1  118.41    1.35 
   0   7  -1  237.45    2.26 
   1   7  -1  216.46    2.04 
   2   7  -1   54.97    0.59 
   3   7  -1  118.84    1.20 
   4   7  -1   33.54    0.52 
   5   7  -1   13.70    0.28 
   6   7  -1   21.60    0.41 
  -5   8  -1   43.02    0.62 
  -4   8  -1   34.02    0.50 
  -3   8  -1   43.71    0.58 
  -2   8  -1  103.00    1.21 
  -1   8  -1  113.24    1.12 
   0   8  -1   52.21    0.54 
   1   8  -1   48.34    0.66 
   2   8  -1  104.56    1.08 
   3   8  -1   92.38    1.24 
   4   8  -1   24.29    0.42 
   5   8  -1   56.28    0.83 
   6   8  -1   14.22    0.32 
  -4   9  -1    5.47    0.16 
  -3   9  -1    0.04    0.03 
  -2   9  -1    0.21    0.04 
  -1   9  -1    0.88    0.05 
   0   9  -1    2.92    0.10 
   1   9  -1    3.51    0.11 
   2   9  -1    5.26    0.11 
   3   9  -1    9.17    0.22 
   4   9  -1    5.01    0.16 
   5   9  -1    0.26    0.05 
   6   9  -1    9.52    0.26 
  -4  10  -1   40.52    0.59 
  -3  10  -1   29.31    0.44 
  -2  10  -1   47.32    0.54 
  -1  10  -1   41.35    0.60 
   0  10  -1   30.25    0.46 
   1  10  -1   23.71    0.38 
   2  10  -1   11.27    0.19 
   3  10  -1   28.80    0.49 
   4  10  -1   14.26    0.31 
   5  10  -1    0.13    0.05 
   6  10  -1    3.30    0.23 
  -3  11  -1   28.57    0.63 
  -2  11  -1   46.96    0.70 
  -1  11  -1   49.83    0.71 
   0  11  -1   58.68    0.81 
   1  11  -1   70.45    0.94 
   2  11  -1   31.17    0.53 
   3  11  -1   41.72    0.67 
   4  11  -1   24.03    0.45 
   5  11  -1   19.91    0.41 
  -2  12  -1   15.88    0.32 
  -1  12  -1   12.07    0.26 
   0  12  -1   12.44    0.26 
   1  12  -1   30.39    0.48 
   2  12  -1   11.79    0.28 
   3  12  -1   24.44    0.47 
   4  12  -1   11.37    0.29 
   5  12  -1   16.14    0.49 
  -1  13  -1    5.09    0.16 
   0  13  -1    8.01    0.20 
   1  13  -1    2.57    0.12 
   2  13  -1    5.10    0.18 
   3  13  -1    1.38    0.20 
   0  14  -1   24.40    0.57 
  -2 -14   0   24.53    0.64 
  -1 -14   0   26.59    0.65 
  -3 -13   0    7.94    0.31 
  -2 -13   0    8.23    0.31 
  -1 -13   0   18.36    0.50 
   0 -13   0    9.00    0.31 
   1 -13   0   25.06    0.61 
   2 -13   0   11.65    0.37 
  -3 -12   0    8.84    0.31 
  -2 -12   0    2.39    0.17 
  -1 -12   0    0.20    0.06 
   0 -12   0    3.93    0.19 
   1 -12   0    1.28    0.12 
   2 -12   0    0.05    0.04 
   3 -12   0    2.14    0.16 
  -3 -11   0   35.71    0.78 
  -2 -11   0   68.94    1.31 
  -1 -11   0   70.13    1.33 
   0 -11   0   46.47    0.93 
   1 -11   0   41.31    0.84 
   2 -11   0   54.52    0.81 
   3 -11   0   21.39    0.41 
  -6 -10   0   17.22    0.44 
  -5 -10   0   12.40    0.33 
  -3 -10   0   42.81    0.87 
  -2 -10   0   55.02    1.07 
  -1 -10   0   42.73    0.86 
   0 -10   0  185.78    3.23 
   1 -10   0   45.37    0.67 
   2 -10   0   84.38    1.17 
   3 -10   0   59.69    0.87 
   4 -10   0   49.71    0.76 
  -6  -9   0    1.50    0.13 
  -5  -9   0    3.29    0.15 
  -4  -9   0    2.76    0.13 
  -3  -9   0    0.30    0.05 
  -2  -9   0    3.33    0.15 
  -1  -9   0    0.73    0.08 
   0  -9   0    1.34    0.10 
   1  -9   0   18.60    0.33 
   2  -9   0   12.30    0.25 
   3  -9   0    3.65    0.13 
   4  -9   0    8.98    0.22 
  -6  -8   0   40.35    0.83 
  -5  -8   0   29.79    0.63 
  -4  -8   0   13.07    0.32 
  -3  -8   0   36.71    0.70 
  -2  -8   0   80.29    0.99 
  -1  -8   0  103.51    1.83 
   0  -8   0   10.34    0.27 
   1  -8   0  111.00    1.45 
   2  -8   0   26.73    0.43 
   3  -8   0    9.65    0.21 
   4  -8   0   12.83    0.26 
   5  -8   0    5.08    0.25 
  -6  -7   0   39.55    0.83 
  -5  -7   0   47.74    0.93 
  -4  -7   0  100.22    1.73 
  -3  -7   0  100.25    1.70 
  -2  -7   0   72.52    0.90 
  -1  -7   0  145.33    1.72 
   0  -7   0   70.68    1.26 
   1  -7   0  160.18    2.03 
   2  -7   0  153.45    1.94 
   3  -7   0  127.99    1.65 
   4  -7   0   46.11    0.67 
   5  -7   0   38.28    0.88 
  -7  -6   0    1.63    0.15 
  -6  -6   0    7.94    0.27 
  -5  -6   0    9.18    0.28 
  -4  -6   0   37.11    0.72 
  -3  -6   0   38.99    0.72 
  -2  -6   0   80.34    0.98 
  -1  -6   0   68.12    0.82 
   0  -6   0   43.49    0.47 
   1  -6   0  146.91    1.83 
   2  -6   0   85.27    1.10 
   3  -6   0   59.11    0.63 
   4  -6   0   99.45    1.03 
   5  -6   0   40.49    0.60 
   6  -6   0   50.82    0.75 
  -7  -5   0    5.23    0.23 
  -6  -5   0    9.45    0.30 
  -5  -5   0   50.66    0.98 
  -4  -5   0   38.44    0.75 
  -3  -5   0   17.17    0.37 
  -2  -5   0    9.27    0.16 
  -1  -5   0    0.16    0.02 
   0  -5   0   25.98    0.29 
   1  -5   0    0.15    0.04 
   2  -5   0   19.27    0.30 
   3  -5   0    0.79    0.05 
   4  -5   0    0.14    0.02 
   5  -5   0    0.91    0.07 
   6  -5   0    0.11    0.04 
  -7  -4   0    6.28    0.26 
  -6  -4   0   68.08    1.28 
  -5  -4   0   82.54    1.50 
  -4  -4   0  138.24    1.60 
  -3  -4   0  134.66    1.53 
  -2  -4   0  157.72    2.63 
  -1  -4   0  408.71    4.81 
   0  -4   0  213.51    2.20 
   1  -4   0   42.37    0.56 
   2  -4   0  144.02    1.42 
   3  -4   0  168.51    1.67 
   4  -4   0  130.80    1.33 
   5  -4   0   63.71    0.86 
   6  -4   0   18.34    0.34 
  -7  -3   0    2.86    0.20 
  -6  -3   0   14.46    0.40 
  -5  -3   0   17.47    0.27 
  -4  -3   0   24.49    0.33 
  -3  -3   0  257.58    2.92 
  -2  -3   0  209.50    2.37 
  -1  -3   0  783.81    8.76 
   0  -3   0  153.10    1.90 
   1  -3   0  165.22    1.99 
   2  -3   0  253.67    2.57 
   3  -3   0  204.73    2.00 
   4  -3   0  122.33    1.23 
   5  -3   0   62.81    0.85 
   6  -3   0   52.80    0.75 
  -7  -2   0    9.81    0.33 
  -6  -2   0    0.81    0.06 
  -5  -2   0    0.82    0.06 
  -4  -2   0    7.48    0.19 
  -3  -2   0    6.24    0.15 
  -2  -2   0    1.65    0.05 
  -1  -2   0  635.50    9.11 
   0  -2   0   20.52    0.25 
   1  -2   0  312.59    3.14 
   2  -2   0  171.44    1.69 
   3  -2   0    9.51    0.13 
   4  -2   0    5.09    0.10 
   5  -2   0    5.94    0.15 
   6  -2   0   23.07    0.59 
   7  -2   0   10.67    0.40 
  -7  -1   0   21.23    0.54 
  -6  -1   0    1.16    0.08 
  -5  -1   0   59.18    0.76 
  -4  -1   0   68.86    0.83 
  -3  -1   0  120.09    1.38 
  -2  -1   0  347.29    4.01 
  -1  -1   0  106.62    1.26 
   0  -1   0  152.18    1.60 
   1  -1   0  132.77    1.35 
   2  -1   0  111.29    1.09 
   3  -1   0   50.71    0.53 
   4  -1   0   14.41    0.22 
   5  -1   0   74.66    0.79 
   6  -1   0    4.73    0.23 
   7  -1   0    8.89    0.35 
  -7   0   0   35.00    0.53 
  -6   0   0   41.60    0.58 
  -5   0   0   84.16    1.04 
  -4   0   0  192.39    2.20 
  -3   0   0  258.29    3.01 
  -2   0   0  313.82    3.64 
  -1   0   0  339.69    3.90 
   1   0   0  342.20    3.34 
   2   0   0  313.70    3.11 
   3   0   0  258.15    2.56 
   4   0   0  190.97    1.88 
   5   0   0   84.45    0.88 
   6   0   0   41.06    0.94 
   7   0   0   34.85    0.85 
  -7   1   0    9.25    0.22 
  -6   1   0    4.96    0.14 
  -5   1   0   74.41    0.93 
  -4   1   0   14.46    0.23 
  -3   1   0   51.45    0.63 
  -2   1   0  112.19    1.28 
  -1   1   0  134.79    1.57 
   0   1   0  161.40    1.90 
   1   1   0  108.23    1.07 
   2   1   0  342.41    3.42 
   3   1   0  119.00    1.18 
   4   1   0   68.19    0.71 
   5   1   0   59.74    0.64 
   6   1   0    1.10    0.13 
   7   1   0   21.31    0.60 
  -7   2   0   11.25    0.25 
  -6   2   0   22.08    0.37 
  -5   2   0    6.20    0.15 
  -4   2   0    5.09    0.12 
  -3   2   0    9.86    0.16 
  -2   2   0  171.63    1.97 
  -1   2   0  327.00    3.66 
   0   2   0   20.65    0.21 
   1   2   0  632.33    7.43 
   2   2   0    1.69    0.04 
   3   2   0    6.10    0.11 
   4   2   0    7.36    0.12 
   5   2   0    0.85    0.06 
   6   2   0    0.80    0.11 
   7   2   0    9.92    0.38 
  -6   3   0   52.62    0.72 
  -5   3   0   63.35    0.81 
  -4   3   0  122.74    1.45 
  -3   3   0  206.08    2.34 
  -2   3   0  253.67    2.91 
  -1   3   0  166.17    1.55 
   0   3   0  153.21    1.51 
   1   3   0  705.70    9.78 
   2   3   0  208.19    2.08 
   3   3   0  252.97    2.53 
   4   3   0   24.19    0.29 
   5   3   0   17.57    0.31 
   6   3   0   14.93    0.45 
   7   3   0    3.01    0.24 
  -6   4   0   18.55    0.32 
  -5   4   0   63.63    0.81 
  -4   4   0  134.05    1.56 
  -3   4   0  171.57    1.95 
  -2   4   0  145.58    1.35 
  -1   4   0   42.46    0.50 
   0   4   0  215.44    2.64 
   1   4   0  392.95    6.53 
   2   4   0  157.73    1.57 
   3   4   0  134.48    1.33 
   4   4   0  138.16    1.38 
   5   4   0   84.20    1.12 
   6   4   0   67.00    1.43 
   7   4   0    6.27    0.30 
  -6   5   0    0.10    0.04 
  -5   5   0    0.85    0.07 
  -4   5   0    0.12    0.03 
  -3   5   0    0.72    0.04 
  -2   5   0   19.71    0.22 
  -1   5   0    0.02    0.03 
   0   5   0   25.41    0.32 
   1   5   0    0.08    0.02 
   2   5   0    9.34    0.15 
   3   5   0   17.43    0.22 
   4   5   0   38.91    0.44 
   5   5   0   51.53    0.73 
   6   5   0    9.20    0.35 
   7   5   0    5.32    0.28 
  -6   6   0   51.45    0.71 
  -5   6   0   40.22    0.56 
  -4   6   0   98.77    1.19 
  -3   6   0   58.63    0.73 
  -2   6   0   84.40    1.00 
  -1   6   0  145.28    1.65 
   0   6   0   43.69    0.45 
   1   6   0   67.44    0.85 
   2   6   0   79.50    0.81 
   3   6   0   38.81    0.43 
   4   6   0   36.60    0.55 
   5   6   0    9.36    0.21 
   6   6   0    7.20    0.31 
   7   6   0    1.60    0.18 
  -5   7   0   37.80    0.55 
  -4   7   0   45.91    0.62 
  -3   7   0  129.01    1.50 
  -2   7   0  154.43    1.76 
  -1   7   0  161.48    1.82 
   0   7   0   71.28    0.71 
   1   7   0  145.24    1.78 
   2   7   0   73.12    0.76 
   3   7   0   99.60    1.02 
   4   7   0   98.56    1.31 
   5   7   0   48.05    0.71 
   6   7   0   40.30    0.96 
  -5   8   0    5.21    0.16 
  -4   8   0   12.67    0.24 
  -3   8   0    9.60    0.19 
  -2   8   0   27.09    0.38 
  -1   8   0  111.87    1.11 
   0   8   0   10.30    0.14 
   1   8   0  105.07    1.31 
   2   8   0   80.00    0.84 
   3   8   0   38.01    0.44 
   4   8   0   13.32    0.27 
   5   8   0   30.13    0.50 
   6   8   0   39.69    0.98 
  -4   9   0    9.15    0.20 
  -3   9   0    3.58    0.11 
  -2   9   0   12.38    0.22 
  -1   9   0   18.60    0.24 
   0   9   0    1.08    0.07 
   1   9   0    0.61    0.05 
   2   9   0    3.34    0.09 
   3   9   0    0.24    0.03 
   4   9   0    3.08    0.12 
   5   9   0    3.09    0.13 
   6   9   0    1.70    0.19 
  -4  10   0   50.32    0.69 
  -3  10   0   58.84    0.77 
  -2  10   0   85.75    0.90 
  -1  10   0   45.87    0.65 
   0  10   0  189.16    2.31 
   1  10   0   43.70    0.62 
   2  10   0   54.66    0.62 
   3  10   0   42.07    0.65 
   4  10   0   33.43    0.55 
   5  10   0   12.06    0.29 
   6  10   0   16.85    0.59 
  -4  11   0   16.01    0.43 
  -3  11   0   21.09    0.35 
  -2  11   0   54.44    0.79 
  -1  11   0   40.65    0.61 
   0  11   0   46.99    0.67 
   1  11   0   70.59    0.95 
   2  11   0   68.01    0.76 
   3  11   0   35.00    0.58 
   4  11   0   27.00    0.49 
   5  11   0   34.16    0.59 
  -2  12   0    0.02    0.05 
  -1  12   0    1.20    0.09 
   0  12   0    4.03    0.13 
   1  12   0    0.18    0.04 
   2  12   0    2.53    0.10 
   3  12   0    8.68    0.24 
   4  12   0    1.19    0.11 
   5  12   0    4.89    0.25 
  -1  13   0   24.64    0.43 
   0  13   0    9.13    0.22 
   1  13   0   18.40    0.35 
   2  13   0    8.14    0.23 
   3  13   0    7.80    0.24 
   4  13   0    3.15    0.18 
   0  14   0   13.34    0.38 
   1  14   0   25.97    0.45 
   2  14   0   24.62    0.48 
  -2 -13   1    4.91    0.24 
  -1 -13   1    2.41    0.18 
   0 -13   1    8.12    0.30 
   1 -13   1    4.96    0.23 
   2 -13   1   11.02    0.38 
  -2 -12   1   11.82    0.37 
  -1 -12   1   29.35    0.68 
   0 -12   1   12.65    0.37 
   1 -12   1   12.17    0.36 
   2 -12   1   15.49    0.33 
   3 -12   1    2.03    0.16 
  -2 -11   1   31.04    0.70 
  -1 -11   1   69.31    1.33 
   0 -11   1   58.79    1.14 
   1 -11   1   49.66    0.99 
   2 -11   1   47.76    0.73 
   3 -11   1   29.26    0.51 
  -6 -10   1    2.68    0.16 
  -5 -10   1    0.07    0.05 
  -4 -10   1   14.51    0.35 
  -2 -10   1   11.09    0.33 
  -1 -10   1   22.99    0.53 
   0 -10   1   29.85    0.64 
   1 -10   1   40.70    0.62 
   2 -10   1   47.69    0.71 
   3 -10   1   29.69    0.50 
   4 -10   1   40.50    1.01 
  -6  -9   1    9.72    0.30 
  -5  -9   1    0.20    0.05 
  -4  -9   1    5.12    0.18 
  -3  -9   1    9.75    0.24 
  -2  -9   1    5.02    0.19 
  -1  -9   1    3.70    0.16 
   0  -9   1    2.84    0.13 
   1  -9   1    0.88    0.07 
   2  -9   1    0.23    0.04 
   3  -9   1    0.11    0.03 
   4  -9   1    6.26    0.28 
  -6  -8   1   14.09    0.39 
  -5  -8   1   56.94    1.06 
  -4  -8   1   24.82    0.51 
  -3  -8   1   94.47    1.60 
  -2  -8   1  106.98    1.29 
   0  -8   1   51.59    0.97 
   1  -8   1  112.53    1.47 
   2  -8   1  102.74    1.35 
   3  -8   1   43.63    0.64 
   4  -8   1   34.48    0.82 
   5  -8   1   42.47    1.00 
  -6  -7   1   22.24    0.52 
  -5  -7   1   13.33    0.35 
  -4  -7   1   33.36    0.66 
  -3  -7   1  117.89    2.00 
  -2  -7   1   56.10    0.70 
  -1  -7   1  210.46    2.52 
   0  -7   1  237.35    2.82 
   1  -7   1  117.14    1.51 
   2  -7   1  105.77    1.37 
   3  -7   1   86.01    0.90 
   4  -7   1   80.02    0.86 
   5  -7   1   87.96    1.18 
  -7  -6   1    0.00    0.05 
  -6  -6   1    1.07    0.11 
  -5  -6   1    1.37    0.11 
  -4  -6   1    0.31    0.05 
  -3  -6   1   35.98    0.68 
  -2  -6   1   25.19    0.35 
  -1  -6   1   11.67    0.24 
   0  -6   1   45.98    0.49 
   1  -6   1   28.88    0.56 
   2  -6   1   64.94    0.69 
   3  -6   1    1.14    0.05 
   4  -6   1   28.22    0.35 
   5  -6   1    5.79    0.16 
   6  -6   1    6.03    0.24 
  -7  -5   1   14.61    0.42 
  -6  -5   1   22.31    0.53 
  -5  -5   1   14.90    0.38 
  -4  -5   1   17.97    0.40 
  -2  -5   1  273.57    4.54 
  -1  -5   1   45.94    0.57 
   0  -5   1   76.46    0.79 
   1  -5   1    0.83    0.04 
   2  -5   1   27.24    0.40 
   3  -5   1   59.82    0.64 
   4  -5   1   12.59    0.19 
   5  -5   1   12.32    0.25 
   6  -5   1   16.40    0.32 
  -7  -4   1   15.83    0.45 
  -6  -4   1   37.88    0.80 
  -5  -4   1   75.06    1.36 
  -4  -4   1   93.72    1.66 
  -3  -4   1  173.19    1.98 
  -2  -4   1  537.46    8.95 
  -1  -4   1  261.92    3.13 
   0  -4   1  381.86    3.90 
   1  -4   1  632.42    7.40 
   2  -4   1  240.51    2.39 
   3  -4   1  235.48    2.30 
   4  -4   1   34.20    0.40 
   5  -4   1   70.61    0.95 
   6  -4   1   36.57    0.56 
  -7  -3   1    2.63    0.18 
  -6  -3   1   24.85    0.57 
  -5  -3   1   68.74    0.85 
  -4  -3   1   66.88    0.80 
  -3  -3   1   71.61    0.84 
  -2  -3   1  309.44    3.54 
  -1  -3   1  111.24    1.31 
   0  -3   1  446.39    4.06 
   1  -3   1  341.38    3.44 
   2  -3   1  333.30    3.36 
   3  -3   1  158.54    1.55 
   4  -3   1    3.78    0.08 
   5  -3   1   99.45    1.27 
   6  -3   1   26.90    0.44 
  -7  -2   1    3.44    0.19 
  -6  -2   1    3.21    0.16 
  -5  -2   1   17.21    0.27 
  -4  -2   1   32.19    0.43 
  -3  -2   1   28.03    0.36 
  -2  -2   1    1.87    0.04 
   0  -2   1  165.96    1.44 
   1  -2   1  203.88    2.05 
   2  -2   1   19.81    0.22 
   3  -2   1    4.36    0.08 
   4  -2   1    0.27    0.03 
   5  -2   1    0.27    0.04 
   6  -2   1    1.93    0.11 
  -7  -1   1   23.58    0.58 
  -6  -1   1   24.57    0.38 
  -5  -1   1  193.83    2.23 
  -4  -1   1  185.84    2.15 
  -3  -1   1  128.48    1.47 
  -2  -1   1  241.64    2.83 
  -1  -1   1  970.12   12.16 
   0  -1   1  529.52    6.83 
   1  -1   1  438.34    4.33 
   2  -1   1  193.32    1.94 
   3  -1   1  153.00    1.51 
   4  -1   1  151.67    1.51 
   5  -1   1    0.28    0.04 
   6  -1   1   18.27    0.33 
   7  -1   1    6.40    0.29 
  -7   0   1   21.53    0.37 
  -6   0   1   41.34    0.57 
  -5   0   1   31.95    0.45 
  -4   0   1  140.66    1.63 
  -3   0   1  206.30    2.36 
  -2   0   1  348.37    4.04 
  -1   0   1  130.18    1.54 
   0   0   1  164.77    2.50 
   1   0   1   53.32    0.66 
   2   0   1  286.27    2.84 
   3   0   1  347.87    3.50 
   4   0   1  170.53    1.68 
   5   0   1   27.83    0.42 
   6   0   1   34.81    0.82 
   7   0   1   15.75    0.49 
  -7   1   1    0.00    0.03 
  -6   1   1    6.38    0.16 
  -5   1   1   37.51    0.51 
  -4   1   1    0.36    0.04 
  -3   1   1    1.15    0.05 
  -2   1   1   43.91    0.52 
  -1   1   1   58.31    0.54 
   0   1   1   19.68    0.20 
   1   1   1   42.30    0.42 
   2   1   1   43.28    0.44 
   3   1   1   49.34    0.51 
   4   1   1   40.41    0.44 
   5   1   1   46.66    0.64 
   6   1   1   68.51    1.44 
   7   1   1   22.48    0.63 
  -7   2   1   13.97    0.39 
  -6   2   1   22.29    0.36 
  -5   2   1   55.04    0.72 
  -4   2   1   93.20    1.12 
  -3   2   1  172.58    1.96 
  -2   2   1  209.97    2.42 
  -1   2   1   68.98    0.64 
   0   2   1    0.76    0.03 
   1   2   1  352.14    4.28 
   2   2   1  212.80    2.12 
   3   2   1    9.12    0.13 
   4   2   1   39.97    0.44 
   5   2   1    7.72    0.17 
   6   2   1    0.22    0.07 
   7   2   1    0.25    0.09 
  -6   3   1   49.67    0.96 
  -5   3   1   61.81    0.64 
  -4   3   1  179.41    1.67 
  -3   3   1  250.32    2.30 
  -2   3   1   70.80    0.67 
  -1   3   1  526.54    4.97 
   0   3   1  375.50    3.56 
   1   3   1  406.88    5.01 
   2   3   1   69.13    0.69 
   3   3   1  206.76    2.05 
   4   3   1  196.38    1.92 
   5   3   1  149.16    1.84 
   6   3   1   62.00    1.32 
   7   3   1   31.31    0.80 
  -6   4   1    6.88    0.26 
  -5   4   1    9.36    0.19 
  -4   4   1   26.55    0.31 
  -3   4   1   22.42    0.25 
  -2   4   1   91.14    0.85 
  -1   4   1  101.07    1.15 
   0   4   1  190.74    1.87 
   1   4   1   44.50    0.56 
   2   4   1   88.35    0.87 
   3   4   1   58.57    0.61 
   4   4   1  176.27    1.73 
   5   4   1   38.41    0.87 
   6   4   1   51.43    1.15 
   7   4   1   28.33    0.75 
  -6   5   1   14.49    0.27 
  -5   5   1    7.11    0.16 
  -4   5   1    9.93    0.19 
  -3   5   1    4.85    0.09 
  -2   5   1   28.94    0.30 
  -1   5   1    0.94    0.04 
   0   5   1    5.11    0.09 
   1   5   1   38.11    0.50 
   3   5   1    0.34    0.03 
   4   5   1    0.49    0.05 
   5   5   1    2.61    0.10 
   6   5   1    0.22    0.08 
   7   5   1    5.69    0.29 
  -6   6   1   40.63    0.59 
  -5   6   1   35.29    0.50 
  -4   6   1   82.57    1.01 
  -3   6   1  107.80    1.27 
  -2   6   1  146.81    1.67 
  -1   6   1  121.24    1.37 
   0   6   1  120.61    1.36 
   1   6   1  204.30    2.51 
   2   6   1   75.13    0.95 
   3   6   1   73.92    0.77 
   4   6   1   56.91    0.61 
   5   6   1   46.54    0.68 
   6   6   1   18.79    0.55 
   7   6   1   25.73    0.73 
  -6   7   1   27.89    0.62 
  -5   7   1   23.81    0.38 
  -4   7   1   64.02    0.81 
  -3   7   1   88.66    1.06 
  -2   7   1  157.19    1.79 
  -1   7   1  176.50    1.99 
   0   7   1  190.90    1.82 
   1   7   1  263.93    3.19 
   2   7   1  192.08    2.37 
   3   7   1  139.56    1.40 
   4   7   1   33.97    0.40 
   5   7   1   90.71    1.22 
   6   7   1   40.56    0.97 
  -5   8   1    0.31    0.05 
  -4   8   1    2.19    0.10 
  -3   8   1    0.70    0.08 
  -2   8   1    2.07    0.08 
  -1   8   1   14.12    0.19 
   0   8   1   10.36    0.14 
   1   8   1   27.63    0.41 
   2   8   1    8.73    0.18 
   3   8   1   32.13    0.38 
   4   8   1   19.63    0.35 
   5   8   1    4.69    0.15 
   6   8   1    2.37    0.21 
  -5   9   1   39.18    0.86 
  -4   9   1   25.95    0.41 
  -3   9   1   53.51    0.69 
  -2   9   1   43.98    0.57 
  -1   9   1   96.77    0.97 
   0   9   1   40.20    0.57 
   1   9   1   32.32    0.47 
   2   9   1   41.74    0.60 
   3   9   1    7.48    0.14 
   4   9   1   13.55    0.28 
   5   9   1    2.18    0.12 
   6   9   1    6.17    0.31 
  -4  10   1   29.73    0.46 
  -3  10   1   61.29    0.79 
  -2  10   1   43.10    0.50 
  -1  10   1   45.36    0.65 
   0  10   1  148.41    1.84 
   1  10   1   76.11    1.00 
   2  10   1   84.10    1.11 
   3  10   1   43.59    0.52 
   4  10   1   59.72    0.87 
   5  10   1   14.67    0.32 
   6  10   1   11.92    0.46 
  -4  11   1    2.20    0.16 
  -3  11   1    2.94    0.11 
  -2  11   1   11.63    0.26 
  -1  11   1   33.55    0.52 
   0  11   1   18.69    0.33 
   1  11   1   39.32    0.58 
   2  11   1   55.29    0.78 
   3  11   1   24.23    0.44 
   4  11   1   38.57    0.63 
   5  11   1   20.40    0.41 
  -2  12   1    5.51    0.17 
  -1  12   1    1.72    0.10 
   0  12   1    0.70    0.07 
   1  12   1    1.43    0.09 
   2  12   1    1.11    0.09 
   3  12   1    1.23    0.10 
   4  12   1    1.13    0.10 
   5  12   1    0.00    0.05 
  -1  13   1   34.44    0.55 
   0  13   1   21.71    0.39 
   1  13   1   42.89    0.65 
   2  13   1   34.50    0.56 
   3  13   1   35.95    0.62 
   4  13   1   11.92    0.31 
   0  14   1   22.81    0.41 
   1  14   1   25.84    0.45 
   2  14   1   44.60    0.73 
   3  14   1   17.02    0.53 
  -2 -13   2    0.25    0.08 
  -1 -13   2    0.12    0.06 
   0 -13   2    0.13    0.06 
   1 -13   2    0.32    0.07 
  -2 -12   2   22.14    0.56 
  -1 -12   2   48.19    1.00 
   0 -12   2   13.72    0.40 
   1 -12   2   15.46    0.43 
   2 -12   2   19.76    0.39 
  -2 -11   2   28.89    0.67 
  -1 -11   2   31.07    0.69 
   0 -11   2  109.51    1.99 
   1 -11   2   55.50    1.09 
   2 -11   2   45.99    0.71 
   3 -11   2   51.98    1.24 
  -6 -10   2    1.73    0.14 
  -5 -10   2   10.09    0.29 
  -4 -10   2    0.74    0.08 
  -1 -10   2   36.41    0.77 
   0 -10   2    6.46    0.23 
   1 -10   2   15.22    0.30 
   2 -10   2   24.13    0.42 
   3 -10   2   11.68    0.26 
  -6  -9   2    8.97    0.29 
  -5  -9   2    3.38    0.16 
  -4  -9   2   11.87    0.30 
  -3  -9   2    8.59    0.23 
  -2  -9   2   16.26    0.42 
  -1  -9   2   14.18    0.37 
   0  -9   2   21.33    0.48 
   1  -9   2   61.19    0.86 
   2  -9   2    8.07    0.20 
   3  -9   2    3.63    0.13 
   4  -9   2    4.95    0.26 
  -6  -8   2   18.93    0.47 
  -5  -8   2   40.83    0.81 
  -4  -8   2   38.57    0.74 
  -3  -8   2   51.36    0.92 
  -2  -8   2   97.91    1.63 
  -1  -8   2  109.92    1.35 
   0  -8   2  165.24    2.86 
   1  -8   2  129.69    1.68 
   2  -8   2   51.64    0.73 
   3  -8   2  102.28    1.07 
   4  -8   2   47.95    0.71 
   5  -8   2   32.80    0.54 
  -6  -7   2    4.52    0.20 
  -5  -7   2   13.98    0.36 
  -4  -7   2   91.99    1.59 
  -3  -7   2  133.31    2.23 
  -2  -7   2   66.38    1.14 
  -1  -7   2   64.18    0.81 
   0  -7   2  109.67    1.32 
   1  -7   2  137.61    1.78 
   2  -7   2   79.43    0.84 
   3  -7   2   91.85    0.96 
   4  -7   2   41.88    0.62 
   5  -7   2   24.36    0.42 
  -6  -6   2    4.65    0.20 
  -5  -6   2    0.50    0.07 
  -4  -6   2    0.76    0.08 
  -3  -6   2    0.63    0.06 
  -2  -6   2    2.87    0.10 
  -1  -6   2    5.22    0.11 
   0  -6   2    5.49    0.11 
   1  -6   2    0.60    0.04 
   2  -6   2   10.07    0.15 
   3  -6   2    0.30    0.03 
   4  -6   2    0.56    0.06 
   5  -6   2    3.46    0.13 
   6  -6   2    0.16    0.06 
  -7  -5   2   13.32    0.39 
  -6  -5   2   41.78    0.85 
  -5  -5   2   64.16    1.19 
  -4  -5   2  198.08    3.30 
  -3  -5   2  158.21    2.59 
  -2  -5   2  369.51    6.19 
  -1  -5   2   79.58    0.96 
   0  -5   2  211.05    2.14 
   1  -5   2  246.72    2.87 
   2  -5   2  295.40    2.91 
   3  -5   2   53.88    0.58 
   4  -5   2   30.44    0.46 
   5  -5   2   19.17    0.34 
   6  -5   2   19.98    0.37 
  -7  -4   2   25.56    0.60 
  -6  -4   2   24.21    0.56 
  -5  -4   2   72.67    1.33 
  -4  -4   2   63.26    1.14 
  -3  -4   2  194.17    3.23 
  -2  -4   2  407.14    6.88 
  -1  -4   2  179.62    2.53 
   0  -4   2  208.59    1.83 
   1  -4   2  295.72    3.01 
   2  -4   2   79.67    0.80 
   3  -4   2   81.65    0.84 
   4  -4   2  109.53    1.39 
   5  -4   2   69.92    0.94 
   6  -4   2   25.98    0.44 
  -7  -3   2   12.43    0.37 
  -6  -3   2    0.83    0.10 
  -5  -3   2    3.80    0.16 
  -4  -3   2    0.95    0.05 
  -3  -3   2    0.82    0.04 
  -2  -3   2   84.39    1.43 
  -1  -3   2    8.07    0.17 
   0  -3   2   10.28    0.11 
   1  -3   2    0.23    0.02 
   2  -3   2   54.87    0.56 
   3  -3   2   54.81    0.57 
   4  -3   2   12.97    0.23 
   5  -3   2   53.42    0.74 
   6  -3   2   22.66    0.40 
  -7  -2   2    3.94    0.20 
  -6  -2   2   24.42    0.56 
  -5  -2   2   42.44    0.56 
  -4  -2   2   69.36    0.83 
  -3  -2   2   77.84    0.92 
  -2  -2   2   75.86    0.87 
   0  -2   2   42.02    0.37 
   1  -2   2   26.51    0.28 
   2  -2   2   35.27    0.37 
   3  -2   2   53.18    0.56 
   4  -2   2    0.10    0.03 
   5  -2   2    2.39    0.10 
   6  -2   2    0.31    0.05 
  -7  -1   2   24.02    0.58 
  -6  -1   2   65.22    0.84 
  -5  -1   2   48.85    0.63 
  -4  -1   2  117.61    1.38 
  -3  -1   2  247.80    2.85 
  -2  -1   2  376.89    7.92 
  -1  -1   2  388.54    6.66 
   0  -1   2  349.99    3.44 
   1  -1   2  308.39    3.02 
   2  -1   2  324.81    3.22 
   3  -1   2  171.86    1.68 
   4  -1   2  213.14    2.57 
   5  -1   2   15.08    0.27 
   6  -1   2   82.16    1.09 
   7  -1   2   47.91    1.10 
  -7   0   2    5.12    0.15 
  -6   0   2   39.72    0.55 
  -5   0   2   24.47    0.36 
  -4   0   2   36.16    0.47 
  -3   0   2   15.19    0.22 
  -2   0   2   41.02    0.49 
  -1   0   2  479.75    4.59 
   0   0   2   39.82    0.46 
   1   0   2  543.43    6.53 
   2   0   2  370.21    4.56 
   3   0   2  102.66    1.02 
   4   0   2   84.72    0.86 
   5   0   2  144.31    1.79 
   6   0   2  103.65    1.35 
   7   0   2   29.31    0.75 
  -7   1   2    5.88    0.17 
  -6   1   2    8.31    0.18 
  -5   1   2    2.42    0.09 
  -4   1   2   15.73    0.24 
  -3   1   2   35.18    0.45 
  -2   1   2    1.80    0.04 
  -1   1   2    7.95    0.11 
   0   1   2   82.56    0.83 
   1   1   2    0.32    0.04 
   2   1   2    1.27    0.04 
   3   1   2   18.06    0.25 
   4   1   2    5.45    0.11 
   5   1   2    0.45    0.05 
   6   1   2    4.12    0.14 
   7   1   2    2.67    0.22 
  -7   2   2   15.32    0.41 
  -6   2   2   37.37    0.53 
  -5   2   2  103.39    1.26 
  -4   2   2   67.03    0.66 
  -3   2   2   71.05    0.69 
  -2   2   2   84.91    0.79 
  -1   2   2  289.21    2.70 
   0   2   2  362.68    3.71 
   1   2   2  154.88    2.83 
   2   2   2   78.32    0.77 
   3   2   2  132.64    1.30 
   4   2   2   90.69    0.92 
   5   2   2   66.34    0.88 
   6   2   2   19.92    0.55 
   7   2   2   25.27    0.68 
  -6   3   2   33.09    0.69 
  -5   3   2   50.81    0.54 
  -4   3   2  100.61    0.97 
  -3   3   2  246.81    2.26 
  -2   3   2   77.90    0.74 
  -1   3   2  432.26    3.98 
   0   3   2  223.48    2.17 
   1   3   2  333.19    4.12 
   2   3   2  365.05    3.64 
   3   3   2  337.33    3.39 
   4   3   2  190.15    1.86 
   5   3   2   66.00    0.88 
   6   3   2   50.58    1.12 
   7   3   2   44.04    1.05 
  -6   4   2    4.11    0.19 
  -5   4   2    0.39    0.05 
  -4   4   2   14.47    0.19 
  -3   4   2   16.89    0.20 
  -2   4   2   40.71    0.40 
  -1   4   2  105.98    1.20 
   0   4   2   94.57    1.13 
   1   4   2   67.92    1.27 
   2   4   2  105.62    1.04 
   3   4   2   53.59    0.56 
   4   4   2   51.17    0.55 
   5   4   2   14.49    0.26 
   6   4   2   19.00    0.54 
   7   4   2   11.83    0.43 
  -6   5   2   24.66    0.58 
  -5   5   2   31.39    0.45 
  -4   5   2   76.45    0.93 
  -3   5   2   46.85    0.59 
  -2   5   2  144.29    1.33 
  -1   5   2   28.59    0.36 
   0   5   2  181.64    1.79 
   1   5   2   12.32    0.19 
   2   5   2  116.16    1.40 
   3   5   2   46.86    0.50 
   4   5   2   11.13    0.17 
   5   5   2   12.93    0.25 
   6   5   2    5.66    0.27 
   7   5   2    5.92    0.30 
  -6   6   2   26.00    0.62 
  -5   6   2   68.61    0.87 
  -4   6   2   64.67    0.81 
  -3   6   2  143.15    1.64 
  -2   6   2  274.32    3.03 
  -1   6   2  138.88    1.57 
   0   6   2  292.67    2.88 
   1   6   2  301.35    3.83 
   2   6   2  173.79    2.09 
   3   6   2   97.83    0.99 
   4   6   2  112.84    1.15 
   5   6   2   74.16    1.54 
   6   6   2   16.75    0.51 
   7   6   2   20.49    0.62 
  -5   7   2    8.44    0.19 
  -4   7   2   23.51    0.36 
  -3   7   2   14.62    0.24 
  -2   7   2   35.30    0.46 
  -1   7   2   90.26    1.05 
   0   7   2  126.82    1.22 
   1   7   2   51.31    0.68 
   2   7   2  137.21    1.70 
   3   7   2  122.96    1.24 
   4   7   2   22.24    0.29 
   5   7   2   56.34    1.23 
   6   7   2   15.70    0.50 
  -5   8   2    3.56    0.13 
  -4   8   2    5.59    0.15 
  -3   8   2    7.57    0.16 
  -2   8   2    0.03    0.02 
  -1   8   2   24.71    0.29 
   0   8   2    4.52    0.08 
   1   8   2    0.23    0.03 
   2   8   2    0.88    0.10 
   3   8   2    0.22    0.03 
   4   8   2   16.93    0.24 
   5   8   2    0.57    0.10 
   6   8   2    0.53    0.11 
  -5   9   2   28.27    0.63 
  -4   9   2   32.17    0.47 
  -3   9   2   44.12    0.59 
  -2   9   2   33.13    0.45 
  -1   9   2   69.88    0.72 
   0   9   2  138.51    1.72 
   1   9   2   95.81    1.22 
   2   9   2   59.14    0.80 
   3   9   2   46.47    0.53 
   4   9   2   66.01    0.73 
   5   9   2    4.27    0.24 
   6   9   2    9.91    0.39 
  -4  10   2   25.47    0.40 
  -3  10   2   52.24    0.69 
  -2  10   2   51.14    0.57 
  -1  10   2  110.34    1.41 
   0  10   2   80.63    1.06 
   1  10   2  102.39    1.30 
   2  10   2  120.36    1.53 
   3  10   2   93.74    1.00 
   4  10   2   73.42    1.04 
   5  10   2   44.21    1.05 
   6  10   2   22.00    0.67 
  -4  11   2    3.23    0.18 
  -3  11   2    4.58    0.13 
  -2  11   2    3.81    0.14 
  -1  11   2   12.96    0.26 
   0  11   2    3.79    0.12 
   1  11   2    3.70    0.12 
   2  11   2   11.42    0.25 
   3  11   2   12.73    0.22 
   4  11   2   10.60    0.26 
   5  11   2    5.38    0.29 
  -2  12   2   26.66    0.46 
  -1  12   2    4.19    0.14 
   0  12   2   14.04    0.28 
   1  12   2   21.24    0.38 
   2  12   2   22.94    0.41 
   3  12   2   20.23    0.31 
   4  12   2    7.03    0.22 
   5  12   2    6.39    0.34 
  -2  13   2   22.76    0.71 
  -1  13   2   33.12    0.54 
   0  13   2   45.24    0.68 
   1  13   2   56.69    0.82 
   2  13   2   26.81    0.47 
   3  13   2   27.00    0.50 
   4  13   2   19.68    0.42 
   0  14   2   43.72    0.67 
   1  14   2    9.48    0.24 
   2  14   2    5.78    0.19 
   3  14   2    6.57    0.28 
  -1 -13   3    6.56    0.28 
   0 -13   3    4.47    0.22 
   1 -13   3    4.83    0.23 
  -1 -12   3   46.57    0.99 
   0 -12   3   39.69    0.85 
   1 -12   3   48.55    1.00 
   2 -12   3   36.44    0.60 
  -1 -11   3   13.84    0.40 
   0 -11   3   42.16    0.88 
   1 -11   3   22.60    0.54 
   2 -11   3   25.51    0.45 
   3 -11   3   37.40    0.98 
  -5 -10   3    2.84    0.15 
  -4 -10   3    1.34    0.11 
  -1 -10   3    5.82    0.23 
   0 -10   3   14.10    0.38 
   1 -10   3    0.80    0.07 
   2 -10   3    5.00    0.16 
   3 -10   3    2.08    0.20 
  -6  -9   3    9.63    0.31 
  -5  -9   3   26.14    0.57 
  -4  -9   3   62.79    1.15 
  -3  -9   3   29.39    0.58 
  -2  -9   3   67.79    1.20 
  -1  -9   3   89.59    1.66 
   0  -9   3   17.09    0.42 
   1  -9   3   57.57    0.82 
   2  -9   3   44.21    0.66 
   3  -9   3   39.64    0.96 
   4  -9   3   30.18    0.79 
  -6  -8   3   10.22    0.32 
  -5  -8   3   21.54    0.49 
  -4  -8   3  158.96    2.67 
  -3  -8   3  101.92    1.75 
  -2  -8   3  103.60    1.75 
  -1  -8   3  111.28    1.37 
   0  -8   3  125.81    2.19 
   1  -8   3  104.76    1.37 
   2  -8   3   33.39    0.40 
   3  -8   3  106.52    1.39 
   4  -8   3   41.67    0.63 
  -6  -7   3    1.05    0.11 
  -5  -7   3    0.70    0.08 
  -4  -7   3   11.18    0.29 
  -3  -7   3   12.94    0.30 
  -2  -7   3   31.51    0.60 
  -1  -7   3   33.75    0.47 
   0  -7   3   47.46    0.62 
   1  -7   3   16.71    0.23 
   2  -7   3    0.73    0.08 
   3  -7   3   12.89    0.20 
   4  -7   3   21.44    0.38 
   5  -7   3    9.60    0.23 
  -6  -6   3   11.55    0.33 
  -5  -6   3   26.48    0.56 
  -4  -6   3   35.01    0.68 
  -3  -6   3  159.71    2.66 
  -2  -6   3   26.62    0.50 
  -1  -6   3   30.53    0.42 
   0  -6   3   43.23    0.57 
   1  -6   3    7.17    0.12 
   2  -6   3   23.65    0.29 
   3  -6   3   12.02    0.18 
   4  -6   3   11.61    0.24 
   5  -6   3    0.87    0.07 
  -6  -5   3   45.12    0.90 
  -5  -5   3   26.88    0.57 
  -4  -5   3   43.37    0.81 
  -3  -5   3  190.01    3.17 
  -2  -5   3  107.86    1.81 
  -1  -5   3  308.31    3.73 
   0  -5   3  206.62    1.75 
   1  -5   3  113.44    0.98 
   2  -5   3   64.48    0.67 
   3  -5   3   12.33    0.18 
   4  -5   3  106.35    1.37 
   5  -5   3   49.69    0.72 
   6  -5   3    9.89    0.24 
  -7  -4   3   13.82    0.40 
  -6  -4   3   11.45    0.33 
  -5  -4   3   13.11    0.34 
  -4  -4   3   16.17    0.37 
  -3  -4   3  120.55    2.02 
  -2  -4   3   19.78    0.39 
  -1  -4   3  141.46    2.32 
   0  -4   3  172.37    1.49 
   1  -4   3  313.59    2.71 
   2  -4   3  305.38    3.01 
   3  -4   3   95.17    0.97 
   4  -4   3  125.77    1.57 
   5  -4   3   42.22    0.62 
   6  -4   3   50.80    0.74 
  -7  -3   3    2.34    0.17 
  -6  -3   3    7.00    0.24 
  -5  -3   3    6.22    0.21 
  -4  -3   3    6.34    0.12 
  -3  -3   3   10.07    0.24 
  -2  -3   3  143.47    2.40 
   0  -3   3    1.00    0.03 
   1  -3   3   41.62    0.37 
   2  -3   3   24.23    0.27 
   3  -3   3    2.63    0.06 
   4  -3   3   49.70    0.67 
   5  -3   3    3.12    0.11 
   6  -3   3    4.11    0.14 
  -7  -2   3   34.42    0.75 
  -6  -2   3   18.37    0.45 
  -5  -2   3   78.27    0.96 
  -4  -2   3   71.31    0.85 
  -3  -2   3   88.28    1.03 
  -2  -2   3   78.14    1.31 
  -1  -2   3  329.83    5.71 
   0  -2   3  183.51    1.87 
   1  -2   3  285.80    2.83 
   2  -2   3  308.83    3.08 
   3  -2   3  103.69    1.03 
   4  -2   3    4.06    0.12 
   5  -2   3   50.71    0.71 
   6  -2   3   28.54    0.47 
   7  -2   3   19.66    0.50 
  -7  -1   3    8.48    0.29 
  -6  -1   3   73.07    0.92 
  -5  -1   3   46.97    0.62 
  -4  -1   3   42.87    0.55 
  -3  -1   3  183.66    1.70 
  -2  -1   3  213.40    2.44 
   0  -1   3  628.06    6.94 
   1  -1   3  383.12    3.75 
   2  -1   3  397.40    3.95 
   3  -1   3  192.72    1.88 
   4  -1   3  210.00    2.55 
   5  -1   3  116.72    1.47 
   6  -1   3   49.86    0.71 
   7  -1   3   22.42    0.64 
  -7   0   3    1.27    0.09 
  -6   0   3   -0.02    0.03 
  -5   0   3   19.68    0.30 
  -4   0   3    4.13    0.10 
  -3   0   3   74.55    0.71 
  -2   0   3   62.11    0.58 
  -1   0   3  377.22    4.32 
   0   0   3   13.92    0.19 
   1   0   3   26.40    0.34 
   2   0   3  329.34    4.07 
   3   0   3   78.66    0.79 
   4   0   3   58.66    0.77 
   5   0   3   81.47    1.07 
   6   0   3   16.46    0.31 
   7   0   3    7.91    0.33 
  -7   1   3   11.67    0.24 
  -6   1   3   16.05    0.28 
  -5   1   3   38.18    0.52 
  -4   1   3   51.07    0.52 
  -3   1   3    0.16    0.02 
  -2   1   3   93.96    0.87 
  -1   1   3  103.37    0.98 
   0   1   3    0.47    0.02 
   1   1   3   37.23    0.47 
   2   1   3   79.40    0.97 
   3   1   3   72.89    0.74 
   4   1   3   13.02    0.23 
   5   1   3    7.73    0.18 
   6   1   3    1.56    0.10 
   7   1   3    0.33    0.09 
  -7   2   3   27.47    0.61 
  -6   2   3   57.22    0.76 
  -5   2   3   80.01    0.99 
  -4   2   3  188.25    1.76 
  -3   2   3  225.05    2.09 
  -2   2   3  349.06    3.26 
  -1   2   3  347.22    3.25 
   0   2   3  366.82    3.64 
   1   2   3  456.46    5.56 
   2   2   3  185.76    1.79 
   3   2   3  574.89    5.64 
   4   2   3  101.96    1.28 
   5   2   3   95.49    1.23 
   6   2   3   42.46    0.63 
   7   2   3   38.25    0.92 
  -6   3   3   13.01    0.36 
  -5   3   3   16.26    0.27 
  -4   3   3   67.89    0.68 
  -3   3   3   58.46    0.57 
  -2   3   3  247.32    2.33 
  -1   3   3  164.60    1.54 
   0   3   3  262.61    2.65 
   1   3   3  213.05    2.64 
   2   3   3  142.72    1.41 
   3   3   3  110.03    1.09 
   4   3   3   66.80    0.88 
   5   3   3   71.19    0.95 
   6   3   3   62.70    0.87 
   7   3   3   17.64    0.54 
  -6   4   3    3.80    0.18 
  -5   4   3   18.82    0.44 
  -4   4   3    2.23    0.06 
  -3   4   3   14.71    0.18 
  -2   4   3    0.02    0.01 
  -1   4   3    3.39    0.06 
   0   4   3    1.08    0.03 
   1   4   3   24.84    0.50 
   2   4   3    2.01    0.06 
   3   4   3    9.70    0.14 
   4   4   3    1.04    0.06 
   5   4   3    8.19    0.18 
   6   4   3   -0.06    0.05 
   7   4   3    1.91    0.19 
  -6   5   3   23.87    0.56 
  -5   5   3   40.18    0.55 
  -4   5   3   60.49    0.75 
  -3   5   3  120.39    1.38 
  -2   5   3  109.67    1.03 
  -1   5   3  134.72    1.51 
   0   5   3  159.56    1.57 
   1   5   3   92.12    1.12 
   2   5   3  121.35    1.48 
   3   5   3   28.18    0.32 
   4   5   3   72.67    0.76 
   5   5   3   22.12    0.37 
   6   5   3   10.78    0.38 
   7   5   3    6.27    0.30 
  -5   6   3   57.32    0.75 
  -4   6   3   29.39    0.41 
  -3   6   3  128.23    1.49 
  -2   6   3  174.28    1.95 
  -1   6   3  194.69    2.16 
   0   6   3  262.24    2.53 
   1   6   3  268.35    3.34 
   2   6   3  319.53    4.04 
   3   6   3  130.11    1.30 
   4   6   3  112.65    1.14 
   5   6   3   62.34    0.85 
   6   6   3   44.70    1.03 
   7   6   3   23.29    0.67 
  -5   7   3    0.92    0.07 
  -4   7   3    2.48    0.09 
  -3   7   3   20.03    0.30 
  -2   7   3   10.38    0.18 
  -1   7   3  103.47    1.02 
   0   7   3   49.24    0.51 
   1   7   3   25.81    0.38 
   2   7   3  107.52    1.34 
   3   7   3   43.11    0.48 
   4   7   3   39.96    0.46 
   5   7   3   23.02    0.39 
   6   7   3   17.21    0.53 
  -5   8   3   20.96    0.35 
  -4   8   3   34.41    0.49 
  -3   8   3   10.54    0.20 
  -2   8   3   16.22    0.25 
  -1   8   3  128.31    1.26 
   0   8   3   39.72    0.42 
   1   8   3   29.52    0.43 
   2   8   3   18.09    0.30 
   3   8   3   64.28    0.69 
   4   8   3    0.88    0.05 
   5   8   3    5.74    0.26 
   6   8   3    1.51    0.17 
  -5   9   3   20.19    0.49 
  -4   9   3   28.73    0.43 
  -3   9   3   69.27    0.86 
  -2   9   3  183.19    2.07 
  -1   9   3   70.18    0.72 
   0   9   3  177.88    2.19 
   1   9   3  117.62    1.47 
   2   9   3   99.18    1.27 
   3   9   3  119.75    1.24 
   4   9   3   79.65    0.86 
   5   9   3   23.38    0.64 
   6   9   3   17.08    0.55 
  -4  10   3   16.42    0.30 
  -3  10   3   16.40    0.28 
  -2  10   3   34.35    0.41 
  -1  10   3   69.76    0.94 
   0  10   3   41.66    0.60 
   1  10   3   45.34    0.64 
   2  10   3   75.12    1.00 
   3  10   3   47.78    0.56 
   4  10   3    9.40    0.18 
   5  10   3   32.31    0.83 
   6  10   3   25.69    0.75 
  -4  11   3    3.89    0.19 
  -3  11   3    0.63    0.06 
  -2  11   3    1.13    0.09 
  -1  11   3    1.61    0.09 
   0  11   3    0.80    0.07 
   1  11   3    2.56    0.10 
   2  11   3    0.45    0.05 
   3  11   3    1.33    0.07 
   4  11   3    0.27    0.05 
   5  11   3    1.77    0.19 
  -3  12   3   20.11    0.64 
  -2  12   3   25.99    0.45 
  -1  12   3   52.71    0.76 
   0  12   3   59.03    0.83 
   1  12   3   76.42    1.04 
   2  12   3    5.48    0.17 
   3  12   3   22.90    0.34 
   4  12   3   13.74    0.31 
   5  12   3   13.08    0.50 
  -2  13   3   34.84    0.88 
  -1  13   3   42.50    0.65 
   0  13   3   39.57    0.61 
   1  13   3   33.52    0.54 
   2  13   3   11.96    0.28 
   3  13   3   40.73    0.53 
   4  13   3   27.54    0.52 
   0  14   3    0.97    0.09 
   1  14   3    6.98    0.20 
   2  14   3    1.25    0.10 
   3  14   3   17.68    0.51 
  -1 -13   4   26.66    0.67 
   0 -13   4    7.63    0.30 
  -1 -12   4   41.11    0.90 
   0 -12   4   14.71    0.43 
   1 -12   4   36.04    0.79 
  -1 -11   4   10.11    0.33 
   0 -11   4    0.46    0.08 
   1 -11   4   28.26    0.64 
   2 -11   4   10.54    0.27 
  -5 -10   4    6.96    0.25 
  -4 -10   4    8.62    0.26 
  -1 -10   4    6.50    0.25 
   0 -10   4   16.18    0.42 
   1 -10   4    1.69    0.13 
   2 -10   4   12.60    0.28 
   3 -10   4    5.06    0.28 
  -5  -9   4   64.43    1.20 
  -4  -9   4   36.14    0.72 
  -3  -9   4   32.60    0.65 
  -2  -9   4   43.54    0.83 
  -1  -9   4   83.79    1.57 
   0  -9   4   78.42    1.45 
   1  -9   4   15.94    0.30 
   2  -9   4   52.42    0.76 
   3  -9   4   10.51    0.25 
   4  -9   4   13.60    0.30 
  -6  -8   4   15.79    0.42 
  -5  -8   4   13.51    0.36 
  -4  -8   4    5.31    0.20 
  -3  -8   4   20.45    0.45 
  -2  -8   4   19.02    0.42 
  -1  -8   4   80.32    1.02 
   0  -8   4  101.47    1.82 
   1  -8   4   28.81    0.36 
   2  -8   4   74.61    0.81 
   3  -8   4   42.48    0.64 
   4  -8   4   40.72    0.63 
  -6  -7   4    0.82    0.10 
  -4  -7   4    1.42    0.11 
  -3  -7   4    2.74    0.12 
  -2  -7   4    8.09    0.22 
  -1  -7   4    0.39    0.04 
   0  -7   4    0.68    0.07 
   1  -7   4    0.59    0.04 
   2  -7   4  100.92    1.04 
   3  -7   4   18.48    0.33 
   4  -7   4   18.41    0.34 
   5  -7   4    1.44    0.10 
  -6  -6   4   22.94    0.54 
  -5  -6   4   21.55    0.49 
  -4  -6   4   44.38    0.84 
  -3  -6   4   42.29    0.79 
  -2  -6   4   86.87    1.51 
  -1  -6   4   50.10    0.91 
   0  -6   4  157.49    1.51 
   1  -6   4   41.17    0.39 
   2  -6   4   30.50    0.36 
   3  -6   4   45.79    0.65 
   4  -6   4   23.69    0.40 
   5  -6   4    6.95    0.19 
  -6  -5   4    7.84    0.27 
  -5  -5   4   47.77    0.92 
  -4  -5   4   58.00    1.06 
  -3  -5   4  131.03    2.19 
  -2  -5   4   71.27    1.23 
  -1  -5   4  120.18    2.01 
   0  -5   4  179.85    1.71 
   1  -5   4  354.02    3.05 
   2  -5   4  224.66    2.21 
   3  -5   4  175.15    2.16 
   4  -5   4   94.62    1.23 
   5  -5   4   71.03    0.98 
   6  -5   4   19.00    0.37 
  -6  -4   4    0.07    0.05 
  -5  -4   4    7.30    0.23 
  -4  -4   4   12.84    0.31 
  -3  -4   4   16.32    0.35 
  -2  -4   4    3.83    0.12 
  -1  -4   4   80.35    0.93 
   0  -4   4  189.53    1.82 
   1  -4   4    8.48    0.11 
   2  -4   4   50.56    0.53 
   3  -4   4  123.52    1.55 
   4  -4   4   46.56    0.66 
   5  -4   4   49.13    0.70 
   6  -4   4   19.55    0.37 
  -7  -3   4    5.10    0.22 
  -6  -3   4    8.81    0.28 
  -5  -3   4    9.54    0.27 
  -4  -3   4   23.35    0.49 
  -3  -3   4   15.38    0.34 
  -2  -3   4    5.62    0.15 
  -1  -3   4   12.93    0.18 
   0  -3   4    6.07    0.09 
   1  -3   4   88.96    0.77 
   2  -3   4   21.02    0.24 
   3  -3   4   23.98    0.36 
   4  -3   4    4.47    0.13 
   5  -3   4    3.52    0.12 
   6  -3   4    5.35    0.16 
  -7  -2   4   30.17    0.68 
  -6  -2   4   28.18    0.61 
  -5  -2   4   50.32    0.64 
  -4  -2   4  103.57    1.22 
  -3  -2   4  141.77    2.39 
  -2  -2   4  231.25    3.96 
  -1  -2   4  248.97    2.90 
   0  -2   4  239.87    2.42 
   1  -2   4  396.63    3.39 
   2  -2   4  161.40    1.58 
   3  -2   4  171.02    2.07 
   4  -2   4  241.40    2.92 
   5  -2   4   65.15    0.88 
   6  -2   4   26.83    0.45 
   7  -2   4    5.84    0.25 
  -7  -1   4    3.87    0.19 
  -6  -1   4   50.20    0.67 
  -5  -1   4   23.08    0.34 
  -4  -1   4   67.41    0.82 
  -3  -1   4  178.75    2.04 
  -2  -1   4  267.71    4.67 
  -1  -1   4  186.64    2.14 
   0  -1   4  244.99    2.90 
   1  -1   4  368.73    3.72 
   2  -1   4  169.57    2.03 
   3  -1   4  194.25    2.37 
   4  -1   4   91.87    1.18 
   5  -1   4  101.17    1.30 
   6  -1   4   65.88    0.92 
   7  -1   4   15.45    0.43 
  -7   0   4    1.59    0.10 
  -6   0   4   15.85    0.27 
  -5   0   4    0.14    0.03 
  -4   0   4    0.06    0.02 
  -3   0   4    3.17    0.05 
  -2   0   4   12.10    0.14 
  -1   0   4   54.73    0.64 
   0   0   4    8.76    0.14 
   1   0   4   16.70    0.23 
   2   0   4    1.85    0.06 
   3   0   4    0.08    0.02 
   4   0   4    0.24    0.03 
   5   0   4    3.32    0.11 
   6   0   4    7.75    0.20 
   7   0   4    5.36    0.17 
  -7   1   4   31.50    0.48 
  -6   1   4   16.50    0.28 
  -5   1   4   92.47    1.13 
  -4   1   4  107.67    1.28 
  -3   1   4   65.84    0.63 
  -2   1   4  235.23    2.22 
  -1   1   4  170.26    2.01 
   0   1   4  205.30    2.43 
   1   1   4   75.33    1.35 
   2   1   4  230.26    2.85 
   3   1   4   55.90    0.73 
   4   1   4   39.13    0.55 
   5   1   4   41.15    0.60 
   6   1   4   18.09    0.34 
   7   1   4   13.85    0.45 
  -6   2   4   15.44    0.28 
  -5   2   4   41.58    0.56 
  -4   2   4   82.26    1.00 
  -3   2   4  231.49    2.14 
  -2   2   4  218.01    2.02 
  -1   2   4  249.78    2.94 
   0   2   4  385.90    3.80 
   1   2   4  281.17    3.46 
   2   2   4  177.77    2.13 
   3   2   4  186.66    2.25 
   4   2   4   91.76    1.16 
   5   2   4   94.14    1.22 
   6   2   4   41.29    0.62 
   7   2   4   41.17    0.98 
  -6   3   4    0.38    0.08 
  -5   3   4    5.53    0.13 
  -4   3   4   22.50    0.26 
  -3   3   4    8.12    0.13 
  -2   3   4  133.75    1.24 
  -1   3   4   60.14    0.57 
   0   3   4  436.38    4.32 
   1   3   4   54.61    0.67 
   2   3   4  199.62    2.47 
   3   3   4   74.86    0.75 
   4   3   4   67.58    0.89 
   5   3   4   34.82    0.52 
   6   3   4   20.80    0.37 
   7   3   4   21.25    0.61 
  -6   4   4    8.48    0.28 
  -5   4   4    6.56    0.23 
  -4   4   4   40.44    0.43 
  -3   4   4   45.54    0.46 
  -2   4   4   54.69    0.53 
  -1   4   4   17.42    0.19 
   0   4   4   39.67    0.51 
   1   4   4   34.88    0.46 
   2   4   4    6.82    0.13 
   3   4   4    6.99    0.11 
   4   4   4    6.89    0.16 
   5   4   4    0.07    0.03 
   6   4   4    7.36    0.19 
   7   4   4    0.02    0.07 
  -6   5   4   28.13    0.63 
  -5   5   4   45.54    0.87 
  -4   5   4   69.10    0.85 
  -3   5   4  154.50    1.75 
  -2   5   4  265.37    2.45 
  -1   5   4  366.61    4.15 
   0   5   4  274.85    3.45 
   1   5   4  495.24    6.20 
   2   5   4  214.69    2.55 
   3   5   4  118.46    1.18 
   4   5   4  116.34    1.46 
   5   5   4   64.65    0.88 
   6   5   4   30.72    0.50 
   7   5   4   10.20    0.39 
  -5   6   4   18.18    0.44 
  -4   6   4   25.04    0.37 
  -3   6   4   60.12    0.74 
  -2   6   4   97.14    1.13 
  -1   6   4  151.58    1.71 
   0   6   4  200.74    2.44 
   1   6   4  167.17    2.03 
   2   6   4  121.57    1.49 
   3   6   4  189.90    1.88 
   4   6   4   45.27    0.64 
   5   6   4   47.39    0.68 
   6   6   4   40.94    0.96 
   7   6   4   13.66    0.48 
  -5   7   4    0.03    0.03 
  -4   7   4    1.01    0.07 
  -3   7   4    0.26    0.04 
  -2   7   4   10.16    0.18 
  -1   7   4   36.25    0.40 
   0   7   4    0.32    0.03 
   1   7   4    7.27    0.15 
   2   7   4    0.76    0.07 
   3   7   4    0.60    0.08 
   4   7   4   17.06    0.30 
   5   7   4    5.18    0.15 
   6   7   4    2.24    0.20 
  -5   8   4   19.47    0.33 
  -4   8   4   40.90    0.56 
  -3   8   4   48.71    0.63 
  -2   8   4   63.21    0.78 
  -1   8   4  141.19    1.38 
   0   8   4   64.30    0.66 
   1   8   4  120.46    1.50 
   2   8   4   99.96    1.27 
   3   8   4   41.08    0.59 
   4   8   4   28.28    0.45 
   5   8   4    1.88    0.11 
   6   8   4    6.73    0.31 
  -5   9   4   41.18    0.84 
  -4   9   4   57.11    0.75 
  -3   9   4   56.56    0.73 
  -2   9   4   93.54    1.11 
  -1   9   4   68.51    0.71 
   0   9   4   80.72    1.05 
   1   9   4  188.50    2.31 
   2   9   4  120.85    1.53 
   3   9   4   73.61    0.99 
   4   9   4   52.47    0.75 
   5   9   4   39.15    0.93 
   6   9   4   45.67    1.10 
  -4  10   4    4.67    0.14 
  -3  10   4    2.51    0.10 
  -2  10   4   15.28    0.23 
  -1  10   4   27.21    0.43 
   0  10   4    0.22    0.04 
   1  10   4   12.28    0.24 
   2  10   4   15.40    0.29 
   3  10   4   29.40    0.48 
   4  10   4   24.11    0.42 
   5  10   4   18.87    0.57 
   6  10   4   21.29    0.66 
  -3  11   4    3.63    0.11 
  -2  11   4    7.78    0.20 
  -1  11   4   21.64    0.37 
   0  11   4   36.87    0.55 
   1  11   4    0.59    0.06 
   2  11   4   11.92    0.25 
   3  11   4    2.09    0.12 
   4  11   4    3.50    0.14 
   5  11   4    0.60    0.12 
  -3  12   4   42.74    1.06 
  -2  12   4   30.89    0.50 
  -1  12   4   49.43    0.72 
   0  12   4   18.16    0.33 
   1  12   4   11.64    0.25 
   2  12   4   32.39    0.53 
   3  12   4   53.79    0.80 
   4  12   4   24.63    0.70 
   5  12   4   13.68    0.50 
  -2  13   4   24.49    0.68 
  -1  13   4   20.88    0.38 
   0  13   4   39.84    0.61 
   1  13   4   15.77    0.32 
   2  13   4   43.69    0.67 
   3  13   4   25.80    0.38 
   4  13   4   27.06    0.77 
   0  14   4    1.55    0.10 
   1  14   4    4.32    0.16 
   2  14   4    3.45    0.15 
   3  14   4    1.44    0.09 
   0 -12   5   24.30    0.60 
   1 -12   5   32.37    0.73 
   0 -11   5    1.54    0.14 
   1 -11   5    2.04    0.16 
   2 -11   5    5.67    0.28 
  -5 -10   5   33.33    0.72 
  -4 -10   5    9.52    0.29 
   0 -10   5    6.23    0.24 
   1 -10   5    5.81    0.23 
   2 -10   5   15.35    0.50 
   3 -10   5    4.91    0.28 
  -5  -9   5   26.58    0.59 
  -4  -9   5   10.11    0.29 
  -3  -9   5   51.24    0.97 
  -2  -9   5   76.80    1.39 
   0  -9   5   61.93    1.18 
   1  -9   5   47.57    0.70 
   2  -9   5   71.63    0.99 
   3  -9   5   87.11    1.19 
   4  -9   5   42.57    1.05 
  -5  -8   5    0.63    0.08 
  -4  -8   5    0.42    0.07 
  -3  -8   5   34.70    0.71 
  -2  -8   5   40.43    0.78 
  -1  -8   5   23.54    0.51 
   0  -8   5   31.88    0.68 
   1  -8   5   38.87    0.46 
   2  -8   5   97.41    1.28 
   3  -8   5   28.14    0.47 
   4  -8   5   20.17    0.38 
  -6  -7   5    1.89    0.15 
  -5  -7   5    3.58    0.16 
  -4  -7   5   18.73    0.43 
  -3  -7   5   11.96    0.30 
  -2  -7   5    7.96    0.23 
  -1  -7   5    9.94    0.27 
   0  -7   5    0.65    0.04 
   1  -7   5    4.33    0.08 
   2  -7   5    1.25    0.06 
   3  -7   5   12.65    0.26 
   4  -7   5    4.44    0.15 
   5  -7   5    2.49    0.14 
  -6  -6   5   10.04    0.31 
  -5  -6   5   16.83    0.42 
  -4  -6   5   71.33    1.29 
  -3  -6   5   35.94    0.69 
  -2  -6   5  105.14    1.82 
  -1  -6   5  111.02    1.90 
   0  -6   5  155.87    1.51 
   1  -6   5  120.36    1.06 
   2  -6   5   75.90    0.80 
   3  -6   5   89.37    1.17 
   4  -6   5   46.82    0.68 
   5  -6   5   25.21    0.44 
  -6  -5   5    7.82    0.27 
  -5  -5   5   49.48    0.95 
  -4  -5   5   19.57    0.43 
  -3  -5   5   37.24    0.71 
  -2  -5   5  117.76    2.03 
  -1  -5   5  229.79    3.80 
   0  -5   5  152.37    1.78 
   1  -5   5  169.28    1.45 
   2  -5   5   92.32    0.95 
   3  -5   5  120.10    1.51 
   4  -5   5   84.99    1.12 
   5  -5   5   45.58    0.68 
  -6  -4   5    0.01    0.04 
  -5  -4   5    0.24    0.05 
  -4  -4   5    1.90    0.10 
  -3  -4   5    2.46    0.11 
  -2  -4   5    0.79    0.06 
  -1  -4   5   11.90    0.18 
   0  -4   5   13.48    0.21 
   1  -4   5    0.09    0.02 
   2  -4   5   13.50    0.18 
   3  -4   5   42.91    0.59 
   4  -4   5    1.11    0.08 
   5  -4   5    1.32    0.09 
   6  -4   5   12.87    0.28 
  -6  -3   5   23.59    0.54 
  -5  -3   5   18.94    0.44 
  -4  -3   5   86.47    1.53 
  -3  -3   5   68.43    1.22 
  -1  -3   5  291.36    3.42 
   0  -3   5  163.52    1.90 
   1  -3   5  112.06    1.12 
   2  -3   5   51.70    0.54 
   3  -3   5  128.23    1.59 
   4  -3   5   20.13    0.34 
   5  -3   5   27.89    0.45 
   6  -3   5    6.02    0.18 
  -7  -2   5   11.63    0.38 
  -6  -2   5   48.10    0.94 
  -5  -2   5   38.82    0.52 
  -4  -2   5  108.44    1.87 
  -3  -2   5   98.25    1.69 
  -2  -2   5  335.45    5.92 
  -1  -2   5   43.01    0.52 
   0  -2   5  271.24    3.22 
   1  -2   5  369.75    3.71 
   2  -2   5  168.15    1.64 
   3  -2   5   86.18    1.09 
   4  -2   5  155.19    1.91 
   5  -2   5   49.73    0.71 
   6  -2   5   28.60    0.47 
  -7  -1   5    0.32    0.07 
  -6  -1   5    2.52    0.10 
  -5  -1   5    3.13    0.10 
  -4  -1   5   42.03    0.54 
  -3  -1   5   18.44    0.39 
  -2  -1   5   36.11    0.66 
  -1  -1   5  199.52    2.33 
   0  -1   5   61.56    0.74 
   1  -1   5   76.51    0.76 
   2  -1   5   53.34    1.02 
   3  -1   5  118.15    2.18 
   4  -1   5   16.14    0.28 
   5  -1   5   60.08    0.83 
   6  -1   5   35.14    0.55 
   7  -1   5   14.55    0.42 
  -7   0   5    4.39    0.20 
  -6   0   5    8.28    0.18 
  -5   0   5   14.72    0.25 
  -4   0   5    8.58    0.16 
  -3   0   5   25.61    0.34 
  -2   0   5    3.48    0.06 
  -1   0   5   49.03    0.79 
   0   0   5    0.50    0.03 
   1   0   5    5.67    0.08 
   2   0   5   45.39    0.59 
   3   0   5    1.92    0.07 
   4   0   5    0.25    0.03 
   5   0   5    0.02    0.03 
   6   0   5    2.81    0.12 
   7   0   5    2.27    0.18 
  -7   1   5   18.65    0.33 
  -6   1   5   11.69    0.23 
  -5   1   5   76.72    0.95 
  -4   1   5  106.98    1.27 
  -3   1   5  191.47    2.20 
  -2   1   5  233.24    2.74 
  -1   1   5  341.98    4.03 
   0   1   5  346.48    4.10 
   1   1   5  292.94    3.56 
   2   1   5  191.42    2.29 
   3   1   5  134.03    1.64 
   4   1   5  119.16    1.49 
   5   1   5   54.61    0.76 
   6   1   5   29.30    0.48 
   7   1   5   28.07    0.48 
  -6   2   5   20.66    0.34 
  -5   2   5   58.19    0.74 
  -4   2   5   48.06    0.61 
  -3   2   5  143.75    1.34 
  -2   2   5  154.70    1.43 
  -1   2   5  346.79    4.06 
   0   2   5  482.78    5.69 
   1   2   5  322.84    3.93 
   2   2   5  261.96    3.23 
   3   2   5  138.45    1.68 
   4   2   5  146.09    1.80 
   5   2   5   49.23    0.70 
   6   2   5   56.35    0.80 
   7   2   5   25.51    0.45 
  -6   3   5    0.01    0.04 
  -5   3   5    0.14    0.03 
  -4   3   5    0.36    0.04 
  -3   3   5    7.16    0.10 
  -2   3   5    1.50    0.04 
  -1   3   5    2.77    0.07 
   0   3   5    5.10    0.07 
   1   3   5    0.47    0.03 
   2   3   5   24.57    0.35 
   3   3   5   14.68    0.24 
   4   3   5   12.96    0.24 
   5   3   5    5.54    0.15 
   6   3   5    5.15    0.16 
   7   3   5    2.83    0.23 
  -6   4   5   44.59    0.88 
  -5   4   5   14.63    0.37 
  -4   4   5   72.74    1.26 
  -3   4   5   72.81    0.71 
  -2   4   5  121.22    1.13 
  -1   4   5  204.87    2.39 
   0   4   5  328.33    3.30 
   1   4   5  185.56    2.56 
   2   4   5   57.54    0.74 
   3   4   5   39.64    0.55 
   4   4   5   32.22    0.48 
   5   4   5   12.22    0.25 
   6   4   5    3.46    0.13 
   7   4   5    2.04    0.20 
  -6   5   5   22.19    0.53 
  -5   5   5   54.76    1.02 
  -4   5   5   96.06    1.14 
  -3   5   5  123.94    1.43 
  -2   5   5  168.97    1.56 
  -1   5   5  164.69    1.51 
   0   5   5  100.08    1.23 
   1   5   5  386.97    4.79 
   2   5   5  245.38    2.92 
   3   5   5  123.25    1.55 
   4   5   5  125.89    1.58 
   5   5   5   54.94    0.77 
   6   5   5   25.16    0.43 
   7   5   5   17.23    0.54 
  -5   6   5    5.62    0.22 
  -4   6   5   52.06    0.67 
  -3   6   5   36.11    0.48 
  -2   6   5    0.75    0.05 
  -1   6   5   38.66    0.42 
   0   6   5   72.59    0.92 
   1   6   5   58.23    0.75 
   2   6   5   21.60    0.33 
   3   6   5  130.68    1.32 
   4   6   5   70.76    0.95 
   5   6   5   41.87    0.62 
   6   6   5   39.40    0.61 
   7   6   5   21.66    0.68 
  -5   7   5   13.79    0.37 
  -4   7   5   28.02    0.41 
  -3   7   5   51.48    0.66 
  -2   7   5    2.82    0.08 
  -1   7   5   25.58    0.30 
   0   7   5   16.84    0.27 
   1   7   5   23.97    0.36 
   2   7   5   40.48    0.56 
   3   7   5   23.92    0.38 
   4   7   5   15.83    0.29 
   5   7   5    0.11    0.04 
   6   7   5    0.03    0.06 
  -5   8   5   35.12    0.74 
  -4   8   5   56.21    0.73 
  -3   8   5   82.56    1.01 
  -2   8   5  122.01    1.41 
  -1   8   5   49.84    0.53 
   0   8   5   90.85    1.15 
   1   8   5  121.81    1.52 
   2   8   5  102.96    1.31 
   3   8   5   28.90    0.45 
   4   8   5  106.60    1.38 
   5   8   5   67.40    0.94 
   6   8   5   14.32    0.48 
  -4   9   5   11.59    0.23 
  -3   9   5   39.89    0.55 
  -2   9   5   52.39    0.58 
  -1   9   5   90.65    0.92 
   0   9   5   26.03    0.40 
   1   9   5   52.02    0.71 
   2   9   5   67.54    0.90 
   3   9   5   69.55    0.94 
   4   9   5   53.44    0.76 
   5   9   5   72.57    1.01 
   6   9   5   40.45    1.00 
  -4  10   5    1.06    0.08 
  -3  10   5    0.26    0.04 
  -2  10   5    0.32    0.08 
  -1  10   5    1.44    0.06 
   0  10   5    6.12    0.15 
   1  10   5   54.84    0.76 
   2  10   5    7.82    0.19 
   3  10   5    2.04    0.11 
   4  10   5    3.40    0.13 
   5  10   5    9.98    0.25 
   6  10   5    4.93    0.29 
  -3  11   5   24.25    0.34 
  -2  11   5   43.21    0.65 
  -1  11   5   20.36    0.36 
   0  11   5   19.40    0.34 
   1  11   5    1.59    0.09 
   2  11   5   33.50    0.53 
   3  11   5   27.24    0.46 
   4  11   5    7.89    0.22 
   5  11   5   11.22    0.42 
  -3  12   5   43.73    1.06 
  -2  12   5   38.59    0.60 
  -1  12   5   74.52    1.02 
   0  12   5  104.88    1.37 
   1  12   5   67.38    0.93 
   2  12   5  100.90    1.34 
   3  12   5   35.42    0.58 
   4  12   5   26.05    0.48 
   5  12   5   32.93    0.89 
  -2  13   5   13.24    0.44 
  -1  13   5   10.84    0.25 
   0  13   5   31.82    0.52 
   1  13   5   10.12    0.24 
   2  13   5   45.30    0.70 
   3  13   5   13.18    0.30 
   4  13   5   13.87    0.33 
   0  14   5   19.83    0.39 
   1  14   5    7.62    0.21 
   2  14   5    2.66    0.15 
   3  14   5    3.12    0.17 
  -4 -10   6   18.90    0.47 
  -3 -10   6   25.55    0.59 
   1 -10   6   39.07    0.82 
   2 -10   6   34.70    0.87 
   3 -10   6   29.22    0.81 
  -5  -9   6    2.62    0.18 
  -4  -9   6   11.45    0.33 
  -3  -9   6   37.50    0.77 
  -2  -9   6   45.64    0.90 
   1  -9   6  132.55    2.34 
   2  -9   6   28.06    0.47 
   3  -9   6   30.73    0.52 
  -5  -8   6    0.68    0.09 
  -4  -8   6    1.83    0.13 
  -3  -8   6    0.73    0.08 
  -2  -8   6    6.00    0.22 
  -1  -8   6    1.12    0.11 
   0  -8   6   14.83    0.36 
   1  -8   6   16.59    0.24 
   2  -8   6   10.01    0.23 
   3  -8   6    2.99    0.13 
   4  -8   6   11.22    0.27 
  -5  -7   6    9.16    0.29 
  -4  -7   6   16.65    0.41 
  -3  -7   6   16.09    0.39 
  -2  -7   6   33.71    0.68 
  -1  -7   6   72.27    1.31 
   0  -7   6   71.58    0.89 
   1  -7   6   30.29    0.32 
   2  -7   6   35.20    0.54 
   3  -7   6    4.55    0.15 
   4  -7   6   13.25    0.28 
  -6  -6   6   31.93    0.70 
  -5  -6   6   29.02    0.62 
  -4  -6   6   43.15    0.85 
  -3  -6   6   57.93    1.08 
  -2  -6   6   84.35    1.50 
  -1  -6   6  197.79    3.34 
   0  -6   6   78.26    0.96 
   1  -6   6  157.63    1.36 
   2  -6   6  136.59    1.72 
   3  -6   6   84.77    1.12 
   4  -6   6   52.94    0.76 
   5  -6   6   35.06    0.56 
  -6  -5   6    6.39    0.24 
  -5  -5   6    8.42    0.26 
  -4  -5   6   13.44    0.34 
  -3  -5   6   27.20    0.56 
  -2  -5   6   20.64    0.45 
  -1  -5   6   42.81    0.81 
   0  -5   6    9.92    0.18 
   1  -5   6   59.78    0.55 
   2  -5   6   51.03    0.70 
   3  -5   6   70.91    0.94 
   4  -5   6   31.96    0.50 
   5  -5   6   11.69    0.26 
  -6  -4   6    2.35    0.16 
  -5  -4   6   14.77    0.38 
  -4  -4   6    1.99    0.11 
  -3  -4   6    3.35    0.13 
  -2  -4   6   19.74    0.43 
  -1  -4   6    1.12    0.05 
   0  -4   6   27.61    0.38 
   1  -4   6    0.50    0.04 
   2  -4   6    6.07    0.14 
   3  -4   6    5.95    0.15 
   4  -4   6    1.21    0.08 
   5  -4   6    1.34    0.09 
   6  -4   6    3.91    0.21 
  -6  -3   6   14.38    0.38 
  -5  -3   6   32.87    0.68 
  -4  -3   6   70.18    1.27 
  -3  -3   6  103.14    1.81 
  -2  -3   6   57.01    1.03 
  -1  -3   6  124.74    1.45 
   0  -3   6  193.22    2.28 
   1  -3   6   69.78    0.73 
   2  -3   6  120.32    1.48 
   3  -3   6   76.97    0.99 
   4  -3   6   52.00    0.72 
   5  -3   6   39.27    0.59 
   6  -3   6   10.37    0.24 
  -6  -2   6   30.10    0.65 
  -5  -2   6   47.22    0.91 
  -4  -2   6   54.76    1.01 
  -3  -2   6   87.14    1.53 
  -2  -2   6  378.56    6.62 
  -1  -2   6   61.85    0.74 
   0  -2   6  273.60    3.23 
   1  -2   6  190.31    1.87 
   2  -2   6  218.23    2.61 
   3  -2   6  103.15    1.29 
   4  -2   6  120.55    1.52 
   5  -2   6   89.58    1.17 
   6  -2   6   41.82    0.64 
  -6  -1   6    4.09    0.12 
  -5  -1   6    2.21    0.08 
  -4  -1   6    6.47    0.20 
  -3  -1   6    2.17    0.10 
  -1  -1   6   42.12    0.69 
   0  -1   6   39.00    0.49 
   1  -1   6    4.22    0.07 
   2  -1   6   41.78    0.55 
   3  -1   6   27.62    0.41 
   4  -1   6    5.13    0.14 
   5  -1   6   17.58    0.32 
   6  -1   6    7.37    0.20 
  -6   0   6   20.31    0.33 
  -5   0   6   54.54    0.70 
  -4   0   6  102.70    1.22 
  -3   0   6   71.49    1.25 
  -2   0   6   59.68    0.70 
  -1   0   6  337.30    3.90 
   0   0   6  111.99    1.79 
   1   0   6   88.56    0.88 
   2   0   6  120.32    1.47 
   3   0   6   41.73    0.57 
   4   0   6   22.82    0.36 
   5   0   6   10.12    0.22 
   6   0   6   19.23    0.36 
   7   0   6    2.10    0.18 
  -6   1   6   50.41    0.67 
  -5   1   6   67.89    0.86 
  -4   1   6   78.37    0.96 
  -3   1   6  178.22    2.06 
  -2   1   6  182.21    2.07 
  -1   1   6  390.74    4.62 
   0   1   6  169.05    1.97 
   1   1   6  357.98    3.53 
   2   1   6  122.09    1.48 
   3   1   6  182.24    2.21 
   4   1   6   92.13    1.18 
   5   1   6   51.37    0.72 
   6   1   6   33.41    0.53 
   7   1   6   25.01    0.62 
  -6   2   6    6.72    0.24 
  -5   2   6    2.66    0.09 
  -4   2   6   19.37    0.29 
  -3   2   6   23.97    0.33 
  -2   2   6  105.77    1.23 
  -1   2   6   80.80    0.96 
   0   2   6   15.68    0.23 
   1   2   6   62.81    0.79 
   2   2   6  197.75    2.38 
   3   2   6   87.04    1.09 
   4   2   6   92.86    1.19 
   5   2   6   25.24    0.41 
   6   2   6   50.73    0.74 
   7   2   6   14.66    0.32 
  -6   3   6    4.80    0.20 
  -5   3   6   15.95    0.38 
  -4   3   6   19.90    0.30 
  -3   3   6   35.53    0.37 
  -2   3   6   21.04    0.29 
  -1   3   6   10.54    0.17 
   0   3   6   71.26    0.71 
   1   3   6    2.19    0.06 
   2   3   6    1.35    0.07 
   3   3   6    0.18    0.03 
   4   3   6    0.08    0.04 
   5   3   6    7.51    0.19 
   6   3   6    7.66    0.20 
   7   3   6    0.33    0.06 
  -6   4   6   26.36    0.59 
  -5   4   6   43.55    0.84 
  -4   4   6  107.74    1.81 
  -3   4   6  191.98    1.78 
  -2   4   6  117.64    1.11 
  -1   4   6  168.96    1.96 
   0   4   6  167.16    1.65 
   1   4   6  133.17    1.62 
   2   4   6  210.30    2.52 
   3   4   6  109.45    1.36 
   4   4   6   82.58    1.08 
   5   4   6   54.41    0.76 
   6   4   6   14.32    0.30 
   7   4   6   11.67    0.28 
  -5   5   6   38.80    0.77 
  -4   5   6   28.58    0.58 
  -3   5   6   35.68    0.46 
  -2   5   6   40.64    0.42 
  -1   5   6  236.10    2.28 
   0   5   6  217.38    2.62 
   1   5   6  109.26    1.34 
   2   5   6  122.57    1.51 
   3   5   6  151.27    1.87 
   4   5   6  141.52    1.76 
   5   5   6   85.47    1.13 
   6   5   6   62.07    0.88 
   7   5   6   51.14    1.20 
  -5   6   6    3.41    0.17 
  -4   6   6    2.15    0.09 
  -3   6   6    0.61    0.05 
  -2   6   6   12.13    0.20 
  -1   6   6   55.23    0.73 
   0   6   6    8.92    0.23 
   1   6   6    2.52    0.08 
   2   6   6   18.92    0.30 
   3   6   6   25.94    0.40 
   4   6   6   40.53    0.60 
   5   6   6    5.68    0.16 
   6   6   6   10.68    0.25 
  -5   7   6   10.55    0.32 
  -4   7   6   13.94    0.25 
  -3   7   6   35.57    0.48 
  -2   7   6   24.34    0.35 
  -1   7   6   30.64    0.44 
   0   7   6  102.53    1.28 
   1   7   6   18.69    0.29 
   2   7   6    2.30    0.08 
   3   7   6   34.34    0.51 
   4   7   6   21.44    0.36 
   5   7   6   44.03    0.66 
   6   7   6    3.54    0.14 
  -4   8   6   25.25    0.39 
  -3   8   6   52.83    0.68 
  -2   8   6  188.97    2.15 
  -1   8   6   22.66    0.36 
   0   8   6  207.47    2.53 
   1   8   6  155.45    1.93 
   2   8   6  167.56    2.07 
   3   8   6   93.54    1.21 
   4   8   6   83.64    1.12 
   5   8   6   89.29    1.21 
   6   8   6   26.22    0.47 
  -4   9   6   34.08    0.50 
  -3   9   6   33.53    0.48 
  -2   9   6   10.92    0.18 
  -1   9   6   30.76    0.47 
   0   9   6  159.16    1.98 
   1   9   6   72.16    0.95 
   2   9   6   88.06    1.15 
   3   9   6   59.58    0.83 
   4   9   6   18.66    0.35 
   5   9   6   39.49    0.62 
   6   9   6    9.96    0.40 
  -4  10   6    8.46    0.20 
  -3  10   6    2.34    0.10 
  -2  10   6    4.63    0.11 
  -1  10   6   12.51    0.25 
   0  10   6    0.18    0.04 
   1  10   6   16.60    0.29 
   2  10   6   16.54    0.31 
   3  10   6    0.66    0.07 
   4  10   6    0.39    0.06 
   5  10   6    0.46    0.07 
   6  10   6   18.83    0.64 
  -3  11   6   41.41    0.51 
  -2  11   6   53.45    0.77 
  -1  11   6   73.99    1.00 
   0  11   6   51.09    0.72 
   1  11   6  142.29    1.81 
   2  11   6   45.61    0.68 
   3  11   6   47.69    0.71 
   4  11   6   19.57    0.38 
   5  11   6   23.69    0.45 
  -2  12   6   58.31    0.85 
  -1  12   6   33.55    0.53 
   0  12   6   34.83    0.54 
   1  12   6   47.28    0.70 
   2  12   6   49.77    0.74 
   3  12   6   45.35    0.70 
   4  12   6   40.66    0.66 
   5  12   6    8.93    0.40 
  -2  13   6    1.72    0.17 
  -1  13   6    0.15    0.04 
   0  13   6    0.26    0.05 
   1  13   6    9.20    0.23 
   2  13   6    4.39    0.16 
   3  13   6    1.77    0.12 
   4  13   6    1.06    0.10 
   0  14   6    9.95    0.35 
   1  14   6   15.82    0.33 
   2  14   6   23.18    0.44 
   3  14   6   13.79    0.32 
  -4 -10   7   24.75    0.60 
  -3 -10   7   32.33    0.72 
   2 -10   7   36.26    0.89 
  -4  -9   7    3.97    0.19 
  -3  -9   7   21.45    0.52 
  -2  -9   7    9.69    0.30 
   1  -9   7   27.87    0.59 
   2  -9   7   23.93    0.42 
   3  -9   7   20.75    0.40 
  -5  -8   7    2.96    0.17 
  -4  -8   7    0.59    0.09 
  -3  -8   7    4.30    0.19 
  -2  -8   7    5.38    0.21 
  -1  -8   7    5.28    0.20 
   0  -8   7    4.71    0.18 
   1  -8   7    5.01    0.19 
   2  -8   7    0.01    0.03 
   3  -8   7    0.73    0.07 
   4  -8   7    4.47    0.25 
  -5  -7   7   10.13    0.32 
  -4  -7   7   31.15    0.67 
  -3  -7   7   18.95    0.45 
  -2  -7   7   77.19    1.43 
  -1  -7   7   23.95    0.54 
   0  -7   7   65.82    1.20 
   1  -7   7   37.66    0.44 
   2  -7   7   52.08    0.74 
   3  -7   7   42.84    0.65 
   4  -7   7   14.36    0.31 
  -5  -6   7   21.54    0.51 
  -4  -6   7   31.47    0.67 
  -3  -6   7   33.49    0.69 
  -2  -6   7   62.57    1.19 
  -1  -6   7   72.14    1.32 
   0  -6   7   42.28    0.56 
   1  -6   7   92.55    0.96 
   2  -6   7   84.78    1.11 
   3  -6   7   65.65    0.91 
   4  -6   7   31.49    0.51 
   5  -6   7   68.52    1.45 
  -6  -5   7    0.95    0.11 
  -5  -5   7    0.12    0.05 
  -4  -5   7   12.50    0.34 
  -3  -5   7    7.74    0.24 
  -2  -5   7    9.68    0.28 
  -1  -5   7    7.76    0.24 
   0  -5   7   39.73    0.53 
   1  -5   7   18.37    0.25 
   2  -5   7    2.91    0.14 
   3  -5   7   48.75    0.69 
   4  -5   7   10.89    0.24 
   5  -5   7   22.84    0.41 
  -6  -4   7   11.95    0.35 
  -5  -4   7   21.23    0.50 
  -4  -4   7   17.73    0.42 
  -3  -4   7   73.85    1.33 
  -2  -4   7    9.39    0.27 
  -1  -4   7   54.87    1.03 
   0  -4   7   60.84    0.76 
   1  -4   7   27.14    0.33 
   2  -4   7   16.90    0.28 
   3  -4   7   47.31    0.66 
   4  -4   7   12.51    0.25 
   5  -4   7    2.37    0.11 
  -6  -3   7   21.56    0.52 
  -5  -3   7   56.03    1.07 
  -4  -3   7   86.06    1.52 
  -3  -3   7  151.26    2.59 
  -2  -3   7  144.21    2.51 
  -1  -3   7  145.91    2.52 
   0  -3   7  153.33    1.78 
   1  -3   7  168.24    1.66 
   2  -3   7  202.47    2.43 
   3  -3   7   34.13    0.49 
   4  -3   7  137.29    1.72 
   5  -3   7   51.62    0.74 
   6  -3   7   31.36    0.75 
  -6  -2   7    6.55    0.24 
  -5  -2   7    8.35    0.26 
  -4  -2   7   13.92    0.34 
  -3  -2   7   43.78    0.85 
  -2  -2   7   37.61    0.73 
  -1  -2   7  102.60    1.22 
   0  -2   7   96.33    1.15 
   1  -2   7   54.22    0.57 
   2  -2   7   61.05    0.79 
   3  -2   7   66.37    0.86 
   4  -2   7   44.53    0.63 
   5  -2   7   22.65    0.39 
   6  -2   7   38.88    0.60 
  -6  -1   7   14.69    0.39 
  -5  -1   7   23.71    0.52 
  -4  -1   7   10.83    0.29 
  -3  -1   7   10.81    0.28 
  -2  -1   7   36.10    0.69 
  -1  -1   7    0.01    0.02 
   0  -1   7    2.68    0.10 
   1  -1   7    0.26    0.03 
   2  -1   7    0.10    0.02 
   3  -1   7    0.04    0.02 
   4  -1   7    8.50    0.19 
   5  -1   7    0.49    0.06 
   6  -1   7    0.26    0.05 
  -6   0   7   18.14    0.44 
  -5   0   7   39.64    0.78 
  -4   0   7   63.53    1.15 
  -3   0   7  112.48    1.95 
  -2   0   7  190.34    3.25 
  -1   0   7  206.64    2.37 
   0   0   7  136.23    2.20 
   1   0   7   46.44    0.49 
   2   0   7   97.85    1.21 
   3   0   7   79.04    1.02 
   4   0   7   32.24    0.48 
   5   0   7   39.70    0.59 
   6   0   7   11.73    0.26 
  -6   1   7   23.71    0.37 
  -5   1   7   21.84    0.34 
  -4   1   7    7.68    0.22 
  -3   1   7  156.07    2.64 
  -2   1   7  126.68    2.16 
  -1   1   7  170.22    1.96 
   0   1   7  178.12    2.09 
   1   1   7  273.40    3.20 
   2   1   7  246.84    2.95 
   3   1   7  145.05    1.78 
   4   1   7   94.22    1.21 
   5   1   7   97.57    1.26 
   6   1   7   50.95    0.75 
  -6   2   7    2.31    0.16 
  -5   2   7    0.16    0.03 
  -4   2   7    0.34    0.04 
  -3   2   7    0.74    0.07 
  -2   2   7    0.45    0.03 
  -1   2   7    0.16    0.03 
   0   2   7   80.33    0.96 
   1   2   7   62.39    0.78 
   2   2   7  109.32    1.34 
   3   2   7    8.06    0.17 
   4   2   7   40.15    0.58 
   5   2   7   34.61    0.53 
   6   2   7   20.81    0.38 
  -6   3   7   13.93    0.38 
  -5   3   7   16.59    0.40 
  -4   3   7   52.00    0.66 
  -3   3   7    9.31    0.23 
  -2   3   7   89.44    1.05 
  -1   3   7   28.91    0.39 
   0   3   7  164.62    1.91 
   1   3   7   67.12    0.84 
   2   3   7   12.43    0.21 
   3   3   7   41.49    0.57 
   4   3   7    7.78    0.18 
   5   3   7    4.06    0.13 
   6   3   7   11.86    0.27 
   7   3   7    3.89    0.21 
  -5   4   7   61.45    1.11 
  -4   4   7   34.35    0.67 
  -3   4   7    5.72    0.13 
  -2   4   7  121.50    1.42 
  -1   4   7  222.22    2.61 
   0   4   7  189.79    1.92 
   1   4   7  196.34    2.35 
   2   4   7  204.84    2.47 
   3   4   7  210.50    2.54 
   4   4   7   74.47    0.99 
   5   4   7  101.00    1.33 
   6   4   7   50.94    0.76 
   7   4   7   16.73    0.47 
  -5   5   7   16.76    0.41 
  -4   5   7   27.22    0.56 
  -3   5   7   48.01    0.60 
  -2   5   7   93.34    1.56 
  -1   5   7   56.12    0.58 
   0   5   7  109.51    1.35 
   1   5   7   99.37    1.23 
   2   5   7  115.98    1.45 
   3   5   7  345.30    4.13 
   4   5   7   41.78    0.60 
   5   5   7   38.49    0.59 
   6   5   7   29.87    0.50 
  -4   6   7    0.35    0.06 
  -3   6   7    0.32    0.04 
  -2   6   7    6.45    0.19 
  -1   6   7    6.62    0.14 
   0   6   7    7.91    0.15 
   1   6   7    1.45    0.06 
   2   6   7    4.13    0.11 
   3   6   7    6.06    0.15 
   4   6   7    7.58    0.18 
   5   6   7    4.05    0.14 
   6   6   7    0.48    0.07 
  -5   7   7   34.24    0.72 
  -4   7   7   88.66    1.55 
  -3   7   7  107.98    1.28 
  -2   7   7   67.52    0.83 
  -1   7   7   80.02    1.02 
   0   7   7  120.48    1.50 
   1   7   7  182.89    2.24 
   2   7   7  195.13    2.39 
   3   7   7   75.45    1.00 
   4   7   7  126.85    1.63 
   5   7   7   21.26    0.38 
   6   7   7   17.62    0.36 
  -4   8   7   55.91    1.04 
  -3   8   7   51.56    0.67 
  -2   8   7   98.52    1.01 
  -1   8   7  120.39    1.52 
   0   8   7  153.95    1.89 
   1   8   7  100.75    1.28 
   2   8   7   67.95    0.91 
   3   8   7   79.23    1.05 
   4   8   7   87.38    1.17 
   5   8   7   30.91    0.51 
   6   8   7   33.91    0.57 
  -4   9   7    0.40    0.05 
  -3   9   7    0.12    0.04 
  -2   9   7    4.81    0.13 
  -1   9   7   19.32    0.33 
   0   9   7   19.26    0.32 
   1   9   7    0.21    0.04 
   2   9   7    0.38    0.05 
   3   9   7   15.47    0.30 
   4   9   7   16.64    0.32 
   5   9   7    1.94    0.12 
   6   9   7    2.49    0.15 
  -4  10   7   28.15    0.63 
  -3  10   7   28.96    0.44 
  -2  10   7   30.91    0.45 
  -1  10   7   41.86    0.61 
   0  10   7   25.73    0.41 
   1  10   7   19.66    0.34 
   2  10   7   12.33    0.25 
   3  10   7    6.86    0.18 
   4  10   7   14.60    0.30 
   5  10   7   10.39    0.26 
  -3  11   7   73.51    0.94 
  -2  11   7   56.42    1.08 
  -1  11   7   99.18    1.29 
   0  11   7   51.04    0.73 
   1  11   7   99.06    1.29 
   2  11   7   51.24    0.74 
   3  11   7   48.79    0.73 
   4  11   7   35.54    0.58 
   5  11   7   24.36    0.46 
  -2  12   7   10.69    0.34 
  -1  12   7    7.44    0.27 
   0  12   7   37.14    0.57 
   1  12   7   50.22    0.73 
   2  12   7   27.99    0.47 
   3  12   7    9.33    0.24 
   4  12   7   28.45    0.51 
   0  13   7    6.33    0.18 
   1  13   7    2.02    0.12 
   2  13   7    0.82    0.08 
   3  13   7    0.22    0.05 
   4  13   7    0.80    0.09 
   1  14   7   26.47    0.69 
   2  14   7   31.17    0.80 
  -3 -10   8   15.65    0.45 
   2 -10   8   13.58    0.39 
  -4  -9   8    1.32    0.14 
  -3  -9   8    1.58    0.15 
  -2  -9   8    0.94    0.11 
  -1  -9   8    5.75    0.24 
   2  -9   8   14.14    0.39 
  -4  -8   8    3.04    0.17 
  -3  -8   8    7.05    0.26 
  -2  -8   8   13.90    0.39 
  -1  -8   8    3.73    0.17 
   0  -8   8   13.74    0.37 
   1  -8   8    4.41    0.18 
   2  -8   8   10.67    0.32 
   3  -8   8    1.19    0.12 
  -5  -7   8   20.57    0.52 
  -4  -7   8   34.95    0.75 
  -3  -7   8   36.49    0.77 
  -2  -7   8   64.58    1.24 
  -1  -7   8   39.93    0.81 
   0  -7   8   87.20    1.57 
   1  -7   8   53.27    0.71 
   2  -7   8   71.48    1.28 
   3  -7   8   45.02    0.90 
   4  -7   8   32.64    0.76 
  -5  -6   8   18.32    0.47 
  -4  -6   8   16.32    0.43 
  -3  -6   8   23.10    0.54 
  -2  -6   8   36.67    0.77 
  -1  -6   8   39.72    0.81 
   0  -6   8   48.73    0.94 
   1  -6   8   32.97    0.47 
   2  -6   8   49.91    0.94 
   3  -6   8   35.23    0.56 
   4  -6   8   36.44    0.58 
  -5  -5   8    6.06    0.24 
  -4  -5   8    8.16    0.27 
  -3  -5   8    1.95    0.14 
  -2  -5   8    4.07    0.18 
  -1  -5   8    3.21    0.15 
   0  -5   8    2.53    0.13 
   1  -5   8    1.27    0.07 
   2  -5   8    0.45    0.07 
   3  -5   8    0.16    0.05 
   4  -5   8    0.30    0.05 
   5  -5   8    0.83    0.11 
  -5  -4   8   21.06    0.50 
  -4  -4   8   46.96    0.92 
  -3  -4   8  115.67    2.04 
  -1  -4   8   70.92    1.30 
   0  -4   8   83.11    1.02 
   1  -4   8   60.10    0.78 
   2  -4   8    9.45    0.27 
   3  -4   8   54.74    0.75 
   4  -4   8   19.61    0.35 
   5  -4   8   14.72    0.30 
  -6  -3   8   15.94    0.43 
  -5  -3   8   25.96    0.58 
  -4  -3   8   23.26    0.52 
  -3  -3   8   24.94    0.54 
  -2  -3   8  152.89    2.67 
  -1  -3   8  106.12    1.89 
   0  -3   8  132.85    1.57 
   1  -3   8  114.86    1.39 
   2  -3   8  119.84    2.01 
   3  -3   8   40.60    0.58 
   4  -3   8   86.10    1.13 
   5  -3   8   54.69    0.78 
  -6  -2   8    0.37    0.08 
  -5  -2   8    0.17    0.06 
  -4  -2   8    1.98    0.14 
  -3  -2   8   12.57    0.32 
  -2  -2   8    6.55    0.21 
  -1  -2   8   40.26    0.79 
   0  -2   8   74.38    0.91 
   1  -2   8   34.39    0.48 
   2  -2   8   59.44    1.07 
   3  -2   8   94.84    1.21 
   4  -2   8   20.62    0.35 
   5  -2   8   13.03    0.27 
   6  -2   8   18.01    0.50 
  -6  -1   8   17.09    0.44 
  -5  -1   8    5.95    0.22 
  -4  -1   8   17.84    0.42 
  -3  -1   8   38.44    0.75 
  -2  -1   8   63.15    1.16 
  -1  -1   8   58.12    1.07 
   0  -1   8   38.71    0.51 
   1  -1   8   14.36    0.24 
   2  -1   8   14.20    0.34 
   3  -1   8   15.78    0.27 
   4  -1   8    1.95    0.09 
   5  -1   8    1.65    0.10 
   6  -1   8   11.14    0.26 
  -6   0   8   13.93    0.38 
  -5   0   8   25.11    0.56 
  -4   0   8   48.84    0.92 
  -3   0   8   76.31    1.34 
  -2   0   8   93.90    1.65 
  -1   0   8   71.77    0.87 
   0   0   8  183.99    2.14 
   1   0   8  442.32    5.15 
   2   0   8  153.97    2.51 
   3   0   8  125.28    1.55 
   4   0   8   57.85    0.79 
   5   0   8   71.73    0.98 
   6   0   8   31.15    0.51 
  -6   1   8    4.90    0.20 
  -5   1   8   14.73    0.37 
  -4   1   8   17.39    0.40 
  -3   1   8   39.67    0.77 
  -2   1   8   39.82    0.76 
  -1   1   8   42.19    0.54 
   0   1   8  163.84    1.91 
   1   1   8  179.37    2.09 
   2   1   8  127.31    2.10 
   3   1   8  119.42    1.49 
   4   1   8  120.68    1.53 
   5   1   8   64.53    0.89 
   6   1   8   34.55    0.56 
  -5   2   8    5.66    0.20 
  -4   2   8    0.09    0.04 
  -3   2   8    9.51    0.25 
  -2   2   8    5.92    0.19 
  -1   2   8    1.78    0.06 
   0   2   8    0.39    0.03 
   1   2   8    1.60    0.09 
   2   2   8    1.64    0.11 
   3   2   8    9.36    0.19 
   4   2   8    5.25    0.14 
   5   2   8    7.80    0.19 
   6   2   8    0.96    0.09 
  -5   3   8   25.74    0.55 
  -4   3   8   44.95    0.85 
  -3   3   8   34.90    0.67 
  -2   3   8  157.00    1.82 
  -1   3   8   97.61    1.16 
   0   3   8  102.97    1.22 
   1   3   8  128.76    2.14 
   2   3   8  204.86    3.32 
   3   3   8  154.30    1.90 
   4   3   8   85.63    1.12 
   5   3   8   36.61    0.56 
   6   3   8   19.05    0.36 
  -5   4   8   37.34    0.75 
  -3   4   8  100.12    1.73 
  -2   4   8  299.34    3.40 
  -1   4   8  181.22    2.11 
   0   4   8   92.81    1.11 
   1   4   8  174.18    2.88 
   2   4   8  281.87    4.51 
   3   4   8  178.89    2.20 
   4   4   8   86.14    1.13 
   5   4   8   71.16    0.98 
   6   4   8   54.34    0.80 
  -5   5   8    0.16    0.06 
  -4   5   8    1.50    0.12 
  -2   5   8   25.23    0.49 
  -1   5   8    4.08    0.10 
   0   5   8   49.66    0.63 
   1   5   8   42.01    0.79 
   2   5   8    0.21    0.05 
   3   5   8    4.40    0.18 
   4   5   8    2.24    0.10 
   5   5   8   25.34    0.43 
   6   5   8   21.45    0.40 
  -5   6   8   12.90    0.36 
  -4   6   8   36.17    0.72 
  -3   6   8  119.68    2.01 
  -2   6   8    1.30    0.10 
  -1   6   8   79.43    1.36 
   0   6   8   45.67    0.84 
   1   6   8   37.46    0.72 
   2   6   8   10.47    0.29 
   3   6   8   51.04    0.71 
   4   6   8   22.94    0.39 
   5   6   8    1.27    0.09 
   6   6   8    2.70    0.14 
  -4   7   8   47.25    0.90 
  -3   7   8   41.34    0.79 
  -2   7   8  128.89    2.14 
  -1   7   8  230.20    3.72 
   0   7   8  112.11    1.91 
   1   7   8   86.15    1.51 
   2   7   8   87.77    1.52 
   3   7   8   18.06    0.32 
   4   7   8   85.68    1.15 
   5   7   8   38.09    0.59 
   6   7   8   27.03    0.48 
  -4   8   8   14.87    0.39 
  -3   8   8   26.91    0.40 
  -2   8   8   19.04    0.44 
  -1   8   8  124.20    2.09 
   0   8   8   52.62    0.97 
   1   8   8   55.24    1.04 
   2   8   8   77.83    1.39 
   3   8   8   90.70    1.20 
   4   8   8   37.14    0.58 
   5   8   8    4.62    0.16 
   6   8   8   37.09    0.62 
  -4   9   8    1.94    0.15 
  -3   9   8    9.16    0.20 
  -2   9   8    7.32    0.24 
  -1   9   8    4.23    0.18 
   0   9   8   11.47    0.32 
   1   9   8    3.83    0.17 
   2   9   8    4.26    0.19 
   3   9   8    1.86    0.15 
   4   9   8    0.29    0.05 
   5   9   8    0.46    0.07 
   6   9   8    2.83    0.16 
  -3  10   8   52.44    1.02 
  -2  10   8   42.83    0.85 
  -1  10   8   53.00    1.00 
   0  10   8   82.03    1.46 
   1  10   8   76.03    1.39 
   2  10   8   46.62    0.93 
   3  10   8   31.99    0.71 
   4  10   8    8.17    0.22 
   5  10   8   14.50    0.32 
  -3  11   8   29.94    0.67 
  -2  11   8   12.79    0.37 
  -1  11   8   45.61    0.90 
   0  11   8   65.62    1.23 
   1  11   8   64.93    1.22 
   2  11   8   60.80    1.17 
   3  11   8   42.64    0.89 
   4  11   8   52.83    1.08 
   5  11   8   26.62    0.67 
  -1  12   8    4.62    0.22 
   0  12   8    3.73    0.19 
   1  12   8    4.96    0.23 
   2  12   8   11.07    0.35 
   3  12   8   17.62    0.48 
   4  12   8   27.74    0.68 
   0  13   8   16.34    0.46 
   1  13   8   13.61    0.41 
   2  13   8    6.51    0.27 
   3  13   8    5.10    0.25 
  -3  -9   9    2.88    0.21 
  -2  -9   9    0.37    0.08 
  -1  -9   9    0.96    0.11 
   2  -9   9    0.47    0.09 
  -4  -8   9   12.59    0.39 
  -3  -8   9   19.98    0.52 
  -2  -8   9   24.87    0.60 
  -1  -8   9   17.98    0.46 
   0  -8   9   28.89    0.64 
   2  -8   9   31.82    0.68 
   3  -8   9    7.30    0.28 
  -4  -7   9   12.00    0.37 
  -3  -7   9   26.02    0.62 
  -2  -7   9   20.49    0.52 
  -1  -7   9   51.60    1.02 
   0  -7   9   33.02    0.70 
   1  -7   9   31.42    0.69 
   2  -7   9   54.44    1.02 
   3  -7   9   29.12    0.66 
  -4  -6   9    0.18    0.06 
  -3  -6   9    7.30    0.27 
  -2  -6   9    7.91    0.28 
  -1  -6   9   11.41    0.33 
   0  -6   9   24.42    0.56 
   1  -6   9   22.52    0.36 
   2  -6   9   16.68    0.42 
   3  -6   9   19.52    0.49 
   4  -6   9   24.91    0.60 
  -5  -5   9   13.47    0.39 
  -4  -5   9   16.68    0.44 
  -3  -5   9    1.52    0.14 
  -2  -5   9    7.05    0.25 
  -1  -5   9   12.11    0.34 
   0  -5   9   12.53    0.35 
   1  -5   9    7.60    0.17 
   2  -5   9    2.89    0.15 
   3  -5   9    7.34    0.26 
   4  -5   9    1.61    0.15 
  -5  -4   9   20.97    0.52 
  -4  -4   9   33.68    0.73 
  -3  -4   9   45.59    0.92 
  -2  -4   9   60.46    1.16 
  -1  -4   9   93.87    1.69 
   0  -4   9   96.46    1.72 
   1  -4   9   88.53    1.11 
   2  -4   9   81.95    1.45 
   3  -4   9   76.16    1.38 
   4  -4   9   46.97    0.94 
  -5  -3   9   17.59    0.45 
  -4  -3   9   26.08    0.59 
  -3  -3   9    7.61    0.26 
  -2  -3   9   82.04    1.52 
  -1  -3   9   47.89    0.93 
   0  -3   9   70.89    0.89 
   1  -3   9  100.50    1.24 
   2  -3   9  116.49    1.99 
   3  -3   9  106.37    1.84 
   4  -3   9   43.95    0.89 
   5  -3   9   23.93    0.58 
  -5  -2   9    0.01    0.04 
  -4  -2   9    2.20    0.15 
  -3  -2   9    0.07    0.04 
  -2  -2   9    2.33    0.13 
  -1  -2   9    6.83    0.23 
   0  -2   9   11.53    0.21 
   1  -2   9    1.45    0.08 
   2  -2   9    0.12    0.04 
   3  -2   9   12.63    0.35 
   4  -2   9    2.85    0.16 
   5  -2   9    4.31    0.22 
  -6  -1   9    4.99    0.22 
  -5  -1   9    2.59    0.15 
  -4  -1   9   83.61    1.50 
  -3  -1   9   49.00    0.95 
  -2  -1   9   11.23    0.31 
  -1  -1   9   59.86    1.13 
   0  -1   9  120.81    1.44 
   1  -1   9  118.93    1.43 
   2  -1   9   68.70    1.21 
   3  -1   9   49.83    0.96 
   4  -1   9   44.60    0.88 
   5  -1   9   17.68    0.47 
  -6   0   9   16.36    0.44 
  -5   0   9   13.79    0.37 
  -4   0   9   56.71    1.08 
  -3   0   9   80.73    1.44 
  -2   0   9  147.26    2.55 
  -1   0   9  230.34    3.95 
   0   0   9  148.61    1.76 
   1   0   9  276.41    3.15 
   2   0   9   63.60    1.13 
   3   0   9  172.77    2.82 
   4   0   9  144.55    2.48 
   5   0   9   82.88    1.52 
  -6   1   9    3.41    0.18 
  -5   1   9    0.00    0.04 
  -4   1   9   42.10    0.83 
  -3   1   9    3.87    0.16 
  -2   1   9   50.59    0.96 
  -1   1   9   24.95    0.35 
   0   1   9   45.51    0.59 
   1   1   9   41.14    0.55 
   2   1   9   15.26    0.37 
   3   1   9   35.15    0.71 
   4   1   9   36.73    0.76 
   5   1   9    9.50    0.32 
   6   1   9   20.46    0.55 
  -5   2   9    8.30    0.26 
  -4   2   9    1.66    0.12 
  -3   2   9   80.51    1.45 
  -2   2   9   91.48    1.62 
  -1   2   9   37.44    0.50 
   0   2   9   40.90    0.54 
   1   2   9   12.78    0.31 
   2   2   9  100.18    1.68 
   3   2   9   10.83    0.31 
   4   2   9   39.50    0.81 
   5   2   9    5.16    0.23 
   6   2   9    0.08    0.07 
  -4   3   9   38.94    0.77 
  -3   3   9  160.67    2.74 
  -2   3   9   94.16    1.66 
  -1   3   9  163.42    1.90 
   0   3   9  142.97    1.68 
   1   3   9  132.37    2.22 
   2   3   9  235.33    3.79 
   3   3   9   19.30    0.45 
   4   3   9   38.35    0.79 
   5   3   9   57.58    1.12 
   6   3   9   46.92    0.99 
  -2   4   9   20.28    0.45 
  -1   4   9   73.42    0.90 
   0   4   9  114.50    1.36 
   1   4   9  111.90    1.90 
   2   4   9   64.30    1.15 
   3   4   9   15.09    0.38 
   4   4   9   79.06    1.44 
   5   4   9   44.83    0.92 
   6   4   9   24.14    0.60 
  -2   5   9    3.66    0.14 
  -1   5   9    1.12    0.06 
   0   5   9    1.25    0.06 
   1   5   9    1.54    0.11 
   2   5   9   21.45    0.48 
   3   5   9    0.32    0.07 
   4   5   9   25.35    0.58 
   5   5   9    3.18    0.18 
   6   5   9    1.43    0.15 
  -2   6   9   74.70    1.29 
  -1   6   9   94.87    1.60 
   0   6   9   99.57    1.69 
   1   6   9   59.37    1.09 
   2   6   9   38.59    0.76 
   3   6   9   55.28    1.06 
   4   6   9   11.80    0.35 
   5   6   9   21.41    0.54 
   6   6   9    8.77    0.33 
  -2   7   9  133.18    2.20 
  -1   7   9   81.69    1.42 
   0   7   9   79.85    1.42 
   1   7   9  104.61    1.81 
   2   7   9  203.54    3.37 
   3   7   9  115.25    2.01 
   4   7   9   36.82    0.78 
   5   7   9   39.18    0.84 
   6   7   9   34.33    0.79 
  -2   8   9    0.34    0.07 
  -1   8   9    8.43    0.26 
   0   8   9   25.14    0.55 
   1   8   9   15.78    0.40 
   2   8   9   34.74    0.72 
   3   8   9   30.14    0.66 
   4   8   9   23.59    0.57 
   5   8   9   30.50    0.71 
  -3   9   9    9.76    0.30 
  -2   9   9   12.10    0.34 
  -1   9   9   10.80    0.31 
   0   9   9   23.78    0.54 
   1   9   9   12.89    0.35 
   2   9   9    7.56    0.26 
   3   9   9    7.26    0.27 
   4   9   9    0.74    0.11 
   5   9   9    0.95    0.13 
  -3  10   9   30.19    0.66 
  -2  10   9   49.46    0.96 
  -1  10   9   76.01    1.37 
   0  10   9   61.02    1.14 
   1  10   9   94.06    1.68 
   2  10   9   37.83    0.79 
   3  10   9   95.91    1.73 
   4  10   9   41.55    0.89 
   5  10   9   40.24    0.89 
  -2  11   9   33.96    0.73 
  -1  11   9   23.93    0.56 
   0  11   9   40.16    0.82 
   1  11   9   42.27    0.87 
   2  11   9   42.02    0.88 
   3  11   9   54.04    1.08 
   4  11   9   47.60    1.00 
  -1  12   9    0.01    0.05 
   0  12   9    3.04    0.18 
   1  12   9    0.03    0.05 
   2  12   9    0.40    0.08 
   3  12   9    1.35    0.14 
  -2  -9  10    0.78    0.11 
  -1  -9  10    2.23    0.17 
  -3  -8  10    9.74    0.34 
  -2  -8  10   22.97    0.57 
  -1  -8  10   16.15    0.44 
   0  -8  10   21.62    0.52 
  -4  -7  10    9.64    0.37 
  -3  -7  10   20.65    0.55 
  -2  -7  10   31.55    0.71 
  -1  -7  10   46.65    0.95 
   0  -7  10   22.69    0.54 
   1  -7  10   42.20    0.86 
   2  -7  10   37.75    0.77 
   3  -7  10   43.24    0.88 
  -4  -6  10    0.96    0.12 
  -3  -6  10    4.30    0.21 
  -2  -6  10    4.21    0.20 
  -1  -6  10    1.66    0.14 
   0  -6  10    4.64    0.20 
   1  -6  10   17.03    0.44 
   2  -6  10    0.01    0.05 
   3  -6  10    4.24    0.21 
  -4  -5  10   10.24    0.34 
  -3  -5  10   50.39    1.02 
  -2  -5  10   21.22    0.53 
  -1  -5  10   34.10    0.74 
   0  -5  10   15.98    0.42 
   1  -5  10   34.70    0.75 
   2  -5  10   13.84    0.37 
   3  -5  10   43.38    0.87 
   4  -5  10   20.75    0.53 
  -5  -4  10    9.37    0.33 
  -4  -4  10   30.68    0.70 
  -3  -4  10   24.74    0.59 
  -2  -4  10   81.80    1.52 
  -1  -4  10  135.90    2.41 
   0  -4  10   58.34    1.12 
   1  -4  10   92.53    1.16 
   2  -4  10  146.02    2.44 
   3  -4  10   26.68    0.60 
   4  -4  10   41.89    0.87 
  -5  -3  10    3.99    0.20 
  -4  -3  10    2.42    0.17 
  -3  -3  10    4.95    0.21 
  -2  -3  10   18.27    0.47 
  -1  -3  10   81.74    1.50 
   0  -3  10   30.17    0.66 
   1  -3  10   55.60    0.74 
   2  -3  10   14.82    0.38 
   3  -3  10   43.96    0.88 
   4  -3  10   28.44    0.65 
  -5  -2  10    7.67    0.28 
  -4  -2  10    6.95    0.26 
  -3  -2  10   10.75    0.33 
  -2  -2  10   17.00    0.44 
  -1  -2  10   23.42    0.54 
   0  -2  10  101.26    1.80 
   1  -2  10    1.86    0.09 
   2  -2  10    3.84    0.17 
   3  -2  10    5.80    0.22 
   4  -2  10    5.49    0.23 
   5  -2  10    2.62    0.20 
  -5  -1  10   26.34    0.61 
  -4  -1  10   37.39    0.78 
  -3  -1  10   64.12    1.21 
  -2  -1  10   94.48    1.70 
  -1  -1  10  160.34    2.77 
   0  -1  10  240.49    2.78 
   1  -1  10   63.77    0.82 
   2  -1  10  104.94    1.79 
   3  -1  10   84.95    1.51 
   4  -1  10   51.28    1.02 
   5  -1  10   37.55    0.81 
  -5   0  10   40.22    0.83 
  -4   0  10   27.33    0.61 
  -3   0  10   37.27    0.77 
  -2   0  10   17.71    0.44 
  -1   0  10   38.32    0.77 
   0   0  10   79.92    0.99 
   1   0  10   53.46    0.70 
   2   0  10  121.17    2.01 
   3   0  10   55.22    1.04 
   4   0  10   36.54    0.77 
   5   0  10   26.39    0.63 
  -5   1  10    0.11    0.05 
  -4   1  10    2.98    0.16 
  -3   1  10    6.02    0.22 
  -2   1  10    0.46    0.07 
  -1   1  10    0.97    0.09 
   0   1  10    2.87    0.09 
   1   1  10    8.13    0.17 
   2   1  10    8.82    0.26 
   3   1  10    3.21    0.16 
   4   1  10   14.50    0.40 
   5   1  10   10.15    0.34 
  -4   2  10   46.51    0.92 
  -3   2  10   43.25    0.85 
  -2   2  10   38.27    0.77 
  -1   2  10   10.10    0.28 
   0   2  10   77.83    0.96 
   1   2  10  119.27    1.99 
   2   2  10   28.21    0.59 
   3   2  10   11.01    0.32 
   4   2  10   11.01    0.34 
   5   2  10   13.24    0.40 
  -3   3  10   86.30    1.56 
  -2   3  10   62.53    1.17 
  -1   3  10  140.60    1.68 
   0   3  10  129.86    1.54 
   1   3  10   84.76    1.47 
   2   3  10  106.64    1.84 
   3   3  10  126.62    2.16 
   4   3  10   98.34    1.75 
   5   3  10   82.58    1.53 
  -2   4  10   20.46    0.46 
  -1   4  10   12.30    0.21 
   0   4  10   42.76    0.56 
   1   4  10   64.16    1.15 
   2   4  10   13.59    0.35 
   3   4  10   65.61    1.22 
   4   4  10   63.74    1.20 
   5   4  10   31.29    0.72 
  -1   5  10   10.87    0.19 
   0   5  10    3.57    0.10 
   1   5  10   19.88    0.45 
   2   5  10    0.05    0.04 
   3   5  10   23.90    0.55 
   4   5  10    4.88    0.22 
   5   5  10    0.21    0.07 
  -2   6  10  111.49    1.89 
  -1   6  10   81.91    1.43 
   0   6  10   64.11    1.14 
   1   6  10   98.76    1.70 
   2   6  10  132.39    2.27 
   3   6  10   42.89    0.87 
   4   6  10   35.23    0.76 
   5   6  10   47.55    1.00 
  -2   7  10   42.06    0.81 
  -1   7  10   76.09    1.33 
   0   7  10   93.20    1.63 
   1   7  10  114.72    1.96 
   2   7  10   61.86    1.15 
   3   7  10   78.24    1.43 
   4   7  10   67.56    1.28 
   5   7  10   47.11    0.99 
  -2   8  10    1.05    0.10 
  -1   8  10    0.16    0.05 
   0   8  10    0.10    0.05 
   1   8  10    7.23    0.25 
   2   8  10    4.04    0.19 
   3   8  10    7.27    0.27 
   4   8  10    5.69    0.25 
   5   8  10    5.48    0.26 
  -2   9  10   52.50    1.00 
  -1   9  10   41.18    0.82 
   0   9  10   75.52    1.37 
   1   9  10   39.50    0.81 
   2   9  10   42.96    0.88 
   3   9  10   39.75    0.84 
   4   9  10   21.94    0.56 
   5   9  10   18.88    0.53 
  -2  10  10   37.63    0.79 
  -1  10  10   39.33    0.80 
   0  10  10   61.98    1.16 
   1  10  10   63.27    1.21 
   2  10  10   66.34    1.26 
   3  10  10   68.31    1.31 
   4  10  10   37.05    0.83 
  -2  11  10   16.67    0.45 
  -1  11  10    1.18    0.13 
   0  11  10   17.48    0.46 
   1  11  10    9.19    0.31 
   2  11  10   18.80    0.50 
   3  11  10   12.51    0.40 
   0  12  10    0.14    0.07 
   1  12  10    6.40    0.27 
   2  12  10    1.49    0.15 
  -2  -8  11   26.79    0.65 
  -1  -8  11   35.57    0.79 
   0  -8  11   30.20    0.69 
  -3  -7  11   10.11    0.36 
  -2  -7  11    2.19    0.17 
  -1  -7  11   18.11    0.48 
   0  -7  11   23.58    0.57 
  -3  -6  11    2.58    0.20 
  -2  -6  11   13.98    0.41 
  -1  -6  11    4.03    0.19 
   0  -6  11    1.08    0.12 
   1  -6  11    0.30    0.07 
   2  -6  11    2.98    0.20 
   3  -6  11    1.32    0.14 
  -4  -5  11    6.79    0.29 
  -3  -5  11   46.89    0.99 
  -2  -5  11   49.38    1.01 
  -1  -5  11   51.37    1.03 
   0  -5  11   92.31    1.69 
   1  -5  11   86.56    1.60 
   2  -5  11   34.64    0.72 
   3  -5  11   25.96    0.61 
  -4  -4  11   21.48    0.56 
  -3  -4  11    6.58    0.27 
  -2  -4  11   56.69    1.13 
  -1  -4  11   40.93    0.85 
   0  -4  11   34.41    0.74 
   1  -4  11   37.26    0.80 
   2  -4  11   99.49    1.75 
   3  -4  11   36.20    0.76 
   4  -4  11   18.84    0.52 
  -4  -3  11    0.18    0.07 
  -3  -3  11   13.04    0.39 
  -2  -3  11    3.43    0.18 
  -1  -3  11   13.87    0.38 
   0  -3  11    1.92    0.15 
   1  -3  11    3.02    0.11 
   2  -3  11    2.50    0.14 
   3  -3  11   10.73    0.33 
   4  -3  11    3.93    0.21 
  -5  -2  11   24.72    0.65 
  -4  -2  11   15.77    0.44 
  -3  -2  11   30.12    0.68 
  -2  -2  11   20.19    0.51 
  -1  -2  11   24.91    0.57 
   0  -2  11   52.58    1.03 
   1  -2  11   12.42    0.24 
   2  -2  11   30.07    0.64 
   3  -2  11   36.89    0.78 
   4  -2  11    7.78    0.29 
  -5  -1  11   49.10    1.02 
  -4  -1  11   30.54    0.69 
  -3  -1  11   48.63    0.98 
  -2  -1  11   44.29    0.90 
  -1  -1  11   43.39    0.88 
   0  -1  11   43.94    0.88 
   1  -1  11   73.16    0.93 
   2  -1  11   93.16    1.62 
   3  -1  11   86.48    1.56 
   4  -1  11   37.59    0.81 
  -5   0  11   11.13    0.36 
  -4   0  11    0.62    0.09 
  -3   0  11   10.68    0.33 
  -2   0  11   41.41    0.85 
  -1   0  11   43.09    0.87 
   0   0  11   55.44    1.06 
   1   0  11    5.07    0.13 
   2   0  11   57.82    1.07 
   3   0  11   40.15    0.82 
   4   0  11   65.81    1.25 
   5   0  11   46.02    0.97 
  -5   1  11    8.62    0.30 
  -4   1  11   29.95    0.67 
  -3   1  11    7.63    0.26 
  -2   1  11    2.13    0.15 
  -1   1  11    2.30    0.13 
   0   1  11    3.76    0.11 
   1   1  11   12.39    0.23 
   2   1  11    0.46    0.07 
   3   1  11    0.34    0.07 
   4   1  11    9.61    0.32 
   5   1  11    1.15    0.13 
  -4   2  11   48.99    0.99 
  -3   2  11   45.26    0.91 
  -2   2  11  101.81    1.80 
  -1   2  11   99.69    1.77 
   0   2  11   75.90    0.95 
   1   2  11   63.88    1.15 
   2   2  11   33.65    0.70 
   3   2  11  100.59    1.76 
   4   2  11   84.14    1.54 
   5   2  11   38.39    0.84 
  -3   3  11   23.91    0.55 
  -2   3  11   43.98    0.87 
  -1   3  11   94.26    1.66 
   0   3  11  109.12    1.32 
   1   3  11  102.27    1.76 
   2   3  11   64.99    1.19 
   3   3  11   87.57    1.57 
   4   3  11   51.66    1.04 
   5   3  11   32.19    0.75 
  -2   4  11    0.54    0.07 
  -1   4  11    1.77    0.10 
   0   4  11   16.12    0.27 
   1   4  11   30.49    0.63 
   2   4  11    4.99    0.20 
   3   4  11   13.54    0.38 
   4   4  11    8.19    0.29 
   5   4  11    4.55    0.23 
  -1   5  11   39.54    0.75 
   0   5  11   49.49    0.65 
   1   5  11  102.37    1.77 
   2   5  11   11.76    0.34 
   3   5  11   13.28    0.38 
   4   5  11   14.42    0.42 
   5   5  11   20.56    0.55 
  -1   6  11  122.47    2.05 
   0   6  11  109.47    1.88 
   1   6  11  122.73    2.11 
   2   6  11  142.74    2.44 
   3   6  11   79.90    1.48 
   4   6  11   59.85    1.17 
   5   6  11   55.07    1.12 
  -1   7  11   10.49    0.30 
   0   7  11   23.61    0.53 
   1   7  11   44.53    0.87 
   2   7  11   17.59    0.45 
   3   7  11   61.03    1.18 
   4   7  11   36.45    0.80 
   5   7  11   13.40    0.43 
  -1   8  11    5.81    0.22 
   0   8  11   19.73    0.47 
   1   8  11    1.39    0.13 
   2   8  11    9.99    0.32 
   3   8  11    0.30    0.08 
   4   8  11    3.11    0.21 
  -2   9  11   25.46    0.58 
  -1   9  11   45.30    0.90 
   0   9  11   51.21    0.99 
   1   9  11   54.88    1.06 
   2   9  11   57.87    1.12 
   3   9  11   46.51    0.96 
   4   9  11   34.85    0.79 
  -2  10  11   31.52    0.69 
  -1  10  11   38.93    0.80 
   0  10  11   62.29    1.18 
   1  10  11   45.71    0.93 
   2  10  11   70.93    1.34 
   3  10  11   39.54    0.86 
  -1  11  11    1.43    0.14 
   0  11  11    4.91    0.22 
   1  11  11    0.98    0.12 
   2  11  11    3.91    0.21 
  -1  -7  12    1.53    0.15 
   0  -7  12    0.26    0.07 
  -2  -6  12   24.93    0.63 
  -1  -6  12    5.61    0.24 
   0  -6  12   20.41    0.52 
   1  -6  12   33.27    0.75 
  -3  -5  12   27.89    0.68 
  -2  -5  12   46.68    0.98 
  -1  -5  12    8.33    0.30 
   0  -5  12   29.02    0.66 
   1  -5  12   19.56    0.50 
   3  -5  12   33.26    0.74 
  -3  -4  12    3.68    0.20 
  -2  -4  12   14.98    0.43 
  -1  -4  12    0.51    0.09 
   0  -4  12   37.53    0.80 
   1  -4  12   26.94    0.63 
   2  -4  12   20.70    0.50 
   3  -4  12   26.76    0.62 
  -4  -3  12    6.98    0.30 
  -3  -3  12    0.71    0.10 
  -2  -3  12    3.88    0.20 
  -1  -3  12    5.28    0.22 
   0  -3  12   14.53    0.40 
   1  -3  12    0.32    0.07 
   2  -3  12    2.64    0.15 
   3  -3  12    0.03    0.05 
  -4  -2  12   19.72    0.54 
  -3  -2  12   31.00    0.72 
  -2  -2  12   30.73    0.69 
  -1  -2  12   55.34    1.10 
   0  -2  12   34.86    0.75 
   1  -2  12   65.60    1.25 
   2  -2  12   35.27    0.75 
   3  -2  12   35.51    0.76 
   4  -2  12   42.14    0.88 
  -4  -1  12    6.50    0.27 
  -3  -1  12   16.74    0.46 
  -2  -1  12   53.10    1.06 
  -1  -1  12   96.71    1.76 
   0  -1  12   26.51    0.60 
   1  -1  12  106.79    1.32 
   2  -1  12   52.05    1.01 
   3  -1  12   65.84    1.24 
   4  -1  12   49.96    1.01 
  -4   0  12    1.85    0.16 
  -3   0  12    0.32    0.08 
  -2   0  12   10.22    0.32 
  -1   0  12    0.23    0.06 
   0   0  12    4.35    0.19 
   1   0  12   22.32    0.36 
   2   0  12   24.67    0.56 
   3   0  12    5.90    0.24 
   4   0  12    2.45    0.19 
  -4   1  12   13.03    0.40 
  -3   1  12   12.11    0.36 
  -2   1  12   29.26    0.65 
  -1   1  12   29.96    0.65 
   0   1  12   23.01    0.53 
   1   1  12   10.35    0.29 
   2   1  12   28.47    0.62 
   3   1  12    9.13    0.30 
   4   1  12   18.96    0.51 
  -4   2  12   42.26    0.90 
  -3   2  12   56.91    1.12 
  -2   2  12   38.73    0.80 
  -1   2  12  123.07    2.16 
   0   2  12  117.96    2.04 
   1   2  12   89.95    1.58 
   2   2  12  120.11    2.07 
   3   2  12   83.20    1.51 
   4   2  12   40.65    0.86 
  -3   3  12   15.77    0.42 
  -2   3  12   20.95    0.49 
  -1   3  12   53.39    1.02 
   0   3  12   29.53    0.43 
   1   3  12   85.19    1.51 
   2   3  12   37.45    0.77 
   3   3  12   43.59    0.89 
   4   3  12   58.96    1.15 
  -1   4  12    2.71    0.13 
   0   4  12   17.12    0.28 
   1   4  12    9.61    0.29 
   2   4  12    0.18    0.06 
   3   4  12    0.12    0.06 
   4   4  12    0.08    0.06 
   0   5  12   89.19    1.55 
   1   5  12   57.13    1.07 
   2   5  12   77.47    1.41 
   3   5  12   52.81    1.04 
   4   5  12   28.57    0.67 
   0   6  12   79.17    1.41 
   1   6  12   56.36    1.06 
   2   6  12   90.01    1.61 
   3   6  12   81.20    1.49 
   4   6  12   50.27    1.04 
  -1   7  12    0.32    0.06 
   0   7  12   11.94    0.34 
   1   7  12    7.17    0.25 
   2   7  12    8.87    0.30 
   3   7  12   13.23    0.40 
   4   7  12   10.36    0.36 
  -1   8  12   30.67    0.67 
   0   8  12   34.10    0.72 
   1   8  12   29.95    0.66 
   2   8  12   31.49    0.70 
   3   8  12   22.29    0.56 
   4   8  12   27.22    0.67 
  -1   9  12   86.30    1.56 
   0   9  12   40.92    0.85 
   1   9  12   87.88    1.60 
   2   9  12   65.04    1.25 
   3   9  12   74.26    1.42 
  -1  10  12   25.71    0.60 
   0  10  12   14.05    0.41 
   1  10  12   12.11    0.38 
   2  10  12   18.25    0.50 
   0  -6  13    7.67    0.32 
  -1  -5  13   37.93    0.84 
   0  -5  13   54.67    1.10 
  -2  -4  13    0.42    0.09 
  -1  -4  13    3.84    0.20 
   0  -4  13    8.22    0.29 
   1  -4  13   13.67    0.40 
  -3  -3  13    5.52    0.25 
  -2  -3  13    5.77    0.25 
  -1  -3  13    8.12    0.29 
   0  -3  13   24.53    0.58 
   1  -3  13   16.23    0.45 
   3  -3  13    4.77    0.23 
  -3  -2  13   40.43    0.88 
  -2  -2  13   32.47    0.73 
  -1  -2  13   39.34    0.84 
   0  -2  13   32.61    0.72 
   1  -2  13   58.42    1.15 
   2  -2  13   70.64    1.32 
   3  -2  13   46.39    0.95 
  -3  -1  13   32.13    0.75 
  -2  -1  13   21.50    0.54 
  -1  -1  13   26.98    0.63 
   0  -1  13   29.17    0.66 
   1  -1  13   47.03    0.97 
   2  -1  13   53.94    1.06 
   3  -1  13   16.78    0.45 
  -4   0  13    1.57    0.16 
  -3   0  13    2.36    0.18 
  -2   0  13    1.65    0.15 
  -1   0  13    0.28    0.07 
   0   0  13    0.13    0.05 
   2   0  13    0.68    0.09 
   3   0  13    2.61    0.19 
   4   0  13    2.39    0.21 
  -4   1  13   34.74    0.79 
  -3   1  13   25.37    0.62 
  -2   1  13   74.44    1.41 
  -1   1  13   49.58    0.99 
   0   1  13   55.78    1.07 
   1   1  13   56.10    1.05 
   2   1  13   47.78    0.95 
   3   1  13   41.58    0.86 
   4   1  13   15.61    0.46 
  -4   2  13   21.10    0.59 
  -3   2  13   24.07    0.58 
  -2   2  13   32.65    0.72 
  -1   2  13   64.90    1.23 
   0   2  13   80.60    1.47 
   1   2  13   52.75    1.01 
   2   2  13   49.81    0.99 
   3   2  13   76.08    1.42 
   4   2  13   32.25    0.74 
  -2   3  13    8.22    0.27 
  -1   3  13    3.08    0.16 
   0   3  13    1.43    0.12 
   1   3  13   42.12    0.83 
   2   3  13    7.33    0.26 
   3   3  13   17.54    0.47 
   4   3  13    7.97    0.31 
  -1   4  13   14.89    0.38 
   0   4  13   15.19    0.38 
   1   4  13   39.32    0.80 
   2   4  13   10.59    0.33 
   3   4  13    3.68    0.20 
   4   4  13   12.83    0.41 
   0   5  13   97.16    1.68 
   1   5  13   52.74    1.01 
   2   5  13  147.68    2.54 
   3   5  13   60.84    1.19 
   4   5  13   54.03    1.12 
   0   6  13   31.68    0.67 
   1   6  13   37.42    0.78 
   2   6  13   37.99    0.80 
   3   6  13   22.69    0.57 
   0   7  13    3.36    0.17 
   1   7  13    2.53    0.17 
   2   7  13    3.03    0.18 
   3   7  13    6.68    0.27 
   0   8  13   36.22    0.76 
   1   8  13   35.71    0.77 
   2   8  13   32.47    0.73 
   3   8  13   39.65    0.87 
  -1   9  13   55.15    1.09 
   0   9  13   42.12    0.87 
   1   9  13   31.03    0.70 
   2   9  13   34.22    0.77 
   0  10  13    1.62    0.15 
   1  10  13    2.75    0.20 
  -1  -3  14    8.40    0.31 
   0  -3  14   26.82    0.64 
  -2  -2  14   25.20    0.63 
  -1  -2  14   53.83    1.09 
   0  -2  14   40.49    0.86 
  -2  -1  14    2.00    0.17 
  -1  -1  14    7.12    0.27 
   0  -1  14   15.20    0.42 
   3  -1  14    4.13    0.21 
  -3   0  14    5.49    0.25 
  -2   0  14   19.98    0.52 
  -1   0  14    7.43    0.27 
   0   0  14   12.94    0.37 
   2   0  14    7.44    0.27 
   3   0  14    0.34    0.09 
  -3   1  14   21.13    0.55 
  -2   1  14   49.31    1.00 
  -1   1  14   42.13    0.88 
   0   1  14   82.09    1.51 
   2   1  14   51.16    1.01 
   3   1  14   48.34    0.99 
  -3   2  14   15.62    0.44 
  -2   2  14   31.32    0.70 
  -1   2  14   28.58    0.64 
   0   2  14   55.47    1.07 
   2   2  14   56.53    1.09 
   3   2  14   42.54    0.90 
  -2   3  14    0.14    0.06 
  -1   3  14    3.26    0.17 
   0   3  14    1.55    0.13 
   1   3  14    1.87    0.14 
   2   3  14    0.15    0.06 
   3   3  14    0.47    0.09 
  -1   4  14   51.23    1.00 
   0   4  14   32.55    0.69 
   1   4  14   73.76    1.36 
   2   4  14   35.58    0.77 
   3   4  14   30.77    0.71 
   1   5  14   34.91    0.75 
   2   5  14   49.46    1.00 
   3   5  14   40.80    0.88 
   1   6  14   12.55    0.37 
   2   6  14    4.06    0.21 
   3   6  14    6.50    0.27 
   0   7  14   14.65    0.40 
   1   7  14   14.47    0.41 
   2   7  14    5.23    0.24 
   0   8  14   25.18    0.59 
   1   8  14   57.69    1.14 
   2   8  14   31.51    0.73 
   0   9  14   10.00    0.34 
   0  -1  15    0.98    0.12 
  -1   0  15   37.72    0.82 
   0   0  15   37.63    0.81 
  -2   1  15   24.36    0.60 
  -1   1  15   37.80    0.82 
   0   1  15   68.04    1.30 
  -2   2  15    1.74    0.15 
  -1   2  15    1.91    0.15 
   0   2  15    0.36    0.08 
   2   2  15   21.33    0.53 
  -2   3  15    9.21    0.31 
  -1   3  15    9.79    0.31 
   0   3  15    3.06    0.16 
   2   3  15    1.02    0.12 
   2   4  15   33.32    0.74 
   2   5  15   19.25    0.51 
   1   6  15    0.04    0.05 
   2   6  15    0.29    0.08 
   1   7  15   18.85    0.50 
   0   0   0    0.00    0.00 
;
_shelx_hkl_checksum              73727
#END Tags that were not found in dictionaries
loop_
_space_group_symop_operation_xyz
'x, y, z'
'-x, -y, -z'
loop_
_atom_site_label
_atom_site_type_symbol
_atom_site_fract_x
_atom_site_fract_y
_atom_site_fract_z
_atom_site_U_iso_or_equiv
_atom_site_adp_type
_atom_site_occupancy
_atom_site_site_symmetry_order
_atom_site_calc_flag
_atom_site_refinement_flags_posn
_atom_site_refinement_flags_adp
Te Te 0.00748(2) 0.35651(2) 0.44104(2) 0.02059(4) Uani 1 1 d . .
C1 C 0.0925(2) 0.26175(12) 0.30443(12) 0.0177(2) Uani 1 1 d . .
C2 C -0.0612(2) 0.30548(12) 0.21789(12) 0.0172(2) Uani 1 1 d . .
C3 C -0.2512(2) 0.40711(12) 0.23240(12) 0.0173(2) Uani 1 1 d . .
C4 C -0.2607(2) 0.45444(13) 0.33419(12) 0.0190(3) Uani 1 1 d . .
C5 C -0.4373(3) 0.55140(13) 0.35469(13) 0.0220(3) Uani 1 1 d . .
H5 H -0.4392 0.5839 0.4228 0.026 Uiso 1 1 calc R U
C6 C -0.6101(3) 0.59985(13) 0.27435(13) 0.0240(3) Uani 1 1 d . .
H6 H -0.7326 0.6648 0.2882 0.029 Uiso 1 1 calc R U
C7 C -0.6049(3) 0.55358(14) 0.17321(13) 0.0237(3) Uani 1 1 d . .
H7 H -0.7245 0.5867 0.1189 0.028 Uiso 1 1 calc R U
C8 C -0.4258(3) 0.45958(13) 0.15201(12) 0.0206(3) Uani 1 1 d . .
H8 H -0.4211 0.4303 0.0822 0.025 Uiso 1 1 calc R U
C11 C 0.2905(2) 0.15675(13) 0.31594(12) 0.0182(3) Uani 1 1 d . .
C12 C 0.4938(2) 0.16039(14) 0.37504(12) 0.0213(3) Uani 1 1 d . .
H12 H 0.5059 0.2323 0.4054 0.026 Uiso 1 1 calc R U
C13 C 0.6776(3) 0.06046(16) 0.38988(13) 0.0265(3) Uani 1 1 d . .
H13 H 0.8143 0.0646 0.4299 0.032 Uiso 1 1 calc R U
C14 C 0.6626(3) -0.04489(15) 0.34667(14) 0.0289(3) Uani 1 1 d . .
H14 H 0.7887 -0.1131 0.3568 0.035 Uiso 1 1 calc R U
C15 C 0.4622(3) -0.05087(15) 0.28828(14) 0.0286(3) Uani 1 1 d . .
H15 H 0.4514 -0.1234 0.2587 0.034 Uiso 1 1 calc R U
C16 C 0.2771(3) 0.04908(14) 0.27291(13) 0.0236(3) Uani 1 1 d . .
H16 H 0.1407 0.0442 0.2330 0.028 Uiso 1 1 calc R U
C21 C -0.0422(2) 0.25629(12) 0.10941(12) 0.0175(2) Uani 1 1 d . .
C22 C 0.1374(3) 0.28125(15) 0.03167(13) 0.0242(3) Uani 1 1 d . .
H22 H 0.2481 0.3298 0.0479 0.029 Uiso 1 1 calc R U
C23 C 0.1555(3) 0.23555(16) -0.06937(14) 0.0283(3) Uani 1 1 d . .
H23 H 0.2779 0.2533 -0.1219 0.034 Uiso 1 1 calc R U
C24 C -0.0043(3) 0.16415(14) -0.09373(13) 0.0260(3) Uani 1 1 d . .
H24 H 0.0105 0.1316 -0.1621 0.031 Uiso 1 1 calc R U
C25 C -0.1861(3) 0.14037(14) -0.01804(13) 0.0235(3) Uani 1 1 d . .
H25 H -0.2973 0.0926 -0.0352 0.028 Uiso 1 1 calc R U
C26 C -0.2057(3) 0.18648(13) 0.08308(12) 0.0201(3) Uani 1 1 d . .
H26 H -0.3310 0.1704 0.1345 0.024 Uiso 1 1 calc R U
loop_
_atom_site_aniso_label
_atom_site_aniso_U_11
_atom_site_aniso_U_22
_atom_site_aniso_U_33
_atom_site_aniso_U_23
_atom_site_aniso_U_13
_atom_site_aniso_U_12
Te 0.02405(6) 0.02148(6) 0.01647(6) -0.00764(4) -0.00522(4) 0.00107(4)
C1 0.0188(6) 0.0176(6) 0.0177(6) -0.0058(5) -0.0007(5) -0.0028(5)
C2 0.0184(6) 0.0172(6) 0.0168(6) -0.0052(5) -0.0002(5) -0.0031(5)
C3 0.0190(6) 0.0163(6) 0.0169(6) -0.0035(5) -0.0006(5) -0.0025(5)
C4 0.0210(6) 0.0185(6) 0.0173(6) -0.0035(5) -0.0020(5) -0.0021(5)
C5 0.0261(7) 0.0203(6) 0.0199(7) -0.0068(5) 0.0010(5) -0.0017(5)
C6 0.0247(7) 0.0195(6) 0.0253(7) -0.0040(6) 0.0010(6) 0.0026(5)
C7 0.0240(7) 0.0224(7) 0.0223(7) -0.0021(6) -0.0045(5) 0.0019(5)
C8 0.0232(6) 0.0209(6) 0.0172(7) -0.0039(5) -0.0031(5) -0.0014(5)
C11 0.0180(6) 0.0193(6) 0.0163(6) -0.0026(5) 0.0001(5) -0.0011(5)
C12 0.0201(6) 0.0255(7) 0.0180(7) -0.0019(5) -0.0006(5) -0.0045(5)
C13 0.0189(6) 0.0360(8) 0.0207(7) 0.0031(6) -0.0010(5) -0.0012(6)
C14 0.0250(7) 0.0296(8) 0.0248(8) 0.0027(6) 0.0046(6) 0.0078(6)
C15 0.0330(8) 0.0219(7) 0.0287(8) -0.0068(6) 0.0027(6) 0.0032(6)
C16 0.0232(7) 0.0227(7) 0.0249(7) -0.0070(6) -0.0012(6) -0.0007(5)
C21 0.0181(6) 0.0182(6) 0.0157(6) -0.0047(5) -0.0020(5) 0.0005(5)
C22 0.0206(6) 0.0306(7) 0.0232(7) -0.0082(6) 0.0015(5) -0.0062(6)
C23 0.0251(7) 0.0367(8) 0.0224(7) -0.0088(6) 0.0057(6) -0.0014(6)
C24 0.0320(8) 0.0257(7) 0.0190(7) -0.0100(6) -0.0017(6) 0.0048(6)
C25 0.0283(7) 0.0199(6) 0.0235(7) -0.0072(5) -0.0063(6) -0.0023(5)
C26 0.0218(6) 0.0204(6) 0.0187(7) -0.0043(5) -0.0011(5) -0.0039(5)
loop_
_atom_type_symbol
_atom_type_description
_atom_type_scat_dispersion_real
_atom_type_scat_dispersion_imag
_atom_type_scat_source
C C 0.0033 0.0016 'International Tables Vol C Tables 4.2.6.8 and 6.1.1.4'
H H 0.0000 0.0000 'International Tables Vol C Tables 4.2.6.8 and 6.1.1.4'
Te Te -0.5308 1.6751 'International Tables Vol C Tables 4.2.6.8 and 6.1.1.4'
loop_
_geom_angle_atom_site_label_1
_geom_angle_atom_site_label_2
_geom_angle_atom_site_label_3
_geom_angle
C4 Te C1 82.27(5)
C2 C1 C11 129.49(13)
C2 C1 Te 111.74(10)
C11 C1 Te 118.65(10)
C1 C2 C3 117.67(12)
C1 C2 C21 123.45(12)
C3 C2 C21 118.87(12)
C8 C3 C4 118.14(13)
C8 C3 C2 124.12(13)
C4 C3 C2 117.74(12)
C5 C4 C3 121.25(13)
C5 C4 Te 128.15(11)
C3 C4 Te 110.56(10)
C6 C5 C4 119.23(14)
C5 C6 C7 120.40(13)
C8 C7 C6 120.13(14)
C7 C8 C3 120.81(14)
C16 C11 C12 118.19(13)
C16 C11 C1 121.32(13)
C12 C11 C1 120.43(13)
C13 C12 C11 120.96(14)
C14 C13 C12 120.27(15)
C13 C14 C15 119.79(14)
C14 C15 C16 120.28(15)
C15 C16 C11 120.50(14)
C22 C21 C26 118.91(13)
C22 C21 C2 120.35(13)
C26 C21 C2 120.73(12)
C23 C22 C21 120.45(14)
C24 C23 C22 120.26(14)
C23 C24 C25 119.87(14)
C24 C25 C26 120.09(14)
C25 C26 C21 120.40(13)
loop_
_geom_bond_atom_site_label_1
_geom_bond_atom_site_label_2
_geom_bond_distance
Te C4 2.0789(14)
Te C1 2.0985(14)
C1 C2 1.3623(19)
C1 C11 1.4765(18)
C2 C3 1.4590(18)
C2 C21 1.4928(19)
C3 C8 1.4030(19)
C3 C4 1.4095(19)
C4 C5 1.3958(19)
C5 C6 1.388(2)
C6 C7 1.398(2)
C7 C8 1.385(2)
C11 C16 1.402(2)
C11 C12 1.4023(19)
C12 C13 1.389(2)
C13 C14 1.381(3)
C14 C15 1.390(2)
C15 C16 1.394(2)
C21 C22 1.395(2)
C21 C26 1.3976(19)
C22 C23 1.390(2)
C23 C24 1.386(2)
C24 C25 1.387(2)
C25 C26 1.393(2)
loop_
_geom_torsion_atom_site_label_1
_geom_torsion_atom_site_label_2
_geom_torsion_atom_site_label_3
_geom_torsion_atom_site_label_4
_geom_torsion
C4 Te C1 C2 -1.05(10)
C4 Te C1 C11 -177.37(11)
C11 C1 C2 C3 176.20(13)
Te C1 C2 C3 0.39(16)
C11 C1 C2 C21 -4.9(2)
Te C1 C2 C21 179.33(10)
C1 C2 C3 C8 -178.35(13)
C21 C2 C3 C8 2.7(2)
C1 C2 C3 C4 0.97(19)
C21 C2 C3 C4 -178.02(12)
C8 C3 C4 C5 -0.5(2)
C2 C3 C4 C5 -179.85(13)
C8 C3 C4 Te 177.57(10)
C2 C3 C4 Te -1.79(16)
C1 Te C4 C5 179.40(14)
C1 Te C4 C3 1.51(10)
C3 C4 C5 C6 1.7(2)
Te C4 C5 C6 -176.02(11)
C4 C5 C6 C7 -1.2(2)
C5 C6 C7 C8 -0.5(2)
C6 C7 C8 C3 1.8(2)
C4 C3 C8 C7 -1.2(2)
C2 C3 C8 C7 178.08(14)
C2 C1 C11 C16 -35.7(2)
Te C1 C11 C16 139.90(12)
C2 C1 C11 C12 147.21(15)
Te C1 C11 C12 -37.23(17)
C16 C11 C12 C13 0.5(2)
C1 C11 C12 C13 177.69(13)
C11 C12 C13 C14 -0.2(2)
C12 C13 C14 C15 -0.1(2)
C13 C14 C15 C16 0.2(2)
C14 C15 C16 C11 0.1(2)
C12 C11 C16 C15 -0.4(2)
C1 C11 C16 C15 -177.58(14)
C1 C2 C21 C22 -71.99(19)
C3 C2 C21 C22 106.93(16)
C1 C2 C21 C26 109.12(16)
C3 C2 C21 C26 -71.95(18)
C26 C21 C22 C23 -1.1(2)
C2 C21 C22 C23 179.99(14)
C21 C22 C23 C24 -0.3(2)
C22 C23 C24 C25 1.4(2)
C23 C24 C25 C26 -1.0(2)
C24 C25 C26 C21 -0.4(2)
C22 C21 C26 C25 1.4(2)
C2 C21 C26 C25 -179.66(13)
