#------------------------------------------------------------------------------
#$Date: 2016-03-26 14:48:51 +0200 (Sat, 26 Mar 2016) $
#$Revision: 180277 $
#$URL: svn://www.crystallography.net/cod/cif/7/11/63/7116370.cif $
#------------------------------------------------------------------------------
#
# This file is available in the Crystallography Open Database (COD),
# http://www.crystallography.net/
#
# All data on this site have been placed in the public domain by the
# contributors.
#
data_7116370
loop_
_publ_author_name
'Ming Liu'
'Martin Nieger'
'Andreas Schmidt'
_publ_section_title
;
 Mesomericbetaine - N-heterocyclic carbene interconversions of
 1,2,4-triazolium-phenolates. Sulfur, selenium, and borane adduct
 formation
;
_journal_name_full               Chem.Commun.
_journal_page_first              477
_journal_paper_doi               10.1039/C4cc08032G
_journal_volume                  51
_journal_year                    2015
_chemical_formula_moiety         'C15 H14 N3 O, Cl O4'
_chemical_formula_sum            'C15 H14 Cl N3 O5'
_chemical_formula_weight         351.74
_chemical_name_systematic
4-(2-hydroxyl-5-methylphenyl)-1-phenyl-4H-1,2,4-triazol-1-iumperchlorate
_space_group_crystal_system      triclinic
_space_group_IT_number           2
_space_group_name_Hall           '-P 1'
_space_group_name_H-M_alt        'P -1'
_symmetry_space_group_name_Hall  '-P 1'
_symmetry_space_group_name_H-M   'P -1'
_atom_sites_solution_hydrogens   difmap
_atom_sites_solution_primary     direct
_atom_sites_solution_secondary   difmap
_audit_creation_method           SHELXL-2013
_cell_angle_alpha                83.899(6)
_cell_angle_beta                 82.995(7)
_cell_angle_gamma                87.213(6)
_cell_formula_units_Z            2
_cell_length_a                   6.0904(5)
_cell_length_b                   7.6950(5)
_cell_length_c                   16.3916(13)
_cell_measurement_reflns_used    3383
_cell_measurement_temperature    173(2)
_cell_measurement_theta_max      29.6
_cell_measurement_theta_min      2.6
_cell_volume                     757.65(10)
_computing_cell_refinement
;
CrysAlisPro, Agilent Technologies,
Version 1.171.37.31 (release 14-01-2014 CrysAlis171 .NET)
(compiled Jan 14 2014,18:38:05)
;
_computing_data_collection
;
CrysAlisPro, Agilent Technologies,
Version 1.171.37.31 (release 14-01-2014 CrysAlis171 .NET)
(compiled Jan 14 2014,18:38:05)
;
_computing_data_reduction
;
CrysAlisPro, Agilent Technologies,
Version 1.171.37.31 (release 14-01-2014 CrysAlis171 .NET)
(compiled Jan 14 2014,18:38:05)
;
_computing_molecular_graphics    Shelxtl-Plus
_computing_publication_material  publCIF
_computing_structure_refinement  'SHELXL-2013 (Sheldrick, 2013)'
_computing_structure_solution    SHELXS-97
_diffrn_ambient_temperature      173(2)
_diffrn_detector_area_resol_mean 16.0107
_diffrn_measured_fraction_theta_full 0.999
_diffrn_measured_fraction_theta_max 0.854
_diffrn_measurement_device_type
'Agilent, SuperNova, Single source at offset, Eos'
_diffrn_measurement_method       'rotation in \w, 1\%'
_diffrn_radiation_type           MoK\a
_diffrn_radiation_wavelength     0.71073
_diffrn_reflns_av_R_equivalents  0.0197
_diffrn_reflns_av_unetI/netI     0.0334
_diffrn_reflns_Laue_measured_fraction_full 0.999
_diffrn_reflns_Laue_measured_fraction_max 0.854
_diffrn_reflns_limit_h_max       6
_diffrn_reflns_limit_h_min       -7
_diffrn_reflns_limit_k_max       9
_diffrn_reflns_limit_k_min       -10
_diffrn_reflns_limit_l_max       22
_diffrn_reflns_limit_l_min       -19
_diffrn_reflns_number            5946
_diffrn_reflns_point_group_measured_fraction_full 0.999
_diffrn_reflns_point_group_measured_fraction_max 0.854
_diffrn_reflns_theta_full        25.242
_diffrn_reflns_theta_max         29.880
_diffrn_reflns_theta_min         2.517
_diffrn_source                   'SuperNova (Mo) X-ray Source'
_exptl_absorpt_coefficient_mu    0.285
_exptl_absorpt_correction_T_max  1.00000
_exptl_absorpt_correction_T_min  0.60529
_exptl_absorpt_correction_type   multi-scan
_exptl_absorpt_process_details
;
CrysAlisPro, Agilent Technologies,
Version 1.171.37.31 (release 14-01-2014 CrysAlis171 .NET)
(compiled Jan 14 2014,18:38:05)
Empirical absorption correction using spherical harmonics,
 implemented in SCALE3 ABSPACK scaling algorithm.
;
_exptl_crystal_colour            colourless
_exptl_crystal_density_diffrn    1.542
_exptl_crystal_description       blocks
_exptl_crystal_F_000             364
_exptl_crystal_size_max          0.500
_exptl_crystal_size_mid          0.250
_exptl_crystal_size_min          0.150
_refine_diff_density_max         0.322
_refine_diff_density_min         -0.424
_refine_diff_density_rms         0.057
_refine_ls_extinction_coef       0.082(5)
_refine_ls_extinction_expression Fc^*^=kFc[1+0.001xFc^2^\l^3^/sin(2\q)]^-1/4^
_refine_ls_extinction_method     SHELXL
_refine_ls_goodness_of_fit_ref   1.042
_refine_ls_hydrogen_treatment    mixed
_refine_ls_matrix_type           full
_refine_ls_number_parameters     222
_refine_ls_number_reflns         3750
_refine_ls_number_restraints     1
_refine_ls_restrained_S_all      1.042
_refine_ls_R_factor_all          0.0439
_refine_ls_R_factor_gt           0.0380
_refine_ls_shift/su_max          0.000
_refine_ls_shift/su_mean         0.000
_refine_ls_structure_factor_coef Fsqd
_refine_ls_weighting_details
;
 w=1/[\s^2^(Fo^2^)+(0.0538P)^2^+0.1867P]
 where P=(Fo^2^+2Fc^2^)/3
;
_refine_ls_weighting_scheme      calc
_refine_ls_wR_factor_gt          0.1012
_refine_ls_wR_factor_ref         0.1062
_reflns_Friedel_coverage         0.000
_reflns_number_gt                3257
_reflns_number_total             3750
_reflns_threshold_expression     'I > 2\s(I)'
_cod_data_source_file            c4cc08032g2.cif
_cod_data_source_block           schm63_compound_3b
_cod_database_code               7116370
#BEGIN Tags that were not found in dictionaries:
_shelx_space_group_comment
;
The symmetry employed for this shelxl refinement is uniquely defined
by the following loop, which should always be used as a source of
symmetry information in preference to the above space-group names.
They are only intended as comments.
;
_shelx_estimated_absorpt_t_min   0.871
_shelx_estimated_absorpt_t_max   0.958
_shelxl_version_number           2013-2
_shelx_res_file
;
TITL schm63 in P-1 - multi-scan 0.60529/1.00000
CELL 0.71073   6.0904   7.6950  16.3916  83.899  82.995  87.213
ZERR    2.00   0.0005   0.0005   0.0013   0.006   0.007   0.006
LATT  1
SFAC C H N O CL
UNIT 30 28 6 10 2

OMIT    -1   1   8

L.S. 12
BOND
BOND $H
ACTA
CONF

SIZE 0.15 0.25 0.50
rem colourless blocks
TEMP -100

FMAP 2
PLAN 20

DFIX 0.84 O7 H7

HTAB

EQIV $1 x+1, y, z
HTAB C3 O7_$1
EQIV $2 x-1, y, z
HTAB C5 O2_$2
EQIV $3 x-1, y-1, z
HTAB O7 O1_$3

WGHT    0.053800    0.186700
EXTI    0.081527
FVAR       0.35284
CL1   5    0.895446    0.854274    0.763860    11.00000    0.02946    0.02874 =
         0.02594   -0.00317   -0.00241   -0.00548
O1    4    0.932296    0.967091    0.825856    11.00000    0.04476    0.04026 =
         0.04356   -0.01724   -0.00012   -0.01507
O2    4    1.028582    0.696786    0.775297    11.00000    0.05514    0.03860 =
         0.05341   -0.00947   -0.00818    0.01063
O3    4    0.668148    0.812761    0.774034    11.00000    0.03271    0.06109 =
         0.05635   -0.01553   -0.00320   -0.01662
O4    4    0.956625    0.941988    0.683873    11.00000    0.06312    0.06574 =
         0.03274    0.01130    0.00165   -0.00911
N1    3    0.613334    0.559557    0.633174    11.00000    0.02162    0.02108 =
         0.02036   -0.00286   -0.00231   -0.00160
N2    3    0.820461    0.483171    0.635281    11.00000    0.02392    0.03656 =
         0.02583   -0.00039   -0.00218    0.00316
C3    1    0.811444    0.397577    0.708329    11.00000    0.02522    0.03461 =
         0.02457    0.00000   -0.00290    0.00310
AFIX  43
H3    2    0.931927    0.330415    0.728638    11.00000   -1.20000
AFIX   0
N4    3    0.608463    0.415862    0.752173    11.00000    0.02512    0.02218 =
         0.01963   -0.00249   -0.00330   -0.00162
C5    1    0.486975    0.519649    0.703325    11.00000    0.02552    0.02275 =
         0.02191   -0.00132   -0.00132   -0.00025
AFIX  43
H5    2    0.337374    0.557752    0.716556    11.00000   -1.20000
AFIX   0
C6    1    0.543168    0.341962    0.835542    11.00000    0.02722    0.02105 =
         0.01857   -0.00098   -0.00207    0.00021
C7    1    0.356821    0.241083    0.851503    11.00000    0.02818    0.02082 =
         0.02338   -0.00198   -0.00552    0.00097
O7    4    0.243568    0.215346    0.787135    11.00000    0.03406    0.03078 =
         0.02701    0.00152   -0.01001   -0.01051
H7    2    0.163668    0.130111    0.800306    11.00000   -1.50000
C8    1    0.294542    0.173135    0.932429    11.00000    0.02997    0.02429 =
         0.02694   -0.00013   -0.00036   -0.00236
AFIX  43
H8    2    0.165237    0.106658    0.945501    11.00000   -1.20000
AFIX   0
C9    1    0.420882    0.202181    0.994242    11.00000    0.03644    0.02524 =
         0.02093    0.00128   -0.00141    0.00338
AFIX  43
H9    2    0.375672    0.155102    1.049350    11.00000   -1.20000
AFIX   0
C10   1    0.611985    0.298271    0.977949    11.00000    0.03263    0.02432 =
         0.02296   -0.00493   -0.00610    0.00574
C11   1    0.671142    0.369761    0.897110    11.00000    0.02604    0.02363 =
         0.02499   -0.00376   -0.00446   -0.00041
AFIX  43
H11   2    0.799237    0.437652    0.884058    11.00000   -1.20000
AFIX   0
C12   1    0.749961    0.324120    1.045663    11.00000    0.03767    0.03686 =
         0.02481   -0.00693   -0.01034    0.00639
AFIX 137
H12A  2    0.667047    0.288595    1.099440    11.00000   -1.50000
H12B  2    0.785107    0.447727    1.042735    11.00000   -1.50000
H12C  2    0.887507    0.252860    1.038873    11.00000   -1.50000
AFIX   0
C13   1    0.558681    0.664681    0.559798    11.00000    0.02826    0.01835 =
         0.01978   -0.00244   -0.00447   -0.00315
C14   1    0.723579    0.689105    0.494094    11.00000    0.02981    0.02736 =
         0.02503   -0.00131   -0.00052   -0.00106
AFIX  43
H14   2    0.868259    0.639205    0.497735    11.00000   -1.20000
AFIX   0
C15   1    0.672068    0.788396    0.422746    11.00000    0.04204    0.03273 =
         0.02256   -0.00039    0.00065   -0.00438
AFIX  43
H15   2    0.783137    0.807432    0.377065    11.00000   -1.20000
AFIX   0
C16   1    0.461440    0.859788    0.417378    11.00000    0.04874    0.02511 =
         0.02607    0.00052   -0.01263   -0.00565
AFIX  43
H16   2    0.427730    0.926946    0.368123    11.00000   -1.20000
AFIX   0
C17   1    0.299840    0.833370    0.483765    11.00000    0.03399    0.02854 =
         0.03588   -0.00032   -0.01253   -0.00017
AFIX  43
H17   2    0.155047    0.882958    0.480027    11.00000   -1.20000
AFIX   0
C18   1    0.347211    0.734641    0.556188    11.00000    0.02758    0.02891 =
         0.02855   -0.00121   -0.00279   -0.00168
AFIX  43
H18   2    0.236355    0.716024    0.601970    11.00000   -1.20000
AFIX   0
HKLF 4

REM  schm63 in P-1 - multi-scan 0.60529/1.00000
REM R1 =  0.0380 for    3257 Fo > 4sig(Fo)  and  0.0439 for all    3750 data
REM    222 parameters refined using      1 restraints

END

WGHT      0.0538      0.1867

REM Instructions for potential hydrogen bonds
HTAB C3 O7_$1
HTAB C5 O2_$2
HTAB O7 Cl1_$3
HTAB O7 O1_$3

REM Highest difference peak  0.322,  deepest hole -0.424,  1-sigma level  0.057
Q1    1   0.8792  0.8742  0.6608  11.00000  0.05    0.32
Q2    1   0.5985  0.3670  0.8650  11.00000  0.05    0.31
Q3    1   0.5365  0.2397  0.9802  11.00000  0.05    0.29
Q4    1   0.9618  0.6978  0.7381  11.00000  0.05    0.29
Q5    1   0.6761  0.3097  1.0108  11.00000  0.05    0.28
Q6    1   1.1073  0.7723  0.7576  11.00000  0.05    0.28
Q7    1   0.4374  0.3150  0.8477  11.00000  0.05    0.27
Q8    1   0.9294  1.0324  0.7840  11.00000  0.05    0.26
Q9    1   0.6444  0.3197  0.9355  11.00000  0.05    0.25
Q10   1   0.5783  0.3819  0.7904  11.00000  0.05    0.23
Q11   1   0.8110  0.2170  1.0730  11.00000  0.05    0.22
Q12   1   0.3810  0.1671  0.9596  11.00000  0.05    0.22
Q13   1   0.6203  0.6503  0.5200  11.00000  0.05    0.22
Q14   1   0.8889  0.3563  1.0219  11.00000  0.05    0.21
Q15   1   0.2896  0.2413  0.8963  11.00000  0.05    0.21
Q16   1   0.5758  0.6166  0.5911  11.00000  0.05    0.21
Q17   1   0.3492  0.1789  0.8887  11.00000  0.05    0.21
Q18   1   0.7040  0.4077  0.7338  11.00000  0.05    0.19
Q19   1   0.8815  1.0022  0.7093  11.00000  0.05    0.19
Q20   1   0.3870  0.8309  0.4504  11.00000  0.05    0.18
;
_shelx_res_checksum              35878
_shelx_hkl_file
;
   0   0   2  146.63    2.55
   0   0  -2  146.94    2.56
   0   0   3   41.62    0.87
   0   0   3   39.28    0.81
   0   0  -3   38.87    0.81
   0   0   4  327.14    5.74
   0   0   4  318.02    5.64
   0   0  -4  323.03    5.66
   0   0   4  317.48    5.64
   0   0  -5  150.27    2.78
   0   0   5  151.01    2.76
   0   0   5  147.11    2.77
   0   0   5  152.54    2.88
   0   0  -6   29.84    0.78
   0   0   6   30.59    0.77
   0   0   6   31.00    0.78
   0   0   7   46.64    1.11
   0   0   7   47.75    1.11
   0   0   8   11.16    0.44
   0   0   8   11.36    0.45
   0   0   9   32.31    0.89
   0   0   9   29.74    0.88
   0   0  10    9.55    0.45
   0   0  10    9.93    0.47
   0   0  11   45.82    1.27
   0   0  11   47.15    1.25
   0   0  12    7.45    0.44
   0   0  12    6.67    0.41
   0   0  13   38.78    1.22
   0   0  13   39.04    1.18
   0   0  14   17.31    0.75
   0   0  14   16.75    0.77
   0   0  15  131.00    2.94
   0   0  15  128.56    3.01
   0   0  16    5.81    0.45
   0   0  16    4.62    0.43
   0   0  17   13.92    0.78
   0   0  17   13.90    0.74
   0   0  18    0.62    0.18
   0   0  18    0.79    0.19
   0   0  19    0.31    0.15
   0   0  19    0.27    0.15
   0   0  20    0.24    0.15
   0   0  20    0.08    0.10
   0   0  21    0.84    0.21
   0   0  21    1.15    0.26
   0   0  22    0.19    0.16
   0   0  22    0.00    0.08
   0  -1  22    0.60    0.21
   0  -1  21    1.90    0.33
   0  -1  20   35.77    1.45
   0  -1  20   36.95    1.49
   0  -1  19    1.13    0.24
   0  -1  19    0.92    0.22
   0  -1  18    9.76    0.66
   0  -1  18   10.29    0.69
   0  -1  17    1.13    0.21
   0  -1  17    1.01    0.21
   0  -1  16    4.46    0.41
   0  -1  16    5.07    0.43
   0  -1  15   16.53    0.78
   0  -1  15   17.68    0.82
   0  -1  14    7.39    0.50
   0  -1  14    7.88    0.49
   0  -1  13   -0.03    0.08
   0  -1  13    0.00    0.06
   0  -1  12   11.90    0.57
   0  -1  12   11.35    0.58
   0  -1  11  118.73    2.56
   0  -1  11  121.51    2.63
   0  -1  10   51.01    1.30
   0  -1  10   50.93    1.35
   0  -1   9   55.72    1.40
   0  -1   9   56.75    1.36
   0  -1   8  220.22    4.14
   0  -1   8  227.06    4.22
   0  -1   7   33.02    0.91
   0  -1   7   34.59    0.87
   0  -1   6   42.58    1.03
   0   1  -6   41.47    0.95
   0  -1   6   42.12    0.81
   0   1  -6   39.80    0.83
   0  -1   6   43.29    0.97
   0   1  -5  237.64    4.11
   0  -1   5  229.62    4.20
   0  -1   5  233.88    4.30
   0  -1   5  244.50    4.10
   0   1  -5  239.47    4.12
   0   1  -5  233.50    4.19
   0  -1   5  233.65    4.34
   0   1  -4   19.62    0.46
   0   1  -4   19.81    0.48
   0   1  -4   19.22    0.56
   0  -1   4   19.57    0.56
   0   1  -4   20.58    0.47
   0  -1   4   20.38    0.56
   0  -1   4   20.43    0.50
   0  -1   4   19.87    0.45
   0  -1   4   20.17    0.45
   0   1  -3  427.85    7.92
   0  -1   3  440.94    7.82
   0  -1   3  432.83    7.92
   0  -1   2   83.22    1.62
   0   1  -2   88.03    1.59
   0   1  -2   82.84    1.63
   0   1  -2   85.94    1.59
   0  -1   2   87.72    1.57
   0  -1   2   86.81    1.57
   0   1  -1   42.21    0.87
   0   1  -1   43.21    0.87
   0  -1   1   43.90    0.86
   0   1  -1   44.88    0.88
   0  -1   1   44.16    0.87
   0  -1   1   44.80    0.87
   0   1   0   17.26    0.39
   0  -1   0   18.12    0.39
   0   1   0   17.80    0.43
   0  -1   0   17.30    0.41
   0   1   0   18.20    0.43
   0  -1   0   17.97    0.42
   0   1   1    1.81    0.10
   0  -1  -1    1.87    0.10
   0   1   1    1.98    0.11
   0  -1  -1    1.96    0.10
   0   1   2   16.23    0.40
   0  -1  -2   16.50    0.38
   0   1   2   14.98    0.38
   0  -1  -2   16.32    0.39
   0   1   2   15.69    0.38
   0   1   2   15.53    0.39
   0   1   3   16.97    0.46
   0   1   3   17.32    0.42
   0  -1  -3   18.20    0.41
   0   1   3   16.39    0.41
   0   1   3   17.40    0.47
   0   1   4   61.12    1.28
   0   1   4   62.17    1.19
   0  -1  -4   63.33    1.18
   0  -1  -4   62.64    1.18
   0   1   4   62.98    1.19
   0   1   4   61.89    1.31
   0   1   5    8.95    0.37
   0   1   5    7.97    0.24
   0   1   5    8.25    0.33
   0  -1  -5    8.38    0.24
   0  -1  -5    8.52    0.24
   0   1   6   31.95    0.66
   0   1   6   33.03    0.84
   0  -1  -6   32.33    0.66
   0   1   7    5.73    0.19
   0   1   7    5.92    0.31
   0   1   8    9.44    0.43
   0   1   9    0.70    0.12
   0   1   9    0.68    0.10
   0   1  10   25.27    0.84
   0   1  10   24.75    0.75
   0   1  11    8.78    0.42
   0   1  11    8.90    0.48
   0   1  12   87.37    2.10
   0   1  12   89.01    1.98
   0   1  13   41.58    1.18
   0   1  13   40.27    1.27
   0   1  14   57.82    1.66
   0   1  14   57.27    1.52
   0   1  15  101.24    2.35
   0   1  15   98.88    2.49
   0   1  16    5.74    0.48
   0   1  16    5.51    0.42
   0   1  17   17.62    0.82
   0   1  17   19.57    0.96
   0   1  18    2.48    0.30
   0   1  18    2.70    0.36
   0   1  19    0.43    0.16
   0   1  19    0.32    0.12
   0   1  20    1.76    0.28
   0   1  20    2.48    0.38
   0   1  21   10.20    0.79
   0   1  22    2.54    0.41
   0  -2  21    0.36    0.19
   0  -2  20    4.41    0.50
   0  -2  19    0.04    0.12
   0  -2  18   -0.04    0.08
   0  -2  17    0.60    0.16
   0  -2  17    0.17    0.11
   0  -2  16    1.65    0.27
   0  -2  16    1.23    0.21
   0  -2  15    9.38    0.62
   0  -2  15    9.67    0.57
   0  -2  14    3.80    0.38
   0  -2  14    3.94    0.34
   0  -2  13   34.27    1.10
   0  -2  13   36.68    1.24
   0  -2  12   28.84    0.95
   0  -2  12   31.36    1.09
   0  -2  11   23.57    0.90
   0  -2  11   23.03    0.78
   0  -2  10   13.88    0.64
   0  -2  10   13.98    0.55
   0  -2   9    7.12    0.43
   0  -2   9    6.95    0.35
   0  -2   8    9.30    0.32
   0  -2   8    9.15    0.38
   0   2  -8    8.56    0.35
   0  -2   7   27.14    0.72
   0   2  -7   26.75    0.71
   0  -2   7   27.92    0.67
   0  -2   7   26.21    0.84
   0   2  -7   26.12    0.69
   0   2  -6   20.08    0.57
   0   2  -6   19.48    0.58
   0  -2   6   20.31    0.68
   0   2  -6   19.61    0.53
   0  -2   6   20.33    0.54
   0  -2   6   21.43    0.57
   0  -2   5  149.28    2.69
   0   2  -5  147.43    2.65
   0  -2   5  150.38    2.73
   0  -2   5  148.65    2.71
   0   2  -5  139.40    2.75
   0  -2   5  148.62    2.88
   0   2  -5  143.72    2.77
   0  -2   4  136.71    2.61
   0  -2   4  135.11    2.42
   0   2  -4  131.88    2.54
   0  -2   4  130.86    2.54
   0   2  -4  136.45    2.53
   0  -2   4  134.11    2.50
   0  -2   4  132.16    2.51
   0   2  -4  133.04    2.38
   0  -2   3   41.67    0.95
   0   2  -3   42.22    0.99
   0  -2   3   42.44    0.93
   0  -2   3   41.93    1.01
   0  -2   3   43.43    0.97
   0   2  -3   42.72    0.98
   0   2  -3   44.16    0.83
   0   2  -2   12.33    0.42
   0  -2   2   11.76    0.40
   0  -2   2   11.35    0.38
   0  -2   2   11.70    0.39
   0   2  -2   11.33    0.40
   0   2  -2   11.11    0.40
   0  -2   1   43.43    0.97
   0  -2   1   44.70    0.97
   0   2  -1   41.76    0.96
   0   2  -1   44.20    1.01
   0   2  -1   43.61    1.01
   0   2   0  295.48    5.50
   0  -2   0  317.28    5.43
   0  -2   0  310.05    5.48
   0  -2   0  315.16    5.47
   0   2   0  309.15    5.41
   0   2   0  315.78    5.51
   0  -2  -1  335.57    6.03
   0   2   1  362.98    5.96
   0  -2  -1  358.28    5.96
   0  -2  -1  344.60    6.02
   0   2   1  329.96    6.06
   0   2   1  345.62    6.06
   0   2   2  393.19    6.89
   0  -2  -2  388.43    6.87
   0  -2  -2  411.45    6.87
   0   2   2  387.18    6.89
   0  -2  -3  707.64   12.21
   0   2   3  741.97   12.26
   0  -2  -3  720.76   12.23
   0   2   3  715.27   12.21
   0   2   3  689.84   12.24
   0   2   4  319.40    5.71
   0   2   4  326.31    5.71
   0   2   4  316.97    5.70
   0  -2  -4  327.25    5.68
   0   2   4  330.35    5.72
   0  -2  -4  318.54    5.67
   0   2   5   96.06    1.95
   0  -2  -5   97.56    1.87
   0  -2  -5   97.26    1.89
   0   2   5   99.99    1.98
   0   2   5   96.65    1.90
   0   2   5   92.31    1.89
   0   2   6  110.14    2.22
   0   2   6  106.84    2.12
   0   2   6  107.13    2.11
   0  -2  -6  111.63    2.10
   0  -2  -6  110.97    2.09
   0  -2  -7   54.79    1.19
   0  -2  -7   58.35    1.19
   0   2   7   57.67    1.34
   0   2   7   54.07    1.19
   0   2   8    1.24    0.11
   0   2   8    1.21    0.16
   0  -2  -8    1.27    0.11
   0   2   9  171.79    3.32
   0   2   9  160.90    3.02
   0   2  10    4.32    0.32
   0   2  11   90.40    2.12
   0   2  11   88.81    1.90
   0   2  12    0.65    0.15
   0   2  12    1.04    0.14
   0   2  13   71.83    1.88
   0   2  13   69.03    1.65
   0   2  14  111.76    2.65
   0   2  14  109.35    2.41
   0   2  15    4.14    0.33
   0   2  15    4.35    0.41
   0   2  16   29.95    1.04
   0   2  16   34.33    1.28
   0   2  17   11.52    0.61
   0   2  17   11.86    0.74
   0   2  18   44.70    1.42
   0   2  18   46.56    1.67
   0   2  19    0.97    0.24
   0   2  20    4.00    0.48
   0   2  21    1.13    0.27
   0  -3  19    0.51    0.20
   0  -3  18    5.98    0.57
   0  -3  17   11.47    0.77
   0  -3  16    0.32    0.14
   0  -3  15    2.91    0.37
   0  -3  14    5.91    0.41
   0  -3  14    6.65    0.53
   0  -3  13   14.53    0.77
   0  -3  13   13.61    0.62
   0  -3  12    7.94    0.54
   0  -3  12    7.35    0.42
   0  -3  11   14.97    0.60
   0  -3  11   15.82    0.75
   0  -3  10    6.51    0.45
   0  -3  10    5.97    0.34
   0  -3   9   12.40    0.49
   0  -3   9   13.69    0.65
   0  -3   9   12.91    0.46
   0   3  -8   25.49    0.69
   0  -3   8   28.19    0.75
   0  -3   8   27.52    0.94
   0  -3   8   26.06    0.73
   0  -3   7  141.22    2.67
   0  -3   7  145.36    2.98
   0  -3   7  140.01    2.72
   0   3  -7  139.41    2.59
   0   3  -6  152.20    2.70
   0  -3   6  152.47    3.07
   0  -3   6  145.55    2.86
   0  -3   6  146.65    2.91
   0   3  -5  134.91    2.37
   0  -3   5  134.48    2.62
   0  -3   5  133.43    2.58
   0   3  -4   19.25    0.45
   0  -3   4   19.96    0.62
   0  -3   4   18.88    0.58
   0  -3   4   19.86    0.63
   0  -3   4   20.07    0.68
   0   3  -3   34.12    0.72
   0  -3   3   36.24    0.94
   0  -3   3   37.61    0.97
   0  -3   3   37.64    0.93
   0  -3   3   34.19    0.81
   0  -3   2   56.17    1.10
   0  -3   2   56.51    1.31
   0  -3   2   57.47    1.29
   0  -3   2   54.76    1.30
   0  -3   1   79.10    1.68
   0  -3   1   78.08    1.67
   0  -3   1   77.06    1.40
   0  -3   1   78.68    1.65
   0  -3   0   62.12    1.38
   0  -3   0   62.91    1.34
   0  -3   0   59.59    1.38
   0   3   0   59.67    1.31
   0  -3  -1    1.25    0.12
   0  -3  -1    1.17    0.13
   0  -3  -2   48.58    1.07
   0  -3  -2   47.22    1.14
   0   3   2   46.97    1.03
   0   3   2   46.13    0.92
   0  -3  -2   47.49    1.13
   0   3   3   29.29    0.68
   0   3   3   29.10    0.71
   0  -3  -3   28.44    0.80
   0  -3  -3   27.86    0.80
   0   3   4   17.47    0.51
   0  -3  -4   17.17    0.58
   0   3   4   18.49    0.57
   0   3   4   17.52    0.52
   0  -3  -4   17.52    0.59
   0  -3  -5    2.27    0.19
   0   3   5    2.08    0.18
   0  -3  -5    1.88    0.17
   0   3   5    2.06    0.18
   0  -3  -6   35.83    0.92
   0   3   6   34.51    0.96
   0  -3  -6   34.12    0.93
   0  -3  -7    4.49    0.27
   0   3   7    4.62    0.30
   0  -3  -7    4.56    0.27
   0  -3  -8   91.58    1.89
   0   3   8   92.15    2.04
   0  -3  -8   88.56    1.92
   0   3   9   28.06    0.92
   0  -3  -9   27.00    0.77
   0   3  10    0.19    0.09
   0  -3 -10    0.20    0.06
   0   3  11   11.37    0.59
   0   3  12    3.68    0.35
   0   3  13   30.25    0.88
   0   3  13   30.40    1.12
   0   3  14   36.98    1.31
   0   3  14   38.02    1.06
   0   3  15    5.30    0.35
   0   3  15    6.63    0.51
   0   3  16    2.16    0.32
   0   3  16    1.68    0.21
   0   3  17   54.36    1.82
   0   3  18   15.98    0.93
   0   3  19    0.85    0.23
   0   3  20    0.46    0.18
   0   3  21    1.27    0.30
   0  -4  18    5.65    0.59
   0  -4  17    4.96    0.54
   0  -4  16    1.86    0.32
   0  -4  15    2.13    0.33
   0  -4  14    0.55    0.18
   0  -4  13    4.16    0.43
   0  -4  12   15.11    0.81
   0  -4  11    3.82    0.38
   0  -4  10    9.42    0.59
   0  -4   9   34.20    1.18
   0  -4   9   31.99    0.94
   0  -4   8    7.38    0.39
   0   4  -8    7.33    0.28
   0   4  -7   39.63    0.85
   0  -4   7   41.48    1.09
   0  -4   7   42.46    1.28
   0   4  -6   36.66    0.76
   0  -4   6   36.71    1.02
   0  -4   6   37.01    1.15
   0   4  -5   54.30    1.04
   0  -4   5   54.31    1.46
   0  -4   5   53.48    1.34
   0  -4   5   55.03    1.38
   0  -4   4   60.64    1.44
   0  -4   4   59.98    1.52
   0   4  -4   58.77    1.13
   0  -4   4   61.44    1.46
   0  -4   3   31.80    0.77
   0  -4   3   31.66    0.93
   0  -4   3   32.85    0.97
   0  -4   3   32.83    0.99
   0  -4   2    1.56    0.18
   0  -4   2    1.57    0.10
   0  -4   2    1.39    0.17
   0  -4   2    1.59    0.18
   0  -4   1   26.24    0.82
   0  -4   1   24.95    0.81
   0  -4   1   26.22    0.83
   0  -4   0    5.97    0.34
   0  -4   0    6.08    0.35
   0  -4   0    6.36    0.37
   0  -4  -1   36.51    0.98
   0  -4  -1   39.25    1.06
   0  -4  -1   38.25    1.07
   0   4   2    5.69    0.29
   0  -4  -2    6.11    0.32
   0  -4  -2    6.18    0.36
   0  -4  -2    5.78    0.35
   0  -4  -3    4.14    0.30
   0   4   3    4.25    0.25
   0   4   3    4.84    0.27
   0  -4  -3    4.57    0.31
   0  -4  -4   11.42    0.52
   0  -4  -4   10.95    0.50
   0   4   4   11.24    0.42
   0   4   4   12.08    0.41
   0  -4  -5    0.47    0.11
   0  -4  -5    0.27    0.08
   0   4   5    0.15    0.04
   0   4   5    0.36    0.09
   0   4   5    0.19    0.06
   0   4   6  124.45    2.58
   0   4   6  122.02    2.42
   0  -4  -6  125.63    2.60
   0  -4  -6  122.39    2.57
   0   4   7    2.57    0.20
   0   4   7    2.59    0.24
   0  -4  -7    2.26    0.22
   0  -4  -7    2.35    0.22
   0  -4  -8   16.28    0.63
   0  -4  -8   17.35    0.66
   0   4   8   17.49    0.69
   0   4   9   15.37    0.67
   0  -4  -9   14.64    0.59
   0   4  10    0.46    0.12
   0  -4 -10    0.49    0.10
   0   4  11   32.41    1.12
   0   4  12   18.30    0.84
   0   4  13    0.42    0.09
   0   4  13    0.83    0.19
   0   4  14   43.80    1.49
   0   4  15   11.06    0.70
   0   4  16    2.05    0.31
   0   4  17   13.34    0.84
   0   4  18    1.07    0.26
   0   4  19    2.25    0.36
   0   4  20    1.04    0.28
   0  -5  17    3.93    0.51
   0  -5  16    0.13    0.14
   0  -5  15    9.20    0.74
   0  -5  14    1.06    0.26
   0  -5  13    3.65    0.43
   0  -5  12   13.85    0.83
   0  -5  11   14.71    0.83
   0  -5  10   15.48    0.83
   0  -5   9   19.79    0.75
   0  -5   9   20.10    0.94
   0  -5   8    8.66    0.48
   0  -5   8    9.72    0.61
   0  -5   7   37.11    1.13
   0  -5   7   40.30    1.33
   0  -5   6   43.91    1.38
   0  -5   6   42.23    1.22
   0  -5   5   26.92    0.90
   0  -5   5   27.54    1.00
   0   5  -5   24.55    0.51
   0  -5   5   27.90    0.94
   0  -5   4   10.03    0.51
   0   5  -4   10.08    0.29
   0  -5   4    9.85    0.55
   0  -5   4   10.59    0.54
   0  -5   3   31.51    1.01
   0  -5   3   30.52    0.98
   0  -5   3   32.71    1.05
   0  -5   2   27.84    0.60
   0  -5   2   30.48    0.99
   0  -5   2   30.96    0.99
   0  -5   2   29.53    0.96
   0  -5   2   26.79    0.62
   0  -5   1    2.74    0.26
   0  -5   1    2.67    0.26
   0  -5   1    2.49    0.25
   0  -5   0    2.37    0.25
   0  -5   0    2.42    0.25
   0  -5   0    2.63    0.25
   0  -5  -1   22.55    0.83
   0  -5  -1   21.69    0.77
   0  -5  -1   20.20    0.79
   0   5   2    1.54    0.15
   0  -5  -2    1.67    0.21
   0  -5  -2    1.17    0.16
   0  -5  -2    1.21    0.19
   0   5   3  111.40    2.25
   0  -5  -3  106.48    2.41
   0  -5  -3  104.42    2.43
   0  -5  -4    8.12    0.48
   0  -5  -4    8.27    0.47
   0   5   4    7.46    0.29
   0   5   4    7.85    0.40
   0  -5  -5   68.16    1.70
   0   5   5   64.65    1.45
   0  -5  -5   70.29    1.74
   0   5   5   71.71    1.63
   0   5   5   61.93    1.46
   0   5   6    6.44    0.39
   0   5   6    5.73    0.31
   0  -5  -6    7.08    0.44
   0   5   6    5.65    0.33
   0  -5  -6    6.88    0.42
   0   5   7   37.69    1.11
   0  -5  -7   35.75    1.11
   0  -5  -7   37.12    1.16
   0  -5  -8    8.60    0.50
   0  -5  -8    8.64    0.49
   0   5   8    8.80    0.51
   0  -5  -9   48.27    1.37
   0   5   9   50.32    1.45
   0  -5 -10   78.50    1.92
   0   5  10   81.50    2.07
   0   5  11    2.02    0.27
   0  -5 -11    1.65    0.21
   0   5  12    2.19    0.30
   0   5  13    0.01    0.09
   0   5  14    8.67    0.62
   0   5  15    3.53    0.41
   0   5  16   -0.11    0.14
   0   5  17    1.26    0.27
   0   5  18    2.50    0.39
   0   5  19    0.60    0.22
   0  -6  15    9.46    0.80
   0  -6  14    3.49    0.47
   0  -6  13    8.54    0.72
   0  -6  12    7.78    0.66
   0  -6  11    2.70    0.38
   0  -6  10    3.92    0.45
   0  -6   9    0.51    0.13
   0  -6   9    0.63    0.19
   0  -6   8    9.35    0.65
   0  -6   8    8.67    0.52
   0  -6   7    0.03    0.07
   0  -6   7    0.07    0.10
   0  -6   6    5.56    0.47
   0  -6   6    5.06    0.39
   0  -6   5    6.17    0.49
   0  -6   5    6.51    0.45
   0  -6   4   23.31    0.91
   0  -6   4   23.69    0.99
   0  -6   3    0.58    0.15
   0  -6   3    0.58    0.14
   0  -6   3    0.49    0.14
   0   6  -3    0.41    0.06
   0   6  -2    0.11    0.04
   0  -6   2    0.15    0.09
   0  -6   2   -0.05    0.08
   0  -6   1   31.44    1.10
   0  -6   1   31.79    1.13
   0   6  -1   33.63    0.82
   0  -6   1   32.12    1.10
   0  -6   0   51.68    1.48
   0  -6   0   53.91    1.55
   0   6   0   56.85    1.26
   0  -6   0   54.47    1.58
   0   6   1   49.01    1.17
   0  -6  -1   47.12    1.44
   0  -6  -1   46.34    1.36
   0  -6  -1   45.27    1.39
   0  -6  -2    5.28    0.38
   0   6   2    5.54    0.32
   0  -6  -2    5.34    0.42
   0  -6  -2    5.30    0.41
   0   6   3   27.71    0.86
   0  -6  -3   27.57    1.03
   0  -6  -3   26.89    1.00
   0  -6  -4   12.05    0.64
   0   6   4   13.43    0.57
   0  -6  -4   13.55    0.69
   0   6   5   37.11    1.10
   0  -6  -5   34.63    1.18
   0  -6  -5   35.42    1.23
   0   6   6    0.26    0.10
   0  -6  -6    0.21    0.12
   0  -6  -6    0.35    0.14
   0   6   7   72.27    1.82
   0  -6  -7   71.16    1.92
   0  -6  -8   10.19    0.59
   0   6   8   10.57    0.59
   0  -6  -9    0.71    0.17
   0   6   9    0.85    0.18
   0  -6 -10    4.16    0.37
   0   6  10    4.44    0.40
   0  -6 -11    7.35    0.49
   0   6  11    7.72    0.56
   0   6  12    0.42    0.16
   0   6  13    2.09    0.31
   0   6  14    9.93    0.70
   0   6  15    9.20    0.69
   0   6  16    3.73    0.46
   0   6  17    2.54    0.39
   0   6  18    5.88    0.62
   0  -7  13    0.32    0.18
   0  -7  12    0.78    0.23
   0  -7  11    5.32    0.57
   0  -7  10    1.66    0.32
   0  -7   9    0.08    0.09
   0  -7   8   22.10    1.12
   0  -7   8   20.07    0.90
   0  -7   7   15.56    0.91
   0  -7   7   15.11    0.77
   0  -7   6   20.61    0.92
   0  -7   6   21.56    1.05
   0  -7   5    1.67    0.28
   0  -7   5    1.88    0.26
   0  -7   4   21.12    0.93
   0  -7   4   21.99    1.02
   0  -7   3   11.38    0.66
   0  -7   3   11.84    0.71
   0  -7   2    1.97    0.27
   0  -7   2    1.72    0.26
   0  -7   1   11.76    0.68
   0  -7   1   10.53    0.63
   0  -7   0    5.66    0.46
   0   7   0    5.71    0.31
   0  -7   0    5.49    0.44
   0   7   1   38.79    1.05
   0  -7  -1   37.75    1.33
   0  -7  -1   37.88    1.29
   0   7   2    8.89    0.45
   0  -7  -2    7.39    0.50
   0  -7  -2    8.32    0.57
   0  -7  -3    7.23    0.53
   0   7   3    7.76    0.44
   0  -7  -3    8.12    0.57
   0  -7  -4   28.33    1.13
   0   7   4   31.68    1.01
   0  -7  -5    1.00    0.21
   0   7   5    1.30    0.20
   0   7   6   15.48    0.71
   0  -7  -6   13.99    0.76
   0   7   7    6.86    0.47
   0  -7  -7    6.25    0.50
   0   7   8   13.19    0.69
   0  -7  -8   11.80    0.69
   0  -7  -9    1.23    0.22
   0   7   9    0.94    0.20
   0   7  10   24.81    1.06
   0  -7 -10   22.14    0.98
   0   7  11    6.22    0.52
   0  -7 -11    4.92    0.44
   0   7  12    5.64    0.52
   0   7  13    6.10    0.55
   0   7  14   12.18    0.82
   0   7  15    0.39    0.19
   0   7  16   10.15    0.80
   0  -8  11    2.42    0.42
   0  -8  10    0.85    0.24
   0  -8   9    3.62    0.48
   0  -8   8    4.08    0.50
   0  -8   7    0.56    0.18
   0  -8   7    0.44    0.15
   0  -8   6    0.26    0.13
   0  -8   6    0.22    0.13
   0  -8   5    3.71    0.41
   0  -8   5    3.96    0.46
   0  -8   4   32.01    1.27
   0  -8   4   32.70    1.36
   0  -8   3   12.41    0.75
   0  -8   3   12.25    0.77
   0  -8   2    0.17    0.09
   0  -8   2    0.19    0.12
   0  -8   1    7.56    0.58
   0  -8   1    8.17    0.60
   0  -8   0    2.42    0.33
   0  -8   0    2.77    0.36
   0  -8  -1   11.00    0.69
   0  -8  -1   11.28    0.72
   0  -8  -2   24.55    1.10
   0  -8  -3    1.14    0.24
   0   8   4    3.31    0.31
   0  -8  -4    3.56    0.40
   0   8   5    0.07    0.08
   0  -8  -5    0.05    0.09
   0   8   6   21.67    0.91
   0  -8  -6   19.85    0.99
   0  -8  -7   13.25    0.80
   0   8   7   14.95    0.77
   0   8   8    2.01    0.29
   0  -8  -8    1.88    0.30
   0  -8  -9    0.15    0.11
   0   8   9    0.02    0.09
   0   8  10    2.68    0.35
   0  -8 -10    1.97    0.30
   0   8  11    4.22    0.46
   0   8  12    1.55    0.29
   0   8  13    0.36    0.18
   0   8  14    9.92    0.77
   0   8  15    0.25    0.16
   0  -9   9    0.95    0.29
   0  -9   8    0.58    0.23
   0  -9   7    0.23    0.15
   0  -9   6    1.35    0.30
   0  -9   5   35.52    1.43
   0  -9   5   34.57    1.53
   0  -9   4    1.99    0.35
   0  -9   4    2.45    0.36
   0  -9   3   14.08    0.85
   0  -9   3   12.06    0.84
   0  -9   2    0.20    0.12
   0  -9   2    0.11    0.09
   0  -9   1    3.48    0.43
   0  -9   0    0.22    0.14
   0  -9  -1    5.09    0.51
   0  -9  -2    1.25    0.27
   0  -9  -3    5.85    0.55
   0  -9  -4    2.53    0.37
   0  -9  -5    1.48    0.29
   0  -9  -6    0.55    0.20
   0  -9  -7    0.56    0.18
   0  -9  -8    0.07    0.10
   0   9   9    2.11    0.32
   0   9  10    2.92    0.39
   0   9  11    0.69    0.21
   0   9  12    0.10    0.09
   0   9  13    5.73    0.60
  -1   9  13    1.47    0.31
  -1   9  12    2.04    0.35
   1  -9 -12    1.32    0.28
  -1   9  11    1.26    0.28
   1  -9 -11    1.44    0.29
   1  -9 -10    2.38    0.37
   1  -9  -9    0.90    0.23
   1  -9  -8    0.26    0.14
   1  -9  -7    1.74    0.32
   1  -9  -6    2.42    0.38
   1  -9  -5    0.44    0.18
   1  -9  -4   16.90    0.98
   1  -9  -3    2.87    0.40
   1  -9  -2   10.48    0.76
   1  -9  -1    0.53    0.18
   1  -9   0    3.73    0.45
   1  -9   1   20.51    1.08
   1  -9   2    0.21    0.16
   1  -9   3    0.94    0.24
   1  -9   4    0.20    0.15
   1  -9   5    0.24    0.14
   1  -9   5    0.12    0.11
   1  -9   6    0.26    0.16
   1  -9   6    0.09    0.09
   1  -9   7    1.01    0.27
   1  -9   7    0.99    0.23
   1  -9   8    0.09    0.14
   1  -9   8   -0.11    0.10
   1  -9   9   -0.05    0.11
   1  -9   9    0.06    0.13
  -1   8  14   12.87    0.91
  -1   8  13    1.65    0.32
   1  -8 -13    1.36    0.26
  -1   8  12    2.07    0.34
   1  -8 -12    1.77    0.29
   1  -8 -11    1.88    0.31
  -1   8  11    1.67    0.29
  -1   8  10   14.99    0.87
   1  -8 -10   15.10    0.87
  -1   8   9    6.97    0.56
   1  -8  -9    6.25    0.55
  -1   8   8   11.66    0.71
   1  -8  -8   11.32    0.75
   1  -8  -7    9.08    0.66
  -1   8   7    9.12    0.60
  -1   8   6    1.08    0.20
   1  -8  -6    1.32    0.25
   1  -8  -5    0.15    0.12
   1  -8  -4    9.35    0.68
   1  -8  -3   15.81    0.88
   1  -8  -2    0.73    0.20
   1  -8  -1    0.34    0.14
   1  -8   0    0.00    0.09
   1  -8   1   20.39    1.00
   1  -8   1   18.77    0.90
   1  -8   2    5.39    0.48
   1  -8   2    6.07    0.53
   1  -8   3    0.30    0.14
   1  -8   3    0.28    0.13
   1  -8   4    0.52    0.17
   1  -8   4    0.74    0.19
   1  -8   5    7.69    0.62
   1  -8   5    7.20    0.58
   1  -8   6    0.15    0.13
   1  -8   6    0.17    0.12
   1  -8   7   14.10    0.90
   1  -8   7   13.12    0.79
   1  -8   8    4.58    0.46
   1  -8   8    5.24    0.55
   1  -8   9    1.79    0.33
   1  -8   9    1.56    0.27
   1  -8  10    1.02    0.27
   1  -8  10    0.92    0.22
   1  -8  11   -0.04    0.10
  -1   7  16    0.08    0.11
  -1   7  15    3.38    0.45
  -1   7  14    2.38    0.37
   1  -7 -13    4.00    0.41
  -1   7  13    5.62    0.55
  -1   7  12    0.93    0.22
   1  -7 -12    0.98    0.21
   1  -7 -11    0.39    0.14
  -1   7  11    0.87    0.21
   1  -7 -10    8.34    0.59
  -1   7  10    9.63    0.65
   1  -7  -9   28.30    1.16
  -1   7   9   29.69    1.17
   1  -7  -8   -0.21    0.12
  -1   7   8    0.18    0.13
   1  -7  -7   11.06    0.68
  -1   7   7   10.96    0.63
  -1   7   6    6.06    0.44
   1  -7  -6    5.73    0.49
   1  -7  -5    7.42    0.56
  -1   7   5    7.17    0.46
   1  -7  -4   10.40    0.66
  -1   7   4   10.25    0.54
   1  -7  -3   28.16    1.13
  -1   7   3   25.23    0.87
  -1   7   2   33.78    0.99
   1  -7  -2   30.67    1.04
   1  -7  -2   33.47    1.26
   1  -7  -1   14.25    0.67
   1  -7  -1   15.87    0.82
   1  -7   0   22.88    0.91
   1  -7   0   25.60    1.07
   1  -7   1    3.16    0.32
   1  -7   1    3.32    0.37
   1  -7   2    4.54    0.43
   1  -7   2    4.19    0.38
   1  -7   3    0.36    0.12
   1  -7   3    0.05    0.09
   1  -7   4   21.67    0.97
   1  -7   4   21.87    0.98
   1  -7   5    5.32    0.47
   1  -7   5    5.56    0.47
   1  -7   6   19.70    0.96
   1  -7   6   19.85    0.92
   1  -7   7    8.06    0.61
   1  -7   7    7.46    0.55
   1  -7   8    0.01    0.09
   1  -7   8    0.02    0.07
   1  -7   9    0.33    0.14
   1  -7   9    0.68    0.20
   1  -7  10    2.80    0.39
   1  -7  10    1.74    0.27
   1  -7  11    0.25    0.10
   1  -7  11    0.27    0.16
   1  -7  12    6.95    0.65
   1  -7  13   11.26    0.86
  -1   6  17    0.71    0.23
  -1   6  16    0.02    0.13
  -1   6  15    8.28    0.69
  -1   6  14    7.74    0.64
  -1   6  13    4.39    0.46
   1  -6 -13    3.72    0.36
  -1   6  12    7.64    0.59
   1  -6 -12    7.32    0.51
   1  -6 -11    4.50    0.39
  -1   6  11    5.03    0.46
   1  -6 -10    7.58    0.52
  -1   6  10    7.28    0.54
   1  -6  -9   33.85    1.20
  -1   6   9   33.73    1.21
  -1   6   8    5.29    0.42
   1  -6  -8    4.31    0.40
   1  -6  -7   31.80    1.16
  -1   6   7   32.01    1.10
   1  -6  -6    0.25    0.11
  -1   6   6    0.43    0.13
  -1   6   5  148.17    3.07
   1  -6  -5  142.23    3.24
   1  -6  -4   30.77    1.13
  -1   6   4   31.08    0.97
   1  -6  -3   20.92    0.89
   1  -6  -3   19.32    0.70
   1  -6  -2    3.65    0.35
   1  -6  -2    3.47    0.28
  -1   6   2    3.83    0.27
  -1   6   1   16.03    0.56
   1  -6  -1   14.83    0.74
   1  -6  -1   14.87    0.62
   1  -6   0    9.11    0.56
  -1   6   0    9.28    0.38
   1  -6   0    8.84    0.48
   1  -6   1    1.35    0.19
  -1   6  -1    1.41    0.12
   1  -6   1    1.30    0.21
   1  -6   2    8.20    0.50
   1  -6   2   10.58    0.59
   1  -6   3   11.75    0.62
   1  -6   3   12.73    0.67
   1  -6   4   61.90    1.73
   1  -6   4   61.96    1.73
   1  -6   5    2.06    0.27
   1  -6   5    1.95    0.25
   1  -6   6   12.42    0.69
   1  -6   6   12.51    0.66
   1  -6   7    2.80    0.33
   1  -6   7    3.01    0.32
   1  -6   8   22.76    0.92
   1  -6   8   23.47    1.03
   1  -6   9    0.73    0.19
   1  -6   9    0.58    0.15
   1  -6  10   53.20    1.57
   1  -6  10   58.85    1.85
   1  -6  11    0.05    0.06
   1  -6  11    0.26    0.14
   1  -6  12    2.26    0.35
   1  -6  13    0.30    0.14
   1  -6  14    0.85    0.25
   1  -6  15    0.26    0.15
  -1   5  18    0.91    0.27
  -1   5  17    9.64    0.77
  -1   5  16   68.54    2.23
  -1   5  15    0.61    0.20
  -1   5  14    1.53    0.28
  -1   5  13    7.49    0.57
   1  -5 -13    6.17    0.42
   1  -5 -12   26.31    0.94
  -1   5  12   27.81    1.14
   1  -5 -11    9.01    0.51
  -1   5  11    8.83    0.59
  -1   5  10    9.19    0.57
   1  -5 -10    8.83    0.51
  -1   5   9   11.80    0.63
   1  -5  -9   10.48    0.57
  -1   5   8   68.83    1.80
   1  -5  -8   67.95    1.77
  -1   5   7    1.18    0.19
   1  -5  -7    1.14    0.18
  -1   5   6   54.52    1.46
   1  -5  -6   56.10    1.53
   1  -5  -5    0.96    0.18
  -1   5   5    1.23    0.13
  -1   5   5    1.45    0.18
  -1   5   4   38.88    0.89
  -1   5   4   39.59    1.09
  -1   5   4   41.12    0.95
   1  -5  -4   39.82    1.23
  -1   5   3   17.87    0.44
  -1   5   3   17.66    0.42
   1  -5  -3   19.07    0.77
   1  -5  -3   18.80    0.58
  -1   5   3   19.82    0.65
   1  -5  -2   19.40    0.63
   1  -5  -2   19.68    0.80
  -1   5   2   21.21    0.66
   1  -5  -1   17.46    0.74
   1  -5  -1   17.01    0.61
  -1   5   1   18.14    0.57
   1  -5   0   11.36    0.59
  -1   5   0   12.66    0.42
   1  -5   0   11.66    0.50
  -1   5  -1   17.72    0.48
   1  -5   1   16.42    0.72
   1  -5   1   17.71    0.66
   1  -5   2   20.98    0.81
  -1   5  -2   19.05    0.45
   1  -5   2   21.22    0.75
   1  -5   3    3.88    0.22
   1  -5   3    3.97    0.33
   1  -5   3    4.71    0.34
   1  -5   4   42.61    1.25
   1  -5   4   39.07    1.04
   1  -5   4   42.07    1.23
   1  -5   5   45.96    1.34
   1  -5   5   43.64    1.29
   1  -5   6   50.58    1.50
   1  -5   6   55.50    1.48
   1  -5   7   84.87    2.04
   1  -5   7   85.95    2.17
   1  -5   8    7.85    0.53
   1  -5   8    8.89    0.50
   1  -5   9   55.52    1.67
   1  -5   9   52.79    1.47
   1  -5  10   22.40    0.99
   1  -5  10   20.72    0.80
   1  -5  11    1.10    0.22
   1  -5  11    1.45    0.20
   1  -5  12    0.53    0.12
   1  -5  12    0.61    0.18
   1  -5  13   18.18    0.97
   1  -5  14    1.49    0.29
   1  -5  15    0.36    0.18
   1  -5  16    4.39    0.51
   1  -5  17    0.35    0.15
  -1   4  19    0.70    0.21
  -1   4  18    0.23    0.15
  -1   4  17   -0.24    0.14
  -1   4  16   10.85    0.76
  -1   4  15    0.55    0.20
  -1   4  14   36.55    1.38
  -1   4  13   31.97    1.22
   1  -4 -13   30.02    0.93
   1  -4 -12   24.25    0.83
  -1   4  12   27.11    1.07
   1  -4 -11    2.17    0.22
  -1   4  11    2.37    0.29
  -1   4  10    0.81    0.06
   1  -4 -10    0.88    0.14
  -1   4  10    0.92    0.18
   1  -4  -9   29.37    0.93
  -1   4   9   29.48    1.03
  -1   4   8    0.20    0.10
   1  -4  -8    0.39    0.10
   1  -4  -7    0.34    0.09
  -1   4   7    0.34    0.10
  -1   4   6   49.22    1.30
   1  -4  -6   48.49    1.32
  -1   4   5   33.26    0.96
  -1   4   5   32.28    0.85
   1  -4  -5   34.02    1.03
  -1   4   4   18.03    0.62
   1  -4  -4   18.15    0.70
   1  -4  -3    0.05    0.06
   1  -4  -3    0.01    0.02
  -1   4   3    0.07    0.05
  -1   4   3    0.04    0.03
   1  -4  -2    3.15    0.19
  -1   4   2    3.29    0.22
   1  -4  -2    3.57    0.29
  -1   4   2    3.58    0.17
   1  -4  -1  386.06    7.23
  -1   4   1  401.05    6.95
   1  -4  -1  397.69    6.97
   1  -4   0   62.00    1.41
  -1   4   0   66.15    1.33
   1  -4   0   64.02    1.59
   1  -4   1   27.88    0.78
   1  -4   1   27.19    0.89
   1  -4   1   25.17    0.58
  -1   4  -1   27.54    0.62
   1  -4   2   41.94    1.15
   1  -4   2   42.05    1.06
   1  -4   2   41.52    0.92
   1  -4   3   99.19    2.01
   1  -4   3   97.47    2.13
   1  -4   3   99.03    2.19
   1  -4   4   59.57    1.45
   1  -4   4   63.71    1.55
   1  -4   4   63.21    1.53
   1  -4   5   71.02    1.71
   1  -4   5   73.46    1.76
   1  -4   6   21.06    0.79
   1  -4   6   20.55    0.74
   1  -4   7   10.63    0.56
   1  -4   7    9.84    0.48
   1  -4   8    5.47    0.41
   1  -4   8    5.29    0.34
   1  -4   9   45.17    1.38
   1  -4   9   41.41    1.15
   1  -4  10   20.74    0.89
   1  -4  10   19.03    0.70
   1  -4  11   38.06    1.32
   1  -4  11   35.95    1.05
   1  -4  12    0.32    0.15
   1  -4  12    0.40    0.10
   1  -4  13   21.06    1.00
   1  -4  14    1.15    0.24
   1  -4  15    6.73    0.58
   1  -4  16    0.89    0.23
   1  -4  17   13.32    0.89
   1  -4  18    0.97    0.25
  -1   3  20    2.49    0.41
  -1   3  19    1.88    0.34
  -1   3  18    1.10    0.26
  -1   3  17    0.99    0.24
  -1   3  16   33.97    1.38
  -1   3  15   42.06    1.52
  -1   3  14    0.43    0.15
  -1   3  13   14.55    0.53
  -1   3  13   15.27    0.79
   1  -3 -12   12.48    0.49
  -1   3  12   12.53    0.46
  -1   3  11   20.58    0.60
   1  -3 -11   21.84    0.69
   1  -3 -10    0.17    0.07
  -1   3  10    0.33    0.12
  -1   3  10    0.24    0.05
  -1   3   9   72.86    1.84
   1  -3  -9   74.65    1.65
  -1   3   9   72.79    1.42
  -1   3   8    3.36    0.14
   1  -3  -8    3.88    0.27
  -1   3   8    3.76    0.30
   1  -3  -7   25.12    0.77
  -1   3   7   23.61    0.82
  -1   3   6    3.43    0.26
   1  -3  -6    3.75    0.26
   1  -3  -5   21.76    0.72
  -1   3   5   21.40    0.70
  -1   3   4    7.29    0.36
   1  -3  -4    7.78    0.39
  -1   3   3  200.17    3.72
   1  -3  -3  201.41    3.83
   1  -3  -2   45.14    0.90
  -1   3   2   44.80    1.04
   1  -3  -2   45.47    1.15
   1  -3  -2   42.89    1.03
  -1   3   2   45.86    0.99
   1  -3  -1   66.63    1.31
   1  -3  -1   63.94    1.35
  -1   3   1   67.63    1.31
  -1   3   1   68.17    1.38
   1  -3  -1   67.16    1.54
   1  -3   0   10.48    0.46
  -1   3   0   10.88    0.34
  -1   3   0   10.20    0.30
   1  -3   0   10.52    0.36
   1  -3   1   14.72    0.47
   1  -3   1   13.03    0.52
  -1   3  -1   14.25    0.38
   1  -3   1   14.15    0.42
  -1   3  -1   14.12    0.36
   1  -3   2    5.39    0.28
  -1   3  -2    5.04    0.21
   1  -3   2    4.78    0.25
   1  -3   2    4.97    0.30
   1  -3   3    0.70    0.11
  -1   3  -3    0.70    0.08
   1  -3   3    0.64    0.11
   1  -3   3    0.71    0.10
   1  -3   4   24.62    0.76
   1  -3   4   24.55    0.77
  -1   3  -4   25.56    0.67
   1  -3   4   24.43    0.76
  -1   3  -5   40.64    0.99
   1  -3   5   40.92    1.09
   1  -3   5   39.02    1.05
   1  -3   6   35.67    1.04
   1  -3   6   36.39    0.98
   1  -3   7    8.95    0.41
   1  -3   7    8.65    0.26
   1  -3   8  134.48    2.77
   1  -3   8  129.90    2.54
   1  -3   9   15.26    0.54
   1  -3   9   14.35    0.45
   1  -3   9   15.88    0.69
   1  -3  10   24.13    0.72
   1  -3  10   25.25    0.94
   1  -3  10   23.66    0.67
   1  -3  11    8.28    0.37
   1  -3  11    8.61    0.39
   1  -3  11    9.00    0.55
   1  -3  12   31.51    0.90
   1  -3  12   31.00    0.85
   1  -3  13   12.42    0.70
   1  -3  13   10.58    0.48
   1  -3  14    0.03    0.10
   1  -3  15    3.62    0.40
   1  -3  16   11.79    0.76
   1  -3  17    1.77    0.30
   1  -3  18    0.95    0.24
   1  -3  19   -0.03    0.10
  -1   2  21    2.51    0.41
  -1   2  20    7.12    0.67
  -1   2  19    0.32    0.17
  -1   2  18    3.83    0.46
  -1   2  17   -0.05    0.11
  -1   2  16    2.57    0.26
  -1   2  16    2.69    0.36
  -1   2  15    1.18    0.17
  -1   2  15    0.81    0.20
  -1   2  14   10.95    0.66
  -1   2  14    8.50    0.45
  -1   2  13    0.15    0.13
  -1   2  13    0.13    0.07
   1  -2 -12   27.13    0.67
  -1   2  12   28.94    1.07
  -1   2  12   27.68    0.82
  -1   2  11    0.05    0.03
  -1   2  11    0.03    0.04
   1  -2 -11    0.07    0.04
  -1   2  11   -0.05    0.08
  -1   2  10   38.94    0.96
   1  -2 -10   40.49    0.94
  -1   2  10   40.86    1.23
  -1   2  10   37.90    0.92
  -1   2   9   31.64    1.01
  -1   2   9   29.05    0.78
   1  -2  -9   32.03    0.80
  -1   2   9   30.63    0.77
  -1   2   8   31.86    0.97
  -1   2   8   30.61    0.73
   1  -2  -8   33.37    0.82
   1  -2  -7   53.74    1.18
  -1   2   7   51.85    1.04
  -1   2   7   51.94    1.32
  -1   2   6   11.45    0.44
  -1   2   6   12.18    0.32
  -1   2   6   13.10    0.52
   1  -2  -6   14.13    0.47
   1  -2  -5    8.29    0.34
  -1   2   5    7.78    0.37
   1  -2  -4    0.04    0.03
  -1   2   4    0.02    0.03
   1  -2  -3   35.82    0.88
   1  -2  -3   33.29    0.86
  -1   2   3   34.47    0.86
  -1   2   2   37.25    0.86
   1  -2  -2   37.44    0.91
  -1   2   1  459.73    7.95
   1  -2  -1  446.59    7.82
  -1   2   1  479.58    7.96
   1  -2  -1  467.98    8.07
   1  -2   0  788.70   12.91
  -1   2   0  786.76   12.86
   1  -2   0  751.50   13.01
   1  -2   1  163.09    2.97
  -1   2  -1  162.87    2.91
  -1   2  -1  163.47    2.84
   1  -2   1  153.88    2.90
   1  -2   1  162.31    2.82
   1  -2   1  157.82    3.02
   1  -2   2  134.44    2.51
   1  -2   2  132.12    2.57
   1  -2   2  136.64    2.56
  -1   2  -2  132.89    2.48
   1  -2   3   10.81    0.41
   1  -2   3   12.04    0.42
  -1   2  -3   12.14    0.40
   1  -2   3   11.99    0.45
   1  -2   4   16.72    0.54
   1  -2   4   14.87    0.50
   1  -2   4   15.37    0.33
   1  -2   4   15.58    0.57
  -1   2  -4   16.71    0.51
  -1   2  -5  162.93    3.00
   1  -2   5  152.25    3.02
   1  -2   5  156.68    2.74
   1  -2   5  154.28    2.95
  -1   2  -6   62.67    1.38
   1  -2   6   58.93    1.15
   1  -2   6   60.24    1.40
   1  -2   6   59.33    1.29
  -1   2  -7   19.98    0.66
   1  -2   7   18.46    0.56
   1  -2   7   19.01    0.49
   1  -2   7   18.76    0.67
   1  -2   8   36.44    1.04
   1  -2   8   36.79    0.86
   1  -2   8   33.90    0.82
   1  -2   9    9.09    0.35
  -1   2  -9    7.84    0.34
   1  -2   9    9.08    0.36
   1  -2   9    8.97    0.48
  -1   2 -10    1.91    0.16
   1  -2  10    2.09    0.15
   1  -2  10    2.38    0.19
   1  -2  10    2.35    0.25
   1  -2  11    3.44    0.31
  -1   2 -11    3.24    0.20
   1  -2  11    3.20    0.19
   1  -2  11    3.37    0.24
   1  -2  12    0.39    0.09
   1  -2  12    0.38    0.14
   1  -2  12    0.38    0.06
   1  -2  13   31.49    0.98
   1  -2  13   31.53    1.15
   1  -2  14    0.72    0.18
   1  -2  14    0.48    0.11
   1  -2  15    6.91    0.53
   1  -2  15    6.72    0.44
   1  -2  16    4.80    0.46
   1  -2  16    5.14    0.40
   1  -2  17    6.27    0.55
   1  -2  18   28.28    1.26
   1  -2  19    2.24    0.35
   1  -2  20    8.18    0.69
  -1   1  21    0.05    0.13
  -1   1  20    9.94    0.78
  -1   1  19    0.77    0.22
  -1   1  18    0.19    0.10
  -1   1  18    0.27    0.13
  -1   1  17    0.32    0.11
  -1   1  17    0.21    0.12
  -1   1  16   24.99    1.11
  -1   1  16   24.31    0.94
  -1   1  15   46.25    1.56
  -1   1  15   47.57    1.38
  -1   1  14    4.44    0.34
  -1   1  14    4.72    0.43
  -1   1  13   14.35    0.62
  -1   1  13   15.32    0.75
  -1   1  12   20.09    0.71
  -1   1  12   20.13    0.85
  -1   1  11   12.15    0.50
  -1   1  11   12.61    0.62
  -1   1  10   14.89    0.54
  -1   1  10   15.90    0.69
  -1   1  10   14.74    0.38
   1  -1 -10   15.24    0.39
  -1   1   9    0.14    0.03
  -1   1   9    0.15    0.07
   1  -1  -9    0.18    0.04
  -1   1   8    2.25    0.14
  -1   1   8    2.48    0.18
  -1   1   8    2.24    0.22
   1  -1  -8    2.21    0.14
  -1   1   7    0.11    0.04
   1  -1  -7    0.10    0.03
  -1   1   7    0.09    0.07
  -1   1   6   29.30    0.70
  -1   1   6   31.13    0.87
  -1   1   5   61.04    1.22
  -1   1   5   62.51    1.41
   1  -1  -5   62.66    1.22
  -1   1   4   19.39    0.47
   1  -1  -4   20.48    0.46
  -1   1   4   20.02    0.61
  -1   1   3  105.90    2.02
   1  -1  -3  101.40    2.02
  -1   1   3  103.49    1.84
   1  -1  -3  100.94    1.82
  -1   1   2  601.04   10.35
   1  -1  -2  606.76   10.37
  -1   1   1  291.85    5.24
  -1   1   1  301.43    5.21
   1  -1  -1  300.80    5.22
   1  -1   0  594.35   10.21
  -1   1   0  614.43   10.26
  -1   1   0  610.89   10.20
   1  -1   1  335.76    5.95
  -1   1  -1  346.80    5.91
  -1   1  -2  340.69    5.98
   1  -1   2  341.87    6.03
  -1   1  -3   56.92    1.23
   1  -1   3   56.29    1.29
   1  -1   4   65.37    1.51
  -1   1  -4   68.90    1.45
  -1   1  -5   19.42    0.62
  -1   1  -6   49.19    1.20
  -1   1  -7  169.34    3.22
   1  -1   7  160.99    2.96
   1  -1   7  162.57    3.01
  -1   1  -8    2.79    0.24
   1  -1   8    2.45    0.18
   1  -1   8    2.73    0.15
   1  -1   9   65.25    1.59
   1  -1   9   67.86    1.31
   1  -1   9   65.11    1.46
   1  -1  10    0.06    0.06
  -1   1 -10    0.15    0.04
   1  -1  10    0.07    0.03
   1  -1  10    0.11    0.06
   1  -1  11   41.21    1.21
  -1   1 -11   37.95    0.82
   1  -1  11   40.47    0.82
   1  -1  12   16.84    0.72
   1  -1  12   16.34    0.63
   1  -1  12   15.14    0.34
   1  -1  13  101.05    2.37
   1  -1  13   95.70    2.20
   1  -1  14   21.69    0.90
   1  -1  14   21.09    0.82
   1  -1  15    1.94    0.27
   1  -1  15    1.51    0.21
   1  -1  16    1.14    0.22
   1  -1  16    1.39    0.21
   1  -1  17   11.95    0.73
   1  -1  17   11.67    0.67
   1  -1  18    1.87    0.29
   1  -1  18    1.81    0.27
   1  -1  19    2.37    0.33
   1  -1  19    2.67    0.37
   1  -1  20    5.39    0.54
   1  -1  21   -0.07    0.13
  -1   0  22   11.27    0.88
  -1   0  21    0.39    0.19
  -1   0  20    7.64    0.61
  -1   0  20    8.55    0.71
  -1   0  19    5.77    0.56
  -1   0  19    5.95    0.52
  -1   0  18    9.60    0.64
  -1   0  18    8.76    0.66
  -1   0  17   10.34    0.64
  -1   0  17   11.88    0.75
  -1   0  16   24.06    0.98
  -1   0  16   24.67    1.08
  -1   0  15    3.69    0.35
  -1   0  15    4.33    0.42
  -1   0  14    1.77    0.26
  -1   0  14    2.23    0.26
  -1   0  13   51.46    1.56
  -1   0  13   52.52    1.45
  -1   0  12    0.34    0.11
  -1   0  12    0.19    0.10
  -1   0  11   20.05    0.73
  -1   0  11   19.33    0.79
  -1   0  10    0.79    0.13
  -1   0  10    0.84    0.15
  -1   0   9   82.53    1.91
  -1   0   9   79.46    1.78
  -1   0   8   27.84    0.81
  -1   0   8   28.04    0.88
  -1   0   7  344.00    6.03
  -1   0   7  329.42    6.14
  -1   0   6    0.29    0.07
  -1   0   6    0.15    0.06
   1   0  -6    0.22    0.06
   1   0  -5   33.90    0.84
  -1   0   5   33.04    0.83
   1   0  -4   57.24    1.26
  -1   0   4   54.03    1.17
  -1   0   4   55.98    1.25
   1   0  -4   55.79    1.17
  -1   0   3  198.16    3.65
  -1   0   3  202.76    3.58
   1   0  -3  202.40    3.58
   1   0  -3  197.73    3.67
  -1   0   2  610.11    9.76
   1   0  -2  600.81    9.77
   1   0  -1  241.95    4.31
  -1   0   1  244.92    4.38
   1   0  -1  248.67    4.36
  -1   0   1  246.28    4.35
  -1   0   0  135.84    2.50
   1   0   0  132.16    2.52
  -1   0  -1  128.40    2.39
   1   0   1  125.06    2.41
   1   0   2  212.48    3.87
  -1   0  -2  211.49    3.83
  -1   0  -3  118.58    2.26
   1   0   3  114.82    2.31
  -1   0  -4   16.07    0.52
   1   0   4   16.67    0.58
  -1   0  -5    2.02    0.18
  -1   0  -6    2.65    0.21
  -1   0  -7   21.99    0.72
  -1   0  -8   28.63    0.89
   1   0   8   29.18    0.80
   1   0   9   41.18    1.06
  -1   0  -9   40.73    1.16
   1   0  10    1.89    0.19
   1   0  11   44.31    1.20
   1   0  12    2.39    0.25
   1   0  12    2.18    0.23
   1   0  13    3.57    0.31
   1   0  13    3.20    0.30
   1   0  14   99.53    2.35
   1   0  14  100.82    2.39
   1   0  15    1.15    0.21
   1   0  15    1.16    0.20
   1   0  16   24.30    0.98
   1   0  16   24.42    1.00
   1   0  17    0.42    0.14
   1   0  17    0.33    0.12
   1   0  18    4.79    0.45
   1   0  18    4.19    0.42
   1   0  19    4.58    0.46
   1   0  19    4.76    0.47
   1   0  20    0.69    0.20
   1   0  20    0.91    0.22
   1   0  21    3.61    0.44
   1   0  21    3.81    0.45
   1   0  22    0.22    0.13
  -1  -1  21    0.94    0.24
  -1  -1  20    0.05    0.10
  -1  -1  20    0.10    0.09
  -1  -1  19   -0.02    0.11
  -1  -1  19    0.07    0.10
  -1  -1  18    2.78    0.36
  -1  -1  18    2.89    0.38
  -1  -1  17   -0.07    0.08
  -1  -1  17    0.08    0.08
  -1  -1  16    5.14    0.45
  -1  -1  16    4.82    0.45
  -1  -1  15    7.18    0.52
  -1  -1  15    7.12    0.53
  -1  -1  14   38.77    1.28
  -1  -1  14   37.22    1.29
  -1  -1  13   71.02    1.93
  -1  -1  13   74.93    1.92
  -1  -1  12   82.14    2.06
  -1  -1  12   82.65    2.03
  -1  -1  11    1.79    0.23
  -1  -1  11    2.07    0.24
  -1  -1  10   36.12    1.07
   1   1 -10   32.68    0.70
  -1  -1  10   36.44    1.09
  -1  -1  10   32.79    0.67
  -1  -1   9    0.49    0.11
  -1  -1   9    0.48    0.05
   1   1  -9    0.40    0.05
  -1  -1   9    0.32    0.10
  -1  -1   8    4.98    0.32
  -1  -1   8    4.93    0.32
  -1  -1   8    4.93    0.19
   1   1  -8    4.93    0.21
  -1  -1   7   87.38    1.91
   1   1  -7   86.60    1.67
  -1  -1   7   89.91    1.93
  -1  -1   6   88.76    1.92
  -1  -1   6   91.23    1.92
  -1  -1   5   10.32    0.43
  -1  -1   5   10.53    0.43
  -1  -1   4   95.43    1.96
  -1  -1   4   98.69    1.97
   1   1  -4   96.36    1.96
  -1  -1   3   22.44    0.63
   1   1  -3   21.14    0.62
   1   1  -3   22.56    0.64
  -1  -1   3   21.60    0.62
  -1  -1   2  109.06    2.10
   1   1  -2  105.61    2.10
   1   1  -2  107.14    2.10
  -1  -1   1  146.08    2.74
   1   1  -1  144.71    2.75
  -1  -1   1  147.90    2.73
   1   1   0   63.25    1.35
  -1  -1   0   63.13    1.33
   1   1   0   65.47    1.38
  -1  -1  -1  105.15    2.03
   1   1   1  103.50    2.05
  -1  -1  -2  232.91    4.22
   1   1   2  235.75    4.26
  -1  -1  -3  327.48    5.80
   1   1   3  326.03    5.85
  -1  -1  -4   43.23    1.05
   1   1   4   44.96    1.12
  -1  -1  -5  384.29    6.84
  -1  -1  -6    0.88    0.13
  -1  -1  -7   58.83    1.43
  -1  -1  -8   35.72    1.03
  -1  -1  -9   61.65    1.52
   1   1   9   59.93    1.44
   1   1   9   58.35    1.18
   1   1  10  124.40    2.60
  -1  -1 -10  129.23    2.72
   1   1  10  119.70    2.25
  -1  -1 -10  126.58    2.27
  -1  -1 -11   82.62    1.52
   1   1  11   83.74    1.91
   1   1  12   68.53    1.27
  -1  -1 -12   69.64    1.29
   1   1  13  102.16    2.37
   1   1  14  113.81    2.58
   1   1  14  114.98    2.64
   1   1  15   39.48    1.25
   1   1  15   40.09    1.32
   1   1  16   21.82    0.91
   1   1  16   23.16    0.98
   1   1  17    1.18    0.22
   1   1  17    0.74    0.18
   1   1  18    9.02    0.60
   1   1  18    8.86    0.63
   1   1  19    5.63    0.49
   1   1  19    6.14    0.54
   1   1  20    6.53    0.55
   1   1  20    6.91    0.60
   1   1  21    1.15    0.25
   1   1  21    1.75    0.32
   1   1  22    7.41    0.63
   1   1  22    8.97    0.74
  -1  -2  20    0.63    0.22
  -1  -2  19    3.72    0.46
  -1  -2  18   -0.06    0.11
  -1  -2  18    0.06    0.11
  -1  -2  17    1.77    0.28
  -1  -2  17    1.59    0.28
  -1  -2  16    1.76    0.29
  -1  -2  16    1.55    0.26
  -1  -2  15    6.81    0.54
  -1  -2  15    7.12    0.52
  -1  -2  14   10.71    0.65
  -1  -2  14   10.84    0.64
  -1  -2  13   64.89    1.80
  -1  -2  13   66.45    1.87
  -1  -2  12    4.30    0.38
  -1  -2  12    4.19    0.36
  -1  -2  11    2.01    0.25
  -1  -2  11    1.67    0.22
  -1  -2  10   11.05    0.58
  -1  -2  10   11.78    0.38
  -1  -2  10   10.86    0.55
   1   2 -10   10.97    0.41
  -1  -2   9   31.85    0.98
  -1  -2   9   31.83    0.75
  -1  -2   9   29.95    1.01
  -1  -2   8   18.82    0.74
  -1  -2   8   20.11    0.55
   1   2  -8   18.54    0.57
  -1  -2   8   19.94    0.71
  -1  -2   7   75.98    1.79
  -1  -2   7   78.43    1.53
  -1  -2   7   71.58    1.68
   1   2  -7   72.43    1.57
  -1  -2   6  313.18    5.82
  -1  -2   6  317.93    5.54
   1   2  -6  314.75    5.62
  -1  -2   6  309.95    5.72
  -1  -2   5    1.30    0.16
  -1  -2   5    1.46    0.12
   1   2  -5    1.29    0.13
  -1  -2   5    1.25    0.14
   1   2  -5    1.18    0.13
   1   2  -4  165.14    3.17
  -1  -2   4  169.23    3.27
   1   2  -4  168.44    3.15
  -1  -2   3    8.73    0.40
   1   2  -3    8.47    0.36
   1   2  -3    8.70    0.36
  -1  -2   2   64.09    1.45
   1   2  -2   64.74    1.40
   1   2  -1   41.12    0.99
  -1  -2   1   40.20    1.01
  -1  -2   1   42.82    0.99
   1   2  -1   41.52    1.05
  -1  -2   0  130.77    2.50
   1   2   0  130.31    2.52
   1   2   0  134.60    2.51
  -1  -2   0  130.27    2.57
   1   2   0  127.30    2.57
   1   2   1  761.07   14.50
   1   2   1  759.47   14.50
  -1  -2  -1  800.70   14.48
  -1  -2  -2  992.62   16.75
   1   2   2 1000.00   16.78
   1   2   2  955.79   16.79
  -1  -2  -3  298.47    5.38
   1   2   3  304.81    5.38
   1   2   3  299.38    5.43
   1   2   4   46.59    1.08
  -1  -2  -4   47.17    1.11
   1   2   4   45.28    1.16
  -1  -2  -5    1.65    0.16
   1   2   5    1.36    0.13
  -1  -2  -6  328.40    5.90
   1   2   6  321.15    5.76
  -1  -2  -7   58.32    1.39
  -1  -2  -7   56.87    1.23
  -1  -2  -8   19.43    0.70
  -1  -2  -8   19.76    0.57
   1   2   8   18.19    0.56
   1   2   9    7.86    0.33
  -1  -2  -9    8.08    0.44
  -1  -2  -9    8.92    0.35
  -1  -2 -10    5.04    0.36
  -1  -2 -10    4.81    0.25
   1   2  10    4.32    0.23
   1   2  10    4.78    0.34
  -1  -2 -11   74.91    1.49
   1   2  11   74.80    1.80
  -1  -2 -12   16.76    0.50
   1   2  12   17.45    0.74
   1   2  13    1.15    0.19
  -1  -2 -13    0.88    0.09
   1   2  14    0.13    0.09
   1   2  15   10.97    0.64
   1   2  16   21.16    0.86
   1   2  16   21.68    0.97
   1   2  17   64.82    1.81
   1   2  17   67.48    1.99
   1   2  18    0.85    0.18
   1   2  18    0.75    0.20
   1   2  19    4.07    0.40
   1   2  19    4.56    0.47
   1   2  20    0.74    0.22
   1   2  20    0.39    0.15
   1   2  21    1.72    0.32
   1   2  22    0.61    0.22
  -1  -3  19   15.61    1.01
  -1  -3  18    1.27    0.28
  -1  -3  17   -0.04    0.12
  -1  -3  16    2.12    0.34
  -1  -3  15    0.61    0.19
  -1  -3  15    0.92    0.18
  -1  -3  14   15.01    0.75
  -1  -3  14   18.10    0.92
  -1  -3  13    0.79    0.19
  -1  -3  13    0.55    0.14
  -1  -3  12    1.39    0.24
  -1  -3  12    1.56    0.22
  -1  -3  11   16.06    0.79
  -1  -3  11   15.06    0.53
  -1  -3  11   14.17    0.66
  -1  -3  10   89.83    2.25
  -1  -3  10   88.97    1.83
  -1  -3   9  123.02    2.69
  -1  -3   9  130.36    2.92
  -1  -3   9  129.88    2.53
  -1  -3   8    0.33    0.13
  -1  -3   8    0.19    0.06
  -1  -3   7   29.87    1.02
  -1  -3   7   29.91    0.82
  -1  -3   6   15.06    0.66
  -1  -3   6   15.93    0.55
  -1  -3   5    5.91    0.39
  -1  -3   5    6.22    0.32
  -1  -3   4    0.43    0.08
  -1  -3   4    0.32    0.09
   1   3  -4    0.39    0.08
  -1  -3   3    0.57    0.12
  -1  -3   3    0.39    0.08
   1   3  -3    0.38    0.08
  -1  -3   2    0.07    0.05
  -1  -3   2    0.01    0.05
  -1  -3   1    3.92    0.27
  -1  -3   1    4.68    0.26
  -1  -3   1    4.09    0.25
  -1  -3   0  101.37    2.17
  -1  -3   0  101.42    2.09
  -1  -3   0  103.71    2.04
  -1  -3  -1    1.17    0.14
  -1  -3  -1    1.17    0.15
  -1  -3  -1    1.29    0.12
   1   3   1    1.00    0.11
   1   3   2  141.73    2.76
  -1  -3  -2  138.54    2.77
  -1  -3  -2  147.66    2.71
  -1  -3  -3    0.95    0.11
  -1  -3  -3    1.12    0.13
   1   3   3    0.89    0.12
  -1  -3  -4    6.26    0.31
   1   3   4    5.84    0.33
  -1  -3  -4    6.19    0.32
  -1  -3  -5    0.94    0.13
  -1  -3  -5    0.87    0.12
  -1  -3  -6   70.38    1.60
  -1  -3  -6   71.08    1.58
  -1  -3  -7    0.12    0.05
  -1  -3  -7    0.13    0.06
  -1  -3  -8   31.56    0.95
  -1  -3  -8   33.10    0.91
  -1  -3  -9   62.13    1.56
  -1  -3  -9   62.66    1.45
  -1  -3 -10   83.03    1.80
   1   3  10   82.82    2.00
  -1  -3 -11    2.16    0.19
   1   3  11    1.99    0.24
  -1  -3 -12   14.02    0.52
   1   3  12   14.05    0.69
  -1  -3 -13   24.83    0.74
   1   3  13   27.25    1.03
   1   3  14   34.16    1.22
   1   3  15   41.70    1.42
   1   3  16   24.77    1.08
   1   3  17    3.32    0.32
   1   3  17    4.03    0.43
   1   3  18    3.25    0.33
   1   3  18    3.66    0.43
   1   3  19   11.29    0.78
   1   3  20    0.47    0.19
   1   3  21    1.51    0.32
  -1  -4  18    0.16    0.12
  -1  -4  17    0.16    0.14
  -1  -4  16    0.02    0.09
  -1  -4  15    0.56    0.20
  -1  -4  14    0.28    0.14
  -1  -4  13    4.57    0.48
  -1  -4  12    1.42    0.26
  -1  -4  11   26.64    1.13
  -1  -4  10   44.90    1.51
  -1  -4  10   44.60    1.21
  -1  -4   9   -0.05    0.08
  -1  -4   9    0.36    0.09
  -1  -4   8    1.24    0.21
  -1  -4   8    0.90    0.14
  -1  -4   7   17.41    0.80
  -1  -4   7   18.18    0.67
  -1  -4   6    4.16    0.36
  -1  -4   6    4.00    0.28
  -1  -4   5   11.87    0.62
  -1  -4   5   11.86    0.51
  -1  -4   4    5.25    0.39
  -1  -4   4    6.10    0.35
  -1  -4   3    0.80    0.15
  -1  -4   3    0.63    0.11
  -1  -4   2    0.07    0.06
  -1  -4   2    0.03    0.05
  -1  -4   1   15.02    0.52
  -1  -4   1   15.54    0.60
  -1  -4   0   41.03    1.19
  -1  -4   0   43.16    1.15
  -1  -4   0   42.37    1.02
  -1  -4  -1   90.54    2.07
  -1  -4  -1   91.24    1.83
  -1  -4  -1   91.23    2.01
   1   4   2    3.31    0.22
  -1  -4  -2    3.16    0.20
  -1  -4  -3    0.33    0.07
   1   4   3    0.33    0.07
  -1  -4  -3    0.48    0.11
  -1  -4  -4  173.22    3.34
  -1  -4  -4  166.02    3.13
  -1  -4  -5  538.22    9.62
  -1  -4  -5  569.40    9.80
  -1  -4  -6  130.59    2.61
  -1  -4  -6  130.74    2.72
  -1  -4  -7  140.84    2.87
  -1  -4  -7  135.91    2.77
  -1  -4  -8   47.30    1.26
  -1  -4  -8   49.66    1.30
  -1  -4  -9   11.81    0.54
  -1  -4 -10   24.71    0.84
   1   4  10   25.09    0.94
  -1  -4 -11   16.19    0.65
   1   4  11   16.18    0.76
   1   4  12    7.54    0.51
  -1  -4 -12    6.96    0.41
   1   4  13    0.05    0.08
  -1  -4 -13   -0.01    0.05
   1   4  14    0.86    0.18
   1   4  15    0.62    0.18
   1   4  16    6.61    0.55
   1   4  17   -0.08    0.12
   1   4  18    3.38    0.42
   1   4  19   10.16    0.76
   1   4  20   31.14    1.44
  -1  -5  16    8.71    0.76
  -1  -5  15   14.72    0.97
  -1  -5  14    5.14    0.55
  -1  -5  13    2.30    0.37
  -1  -5  12   -0.04    0.11
  -1  -5  11    1.74    0.30
  -1  -5  10   11.39    0.74
  -1  -5  10   11.20    0.57
  -1  -5   9    2.43    0.25
  -1  -5   9    2.46    0.33
  -1  -5   8    0.94    0.21
  -1  -5   8    0.55    0.13
  -1  -5   7   31.65    1.23
  -1  -5   7   32.41    1.03
  -1  -5   6   66.06    1.90
  -1  -5   6   66.96    1.68
  -1  -5   5    7.19    0.51
  -1  -5   5    7.08    0.43
  -1  -5   4   25.15    1.00
  -1  -5   4   25.07    0.87
  -1  -5   3    0.27    0.11
  -1  -5   3    0.20    0.07
  -1  -5   3    0.20    0.07
  -1  -5   2    3.50    0.33
  -1  -5   2    3.61    0.25
  -1  -5   2    3.90    0.31
  -1  -5   1   26.45    0.89
  -1  -5   1   25.85    0.73
  -1  -5   0    6.45    0.40
  -1  -5   0    6.45    0.44
  -1  -5   0    6.90    0.30
  -1  -5   0    7.47    0.43
  -1  -5  -1    0.46    0.12
  -1  -5  -1    0.60    0.14
  -1  -5  -1    0.62    0.08
  -1  -5  -1    0.55    0.13
  -1  -5  -2    2.53    0.16
  -1  -5  -2    2.16    0.23
  -1  -5  -2    2.32    0.24
   1   5   3    5.71    0.30
  -1  -5  -3    5.44    0.25
  -1  -5  -3    5.15    0.36
  -1  -5  -4    0.83    0.10
   1   5   4    0.96    0.13
  -1  -5  -4    0.78    0.14
   1   5   5    0.07    0.05
  -1  -5  -5    0.03    0.03
  -1  -5  -5    0.02    0.06
  -1  -5  -6   10.59    0.43
  -1  -5  -6   11.12    0.57
  -1  -5  -7    5.44    0.32
  -1  -5  -7    5.80    0.41
  -1  -5  -8   29.83    1.01
  -1  -5  -9    1.34    0.20
   1   5   9    1.00    0.19
  -1  -5 -10    0.43    0.11
   1   5  10    0.34    0.12
  -1  -5 -11    0.49    0.13
   1   5  11    0.55    0.15
   1   5  12    1.03    0.20
  -1  -5 -12    0.87    0.16
  -1  -5 -13    0.10    0.07
   1   5  13    0.00    0.08
   1   5  14    3.88    0.41
  -1  -5 -14    3.20    0.30
   1   5  15    1.44    0.26
   1   5  16   -0.05    0.10
   1   5  17    3.59    0.44
   1   5  18    5.86    0.58
   1   5  19   21.44    1.19
  -1  -6  15    4.04    0.54
  -1  -6  14    0.13    0.14
  -1  -6  13    0.92    0.25
  -1  -6  12    5.20    0.56
  -1  -6  11    0.36    0.16
  -1  -6  10   18.17    1.02
  -1  -6   9    0.07    0.07
  -1  -6   9    0.01    0.11
  -1  -6   8   49.72    1.48
  -1  -6   8   50.07    1.74
  -1  -6   7    4.45    0.38
  -1  -6   7    4.34    0.45
  -1  -6   6   37.03    1.42
  -1  -6   6   39.79    1.25
  -1  -6   5   42.16    1.26
  -1  -6   5   43.97    1.52
  -1  -6   5   43.96    1.34
  -1  -6   4    2.67    0.25
  -1  -6   4    3.17    0.31
  -1  -6   4    2.91    0.35
  -1  -6   3    2.12    0.20
  -1  -6   3    2.46    0.28
  -1  -6   3    2.26    0.29
  -1  -6   2   30.52    1.15
  -1  -6   2   33.24    0.88
  -1  -6   2   33.84    1.13
  -1  -6   1    3.54    0.36
  -1  -6   1    3.93    0.35
  -1  -6   1    3.78    0.21
  -1  -6   0    3.60    0.36
  -1  -6   0    3.48    0.32
  -1  -6   0    3.06    0.15
  -1  -6  -1    6.16    0.20
  -1  -6  -1    6.39    0.47
  -1  -6  -2   20.59    0.47
  -1  -6  -2   24.35    0.92
  -1  -6  -3   15.04    0.40
  -1  -6  -3   17.85    0.77
  -1  -6  -4   28.06    1.03
  -1  -6  -5   12.33    0.66
  -1  -6  -6    0.21    0.13
  -1  -6  -7   68.17    1.85
   1   6   8   67.65    1.82
  -1  -6  -8   64.51    1.81
  -1  -6  -9    0.65    0.17
   1   6   9    0.50    0.15
  -1  -6 -10    1.17    0.21
   1   6  10    1.29    0.22
  -1  -6 -11    0.17    0.11
   1   6  11    0.33    0.14
  -1  -6 -12    0.65    0.16
   1   6  12    0.44    0.16
  -1  -6 -13    2.98    0.33
   1   6  13    3.42    0.39
   1   6  14   25.40    1.17
   1   6  15    5.55    0.53
   1   6  16    2.69    0.39
   1   6  17    3.37    0.45
   1   6  18    0.21    0.14
  -1  -7  13   15.44    1.07
  -1  -7  12    4.12    0.54
  -1  -7  11    2.68    0.42
  -1  -7  10    0.53    0.21
  -1  -7   9    4.51    0.52
  -1  -7   8    1.87    0.34
  -1  -7   8    1.65    0.27
  -1  -7   7    0.65    0.20
  -1  -7   7    0.60    0.16
  -1  -7   6   15.72    0.79
  -1  -7   6   15.99    0.93
  -1  -7   5   20.41    0.92
  -1  -7   5   20.12    1.04
  -1  -7   4    0.72    0.20
  -1  -7   4    1.00    0.20
  -1  -7   3   33.60    1.33
  -1  -7   3   34.44    1.23
  -1  -7   2    0.81    0.20
  -1  -7   2    0.55    0.16
  -1  -7   1   43.19    1.52
  -1  -7   1   44.42    1.43
  -1  -7   0    0.04    0.08
  -1  -7   0    0.19    0.10
  -1  -7  -1    0.61    0.17
  -1  -7  -1    0.33    0.12
  -1  -7  -2   20.49    0.91
  -1  -7  -3    3.20    0.35
  -1  -7  -4   19.69    0.90
  -1  -7  -5    1.19    0.22
  -1  -7  -6   10.19    0.64
   1   7   6   10.29    0.59
   1   7   7    0.22    0.12
  -1  -7  -7    0.01    0.09
  -1  -7  -8    0.98    0.21
   1   7   8    1.07    0.21
  -1  -7  -9    0.07    0.10
   1   7   9   -0.03    0.10
  -1  -7 -10   12.67    0.75
   1   7  10   13.62    0.77
   1   7  11    4.06    0.43
  -1  -7 -11    3.41    0.39
  -1  -7 -12    4.43    0.44
   1   7  12    4.87    0.48
   1   7  13    0.12    0.11
   1   7  14    2.04    0.34
   1   7  15    5.42    0.55
   1   7  16    0.26    0.16
  -1  -8  11    0.82    0.26
  -1  -8  10    2.91    0.46
  -1  -8   9    0.73    0.23
  -1  -8   8    0.20    0.14
  -1  -8   7    3.77    0.49
  -1  -8   6    4.34    0.51
  -1  -8   6    3.58    0.40
  -1  -8   5   37.72    1.56
  -1  -8   5   41.42    1.48
  -1  -8   4   11.00    0.70
  -1  -8   4    9.82    0.75
  -1  -8   3    2.16    0.34
  -1  -8   3    1.78    0.28
  -1  -8   2    2.06    0.33
  -1  -8   2    2.16    0.31
  -1  -8   1    6.43    0.58
  -1  -8   1    7.28    0.56
  -1  -8   0    4.90    0.49
  -1  -8   0    5.47    0.49
  -1  -8  -1   32.55    1.29
  -1  -8  -2    1.77    0.29
  -1  -8  -3    6.47    0.54
   1   8   3    7.43    0.48
   1   8   4    4.93    0.40
  -1  -8  -4    4.74    0.46
   1   8   5    7.33    0.51
  -1  -8  -5    7.73    0.60
  -1  -8  -6    2.39    0.34
   1   8   6    2.94    0.33
  -1  -8  -7    8.74    0.65
   1   8   7    9.74    0.62
   1   8   8   16.50    0.85
  -1  -8  -8   13.84    0.84
  -1  -8  -9    1.69    0.29
   1   8   9    2.11    0.31
  -1  -8 -10    1.64    0.30
   1   8  10    1.99    0.31
  -1  -8 -11    2.83    0.39
   1   8  11    3.27    0.41
   1   8  12    1.30    0.27
   1   8  13    2.13    0.35
   1   8  14    0.61    0.20
   1   8  15    1.66    0.33
  -1  -9   8    0.58    0.21
  -1  -9   7    2.77    0.44
  -1  -9   6    0.16    0.14
  -1  -9   5    8.21    0.75
  -1  -9   4    5.08    0.58
  -1  -9   3    1.33    0.31
  -1  -9   2   13.85    0.94
  -1  -9   2   16.39    0.93
  -1  -9   1    0.59    0.18
  -1  -9   1    0.99    0.25
  -1  -9   0    4.95    0.50
  -1  -9  -1    0.29    0.13
  -1  -9  -2    7.51    0.63
  -1  -9  -3    0.21    0.13
  -1  -9  -4    0.07    0.09
  -1  -9  -5    0.35    0.15
  -1  -9  -6   -0.10    0.12
  -1  -9  -7    0.08    0.10
   1   9   7   -0.01    0.07
  -1  -9  -8    0.54    0.20
   1   9   8    0.84    0.20
   1   9   9    0.14    0.10
   1   9  10   23.06    1.14
   1   9  11   15.09    0.93
   1   9  12    1.04    0.27
   1   9  13    5.57    0.59
  -1 -10   5    0.83    0.26
  -1 -10   4    3.90    0.55
   2  -9 -12    0.56    0.20
   2  -9 -11    2.30    0.38
   2  -9 -10    0.99    0.25
   2  -9  -9    0.07    0.11
   2  -9  -8    0.24    0.15
   2  -9  -7    0.12    0.12
   2  -9  -6    3.87    0.48
   2  -9  -5   -0.40    0.18
   2  -9  -4   -0.03    0.12
   2  -9  -3    0.50    0.19
   2  -9  -2    0.48    0.19
   2  -9  -1    7.31    0.66
   2  -9   0    9.78    0.77
   2  -9   1    1.49    0.30
   2  -9   2    0.50    0.18
   2  -9   3    3.57    0.46
   2  -9   4    3.78    0.47
   2  -9   5   -0.10    0.14
   2  -9   6    0.79    0.22
   2  -9   7    0.17    0.13
   2  -9   8    0.14    0.12
   2  -9   9    3.16    0.45
  -2   8  14    4.11    0.53
  -2   8  13    4.25    0.52
   2  -8 -12    6.64    0.59
  -2   8  12    6.77    0.64
   2  -8 -11    5.96    0.57
  -2   8  11    5.76    0.57
   2  -8 -10    0.07    0.12
  -2   8  10    0.09    0.11
  -2   8   9    5.11    0.50
   2  -8  -9    5.11    0.52
   2  -8  -8    0.89    0.24
  -2   8   8    0.83    0.20
  -2   8   7    4.26    0.43
   2  -8  -7    4.42    0.49
   2  -8  -6    2.35    0.36
   2  -8  -5    8.58    0.67
   2  -8  -4    3.36    0.42
   2  -8  -3    3.64    0.43
   2  -8  -2    7.03    0.60
   2  -8  -1    2.58    0.37
   2  -8   0   27.53    1.24
   2  -8   1   18.98    1.01
   2  -8   2   11.98    0.79
   2  -8   3    0.35    0.17
   2  -8   4   31.08    1.32
   2  -8   4   30.54    1.25
   2  -8   5    0.85    0.22
   2  -8   5    0.87    0.20
   2  -8   6    7.47    0.60
   2  -8   6    8.08    0.64
   2  -8   7    0.07    0.07
   2  -8   7    0.17    0.12
   2  -8   8    3.91    0.46
   2  -8   8    4.44    0.47
   2  -8   9    1.41    0.30
   2  -8   9    1.49    0.28
   2  -8  10   11.98    0.86
   2  -8  10   10.96    0.76
   2  -8  11    4.28    0.52
  -2   7  15    3.61    0.49
  -2   7  14    0.06    0.09
  -2   7  13    0.37    0.16
  -2   7  12    1.21    0.27
   2  -7 -12    1.56    0.27
  -2   7  11   11.58    0.78
   2  -7 -11   10.60    0.71
   2  -7 -10    3.62    0.41
  -2   7  10    3.60    0.41
   2  -7  -9    0.08    0.09
  -2   7   9    0.49    0.15
  -2   7   8    0.17    0.09
   2  -7  -8    0.21    0.12
  -2   7   7    3.67    0.38
   2  -7  -7    4.34    0.44
  -2   7   6    0.65    0.17
   2  -7  -6    0.45    0.16
  -2   7   5   14.35    0.71
   2  -7  -5   14.81    0.83
   2  -7  -4    0.50    0.18
  -2   7   4    0.30    0.10
  -2   7   3   19.53    0.78
   2  -7  -3   20.42    0.99
   2  -7  -2    0.45    0.15
   2  -7  -1    2.97    0.36
   2  -7   0    0.12    0.12
   2  -7   1    2.71    0.28
   2  -7   1    2.56    0.34
   2  -7   2   51.32    1.53
   2  -7   2   52.93    1.71
   2  -7   3    1.90    0.26
   2  -7   3    1.71    0.28
   2  -7   4    0.12    0.09
   2  -7   4    0.43    0.15
   2  -7   5    0.28    0.12
   2  -7   5    0.25    0.13
   2  -7   6    0.07    0.09
   2  -7   6    0.09    0.09
   2  -7   7    1.95    0.29
   2  -7   7    1.73    0.28
   2  -7   8    2.29    0.32
   2  -7   8    2.29    0.32
   2  -7   9   -0.01    0.08
   2  -7   9    0.04    0.08
   2  -7  10    1.24    0.27
   2  -7  10    1.09    0.22
   2  -7  11    2.32    0.36
   2  -7  11    2.24    0.31
   2  -7  12    0.37    0.17
   2  -7  13    0.34    0.17
  -2   6  16    8.71    0.76
  -2   6  15    6.50    0.63
  -2   6  14    2.02    0.34
  -2   6  13    0.35    0.17
   2  -6 -12   13.30    0.74
  -2   6  12   14.67    0.87
  -2   6  11    7.31    0.59
   2  -6 -11    7.08    0.52
  -2   6  10    0.18    0.12
   2  -6 -10    0.02    0.08
  -2   6   9   16.14    0.84
   2  -6  -9   16.06    0.82
   2  -6  -8   35.95    1.31
  -2   6   8   37.42    1.31
   2  -6  -7   14.69    0.78
  -2   6   7   13.77    0.72
   2  -6  -6   50.25    1.60
  -2   6   6   49.13    1.49
   2  -6  -5    0.83    0.19
  -2   6   5    0.78    0.16
  -2   6   4    9.55    0.52
   2  -6  -4    9.51    0.62
   2  -6  -3   73.52    2.01
  -2   6   3   67.41    1.71
   2  -6  -2   14.24    0.54
  -2   6   2   14.67    0.61
   2  -6  -1    0.14    0.07
   2  -6  -1    0.14    0.10
  -2   6   1    0.00    0.04
   2  -6   0    3.75    0.29
   2  -6   0    4.02    0.39
  -2   6   0    3.45    0.24
   2  -6   1    8.52    0.47
   2  -6   1    9.13    0.60
   2  -6   2    6.63    0.42
   2  -6   2    5.67    0.47
   2  -6   3   14.64    0.67
   2  -6   3   15.46    0.79
   2  -6   4   60.24    1.66
   2  -6   4   59.65    1.77
   2  -6   5    3.57    0.34
   2  -6   5    3.08    0.34
   2  -6   6   10.40    0.61
   2  -6   6   10.36    0.63
   2  -6   7   40.04    1.36
   2  -6   7   39.70    1.36
   2  -6   8    2.28    0.31
   2  -6   8    2.07    0.28
   2  -6   9   31.23    1.24
   2  -6   9   31.37    1.17
   2  -6  10    4.87    0.47
   2  -6  10    4.11    0.39
   2  -6  11   14.92    0.86
   2  -6  11   14.13    0.74
   2  -6  12    0.08    0.11
   2  -6  12    0.06    0.07
   2  -6  13    1.54    0.30
   2  -6  14    4.96    0.54
   2  -6  15    0.03    0.10
  -2   5  17    3.20    0.46
  -2   5  16   21.02    1.17
  -2   5  15   22.30    1.17
  -2   5  14    3.09    0.41
  -2   5  13   13.01    0.82
   2  -5 -12    1.94    0.25
  -2   5  12    2.09    0.32
   2  -5 -11   16.78    0.78
  -2   5  11   18.03    0.91
   2  -5 -10    0.82    0.17
  -2   5  10    0.52    0.15
   2  -5  -9   16.25    0.77
  -2   5   9   14.41    0.77
  -2   5   8    6.65    0.49
   2  -5  -8    6.83    0.49
  -2   5   7   12.93    0.67
   2  -5  -7   14.66    0.72
  -2   5   6   10.08    0.53
   2  -5  -6   10.21    0.60
  -2   5   6   10.15    0.56
  -2   5   5    4.03    0.31
  -2   5   5    3.83    0.33
   2  -5  -5    4.20    0.38
   2  -5  -4    0.35    0.11
  -2   5   4    0.39    0.10
  -2   5   4    0.37    0.10
  -2   5   3   23.56    0.73
   2  -5  -3   23.73    0.94
  -2   5   2   91.10    2.01
   2  -5  -2   90.86    2.27
  -2   5   2   91.14    1.89
   2  -5  -2   90.59    1.83
  -2   5   1   22.12    0.62
   2  -5  -1   21.81    0.66
  -2   5   1   21.19    0.70
   2  -5  -1   21.68    0.89
   2  -5   0   90.18    1.91
  -2   5   0   87.01    1.87
   2  -5   0   93.87    2.25
  -2   5   0   87.76    1.75
   2  -5   1   15.36    0.58
  -2   5  -1   14.95    0.45
   2  -5   1   15.88    0.74
   2  -5   2   43.00    1.16
  -2   5  -2   41.82    0.96
   2  -5   2   42.05    1.33
   2  -5   3    0.31    0.12
   2  -5   3    0.27    0.10
  -2   5  -3    0.15    0.04
   2  -5   4    0.78    0.16
  -2   5  -4    1.10    0.12
   2  -5   4    1.01    0.16
  -2   5  -5   33.19    0.90
   2  -5   5   34.23    1.10
   2  -5   5   32.64    1.15
   2  -5   6   33.52    1.13
   2  -5   6   33.40    1.15
   2  -5   7    1.75    0.24
   2  -5   7    2.26    0.27
   2  -5   8   15.73    0.77
   2  -5   8   15.26    0.73
   2  -5   9    4.88    0.43
   2  -5   9    4.93    0.40
   2  -5  10    0.94    0.18
   2  -5  10    0.93    0.20
   2  -5  11    8.62    0.61
   2  -5  11    8.67    0.52
   2  -5  12    1.06    0.22
   2  -5  12    0.75    0.15
   2  -5  13   10.88    0.74
   2  -5  14    3.14    0.41
   2  -5  15    2.37    0.37
   2  -5  16    1.48    0.30
  -2   4  18    8.08    0.73
  -2   4  17    0.18    0.14
  -2   4  16    0.39    0.17
  -2   4  15    1.64    0.32
  -2   4  14    0.48    0.18
  -2   4  13    5.70    0.52
   2  -4 -12    0.13    0.08
  -2   4  12    0.22    0.14
   2  -4 -11   15.69    0.69
  -2   4  11   15.40    0.82
   2  -4 -10    0.04    0.05
  -2   4  10    0.08    0.10
  -2   4   9   19.88    0.88
   2  -4  -9   21.45    0.84
   2  -4  -8    1.65    0.22
  -2   4   8    1.14    0.20
  -2   4   7   37.15    1.20
   2  -4  -7   37.28    1.18
  -2   4   6   29.58    1.01
   2  -4  -6   30.45    1.03
   2  -4  -5   45.05    1.31
  -2   4   5   44.03    1.26
  -2   4   4   22.40    0.78
  -2   4   4   22.09    0.78
   2  -4  -4   21.60    0.84
  -2   4   3  320.79    5.73
   2  -4  -3  328.79    5.92
  -2   4   3  313.47    5.73
  -2   4   2   23.14    0.73
  -2   4   2   22.69    0.74
   2  -4  -2   23.38    0.58
   2  -4  -2   22.01    0.84
   2  -4  -1   62.46    1.30
   2  -4  -1   59.52    1.59
  -2   4   1   60.44    1.41
  -2   4   1   59.94    1.39
   2  -4   0   11.51    0.43
   2  -4   0    9.78    0.39
  -2   4   0   11.79    0.44
   2  -4   0   11.07    0.56
  -2   4   0   11.27    0.44
  -2   4  -1   20.55    0.60
   2  -4   1   22.84    0.67
   2  -4   1   20.10    0.70
  -2   4  -1   21.81    0.64
   2  -4   1   19.14    0.55
   2  -4   1   20.88    0.80
   2  -4   2    9.54    0.47
   2  -4   2   10.40    0.44
   2  -4   2    9.27    0.30
   2  -4   2   10.14    0.53
  -2   4  -2   10.27    0.40
   2  -4   3    9.44    0.50
   2  -4   3    9.79    0.45
  -2   4  -3    9.64    0.40
   2  -4   3    9.44    0.51
   2  -4   3    9.23    0.26
   2  -4   4    9.67    0.47
   2  -4   4    9.19    0.51
  -2   4  -4    8.97    0.40
   2  -4   5    0.43    0.11
   2  -4   5    0.72    0.13
  -2   4  -5    0.52    0.10
  -2   4  -6   86.97    1.89
   2  -4   6   85.99    2.03
   2  -4   6   82.03    2.02
   2  -4   7    0.71    0.15
   2  -4   7    0.65    0.14
  -2   4  -7    0.62    0.12
  -2   4  -8   39.84    1.15
   2  -4   8   39.94    1.26
   2  -4   8   39.32    1.20
   2  -4   9    5.12    0.41
   2  -4   9    6.10    0.41
   2  -4  10   75.94    2.03
   2  -4  10   74.98    1.86
   2  -4  11   16.90    0.83
   2  -4  11   17.22    0.71
   2  -4  12   26.11    1.10
   2  -4  12   25.48    0.89
   2  -4  13    7.86    0.60
   2  -4  14    7.92    0.62
   2  -4  15    0.51    0.18
   2  -4  16   -0.01    0.13
   2  -4  17    0.42    0.17
   2  -4  18    9.38    0.77
  -2   3  19    1.34    0.30
  -2   3  18    5.04    0.56
  -2   3  17    0.13    0.09
  -2   3  16    4.79    0.51
  -2   3  15    3.83    0.45
  -2   3  14   41.01    1.53
  -2   3  13    4.03    0.43
  -2   3  12   25.83    1.10
   2  -3 -12   25.30    0.84
   2  -3 -11    1.59    0.19
  -2   3  11    1.23    0.23
  -2   3  10   38.61    0.88
  -2   3  10   39.45    1.32
   2  -3 -10   40.36    1.14
   2  -3  -9    0.13    0.06
  -2   3   9    0.24    0.12
   2  -3  -8    0.14    0.07
  -2   3   8    0.08    0.06
  -2   3   7    2.03    0.24
   2  -3  -7    1.69    0.20
   2  -3  -6    0.65    0.12
  -2   3   6    0.57    0.13
   2  -3  -5    9.15    0.47
  -2   3   5    8.61    0.46
   2  -3  -4   12.37    0.56
  -2   3   4   12.12    0.53
   2  -3  -3  128.24    2.25
  -2   3   3  130.54    2.68
   2  -3  -3  130.58    2.73
  -2   3   3  128.96    2.65
  -2   3   2  105.79    2.30
   2  -3  -2  112.08    2.00
  -2   3   2  107.77    2.27
   2  -3  -2  109.66    2.39
  -2   3   1    5.02    0.30
  -2   3   1    4.57    0.28
   2  -3  -1    4.01    0.31
   2  -3   0  170.84    3.31
   2  -3   0  171.77    3.37
  -2   3   0  167.99    3.16
  -2   3   0  170.47    3.23
   2  -3   1  113.52    2.36
   2  -3   1  106.35    2.11
  -2   3  -1  106.93    2.23
   2  -3   1  112.90    2.38
   2  -3   2  119.97    2.59
  -2   3  -2  119.75    2.43
   2  -3   2  119.55    2.27
   2  -3   2  124.62    2.57
  -2   3  -3   98.93    2.03
   2  -3   3   95.91    2.13
   2  -3   3   94.35    1.81
  -2   3  -4   68.76    1.55
   2  -3   4   66.01    1.30
   2  -3   4   67.44    1.63
   2  -3   5   57.38    1.45
   2  -3   5   60.97    1.44
  -2   3  -5   59.02    1.41
   2  -3   5   55.58    1.13
  -2   3  -6    8.39    0.43
   2  -3   6    8.35    0.44
   2  -3   6    7.69    0.42
  -2   3  -7   22.88    0.80
   2  -3   7   23.90    0.83
   2  -3   7   24.81    0.81
   2  -3   7   21.92    0.52
   2  -3   8   -0.02    0.05
   2  -3   8   -0.05    0.08
  -2   3  -8    0.11    0.07
   2  -3   8    0.14    0.04
  -2   3  -9   37.11    1.12
   2  -3   9   38.04    1.18
   2  -3   9   34.75    0.81
   2  -3   9   34.53    1.03
   2  -3  10    0.54    0.12
   2  -3  10    0.42    0.14
  -2   3 -10    0.27    0.10
   2  -3  10    0.29    0.06
   2  -3  11   19.11    0.84
   2  -3  11   17.45    0.55
   2  -3  11   17.92    0.68
   2  -3  12   33.81    1.22
   2  -3  12   30.42    0.95
   2  -3  13   29.65    1.17
   2  -3  14   34.92    1.33
   2  -3  15    2.30    0.33
   2  -3  16    4.20    0.46
   2  -3  17    0.28    0.15
   2  -3  18   14.35    0.92
   2  -3  19    5.92    0.61
  -2   2  20    0.22    0.14
  -2   2  19    2.61    0.42
  -2   2  18   -0.08    0.15
  -2   2  17    0.22    0.12
  -2   2  16    0.78    0.21
  -2   2  15    3.11    0.39
  -2   2  14    1.52    0.27
  -2   2  13    0.45    0.10
  -2   2  13    0.70    0.18
  -2   2  12    5.03    0.32
  -2   2  12    4.98    0.44
   2  -2 -12    5.22    0.30
   2  -2 -11    0.33    0.08
  -2   2  11    0.27    0.08
  -2   2  11    0.14    0.07
  -2   2  10    2.06    0.18
  -2   2  10    2.18    0.27
   2  -2 -10    2.26    0.21
  -2   2   9   26.54    0.75
  -2   2   9   28.04    1.02
   2  -2  -9   29.12    0.86
  -2   2   8   16.78    0.53
   2  -2  -8   18.57    0.65
  -2   2   8   17.50    0.75
  -2   2   7   27.80    0.70
  -2   2   7   26.51    0.93
   2  -2  -6    0.14    0.03
  -2   2   6   -0.03    0.06
   2  -2  -5   17.12    0.42
  -2   2   5   18.26    0.68
   2  -2  -4   14.58    0.38
  -2   2   4   15.09    0.59
   2  -2  -3   33.70    0.75
  -2   2   3   33.80    1.00
  -2   2   3   34.01    0.96
  -2   2   2  133.00    2.73
  -2   2   2  134.91    2.68
  -2   2   1  113.19    2.39
  -2   2   1  116.28    2.32
  -2   2   0  201.77    3.90
   2  -2   0  205.87    3.98
  -2   2   0  203.88    3.81
   2  -2   0  208.46    3.81
   2  -2   1  110.70    2.41
  -2   2  -1  109.53    2.29
   2  -2   1  113.27    2.21
   2  -2   2   14.48    0.49
   2  -2   2   15.43    0.63
  -2   2  -2   13.61    0.53
  -2   2  -3    0.16    0.06
   2  -2   3    0.08    0.04
  -2   2  -4   11.56    0.49
  -2   2  -5    0.05    0.05
  -2   2  -6    2.49    0.23
  -2   2  -7   27.95    0.91
  -2   2  -8    9.06    0.49
   2  -2   9    6.71    0.36
  -2   2  -9    6.39    0.42
   2  -2   9    6.78    0.31
   2  -2  10    0.12    0.06
  -2   2 -10    0.15    0.09
   2  -2  10    0.07    0.05
  -2   2 -11  151.73    3.21
   2  -2  11  144.26    3.21
   2  -2  11  145.96    2.88
   2  -2  11  146.33    2.90
  -2   2 -12   36.24    1.22
   2  -2  12   37.18    1.24
   2  -2  12   35.61    0.98
   2  -2  12   33.97    0.95
   2  -2  13    6.29    0.48
   2  -2  13    5.29    0.34
   2  -2  13    5.61    0.31
   2  -2  14    0.68    0.18
   2  -2  14    0.40    0.10
   2  -2  15   28.76    1.17
   2  -2  15   26.09    0.92
   2  -2  16    2.79    0.36
   2  -2  17    5.41    0.52
   2  -2  18    0.67    0.19
   2  -2  19    4.35    0.50
   2  -2  20    0.36    0.16
  -2   1  20   -0.02    0.10
  -2   1  19    6.06    0.62
  -2   1  18    0.57    0.20
  -2   1  17    1.38    0.28
  -2   1  16    0.21    0.12
  -2   1  16    0.23    0.11
  -2   1  15   53.45    1.56
  -2   1  15   55.43    1.82
  -2   1  14   15.87    0.72
  -2   1  14   16.12    0.87
  -2   1  13   22.49    0.86
  -2   1  13   24.93    1.06
  -2   1  12   20.13    0.76
  -2   1  12   20.18    0.92
   2  -1 -12   19.49    0.58
  -2   1  11   41.09    1.15
  -2   1  11   39.78    1.34
   2  -1 -11   41.04    1.00
  -2   1  10    0.00    0.04
  -2   1  10   -0.01    0.07
  -2   1   9   47.07    1.19
  -2   1   9   45.95    1.39
  -2   1   8   54.86    1.32
  -2   1   8   57.64    1.55
  -2   1   7    7.93    0.36
   2  -1  -7    8.25    0.35
  -2   1   7    7.65    0.45
  -2   1   6    7.28    0.33
  -2   1   6    6.79    0.41
   2  -1  -6    6.77    0.30
  -2   1   5    4.79    0.26
   2  -1  -5    4.63    0.23
  -2   1   5    4.81    0.33
  -2   1   4    0.41    0.10
   2  -1  -4    0.66    0.08
   2  -1  -3    3.88    0.21
  -2   1   3    4.10    0.28
  -2   1   2   12.23    0.45
  -2   1   2    1.86    0.20
  -2   1   1    0.80    0.11
  -2   1   1    0.69    0.12
   2  -1   0   42.72    1.08
  -2   1   0   40.87    1.10
   2  -1   0   41.97    1.16
   2  -1   1    1.24    0.17
   2  -1   1    1.16    0.14
  -2   1  -2   48.28    1.22
  -2   1  -3    0.34    0.08
  -2   1  -4    1.53    0.17
  -2   1  -5    0.55    0.11
  -2   1  -6   14.12    0.59
  -2   1  -7    0.69    0.13
  -2   1  -8   12.15    0.58
  -2   1  -9    8.25    0.48
  -2   1 -10    6.38    0.43
  -2   1 -11   25.82    0.96
   2  -1  11   25.83    0.82
  -2   1 -12    2.48    0.29
   2  -1  12    1.92    0.17
   2  -1  12    1.94    0.21
  -2   1 -13   45.61    1.42
   2  -1  13   43.75    1.22
   2  -1  14  113.67    2.72
   2  -1  14  109.66    2.48
   2  -1  15    0.26    0.12
   2  -1  15    0.07    0.07
   2  -1  16    2.54    0.33
   2  -1  16    2.32    0.28
   2  -1  17    3.91    0.43
   2  -1  17    3.69    0.36
   2  -1  18    4.93    0.49
   2  -1  18    4.54    0.42
   2  -1  19    0.55    0.19
   2  -1  20    1.17    0.26
   2  -1  21    2.17    0.36
  -2   0  21    0.11    0.14
  -2   0  20    6.00    0.63
  -2   0  19    0.43    0.19
  -2   0  18    6.19    0.53
  -2   0  18    6.11    0.60
  -2   0  17    4.81    0.45
  -2   0  17    4.98    0.52
  -2   0  16    1.13    0.22
  -2   0  16    1.23    0.25
  -2   0  15    2.88    0.32
  -2   0  15    2.64    0.36
  -2   0  14    0.59    0.15
  -2   0  14    0.74    0.20
  -2   0  13    9.49    0.55
  -2   0  13    9.30    0.62
  -2   0  12    0.01    0.06
  -2   0  12   -0.03    0.07
  -2   0  11    8.35    0.55
  -2   0  11    8.39    0.48
  -2   0  10    0.10    0.07
  -2   0  10    4.69    0.38
  -2   0   9    1.35    0.18
  -2   0   9    1.72    0.22
  -2   0   8    0.69    0.15
  -2   0   8    0.79    0.13
  -2   0   7  138.10    2.94
  -2   0   7  136.10    2.77
  -2   0   6    5.06    0.30
  -2   0   6    5.21    0.36
  -2   0   5   13.21    0.50
  -2   0   5   13.93    0.59
  -2   0   4    2.29    0.19
  -2   0   4    1.93    0.20
   2   0  -3    0.03    0.03
  -2   0   3    0.22    0.07
   2   0  -2  149.19    2.92
  -2   0   2  150.62    3.04
  -2   0   1   33.51    0.97
  -2   0   0    4.46    0.30
  -2   0  -1   37.71    1.04
  -2   0  -2  110.07    2.32
  -2   0  -3   51.75    1.31
  -2   0  -4    0.08    0.05
  -2   0  -5   53.91    1.38
  -2   0  -6   75.99    1.80
  -2   0  -7   91.79    2.10
  -2   0  -8   25.95    0.91
  -2   0  -9   30.91    1.04
  -2   0 -10    4.30    0.36
  -2   0 -11   29.28    1.04
  -2   0 -12   85.62    2.17
   2   0  12   87.11    2.03
  -2   0 -13   30.72    1.13
   2   0  13   30.49    1.02
   2   0  14   34.19    1.13
   2   0  15    1.97    0.25
   2   0  16    7.51    0.55
   2   0  16    7.14    0.50
   2   0  17    2.46    0.32
   2   0  17    2.59    0.31
   2   0  18   13.80    0.81
   2   0  18   13.30    0.75
   2   0  19    1.91    0.30
   2   0  19    1.65    0.27
   2   0  20    1.87    0.32
   2   0  20    1.85    0.30
   2   0  21    0.34    0.15
   2   0  22    3.49    0.46
  -2  -1  21    0.73    0.23
  -2  -1  20    0.64    0.22
  -2  -1  20    0.81    0.24
  -2  -1  19   19.35    1.07
  -2  -1  19   17.89    1.08
  -2  -1  18    0.15    0.12
  -2  -1  18   -0.04    0.08
  -2  -1  17    1.48    0.27
  -2  -1  17    1.33    0.27
  -2  -1  16    1.67    0.27
  -2  -1  16    1.75    0.29
  -2  -1  15    0.80    0.20
  -2  -1  15    1.02    0.21
  -2  -1  14   51.49    1.60
  -2  -1  14   48.15    1.64
  -2  -1  13   -0.07    0.11
  -2  -1  13    0.16    0.10
  -2  -1  12   16.76    0.78
  -2  -1  12   16.78    0.83
  -2  -1  11    1.71    0.23
  -2  -1  11    1.65    0.25
  -2  -1  10   31.05    1.06
  -2  -1  10   29.43    1.09
  -2  -1   9    2.90    0.28
  -2  -1   9    2.75    0.29
  -2  -1   8  109.58    2.42
  -2  -1   8  106.42    2.47
  -2  -1   7    0.13    0.07
  -2  -1   7    0.58    0.13
  -2  -1   6   62.28    1.53
  -2  -1   6   59.61    1.56
  -2  -1   5   35.87    1.03
  -2  -1   5   37.28    1.09
  -2  -1   4  167.38    3.30
  -2  -1   3    1.54    0.17
  -2  -1   2   64.41    1.59
  -2  -1   2   65.11    1.53
  -2  -1   1  299.16    5.56
  -2  -1   0    4.91    0.32
  -2  -1  -1  318.31    5.86
  -2  -1  -2    1.53    0.18
  -2  -1  -3  189.11    3.69
  -2  -1  -4   11.44    0.52
  -2  -1  -5   34.86    1.04
  -2  -1  -6   14.08    0.60
  -2  -1  -7   32.96    1.03
  -2  -1  -8   62.20    1.63
  -2  -1  -9   21.19    0.84
  -2  -1 -10    0.65    0.15
  -2  -1 -11    6.72    0.46
  -2  -1 -12    6.65    0.48
  -2  -1 -13   16.63    0.80
   2   1  13   17.94    0.76
  -2  -1 -14    0.16    0.11
   2   1  14    0.01    0.09
   2   1  15   10.39    0.61
   2   1  16    8.11    0.55
   2   1  17    8.92    0.60
   2   1  18   -0.07    0.11
   2   1  18    0.14    0.10
   2   1  19    2.05    0.31
   2   1  19    1.59    0.28
   2   1  20    2.40    0.35
   2   1  20    2.52    0.36
   2   1  21    0.16    0.13
   2   1  21    0.22    0.14
   2   1  22    2.88    0.41
   2   1  22    2.72    0.41
  -2  -2  20    7.13    0.69
  -2  -2  19   10.76    0.82
  -2  -2  18    0.09    0.13
  -2  -2  18    0.08    0.10
  -2  -2  17   10.38    0.74
  -2  -2  17   12.23    0.83
  -2  -2  16    0.33    0.17
  -2  -2  16    0.46    0.17
  -2  -2  15    2.94    0.37
  -2  -2  15    2.68    0.35
  -2  -2  14    0.20    0.12
  -2  -2  14    0.25    0.12
  -2  -2  13    0.07    0.09
  -2  -2  13    0.12    0.10
  -2  -2  12    4.00    0.39
  -2  -2  12    3.74    0.37
  -2  -2  11    1.04    0.21
  -2  -2  11    0.95    0.11
  -2  -2  11    0.88    0.18
  -2  -2  10    5.01    0.42
  -2  -2  10    5.38    0.28
  -2  -2  10    5.25    0.42
  -2  -2   9   11.94    0.64
  -2  -2   9   10.71    0.59
  -2  -2   8   27.03    0.99
  -2  -2   8   26.76    0.97
  -2  -2   7   82.68    2.03
  -2  -2   6   58.36    1.55
  -2  -2   5   48.38    1.34
  -2  -2   4   13.77    0.59
  -2  -2   3   55.77    1.45
  -2  -2   3   58.77    1.51
  -2  -2   2  129.51    2.71
  -2  -2   2  126.52    2.70
  -2  -2   1  115.98    2.48
  -2  -2   1  116.71    2.50
  -2  -2   0   28.79    0.91
  -2  -2  -1   14.06    0.58
  -2  -2  -2    4.44    0.31
  -2  -2  -3    1.37    0.17
  -2  -2  -4    8.09    0.43
  -2  -2  -5    5.94    0.37
  -2  -2  -6   18.38    0.72
  -2  -2  -7   73.91    1.81
  -2  -2  -8   49.82    1.40
  -2  -2  -9    7.18    0.46
  -2  -2 -10   61.92    1.69
  -2  -2 -11    6.19    0.45
  -2  -2 -12    6.26    0.46
  -2  -2 -13   34.41    1.23
  -2  -2 -13   35.53    0.95
   2   2  13   36.82    1.22
  -2  -2 -14    0.18    0.11
   2   2  14    0.06    0.08
   2   2  15   22.54    0.98
   2   2  16    0.07    0.08
   2   2  17    3.39    0.38
   2   2  18    0.09    0.08
   2   2  19    1.65    0.27
   2   2  19    1.66    0.29
   2   2  20    0.63    0.19
   2   2  20    0.35    0.15
   2   2  21    1.17    0.25
   2   2  21    1.22    0.27
   2   2  22   -0.04    0.09
   2   2  22   -0.04    0.09
  -2  -3  19   -0.07    0.11
  -2  -3  18    0.13    0.10
  -2  -3  17    7.36    0.67
  -2  -3  16    0.43    0.18
  -2  -3  16    1.37    0.26
  -2  -3  15    0.97    0.24
  -2  -3  15    0.58    0.16
  -2  -3  14   -0.04    0.09
  -2  -3  14    0.06    0.09
  -2  -3  13    0.68    0.19
  -2  -3  12   14.21    0.82
  -2  -3  11   79.83    1.75
  -2  -3  11   80.96    2.24
  -2  -3  10   35.35    1.30
  -2  -3  10   35.84    0.98
  -2  -3   9   17.07    0.83
  -2  -3   9   17.07    0.60
  -2  -3   8    2.16    0.28
  -2  -3   8    2.51    0.22
  -2  -3   7    5.62    0.44
  -2  -3   7    4.80    0.29
  -2  -3   6    2.77    0.30
  -2  -3   5   10.75    0.58
  -2  -3   4    0.05    0.06
  -2  -3   3    0.01    0.07
  -2  -3   3    0.15    0.08
  -2  -3   2    2.57    0.26
  -2  -3   2    2.35    0.24
  -2  -3   1   51.85    1.43
  -2  -3   1   52.75    1.39
  -2  -3   0    2.41    0.23
  -2  -3  -1    1.95    0.21
  -2  -3  -2   33.54    1.01
  -2  -3  -3    1.87    0.20
  -2  -3  -4  113.63    2.46
  -2  -3  -5  144.64    3.01
  -2  -3  -6  112.24    2.47
  -2  -3  -7  153.61    3.20
  -2  -3  -8   63.31    1.65
  -2  -3  -9   19.34    0.80
  -2  -3 -10   26.18    0.98
  -2  -3 -11    7.29    0.49
  -2  -3 -11    7.52    0.40
  -2  -3 -12   57.38    1.67
  -2  -3 -12   58.24    1.45
  -2  -3 -13    0.47    0.14
  -2  -3 -13    0.22    0.09
   2   3  13    0.21    0.11
  -2  -3 -14   31.18    1.19
  -2  -3 -14   30.21    0.94
   2   3  14   31.77    1.20
   2   3  15    8.08    0.58
   2   3  16    1.12    0.23
   2   3  17    7.91    0.61
   2   3  18    4.58    0.48
   2   3  19    1.28    0.27
   2   3  20   15.01    0.86
   2   3  20   16.02    0.98
   2   3  21   13.74    0.94
  -2  -4  17    2.84    0.44
  -2  -4  16    4.05    0.51
  -2  -4  15    0.40    0.17
  -2  -4  14    8.13    0.69
  -2  -4  13    1.68    0.31
  -2  -4  12   12.86    0.82
  -2  -4  11    8.60    0.65
  -2  -4  11    9.18    0.46
  -2  -4  10    1.45    0.27
  -2  -4  10    1.64    0.19
  -2  -4   9    9.56    0.65
  -2  -4   9   10.50    0.50
  -2  -4   8    7.53    0.57
  -2  -4   8    7.93    0.43
  -2  -4   7    2.93    0.34
  -2  -4   7    3.31    0.26
  -2  -4   6   59.01    1.76
  -2  -4   6   59.84    1.48
  -2  -4   5  150.17    3.38
  -2  -4   5  153.14    3.08
  -2  -4   4    3.76    0.35
  -2  -4   4    4.54    0.31
  -2  -4   4    4.25    0.36
  -2  -4   3   11.98    0.64
  -2  -4   3   13.04    0.62
  -2  -4   3   11.30    0.51
  -2  -4   2   17.92    0.79
  -2  -4   2   17.83    0.73
  -2  -4   2   17.38    0.65
  -2  -4   1    0.05    0.07
  -2  -4   1    0.08    0.04
  -2  -4   0   52.57    1.40
  -2  -4  -1    1.20    0.17
  -2  -4  -2    1.60    0.18
  -2  -4  -3   71.56    1.72
  -2  -4  -4  181.09    3.62
  -2  -4  -5   15.77    0.65
  -2  -4  -6    8.65    0.47
  -2  -4  -6    8.68    0.46
  -2  -4  -7   15.80    0.67
  -2  -4  -7   15.21    0.64
  -2  -4  -8    0.11    0.07
  -2  -4  -8    0.00    0.06
  -2  -4  -9    1.76    0.21
  -2  -4  -9    1.64    0.22
  -2  -4 -10    2.15    0.26
  -2  -4 -10    2.55    0.25
  -2  -4 -11    0.31    0.10
  -2  -4 -11    0.25    0.10
  -2  -4 -12   18.55    0.85
  -2  -4 -12   20.74    0.79
  -2  -4 -13    1.72    0.26
  -2  -4 -13    2.30    0.25
   2   4  13    2.19    0.30
  -2  -4 -14    8.57    0.49
   2   4  14    9.54    0.64
   2   4  15    0.99    0.23
   2   4  16    2.28    0.33
   2   4  17    0.83    0.22
   2   4  18   13.64    0.87
   2   4  19    9.55    0.75
   2   4  20    0.59    0.22
  -2  -5  16    0.76    0.25
  -2  -5  15   -0.04    0.10
  -2  -5  14    0.95    0.25
  -2  -5  13    0.61    0.21
  -2  -5  12   11.23    0.82
  -2  -5  11   -0.07    0.12
  -2  -5  10    3.09    0.41
  -2  -5  10    4.15    0.34
  -2  -5   9   27.22    1.22
  -2  -5   9   25.87    0.92
  -2  -5   8  241.98    5.21
  -2  -5   8  240.86    4.71
  -2  -5   7    5.45    0.51
  -2  -5   7    5.81    0.39
  -2  -5   6    2.79    0.35
  -2  -5   6    3.27    0.29
  -2  -5   6    3.47    0.36
  -2  -5   5    5.23    0.46
  -2  -5   5    5.33    0.37
  -2  -5   5    5.73    0.44
  -2  -5   4    2.90    0.34
  -2  -5   4    3.22    0.32
  -2  -5   4    3.01    0.28
  -2  -5   3    3.03    0.27
  -2  -5   3    3.12    0.35
  -2  -5   3    3.11    0.30
  -2  -5   2    6.50    0.50
  -2  -5   2    5.78    0.40
  -2  -5   2    6.70    0.42
  -2  -5   1    3.48    0.30
  -2  -5   1    3.95    0.32
  -2  -5   1    3.53    0.36
  -2  -5   0    0.01    0.04
  -2  -5   0   -0.01    0.07
  -2  -5   0    0.06    0.09
  -2  -5  -1    0.63    0.13
  -2  -5  -1    0.52    0.11
  -2  -5  -2    1.10    0.16
  -2  -5  -2    0.90    0.16
  -2  -5  -3    2.54    0.24
  -2  -5  -3    2.55    0.26
  -2  -5  -4    3.37    0.30
  -2  -5  -4    3.82    0.29
  -2  -5  -5   36.40    1.15
  -2  -5  -5   36.60    1.09
  -2  -5  -6    1.59    0.20
  -2  -5  -6    1.80    0.23
  -2  -5  -7   95.87    2.23
  -2  -5  -7   98.88    2.30
  -2  -5  -8    0.50    0.14
  -2  -5  -8    1.30    0.19
  -2  -5  -9    8.26    0.49
  -2  -5  -9    8.50    0.52
  -2  -5 -10   19.75    0.82
  -2  -5 -10   20.36    0.85
  -2  -5 -11    2.31    0.27
  -2  -5 -11    2.34    0.27
  -2  -5 -12    2.80    0.31
  -2  -5 -12    3.25    0.32
  -2  -5 -13    0.36    0.11
   2   5  13    0.25    0.14
  -2  -5 -14    2.01    0.26
   2   5  14    2.09    0.32
   2   5  15   27.97    1.24
   2   5  16    0.26    0.14
   2   5  17    7.67    0.66
   2   5  18    2.49    0.38
   2   5  19    0.18    0.14
  -2  -6  14    0.87    0.27
  -2  -6  13   11.69    0.91
  -2  -6  12    1.05    0.28
  -2  -6  11    6.99    0.66
  -2  -6  10    0.08    0.08
  -2  -6  10   -0.05    0.12
  -2  -6   9   14.83    0.72
  -2  -6   9   16.79    1.00
  -2  -6   8    5.77    0.56
  -2  -6   8    5.68    0.51
  -2  -6   8    6.43    0.46
  -2  -6   7    9.75    0.71
  -2  -6   7   10.17    0.67
  -2  -6   7   10.53    0.59
  -2  -6   6    0.06    0.10
  -2  -6   6   -0.06    0.09
  -2  -6   6    0.03    0.07
  -2  -6   5   43.59    1.58
  -2  -6   5   41.74    1.39
  -2  -6   5   45.04    1.35
  -2  -6   4   34.63    1.37
  -2  -6   4   34.17    1.19
  -2  -6   4   36.57    1.19
  -2  -6   3    4.75    0.38
  -2  -6   3    4.67    0.46
  -2  -6   3    4.55    0.37
  -2  -6   2   12.54    0.76
  -2  -6   2   11.76    0.59
  -2  -6   2   12.76    0.64
  -2  -6   1   14.56    0.70
  -2  -6   1   14.26    0.80
  -2  -6   1   14.37    0.65
  -2  -6   0   21.07    0.86
  -2  -6   0   19.62    0.75
  -2  -6  -1    6.28    0.45
  -2  -6  -1    6.55    0.39
  -2  -6  -2   14.67    0.71
  -2  -6  -2   14.42    0.59
  -2  -6  -3    0.18    0.05
  -2  -6  -3    0.40    0.13
  -2  -6  -4   24.56    0.96
  -2  -6  -4   21.96    0.77
  -2  -6  -5   14.42    0.60
  -2  -6  -5   15.84    0.76
  -2  -6  -6   80.07    1.89
  -2  -6  -6   84.67    2.15
  -2  -6  -7   95.56    2.23
  -2  -6  -7  107.86    2.51
  -2  -6  -8    0.15    0.13
  -2  -6  -8    0.11    0.07
  -2  -6  -9   30.66    1.02
  -2  -6  -9   32.38    1.17
  -2  -6 -10    1.87    0.26
  -2  -6 -10    1.24    0.19
  -2  -6 -11    0.89    0.17
  -2  -6 -11    1.31    0.23
  -2  -6 -12    2.44    0.30
   2   6  12    2.68    0.35
  -2  -6 -13    3.13    0.35
   2   6  13    3.34    0.41
  -2  -6 -14    5.14    0.45
   2   6  14    5.22    0.52
   2   6  15    0.15    0.15
   2   6  16    0.39    0.18
   2   6  17    0.27    0.15
   2   6  18    0.84    0.25
  -2  -7  12    7.38    0.74
  -2  -7  11    1.73    0.35
  -2  -7  10    0.17    0.14
  -2  -7   9    9.96    0.81
  -2  -7   9    9.28    0.61
  -2  -7   8    6.29    0.62
  -2  -7   8    5.48    0.46
  -2  -7   7   20.64    1.13
  -2  -7   7   19.56    0.90
  -2  -7   6   42.29    1.70
  -2  -7   6   42.96    1.42
  -2  -7   5   52.45    1.91
  -2  -7   5   55.07    1.65
  -2  -7   4    4.14    0.39
  -2  -7   4    4.53    0.50
  -2  -7   3    4.61    0.50
  -2  -7   3    5.18    0.43
  -2  -7   2    0.08    0.10
  -2  -7   2    0.15    0.11
  -2  -7   1    3.55    0.36
  -2  -7   1    4.47    0.47
  -2  -7   0    6.62    0.49
  -2  -7  -1   17.99    0.84
  -2  -7  -2    4.60    0.41
  -2  -7  -3   10.21    0.62
  -2  -7  -4   10.40    0.63
  -2  -7  -5    0.18    0.11
  -2  -7  -6   32.60    1.23
  -2  -7  -7   10.96    0.68
  -2  -7  -8   45.51    1.53
  -2  -7  -9   35.90    1.34
  -2  -7 -10    1.82    0.29
  -2  -7 -11    1.59    0.27
   2   7  11    1.96    0.32
  -2  -7 -12    2.44    0.33
   2   7  12    3.43    0.43
   2   7  13    1.68    0.31
  -2  -7 -13    1.43    0.25
  -2  -7 -14    1.15    0.23
   2   7  14    1.68    0.31
   2   7  15    1.17    0.27
   2   7  16    6.32    0.63
  -2  -8   9   -0.03    0.14
  -2  -8   9    0.02    0.08
  -2  -8   8    5.31    0.62
  -2  -8   8    6.03    0.52
  -2  -8   7    0.99    0.29
  -2  -8   7    0.81    0.20
  -2  -8   6    8.55    0.76
  -2  -8   6    7.94    0.60
  -2  -8   5    7.85    0.72
  -2  -8   5    8.17    0.60
  -2  -8   4    3.71    0.49
  -2  -8   4    3.30    0.37
  -2  -8   3    5.27    0.57
  -2  -8   3    5.45    0.48
  -2  -8   2   10.37    0.80
  -2  -8   2   11.18    0.70
  -2  -8   1   13.40    0.77
  -2  -8   0   24.59    1.08
  -2  -8  -1    8.40    0.61
  -2  -8  -2    0.68    0.18
  -2  -8  -3    9.12    0.64
  -2  -8  -4    0.63    0.18
  -2  -8  -5   16.04    0.88
  -2  -8  -6    1.42    0.27
  -2  -8  -7    1.96    0.31
  -2  -8  -8    5.53    0.51
  -2  -8  -9   82.16    2.39
  -2  -8 -10   14.98    0.88
   2   8  10   17.00    0.96
  -2  -8 -11    0.28    0.14
   2   8  11    0.40    0.21
  -2  -8 -12    0.52    0.18
   2   8  12    0.42    0.18
  -2  -8 -13    6.97    0.61
   2   8  13    8.71    0.72
  -2  -8 -14    2.60    0.37
   2   8  14    3.07    0.44
  -2  -9   8    0.12    0.11
  -2  -9   7    0.81    0.25
  -2  -9   7    0.58    0.18
  -2  -9   6    0.97    0.29
  -2  -9   6    0.87    0.22
  -2  -9   5    3.79    0.54
  -2  -9   5    3.40    0.42
  -2  -9   4    1.18    0.31
  -2  -9   4    0.58    0.17
  -2  -9   3    0.10    0.11
  -2  -9   3    0.20    0.17
  -2  -9   2   17.10    0.95
  -2  -9   1    1.41    0.28
  -2  -9   0    6.86    0.58
  -2  -9  -1    1.89    0.31
  -2  -9  -2    1.55    0.29
  -2  -9  -3    1.62    0.29
  -2  -9  -4   13.45    0.84
  -2  -9  -5    1.52    0.29
  -2  -9  -6    7.88    0.65
  -2  -9  -7    2.38    0.36
   2   9   7    2.26    0.34
  -2  -9  -8    1.43    0.29
   2   9   8    1.31    0.27
  -2  -9  -9    7.57    0.66
   2   9   9    8.18    0.67
  -2  -9 -10    2.43    0.38
   2   9  10    2.45    0.38
  -2  -9 -11    1.06    0.27
   2   9  11    1.48    0.31
  -2  -9 -12    0.65    0.22
   2   9  12    0.35    0.18
  -2  -9 -13    5.18    0.57
   3  -9  -5    0.48    0.19
   3  -9  -4    2.67    0.42
   3  -9  -3    0.77    0.23
   3  -9  -2    8.61    0.74
   3  -9  -1    2.31    0.39
   3  -9   0    4.66    0.55
   3  -9   1    5.43    0.59
  -3   8  12    1.03    0.28
  -3   8  11    0.50    0.18
   3  -8 -11    0.42    0.18
  -3   8  10    0.05    0.09
   3  -8 -10    0.30    0.16
   3  -8  -9    3.59    0.45
   3  -8  -8    6.05    0.59
   3  -8  -7    2.18    0.36
   3  -8  -6    5.87    0.58
   3  -8  -5    0.06    0.12
   3  -8  -4    5.12    0.55
   3  -8  -3   38.27    1.58
   3  -8  -2    0.87    0.25
   3  -8  -1    0.33    0.16
   3  -8   0    3.19    0.43
   3  -8   1    1.90    0.34
   3  -8   2   14.12    0.90
   3  -8   3    0.67    0.21
   3  -8   4    0.00    0.11
   3  -8   5    0.98    0.25
   3  -8   6    2.77    0.39
   3  -8   7    4.04    0.47
   3  -8   8    3.51    0.43
   3  -8   8    2.91    0.40
   3  -8   9    1.80    0.32
   3  -8   9    1.74    0.32
   3  -8  10   -0.02    0.09
   3  -8  10   -0.16    0.15
   3  -8  11   -0.07    0.10
  -3   7  14    0.71    0.24
  -3   7  13    1.03    0.27
   3  -7 -12    3.63    0.43
  -3   7  12    3.79    0.48
   3  -7 -11    6.18    0.56
  -3   7  11    5.28    0.55
  -3   7  10    1.94    0.33
   3  -7 -10    1.63    0.30
   3  -7  -9    1.07    0.25
  -3   7   9    0.98    0.23
   3  -7  -8    0.07    0.10
  -3   7   8    0.17    0.13
  -3   7   7    2.74    0.35
   3  -7  -7    3.05    0.40
   3  -7  -6    2.70    0.38
  -3   7   6    2.26    0.31
  -3   7   5   33.30    1.26
   3  -7  -5   38.08    1.49
   3  -7  -4    6.58    0.58
   3  -7  -3    0.05    0.11
   3  -7  -2    1.61    0.29
   3  -7  -1    0.07    0.10
   3  -7   0    4.03    0.45
   3  -7   1    6.36    0.57
   3  -7   2    9.40    0.69
   3  -7   3    4.31    0.46
   3  -7   4    0.55    0.18
   3  -7   4    0.55    0.14
   3  -7   5   10.60    0.64
   3  -7   5    9.28    0.69
   3  -7   6    2.36    0.31
   3  -7   6    2.67    0.37
   3  -7   7    0.23    0.13
   3  -7   7    0.13    0.10
   3  -7   8   -0.05    0.11
   3  -7   8    0.03    0.08
   3  -7   9    1.72    0.29
   3  -7   9    1.72    0.29
   3  -7  10    6.73    0.59
   3  -7  10    5.92    0.54
   3  -7  11    5.06    0.53
   3  -7  11    4.68    0.47
   3  -7  12    1.06    0.25
   3  -7  13    0.33    0.16
  -3   6  15    5.24    0.60
  -3   6  14    0.38    0.18
  -3   6  13    7.54    0.68
   3  -6 -12    1.90    0.29
  -3   6  12    2.07    0.35
  -3   6  11    7.02    0.62
   3  -6 -11    6.54    0.55
  -3   6  10   38.28    1.51
   3  -6 -10   40.18    1.47
   3  -6  -9    3.00    0.38
  -3   6   9    2.51    0.35
   3  -6  -8    1.13    0.23
  -3   6   8    1.66    0.28
   3  -6  -7    0.45    0.16
  -3   6   7    0.62    0.17
   3  -6  -6   14.61    0.83
  -3   6   6   13.59    0.75
   3  -6  -5    0.30    0.14
  -3   6   5    0.21    0.09
   3  -6  -4    0.42    0.16
  -3   6   4    0.39    0.12
  -3   6   3   27.96    1.03
   3  -6  -3   30.52    1.23
  -3   6   2   42.45    1.29
   3  -6  -2   46.24    1.57
  -3   6   1   12.34    0.59
   3  -6  -1   14.53    0.80
   3  -6   0    8.10    0.59
   3  -6   1    0.05    0.11
   3  -6   1    0.11    0.07
   3  -6   2   16.43    0.69
   3  -6   2   17.86    0.90
   3  -6   3   16.49    0.72
   3  -6   3   17.84    0.90
   3  -6   4   22.97    0.91
   3  -6   4   24.37    1.08
   3  -6   5   21.66    0.90
   3  -6   5   22.99    1.05
   3  -6   6    8.44    0.55
   3  -6   6    7.98    0.60
   3  -6   7    4.95    0.43
   3  -6   7    5.12    0.47
   3  -6   8    1.55    0.27
   3  -6   8    1.66    0.26
   3  -6   9    1.41    0.25
   3  -6   9    1.34    0.25
   3  -6  10   15.35    0.86
   3  -6  10   14.21    0.81
   3  -6  11   12.64    0.80
   3  -6  11   13.64    0.78
   3  -6  12    0.05    0.07
   3  -6  12    0.03    0.09
   3  -6  13    0.75    0.21
   3  -6  14    0.13    0.14
  -3   5  16    0.47    0.22
  -3   5  15    1.75    0.34
  -3   5  14    0.01    0.13
  -3   5  13    3.54    0.45
   3  -5 -12    0.48    0.15
  -3   5  12    0.27    0.15
  -3   5  11    2.92    0.39
   3  -5 -11    3.09    0.36
   3  -5 -10    0.25    0.14
  -3   5  10    0.16    0.14
  -3   5   9   42.46    1.55
  -3   5   9   45.58    1.57
   3  -5  -9   44.66    1.50
   3  -5  -8    0.09    0.11
  -3   5   8    0.16    0.11
  -3   5   8    0.01    0.09
   3  -5  -7    0.11    0.08
  -3   5   7    0.06    0.09
  -3   5   7    0.04    0.08
  -3   5   6   18.39    0.86
  -3   5   6   18.42    0.86
   3  -5  -6   18.25    0.88
  -3   5   5    9.39    0.58
  -3   5   5    9.26    0.57
   3  -5  -5   10.40    0.64
  -3   5   4  128.58    2.92
  -3   5   4  128.14    2.92
   3  -5  -4  131.99    3.06
  -3   5   3    8.33    0.50
  -3   5   3    8.10    0.50
   3  -5  -3    8.09    0.56
   3  -5  -2   11.21    0.40
  -3   5   2   10.37    0.55
   3  -5  -2   11.48    0.67
  -3   5   2   10.59    0.56
   3  -5  -1   -0.03    0.10
   3  -5  -1    0.02    0.03
  -3   5   1    0.08    0.05
  -3   5   1    0.08    0.07
   3  -5   0    0.96    0.19
   3  -5   0    1.18    0.14
  -3   5   0    1.19    0.17
   3  -5   1    1.55    0.24
   3  -5   1    1.33    0.16
  -3   5  -1    1.54    0.18
   3  -5   2    0.12    0.09
  -3   5  -2    0.12    0.06
   3  -5   2    0.02    0.04
   3  -5   3   19.78    0.74
  -3   5  -3   19.18    0.70
   3  -5   3   18.28    0.86
   3  -5   4   39.53    1.19
  -3   5  -4   38.88    1.12
   3  -5   4   40.17    1.35
   3  -5   5    3.44    0.32
  -3   5  -5    3.00    0.27
   3  -5   5    2.89    0.33
   3  -5   6    6.43    0.45
  -3   5  -6    6.06    0.39
   3  -5   6    6.82    0.51
  -3   5  -7    6.17    0.41
   3  -5   7    7.62    0.50
   3  -5   7    6.86    0.51
  -3   5  -8   11.67    0.59
   3  -5   8   12.81    0.69
   3  -5   8   11.75    0.68
  -3   5  -9    3.46    0.32
   3  -5   9    4.01    0.39
   3  -5   9    3.04    0.34
   3  -5  10    1.18    0.22
  -3   5 -10    1.28    0.21
   3  -5  10    1.26    0.24
   3  -5  11   18.54    0.93
   3  -5  11   17.12    0.85
   3  -5  12    9.04    0.66
   3  -5  12    8.66    0.58
   3  -5  13    0.10    0.11
   3  -5  14    5.60    0.55
   3  -5  15    0.12    0.11
   3  -5  16   -0.01    0.10
  -3   4  17    2.45    0.42
  -3   4  16    4.23    0.53
  -3   4  15    7.44    0.68
  -3   4  14    8.12    0.69
  -3   4  13    5.62    0.55
  -3   4  12   24.57    1.17
   3  -4 -12   25.35    1.01
  -3   4  11   13.62    0.82
   3  -4 -11   13.89    0.72
  -3   4  10   40.69    1.47
   3  -4 -10   39.09    1.32
  -3   4   9    3.43    0.38
   3  -4  -9    3.34    0.34
  -3   4   8   50.32    1.62
   3  -4  -8   51.91    1.55
  -3   4   7   44.13    1.49
  -3   4   7   43.61    1.44
   3  -4  -7   46.01    1.43
  -3   4   6    7.74    0.54
  -3   4   6    7.92    0.53
   3  -4  -6    8.68    0.55
  -3   4   5   12.83    0.68
  -3   4   5   12.38    0.65
   3  -4  -5   13.10    0.68
  -3   4   4    2.51    0.29
  -3   4   4    2.16    0.26
   3  -4  -4    2.52    0.29
   3  -4  -3    1.91    0.25
  -3   4   3    1.70    0.23
   3  -4  -3    1.72    0.11
  -3   4   3    1.61    0.21
  -3   4   2   12.95    0.63
   3  -4  -2   12.85    0.41
  -3   4   2   12.25    0.58
   3  -4  -2   13.45    0.68
   3  -4  -1   46.45    1.06
   3  -4  -1   48.25    1.44
  -3   4   1   44.34    1.26
  -3   4   1   44.96    1.32
   3  -4   0    1.18    0.21
   3  -4   0    1.35    0.14
  -3   4   0    1.29    0.18
  -3   4  -1   34.20    1.06
   3  -4   1   34.40    1.17
   3  -4   2    0.70    0.17
  -3   4  -2    0.41    0.10
   3  -4   3   38.34    1.07
   3  -4   3   39.33    1.25
  -3   4  -3   40.26    1.14
   3  -4   4    9.38    0.48
  -3   4  -4    9.01    0.48
   3  -4   4    8.98    0.55
   3  -4   5   62.81    1.60
  -3   4  -5   59.59    1.58
   3  -4   5   63.52    1.73
   3  -4   6   21.73    0.83
  -3   4  -6   21.38    0.81
   3  -4   6   22.72    0.91
   3  -4   7    5.11    0.39
  -3   4  -7    5.33    0.39
   3  -4   7    5.56    0.43
  -3   4  -8   79.35    1.97
   3  -4   8   80.33    2.03
   3  -4   8   74.86    2.00
  -3   4  -9    4.02    0.35
   3  -4   9    4.31    0.38
   3  -4   9    3.70    0.35
   3  -4  10    0.61    0.17
   3  -4  10    0.65    0.18
  -3   4 -10    0.65    0.15
  -3   4 -11   84.33    2.19
   3  -4  11   88.63    2.33
   3  -4  11   86.39    2.19
  -3   4 -12   20.13    0.90
   3  -4  12   21.04    0.99
   3  -4  12   20.65    0.88
   3  -4  13    2.55    0.35
   3  -4  13    2.37    0.28
   3  -4  14    3.96    0.44
   3  -4  15    0.12    0.12
   3  -4  16    7.88    0.67
   3  -4  17    0.80    0.23
  -3   3  18    2.34    0.41
  -3   3  17    0.13    0.16
  -3   3  16    1.38    0.31
  -3   3  15   38.83    1.61
  -3   3  14    0.77    0.23
  -3   3  13    5.98    0.55
   3  -3 -12    2.29    0.26
  -3   3  12    1.68    0.29
   3  -3 -11    0.25    0.09
  -3   3  11    0.23    0.11
   3  -3 -10    0.40    0.12
  -3   3  10    0.16    0.11
   3  -3  -9   13.60    0.66
  -3   3   9   11.95    0.71
  -3   3   8    7.46    0.54
   3  -3  -8    8.19    0.50
   3  -3  -7    0.40    0.12
  -3   3   7    0.58    0.16
   3  -3  -6    6.70    0.21
  -3   3   6    7.03    0.51
  -3   3   6    7.88    0.51
   3  -3  -5    3.57    0.16
  -3   3   5    3.73    0.34
  -3   3   5    3.97    0.37
   3  -3  -4    0.17    0.04
  -3   3   4    0.28    0.10
  -3   3   4    0.23    0.10
  -3   3   3   22.17    0.88
  -3   3   3   21.64    0.83
  -3   3   2   10.69    0.57
  -3   3   2   10.32    0.53
  -3   3   1   28.56    0.98
  -3   3   1   26.31    0.89
  -3   3   0   93.55    2.20
  -3   3  -1    6.23    0.41
  -3   3  -2   72.74    1.79
  -3   3  -3    0.43    0.12
  -3   3  -4    3.48    0.30
  -3   3  -5    0.23    0.08
   3  -3   5    0.33    0.08
  -3   3  -6    9.39    0.51
   3  -3   6    8.07    0.39
  -3   3  -7   98.92    2.32
   3  -3   8    0.28    0.11
  -3   3  -8    0.22    0.10
  -3   3  -9   11.71    0.63
   3  -3   9   12.83    0.62
  -3   3 -10   16.38    0.77
   3  -3  10   15.63    0.70
  -3   3 -11    8.26    0.54
   3  -3  11    9.28    0.59
   3  -3  11    8.25    0.49
  -3   3 -12   45.45    1.47
   3  -3  12   42.18    1.30
   3  -3  13    1.13    0.18
   3  -3  13    1.37    0.26
  -3   3 -13    1.33    0.23
   3  -3  14   -0.09    0.11
  -3   3 -14    0.01    0.10
   3  -3  15    3.25    0.40
   3  -3  16    2.16    0.35
   3  -3  17    2.89    0.41
   3  -3  18    1.62    0.32
  -3   2  18    2.85    0.45
  -3   2  17    9.51    0.80
  -3   2  16   -0.03    0.11
  -3   2  15    1.23    0.28
  -3   2  14   18.87    1.04
  -3   2  13    8.89    0.68
  -3   2  12   26.67    1.19
   3  -2 -12   27.02    0.93
  -3   2  11   18.18    0.93
   3  -2 -11   18.50    0.75
  -3   2  11   18.11    0.70
  -3   2  10   26.87    1.13
  -3   2   9   14.74    0.79
  -3   2   8   43.78    1.44
   3  -2  -7    0.60    0.09
  -3   2   7    0.76    0.17
   3  -2  -6    1.37    0.13
  -3   2   6    1.24    0.20
   3  -2  -5   10.14    0.40
  -3   2   5   11.77    0.61
  -3   2   5   11.90    0.65
  -3   2   4   40.53    1.27
  -3   2   4   38.87    1.20
   3  -2  -3   21.43    0.70
  -3   2   3   23.82    0.91
  -3   2   3   22.11    0.83
  -3   2   2   93.74    2.25
  -3   2   2   92.53    2.14
  -3   2   1   37.37    1.18
  -3   2   0   10.52    0.55
  -3   2  -1    4.88    0.37
  -3   2  -2   49.35    1.39
  -3   2  -3    0.01    0.07
  -3   2  -4   80.29    1.96
  -3   2  -5   33.80    1.10
  -3   2  -6    9.44    0.53
  -3   2  -7    3.47    0.32
  -3   2  -8   33.95    1.14
  -3   2  -9    1.04    0.18
  -3   2 -10   12.92    0.69
  -3   2 -11    0.11    0.08
  -3   2 -12   84.48    2.23
   3  -2  12   87.17    1.94
   3  -2  12   83.23    2.00
  -3   2 -13   14.02    0.75
   3  -2  13   14.56    0.61
   3  -2  13   13.10    0.61
  -3   2 -14   61.95    1.87
  -3   2 -15    0.96    0.21
   3  -2  15    0.77    0.21
   3  -2  16    5.80    0.54
   3  -2  17    0.46    0.17
   3  -2  18    0.23    0.14
   3  -2  19    6.59    0.64
  -3   1  19    0.10    0.11
  -3   1  18    3.21    0.47
  -3   1  17   13.23    0.94
  -3   1  16    0.23    0.14
  -3   1  15    3.02    0.42
  -3   1  14    0.78    0.23
  -3   1  13   33.41    1.16
  -3   1  13   38.35    1.47
  -3   1  12   17.67    0.76
  -3   1  12   18.08    0.95
  -3   1  11    1.98    0.23
  -3   1  11    1.78    0.28
  -3   1  10    0.02    0.05
  -3   1  10    0.14    0.09
  -3   1   9    4.83    0.35
  -3   1   9    4.31    0.41
  -3   1   8    4.01    0.38
  -3   1   8    4.68    0.33
  -3   1   7    6.71    0.48
  -3   1   6    3.73    0.34
  -3   1   5    5.05    0.42
  -3   1   5    5.25    0.40
  -3   1   4    0.16    0.09
  -3   1   4    0.31    0.10
  -3   1   3   36.26    1.21
  -3   1   3   38.39    1.17
  -3   1   2    5.99    0.42
  -3   1   1    0.12    0.07
  -3   1   0   27.72    0.97
  -3   1  -1   24.78    0.91
  -3   1  -2   35.59    1.13
  -3   1  -3   36.30    1.14
  -3   1  -4    6.87    0.44
  -3   1  -5   21.90    0.85
  -3   1  -6   54.61    1.53
  -3   1  -7   27.28    1.00
  -3   1  -8    3.31    0.32
  -3   1  -9    0.04    0.06
  -3   1 -10   14.38    0.73
  -3   1 -11    3.71    0.37
  -3   1 -12    3.53    0.36
  -3   1 -13    0.16    0.11
  -3   1 -14   -0.10    0.12
   3  -1  14   -0.03    0.07
  -3   1 -15    9.38    0.65
   3  -1  15    9.69    0.56
  -3   1 -16   15.50    0.87
   3  -1  16   15.64    0.75
   3  -1  17    3.29    0.41
   3  -1  18    1.80    0.32
   3  -1  19    0.92    0.25
   3  -1  20    5.92    0.61
  -3   0  19    5.30    0.62
  -3   0  18    0.91    0.26
  -3   0  17    3.23    0.46
  -3   0  16    6.11    0.52
  -3   0  16    6.37    0.62
  -3   0  15    1.34    0.28
  -3   0  15    1.29    0.24
  -3   0  14    5.45    0.46
  -3   0  14    5.96    0.56
  -3   0  13    2.10    0.27
  -3   0  13    2.27    0.34
  -3   0  12    0.34    0.12
  -3   0  12    0.34    0.14
  -3   0  11   31.07    1.11
  -3   0  11   36.59    1.35
  -3   0  10    5.40    0.41
  -3   0  10    5.57    0.48
  -3   0   9   30.14    1.03
  -3   0   9   29.81    1.16
  -3   0   8    1.90    0.23
  -3   0   8    1.65    0.25
  -3   0   7   11.63    0.58
  -3   0   7   11.90    0.65
  -3   0   6   40.73    1.31
  -3   0   6   40.10    1.19
  -3   0   5   35.71    1.18
  -3   0   4    4.11    0.37
  -3   0   3   72.95    1.91
  -3   0   2   23.42    0.91
  -3   0   1  317.11    6.08
  -3   0   0   78.01    1.95
  -3   0  -1  198.27    4.03
  -3   0  -2    3.59    0.32
  -3   0  -3   14.01    0.66
  -3   0  -4   44.17    1.32
  -3   0  -5   67.33    1.77
  -3   0  -6  111.84    2.58
  -3   0  -7    9.76    0.56
  -3   0  -8    6.39    0.45
  -3   0  -9    1.03    0.20
  -3   0 -10   16.48    0.79
  -3   0 -11    6.91    0.51
  -3   0 -12   19.52    0.92
  -3   0 -13    5.58    0.48
  -3   0 -14   13.01    0.75
  -3   0 -15   11.39    0.72
   3   0  15   12.68    0.68
  -3   0 -16   16.58    0.90
   3   0  16   16.50    0.81
   3   0  17   16.31    0.83
   3   0  18    0.05    0.08
   3   0  19    0.66    0.21
   3   0  19    0.51    0.16
   3   0  20    0.07    0.12
   3   0  21    0.33    0.16
  -3  -1  19    1.27    0.30
  -3  -1  18    2.51    0.37
  -3  -1  18    2.94    0.45
  -3  -1  17   15.46    0.93
  -3  -1  17   14.84    0.98
  -3  -1  16    3.75    0.43
  -3  -1  16    3.65    0.47
  -3  -1  15    0.26    0.14
  -3  -1  15    0.27    0.14
  -3  -1  14   24.96    1.11
  -3  -1  14   25.10    1.19
  -3  -1  13    8.87    0.62
  -3  -1  13    8.98    0.67
  -3  -1  12   16.59    0.83
  -3  -1  12   16.46    0.90
  -3  -1  11    2.66    0.31
  -3  -1  11    2.61    0.34
  -3  -1  10   32.85    1.17
  -3  -1  10   33.61    1.28
  -3  -1   9   78.44    2.04
  -3  -1   9   80.29    2.18
  -3  -1   8   68.67    1.83
  -3  -1   8   69.42    1.95
  -3  -1   7    3.91    0.34
  -3  -1   6   53.13    1.50
  -3  -1   5   11.37    0.59
  -3  -1   4   27.81    1.07
  -3  -1   3   86.76    2.19
  -3  -1   2    7.20    0.48
  -3  -1   1   38.47    1.24
  -3  -1   0    5.81    0.41
  -3  -1  -1  126.73    2.82
  -3  -1  -2    2.24    0.25
  -3  -1  -3   93.95    2.24
  -3  -1  -4    5.55    0.40
  -3  -1  -5    1.45    0.22
  -3  -1  -6    6.32    0.45
  -3  -1  -7    1.59    0.23
  -3  -1  -8   16.21    0.77
  -3  -1  -9    3.17    0.33
  -3  -1 -10    4.32    0.39
  -3  -1 -11    0.01    0.08
  -3  -1 -12    0.00    0.08
  -3  -1 -13    0.27    0.13
  -3  -1 -14    0.97    0.21
  -3  -1 -15    2.48    0.34
   3   1  15    2.97    0.33
  -3  -1 -16    0.04    0.11
   3   1  16    0.10    0.09
  -3  -1 -17    0.43    0.15
   3   1  17    0.58    0.15
   3   1  18   11.20    0.73
   3   1  19    0.12    0.11
   3   1  20    3.80    0.47
   3   1  20    3.50    0.43
   3   1  21    5.32    0.57
   3   1  21    5.02    0.54
  -3  -2  19    1.03    0.27
  -3  -2  19    0.76    0.24
  -3  -2  18    1.12    0.28
  -3  -2  18    1.25    0.29
  -3  -2  17    1.72    0.32
  -3  -2  17    1.60    0.31
  -3  -2  16    2.34    0.36
  -3  -2  16    2.65    0.40
  -3  -2  15    2.60    0.37
  -3  -2  15    2.15    0.35
  -3  -2  14    0.88    0.21
  -3  -2  14    1.32    0.26
  -3  -2  13    0.73    0.19
  -3  -2  13    0.85    0.21
  -3  -2  12    1.32    0.24
  -3  -2  12    1.12    0.23
  -3  -2  11   14.25    0.79
  -3  -2  10    2.93    0.34
  -3  -2   9   15.35    0.77
  -3  -2   8   24.77    1.00
  -3  -2   7    2.29    0.28
  -3  -2   6    6.01    0.46
  -3  -2   5   26.70    1.02
  -3  -2   5   27.31    1.09
  -3  -2   4   95.15    2.33
  -3  -2   4   96.27    2.41
  -3  -2   3   35.43    1.23
  -3  -2   2   29.17    1.07
  -3  -2   1    2.13    0.26
  -3  -2   0  234.01    4.70
  -3  -2  -1    0.02    0.08
  -3  -2  -2   44.34    1.35
  -3  -2  -3   17.92    0.78
  -3  -2  -4  120.86    2.74
  -3  -2  -5   24.59    0.95
  -3  -2  -6   12.40    0.65
  -3  -2  -7    0.94    0.18
  -3  -2  -8   68.73    1.88
  -3  -2  -9    3.37    0.34
  -3  -2 -10    2.14    0.28
  -3  -2 -11   24.33    1.02
  -3  -2 -12   53.34    1.69
  -3  -2 -13   73.98    2.11
  -3  -2 -14    0.17    0.12
  -3  -2 -15   48.04    1.65
  -3  -2 -16    2.58    0.35
   3   2  16    2.95    0.36
  -3  -2 -17    8.49    0.65
   3   2  17    8.71    0.65
   3   2  18    3.27    0.40
   3   2  19   21.40    1.10
   3   2  20    2.34    0.37
   3   2  21    1.36    0.29
  -3  -3  18   14.15    1.01
  -3  -3  17    4.22    0.53
  -3  -3  16    1.13    0.27
  -3  -3  15    3.38    0.45
  -3  -3  14    9.28    0.73
  -3  -3  13    0.03    0.08
  -3  -3  12   14.52    0.87
  -3  -3  11    5.90    0.53
  -3  -3  11    5.99    0.36
  -3  -3  10   13.16    0.78
  -3  -3   9    0.38    0.15
  -3  -3   8  132.26    3.17
  -3  -3   7  163.90    3.70
  -3  -3   6   31.19    1.21
  -3  -3   6   33.21    1.28
  -3  -3   5   93.06    2.42
  -3  -3   5   97.06    2.50
  -3  -3   4    5.50    0.45
  -3  -3   4    4.58    0.42
  -3  -3   3  137.97    3.22
  -3  -3   3  145.34    3.23
  -3  -3   2    2.41    0.29
  -3  -3   1    0.96    0.18
  -3  -3   0    9.98    0.58
  -3  -3  -1   13.54    0.68
  -3  -3  -2    7.98    0.51
  -3  -3  -3   37.67    1.23
  -3  -3  -4   15.75    0.74
  -3  -3  -5   67.68    1.82
  -3  -3  -6   12.08    0.65
  -3  -3  -7   70.33    1.90
  -3  -3  -8   61.80    1.76
  -3  -3  -9    2.83    0.33
  -3  -3 -10   45.92    1.48
  -3  -3 -11    1.66    0.25
  -3  -3 -12    5.87    0.49
  -3  -3 -13    2.39    0.32
  -3  -3 -14    0.38    0.16
  -3  -3 -15    1.33    0.26
  -3  -3 -16    0.29    0.14
   3   3  16    0.17    0.12
  -3  -3 -17    0.36    0.16
   3   3  17    0.09    0.10
   3   3  18    3.61    0.44
   3   3  19    0.23    0.13
   3   3  20    1.38    0.30
   3   3  21    0.56    0.22
  -3  -4  16    0.39    0.20
  -3  -4  15    3.92    0.51
  -3  -4  14    0.18    0.13
  -3  -4  13    7.67    0.68
  -3  -4  12    5.47    0.56
  -3  -4  11    0.10    0.09
  -3  -4  10   10.20    0.73
  -3  -4  10   11.41    0.55
  -3  -4   9    8.79    0.65
  -3  -4   9    9.07    0.49
  -3  -4   8   31.94    1.30
  -3  -4   8   30.03    0.97
  -3  -4   7   42.44    1.54
  -3  -4   7   43.76    1.57
  -3  -4   6    0.64    0.18
  -3  -4   6    1.03    0.22
  -3  -4   5    1.27    0.25
  -3  -4   5    1.63    0.26
  -3  -4   4   17.11    0.88
  -3  -4   4   17.19    0.85
  -3  -4   3    3.19    0.36
  -3  -4   3    3.11    0.34
  -3  -4   2    9.77    0.60
  -3  -4   1   16.45    0.79
  -3  -4   0   19.50    0.86
  -3  -4  -1    0.01    0.06
  -3  -4  -2    1.35    0.21
  -3  -4  -3   11.65    0.63
  -3  -4  -4   12.33    0.66
  -3  -4  -5   55.67    1.62
  -3  -4  -6   16.72    0.78
  -3  -4  -7    8.26    0.54
  -3  -4  -8   22.36    0.94
  -3  -4  -9   36.18    1.27
  -3  -4 -10    1.81    0.27
  -3  -4 -11   16.70    0.84
  -3  -4 -12   10.19    0.66
  -3  -4 -13    2.79    0.35
  -3  -4 -13    2.88    0.30
  -3  -4 -14   27.17    1.16
  -3  -4 -14   28.63    1.03
  -3  -4 -15   11.06    0.72
  -3  -4 -16    5.01    0.50
   3   4  16    5.54    0.54
   3   4  17    1.87    0.33
   3   4  18    2.87    0.42
   3   4  19   10.53    0.82
  -3  -5  14   -0.05    0.11
  -3  -5  13    0.22    0.15
  -3  -5  12    0.29    0.15
  -3  -5  11    7.81    0.69
  -3  -5  10   12.43    0.86
  -3  -5  10   14.83    0.69
  -3  -5   9   14.66    0.92
  -3  -5   9   16.33    0.72
  -3  -5   9   15.34    0.94
  -3  -5   8   11.12    0.79
  -3  -5   8   11.45    0.59
  -3  -5   8   10.60    0.76
  -3  -5   7   22.86    1.13
  -3  -5   7   21.98    1.08
  -3  -5   7   20.97    0.85
  -3  -5   6   24.10    1.15
  -3  -5   6   23.89    1.10
  -3  -5   6   23.74    0.90
  -3  -5   5    7.25    0.60
  -3  -5   5    6.35    0.53
  -3  -5   5    6.52    0.43
  -3  -5   4   20.67    1.03
  -3  -5   4   19.60    0.94
  -3  -5   4   19.33    0.79
  -3  -5   3    6.85    0.57
  -3  -5   3    7.27    0.54
  -3  -5   3    6.69    0.43
  -3  -5   2   13.42    0.73
  -3  -5   1    8.17    0.55
  -3  -5   0   32.73    1.19
  -3  -5  -1   22.52    0.94
  -3  -5  -2    9.32    0.57
  -3  -5  -3   -0.05    0.08
  -3  -5  -4   44.87    1.41
  -3  -5  -5    0.27    0.11
  -3  -5  -6  117.64    2.77
  -3  -5  -7    0.57    0.16
  -3  -5  -8  104.81    2.56
  -3  -5  -8  103.05    2.47
  -3  -5  -9   26.45    1.07
  -3  -5  -9   28.12    1.04
  -3  -5 -10    3.13    0.35
  -3  -5 -10    2.56    0.30
  -3  -5 -11   10.38    0.65
  -3  -5 -11    9.44    0.58
  -3  -5 -12   -0.02    0.07
  -3  -5 -12    0.02    0.08
  -3  -5 -13   10.59    0.68
  -3  -5 -13   10.71    0.63
  -3  -5 -14    4.92    0.46
  -3  -5 -14    4.19    0.39
  -3  -5 -15   -0.19    0.12
  -3  -5 -16    1.96    0.32
   3   5  16    2.59    0.39
   3   5  17    2.98    0.43
   3   5  18    0.64    0.24
  -3  -6  13    0.91    0.28
  -3  -6  12   18.41    1.17
  -3  -6  12   18.07    1.14
  -3  -6  11    7.00    0.70
  -3  -6  11    7.29    0.69
  -3  -6  10    1.46    0.31
  -3  -6  10    1.25    0.29
  -3  -6   9    0.54    0.21
  -3  -6   9    0.58    0.15
  -3  -6   9    0.80    0.21
  -3  -6   8    5.92    0.61
  -3  -6   8    5.98    0.57
  -3  -6   8    5.85    0.45
  -3  -6   7   16.04    1.01
  -3  -6   7   16.92    0.80
  -3  -6   7   16.24    0.94
  -3  -6   6    9.40    0.75
  -3  -6   6    9.31    0.68
  -3  -6   6   10.67    0.61
  -3  -6   5    8.06    0.68
  -3  -6   5    7.18    0.58
  -3  -6   5    7.67    0.51
  -3  -6   4    3.51    0.44
  -3  -6   4    3.21    0.38
  -3  -6   4    4.03    0.36
  -3  -6   3   25.90    1.22
  -3  -6   3   23.18    1.04
  -3  -6   3   25.27    0.97
  -3  -6   2    0.42    0.14
  -3  -6   2    0.55    0.15
  -3  -6   1   16.30    0.76
  -3  -6   1   17.64    0.85
  -3  -6   0    5.10    0.41
  -3  -6   0    4.37    0.40
  -3  -6  -1    2.56    0.30
  -3  -6  -1    2.25    0.27
  -3  -6  -2   27.87    1.05
  -3  -6  -2   29.50    1.08
  -3  -6  -3   10.58    0.61
  -3  -6  -3   10.11    0.59
  -3  -6  -4    9.33    0.57
  -3  -6  -4   10.24    0.60
  -3  -6  -5   13.75    0.72
  -3  -6  -5   14.86    0.72
  -3  -6  -6   19.31    0.87
  -3  -6  -6   19.78    0.87
  -3  -6  -7   99.05    2.47
  -3  -6  -7  104.10    2.54
  -3  -6  -8    0.22    0.13
  -3  -6  -8   -0.04    0.09
  -3  -6  -9    0.18    0.10
  -3  -6  -9    0.31    0.13
  -3  -6 -10    2.00    0.28
  -3  -6 -10    1.66    0.26
  -3  -6 -11    0.83    0.19
  -3  -6 -11    0.80    0.18
  -3  -6 -12    1.04    0.22
  -3  -6 -12    1.01    0.20
  -3  -6 -13    0.05    0.07
  -3  -6 -13    0.11    0.08
  -3  -6 -14    7.35    0.56
  -3  -6 -14    6.82    0.55
  -3  -6 -15    2.56    0.35
   3   6  15    2.92    0.42
   3   6  16    0.42    0.21
   3   6  17    5.65    0.62
  -3  -7  10    3.08    0.49
  -3  -7   9    2.70    0.45
  -3  -7   9    3.11    0.35
  -3  -7   8    0.50    0.20
  -3  -7   8    0.62    0.17
  -3  -7   7   27.62    1.43
  -3  -7   7   25.72    1.07
  -3  -7   6   38.35    1.71
  -3  -7   6   37.76    1.33
  -3  -7   5    4.15    0.52
  -3  -7   5    4.23    0.40
  -3  -7   4    0.15    0.13
  -3  -7   4    0.22    0.11
  -3  -7   3    4.12    0.40
  -3  -7   3    4.74    0.53
  -3  -7   2    5.56    0.47
  -3  -7   1   15.38    0.79
  -3  -7   0    3.07    0.35
  -3  -7  -1   17.41    0.84
  -3  -7  -2    0.05    0.08
  -3  -7  -3   13.06    0.73
  -3  -7  -4    0.26    0.12
  -3  -7  -5    2.97    0.35
  -3  -7  -6    1.32    0.24
  -3  -7  -7   19.36    0.94
  -3  -7  -8    2.00    0.31
  -3  -7  -9   59.93    1.89
  -3  -7 -10    1.74    0.29
  -3  -7 -11   11.52    0.74
  -3  -7 -12    0.04    0.08
  -3  -7 -13    5.74    0.53
  -3  -7 -14    0.68    0.19
   3   7  14    1.47    0.32
   3   7  15    2.90    0.45
  -3  -8   8   -0.04    0.13
  -3  -8   8    0.10    0.07
  -3  -8   7    8.03    0.80
  -3  -8   7    6.09    0.53
  -3  -8   6    4.04    0.55
  -3  -8   6    3.59    0.40
  -3  -8   5    0.10    0.10
  -3  -8   5    0.09    0.12
  -3  -8   4   19.16    0.96
  -3  -8   4   18.54    1.18
  -3  -8   3    0.07    0.09
  -3  -8   2   17.57    0.90
  -3  -8   1    0.14    0.08
  -3  -8   0   19.20    0.95
  -3  -8  -1    1.51    0.27
  -3  -8  -2   42.77    1.51
  -3  -8  -3    3.83    0.41
  -3  -8  -4    3.06    0.38
  -3  -8  -5    6.15    0.53
  -3  -8  -6    8.15    0.62
  -3  -8  -7   23.89    1.11
  -3  -8  -8    3.59    0.42
  -3  -8  -9   10.80    0.75
  -3  -8 -10    7.51    0.62
  -3  -8 -11    6.84    0.61
  -3  -8 -12    0.59    0.19
  -3  -8 -13    3.59    0.45
   3   8  13    5.04    0.59
  -3  -8 -14   -0.07    0.12
  -3  -9   6    2.22    0.34
  -3  -9   5    0.19    0.13
  -3  -9   4   18.87    1.01
  -3  -9   3   30.88    1.32
  -3  -9   2    1.00    0.23
  -3  -9   1    3.21    0.40
  -3  -9   0   11.11    0.75
  -3  -9  -1    0.13    0.13
  -3  -9  -2   11.40    0.77
  -3  -9  -3    0.21    0.14
  -3  -9  -4    1.86    0.31
  -3  -9  -5    0.05    0.09
  -3  -9  -6    1.27    0.26
  -3  -9  -7   -0.02    0.09
  -3  -9  -8    3.06    0.42
  -3  -9  -9    1.14    0.27
  -3  -9 -10    9.32    0.74
  -3  -9 -11    1.50    0.31
   3   9  11    2.34    0.41
   4  -8  -9    0.09    0.10
   4  -8  -8    0.54    0.21
   4  -8  -7    0.08    0.11
   4  -8  -6    1.05    0.27
   4  -8  -5    8.29    0.74
   4  -8  -4    1.06    0.27
   4  -8  -3    8.48    0.74
   4  -8  -2    0.02    0.12
   4  -8  -1    3.90    0.50
   4  -8   0   -0.07    0.17
   4  -8   1    0.69    0.23
   4  -8   2    0.60    0.21
   4  -8   3    7.59    0.69
   4  -8   4    0.05    0.12
   4  -8   5    0.88    0.24
   4  -8   6    0.47    0.19
   4  -8   7    6.67    0.65
  -4   7  12    0.22    0.15
   4  -7 -11    3.41    0.46
  -4   7  11    3.35    0.48
   4  -7 -10    0.07    0.11
  -4   7  10    0.09    0.11
   4  -7  -9   -0.07    0.14
  -4   7   9   -0.06    0.10
  -4   7   8    4.36    0.50
   4  -7  -8    4.53    0.52
   4  -7  -7    2.39    0.38
  -4   7   7    1.87    0.32
   4  -7  -6    2.51    0.39
   4  -7  -5    7.44    0.66
   4  -7  -4   33.75    1.48
   4  -7  -3    2.28    0.37
   4  -7  -2   12.20    0.85
   4  -7  -1    1.88    0.33
   4  -7   0    7.94    0.67
   4  -7   1   -0.01    0.11
   4  -7   2    4.44    0.50
   4  -7   3   -0.09    0.12
   4  -7   4    0.99    0.24
   4  -7   5   -0.04    0.14
   4  -7   6    1.07    0.27
   4  -7   7    0.97    0.25
   4  -7   8    0.47    0.19
   4  -7   8    0.47    0.17
   4  -7   9   12.46    0.80
   4  -7   9   13.42    0.89
   4  -7  10    7.67    0.64
   4  -7  10    8.39    0.69
   4  -7  11    8.42    0.69
   4  -7  11    8.18    0.69
   4  -7  12    5.83    0.59
  -4   6  13    0.00    0.12
  -4   6  12    1.15    0.30
  -4   6  11    7.61    0.70
   4  -6 -11    8.04    0.67
   4  -6 -10    0.93    0.24
  -4   6  10    0.74    0.22
  -4   6   9   13.39    0.89
   4  -6  -9   14.84    0.91
  -4   6   8    6.58    0.60
   4  -6  -8    7.98    0.66
  -4   6   7    6.84    0.59
   4  -6  -7    6.20    0.57
   4  -6  -6    1.68    0.30
  -4   6   6    1.16    0.23
   4  -6  -5   -0.03    0.11
  -4   6   5    0.05    0.09
   4  -6  -4    1.34    0.27
  -4   6   4    0.78    0.18
  -4   6   3   16.57    0.83
   4  -6  -3   16.65    0.93
   4  -6  -2    1.56    0.30
   4  -6  -1    0.96    0.23
   4  -6   0    3.41    0.41
   4  -6   1    2.11    0.33
   4  -6   2    1.69    0.30
   4  -6   3    3.07    0.39
   4  -6   4    6.84    0.47
   4  -6   4    7.58    0.61
   4  -6   5    5.39    0.43
   4  -6   5    5.40    0.52
   4  -6   6    2.28    0.34
   4  -6   6    2.54    0.31
   4  -6   7    0.24    0.13
   4  -6   7    0.32    0.13
   4  -6   8   15.30    0.83
   4  -6   8   17.88    0.97
   4  -6   9   13.47    0.79
   4  -6   9   13.69    0.85
   4  -6  10    5.13    0.50
   4  -6  10    4.67    0.50
   4  -6  11   12.43    0.81
   4  -6  11   12.41    0.82
   4  -6  12    0.15    0.11
   4  -6  12   -0.08    0.11
   4  -6  13    0.17    0.12
  -4   5  14    0.49    0.22
  -4   5  14    0.94    0.27
  -4   5  13    7.09    0.72
  -4   5  13    6.94    0.69
  -4   5  12    7.67    0.73
  -4   5  12    7.97    0.72
  -4   5  11   22.43    1.24
  -4   5  11   21.88    1.19
   4  -5 -11   23.28    1.11
   4  -5 -10    0.09    0.10
  -4   5  10    0.11    0.10
  -4   5  10    0.06    0.14
   4  -5  -9    2.23    0.33
  -4   5   9    1.79    0.32
  -4   5   9    1.89    0.33
  -4   5   8   10.61    0.76
  -4   5   8   10.82    0.75
   4  -5  -8   10.82    0.72
  -4   5   7    8.68    0.67
  -4   5   7    8.69    0.65
   4  -5  -7    8.79    0.64
  -4   5   6   17.71    0.95
  -4   5   6   16.44    0.88
   4  -5  -6   17.11    0.91
  -4   5   5    7.63    0.59
  -4   5   5    7.52    0.57
   4  -5  -5    7.21    0.58
  -4   5   4   11.19    0.70
  -4   5   4   10.95    0.68
   4  -5  -4   11.72    0.74
  -4   5   3   17.81    0.86
   4  -5  -3   20.15    0.98
  -4   5   3   20.71    0.96
   4  -5  -2    2.32    0.32
  -4   5   2    2.79    0.33
  -4   5   1    7.55    0.53
   4  -5  -1    7.71    0.59
  -4   5   0    4.20    0.38
   4  -5   0    5.25    0.47
   4  -5   1    6.20    0.37
  -4   5  -1    6.36    0.47
   4  -5   1    6.24    0.52
   4  -5   2    7.96    0.44
  -4   5  -2    7.75    0.51
   4  -5   2    7.88    0.59
   4  -5   3   16.95    0.71
  -4   5  -3   17.18    0.79
   4  -5   3   17.41    0.89
  -4   5  -4    0.71    0.16
   4  -5   4    0.66    0.18
   4  -5   4    0.59    0.13
  -4   5  -5    1.50    0.23
   4  -5   5    1.88    0.29
   4  -5   5    1.49    0.21
   4  -5   6    0.02    0.08
   4  -5   6   -0.05    0.08
  -4   5  -6    0.02    0.05
   4  -5   7    2.14    0.28
  -4   5  -7    2.69    0.30
   4  -5   7    2.36    0.32
   4  -5   8    1.51    0.26
   4  -5   8    1.47    0.24
  -4   5  -8    1.41    0.23
   4  -5   9    0.40    0.15
  -4   5  -9    0.42    0.13
  -4   5 -10    4.45    0.41
   4  -5  10    4.90    0.46
   4  -5  10    3.96    0.43
   4  -5  11    0.88    0.21
   4  -5  11    0.95    0.22
  -4   5 -11    1.00    0.20
  -4   5 -12   38.25    1.40
   4  -5  12   41.54    1.57
   4  -5  12   41.54    1.51
   4  -5  13    0.10    0.10
   4  -5  14    0.17    0.15
   4  -5  15    1.99    0.35
  -4   4  15    0.61    0.22
  -4   4  14   14.00    0.99
  -4   4  13    3.62    0.49
  -4   4  12    5.65    0.60
   4  -4 -11    1.68    0.28
  -4   4  11    1.60    0.33
  -4   4  11    1.90    0.34
  -4   4  10    0.51    0.20
   4  -4 -10    0.62    0.18
  -4   4  10    0.27    0.15
  -4   4   9   18.58    1.05
  -4   4   9   18.73    1.02
   4  -4  -9   18.87    0.93
  -4   4   8   67.65    2.17
  -4   4   8   69.79    2.14
   4  -4  -8   69.38    2.03
  -4   4   7    0.33    0.15
  -4   4   7    0.62    0.19
  -4   4   6    6.47    0.55
   4  -4  -6    6.46    0.52
  -4   4   6    6.45    0.53
  -4   4   5   16.32    0.88
  -4   4   5   14.33    0.79
   4  -4  -5   16.50    0.85
  -4   4   4    9.91    0.66
  -4   4   4    9.65    0.62
   4  -4  -4   10.13    0.66
  -4   4   3    0.04    0.07
  -4   4   3    0.38    0.13
  -4   4   2    9.68    0.63
  -4   4   1   11.82    0.68
  -4   4   0    0.07    0.09
  -4   4  -1   24.19    0.99
  -4   4  -2    5.53    0.44
  -4   4  -3    0.09    0.08
  -4   4  -4   17.60    0.82
  -4   4  -5    2.88    0.32
   4  -4   5    2.86    0.34
  -4   4  -6   88.59    2.29
   4  -4   6   90.54    2.37
  -4   4  -7   31.58    1.17
   4  -4   7   33.64    1.25
  -4   4  -8    3.79    0.37
   4  -4   8    3.84    0.39
  -4   4  -9   20.06    0.92
   4  -4   9   20.81    0.96
  -4   4 -10   37.84    1.36
   4  -4  10   40.61    1.41
   4  -4  10   37.34    1.36
   4  -4  11    0.21    0.12
   4  -4  11    0.60    0.18
  -4   4 -11    0.26    0.12
   4  -4  12   -0.02    0.09
   4  -4  12    0.01    0.08
  -4   4 -12    0.09    0.10
   4  -4  13    0.37    0.14
   4  -4  13    0.43    0.17
  -4   4 -13    0.24    0.11
   4  -4  14    0.72    0.20
  -4   4 -14    0.52    0.17
   4  -4  15    0.07    0.12
   4  -4  16    1.30    0.29
  -4   3  16    2.13    0.40
  -4   3  15    4.52    0.57
  -4   3  14    3.79    0.50
  -4   3  13    7.33    0.68
  -4   3  12    9.64    0.76
  -4   3  11    9.27    0.73
   4  -3 -11    9.35    0.62
  -4   3  10   29.86    1.39
  -4   3  10   31.49    1.36
   4  -3 -10   29.48    1.17
  -4   3   9    2.08    0.35
  -4   3   9    1.79    0.31
  -4   3   8   29.35    1.31
  -4   3   8   28.89    1.23
  -4   3   7   10.34    0.73
  -4   3   7    9.90    0.67
  -4   3   6    1.51    0.27
  -4   3   6    1.32    0.24
  -4   3   5    8.77    0.63
  -4   3   5    9.24    0.61
  -4   3   4   61.11    1.89
  -4   3   4   61.50    1.81
  -4   3   3   37.68    1.37
  -4   3   2   44.09    1.48
  -4   3   1    4.62    0.42
  -4   3   0   58.77    1.74
  -4   3  -1    0.47    0.13
  -4   3  -2   28.64    1.10
  -4   3  -3   41.13    1.36
  -4   3  -4    5.06    0.42
  -4   3  -5   81.56    2.15
  -4   3  -6   10.81    0.64
  -4   3  -7    0.63    0.18
  -4   3  -8    0.25    0.12
  -4   3  -9    3.78    0.38
  -4   3 -10    3.06    0.35
   4  -3  11    1.01    0.21
  -4   3 -11    1.38    0.25
   4  -3  12    0.13    0.09
  -4   3 -12    0.13    0.10
  -4   3 -13   13.30    0.78
   4  -3  13   13.26    0.73
   4  -3  14    0.25    0.12
  -4   3 -14    0.20    0.11
  -4   3 -15   15.41    0.88
   4  -3  15   16.79    0.98
  -4   3 -16    4.34    0.47
   4  -3  16    4.70    0.52
   4  -3  17    2.15    0.37
  -4   2  16    2.15    0.40
  -4   2  15    4.30    0.54
  -4   2  14    0.45    0.19
  -4   2  13   17.04    1.04
  -4   2  12    1.47    0.30
  -4   2  11   27.75    1.29
  -4   2  10    7.67    0.63
  -4   2   9   22.83    1.17
  -4   2   9   23.32    1.10
  -4   2   8    5.55    0.53
  -4   2   8    5.03    0.49
  -4   2   7   13.70    0.83
  -4   2   7   12.75    0.77
  -4   2   6   21.96    1.06
  -4   2   6   22.38    1.01
  -4   2   5   77.33    2.23
  -4   2   5   77.82    2.14
  -4   2   4   10.06    0.66
  -4   2   3    3.98    0.41
  -4   2   2   11.55    0.69
  -4   2   1   68.20    1.95
  -4   2   0   17.38    0.85
  -4   2  -1   35.46    1.26
  -4   2  -2   35.27    1.25
  -4   2  -3    8.26    0.55
  -4   2  -4    5.76    0.46
  -4   2  -5   63.32    1.82
  -4   2  -6   46.11    1.49
  -4   2  -7   21.54    0.95
  -4   2  -8    8.53    0.58
  -4   2  -9   51.44    1.64
  -4   2 -10   59.12    1.80
  -4   2 -11    2.46    0.32
  -4   2 -12   22.66    1.05
  -4   2 -13    0.28    0.13
  -4   2 -14    7.39    0.60
  -4   2 -15    0.47    0.17
  -4   2 -16    3.78    0.44
   4  -2  17    1.87    0.34
  -4   2 -17    1.35    0.28
   4  -2  18    3.63    0.49
  -4   1  17    0.47    0.20
  -4   1  16    8.68    0.78
  -4   1  15    0.74    0.23
  -4   1  14   14.31    0.96
  -4   1  13    0.67    0.21
  -4   1  12    0.82    0.23
  -4   1  11    7.75    0.65
  -4   1  10    3.67    0.43
  -4   1   9    0.38    0.15
  -4   1   8   23.76    1.16
  -4   1   8   22.64    1.07
  -4   1   7    3.40    0.41
  -4   1   7    3.42    0.39
  -4   1   6    7.24    0.59
  -4   1   6    7.57    0.56
  -4   1   5    6.57    0.55
  -4   1   4   74.58    2.15
  -4   1   3   27.16    1.14
  -4   1   2   29.67    1.18
  -4   1   1   91.31    2.39
  -4   1   0   10.29    0.64
  -4   1  -1  139.44    3.24
  -4   1  -2   -0.07    0.12
  -4   1  -3   77.60    2.09
  -4   1  -4    5.31    0.44
  -4   1  -5    0.56    0.15
  -4   1  -6   20.20    0.92
  -4   1  -7    0.31    0.13
  -4   1  -8   46.51    1.54
  -4   1  -9   30.75    1.21
  -4   1 -10    1.37    0.25
  -4   1 -11    0.15    0.12
  -4   1 -12   26.01    1.14
  -4   1 -13   -0.02    0.12
  -4   1 -14   13.10    0.81
  -4   1 -15    0.04    0.09
  -4   1 -16   12.67    0.82
  -4   1 -17    0.44    0.16
  -4   1 -18   19.45    1.08
   4  -1  19    2.16    0.38
  -4   0  17    3.59    0.51
  -4   0  16    1.68    0.35
  -4   0  15    0.82    0.25
  -4   0  14    2.30    0.39
  -4   0  13    1.61    0.27
  -4   0  13    2.09    0.35
  -4   0  12   18.07    0.92
  -4   0  12   20.86    1.11
  -4   0  11    1.65    0.30
  -4   0  11    1.36    0.24
  -4   0  10   48.33    1.73
  -4   0   9   12.22    0.79
  -4   0   8  102.73    2.86
  -4   0   7    1.04    0.22
  -4   0   6   23.36    1.11
  -4   0   5   14.42    0.83
  -4   0   4    0.71    0.20
  -4   0   3   55.82    1.77
  -4   0   2   54.92    1.73
  -4   0   1    0.66    0.17
  -4   0   0   25.23    1.05
  -4   0  -1    1.28    0.23
  -4   0  -2    6.86    0.51
  -4   0  -3   47.48    1.53
  -4   0  -4    7.32    0.53
  -4   0  -5   14.74    0.77
  -4   0  -6    5.92    0.48
  -4   0  -7    0.04    0.08
  -4   0  -8   12.86    0.73
  -4   0  -9   21.34    0.98
  -4   0 -10   21.76    1.01
  -4   0 -11   25.32    1.10
  -4   0 -12   -0.05    0.11
  -4   0 -13   63.74    2.00
  -4   0 -14    4.33    0.46
  -4   0 -15   19.47    1.02
  -4   0 -16    1.24    0.26
  -4   0 -17   -0.01    0.11
   4   0  17    0.16    0.11
  -4   0 -18    1.50    0.30
   4   0  18    1.32    0.25
  -4   0 -19    4.60    0.53
  -4  -1  17    4.82    0.60
  -4  -1  16    2.37    0.41
  -4  -1  15    4.36    0.49
  -4  -1  15    4.39    0.54
  -4  -1  14    0.76    0.20
  -4  -1  13    2.56    0.36
  -4  -1  12    0.66    0.19
  -4  -1  11   38.15    1.45
  -4  -1  10    0.27    0.13
  -4  -1   9   18.71    0.92
  -4  -1   8   22.61    1.16
  -4  -1   7   16.49    0.95
  -4  -1   6    3.61    0.42
  -4  -1   5   17.82    0.94
  -4  -1   4    4.01    0.42
  -4  -1   3    7.50    0.57
  -4  -1   2   47.31    1.59
  -4  -1   1    2.60    0.32
  -4  -1   0   28.80    1.15
  -4  -1  -1   44.67    1.49
  -4  -1  -2   59.97    1.79
  -4  -1  -3    9.14    0.60
  -4  -1  -4   50.02    1.59
  -4  -1  -5    7.39    0.54
  -4  -1  -6    7.53    0.55
  -4  -1  -7   19.73    0.93
  -4  -1  -8   10.99    0.68
  -4  -1  -9    0.72    0.18
  -4  -1 -10    8.71    0.62
  -4  -1 -11   44.02    1.54
  -4  -1 -12   17.26    0.91
  -4  -1 -13   15.20    0.87
  -4  -1 -14    3.89    0.45
  -4  -1 -15   17.11    0.96
  -4  -1 -16    2.30    0.35
  -4  -1 -17   23.10    1.16
  -4  -1 -18    0.47    0.16
   4   1  18    1.08    0.24
  -4  -1 -19   12.70    0.89
   4   1  19   12.57    0.84
   4   1  20    1.14    0.26
  -4  -2  17    0.12    0.13
  -4  -2  16    1.24    0.29
  -4  -2  15    0.77    0.23
  -4  -2  14    1.18    0.27
  -4  -2  13    0.05    0.09
  -4  -2  12    3.69    0.44
  -4  -2  11    0.57    0.20
  -4  -2  10    3.69    0.43
  -4  -2   9   57.94    1.89
  -4  -2   9   61.14    2.11
  -4  -2   8   28.11    1.20
  -4  -2   8   28.05    1.32
  -4  -2   7  202.33    4.60
  -4  -2   7  191.74    4.32
  -4  -2   6    0.13    0.11
  -4  -2   5  113.79    2.98
  -4  -2   4    0.04    0.10
  -4  -2   3   98.99    2.64
  -4  -2   2    3.15    0.37
  -4  -2   1   25.26    1.10
  -4  -2   0   27.31    1.13
  -4  -2  -1   49.02    1.60
  -4  -2  -2   20.77    0.96
  -4  -2  -3   31.69    1.22
  -4  -2  -4    5.59    0.48
  -4  -2  -5   15.61    0.82
  -4  -2  -6  215.61    4.60
  -4  -2  -7    0.07    0.10
  -4  -2  -8   31.09    1.23
  -4  -2  -9    7.56    0.57
  -4  -2 -10   33.84    1.32
  -4  -2 -11    7.48    0.58
  -4  -2 -12   15.80    0.88
  -4  -2 -13    3.74    0.43
  -4  -2 -14    2.30    0.34
  -4  -2 -15    2.09    0.33
  -4  -2 -16   14.44    0.89
  -4  -2 -17    0.03    0.12
  -4  -2 -18    2.16    0.35
   4   2  18    2.59    0.39
  -4  -2 -19    9.13    0.75
   4   2  19    9.25    0.75
   4   2  20    0.25    0.15
   4   2  21    0.03    0.10
  -4  -3  16    1.20    0.29
  -4  -3  15   12.03    0.91
  -4  -3  14   10.31    0.83
  -4  -3  13    0.07    0.10
  -4  -3  12   14.33    0.94
  -4  -3  11    6.02    0.59
  -4  -3  10   27.06    1.28
  -4  -3  10   28.48    1.41
  -4  -3   9   16.22    0.94
  -4  -3   9   14.98    0.98
  -4  -3   8   17.43    0.97
  -4  -3   8   17.67    1.04
  -4  -3   7   12.23    0.79
  -4  -3   7   12.18    0.83
  -4  -3   6   14.24    0.88
  -4  -3   5    0.52    0.17
  -4  -3   4   17.85    0.96
  -4  -3   3    1.30    0.25
  -4  -3   2    0.96    0.21
  -4  -3   1    2.72    0.35
  -4  -3   0    0.14    0.12
  -4  -3  -1    7.91    0.58
  -4  -3  -2    0.22    0.11
  -4  -3  -3   43.41    1.49
  -4  -3  -4    5.38    0.47
  -4  -3  -5   25.69    1.10
  -4  -3  -6    1.66    0.27
  -4  -3  -7   31.81    1.25
  -4  -3  -8   23.68    1.07
  -4  -3  -9   48.95    1.65
  -4  -3 -10    1.31    0.26
  -4  -3 -11   13.88    0.81
  -4  -3 -12    3.31    0.40
  -4  -3 -13    1.53    0.28
  -4  -3 -14   12.38    0.81
  -4  -3 -15    0.28    0.14
  -4  -3 -16    2.29    0.37
  -4  -3 -17    0.05    0.09
  -4  -3 -18    4.73    0.54
   4   3  18    6.71    0.64
  -4  -3 -19    3.61    0.48
   4   3  19    4.52    0.54
   4   3  20    7.35    0.71
  -4  -4  15    2.51    0.44
  -4  -4  14    0.42    0.21
  -4  -4  13    0.12    0.10
  -4  -4  12    4.11    0.52
  -4  -4  12    4.25    0.57
  -4  -4  11    3.57    0.48
  -4  -4  11    3.69    0.51
  -4  -4  10    1.81    0.35
  -4  -4  10    1.00    0.26
  -4  -4   9    7.36    0.66
  -4  -4   9    7.29    0.69
  -4  -4   8    4.33    0.50
  -4  -4   8    3.74    0.48
  -4  -4   7    2.98    0.41
  -4  -4   7    2.31    0.36
  -4  -4   6   43.60    1.68
  -4  -4   6   43.71    1.66
  -4  -4   5    5.59    0.54
  -4  -4   4   33.61    1.40
  -4  -4   3    1.75    0.30
  -4  -4   2   58.03    1.88
  -4  -4   1   11.15    0.73
  -4  -4   0   24.18    1.09
  -4  -4  -1   11.10    0.71
  -4  -4  -2   83.48    2.32
  -4  -4  -3    2.23    0.31
  -4  -4  -4   34.23    1.31
  -4  -4  -5    0.12    0.12
  -4  -4  -6  267.12    5.55
  -4  -4  -7   49.38    1.66
  -4  -4  -8    0.98    0.22
  -4  -4  -9   68.14    2.06
  -4  -4 -10    9.29    0.66
  -4  -4 -11   28.15    1.22
  -4  -4 -12    0.02    0.08
  -4  -4 -13   24.35    1.16
  -4  -4 -14    0.05    0.12
  -4  -4 -15   15.52    0.93
  -4  -4 -16    0.56    0.18
  -4  -4 -17   11.77    0.83
  -4  -4 -18    0.74    0.22
   4   4  18    1.27    0.30
  -4  -4 -19   15.94    1.02
  -4  -5  14    5.72    0.71
  -4  -5  13   16.15    1.14
  -4  -5  13   14.23    1.10
  -4  -5  12    6.51    0.70
  -4  -5  12    6.11    0.70
  -4  -5  11    3.11    0.48
  -4  -5  11    3.33    0.49
  -4  -5  10    0.21    0.14
  -4  -5  10    0.44    0.20
  -4  -5   9   15.29    1.03
  -4  -5   9   14.03    0.98
  -4  -5   9   13.61    0.70
  -4  -5   8    2.76    0.42
  -4  -5   8    2.17    0.38
  -4  -5   8    2.27    0.28
  -4  -5   7   10.68    0.82
  -4  -5   7   11.28    0.83
  -4  -5   6    0.80    0.23
  -4  -5   6    1.28    0.29
  -4  -5   5   22.23    1.15
  -4  -5   4    2.23    0.34
  -4  -5   3   10.85    0.75
  -4  -5   2    1.38    0.26
  -4  -5   1   40.41    1.51
  -4  -5   0    5.24    0.49
  -4  -5  -1   11.61    0.74
  -4  -5  -2    7.55    0.58
  -4  -5  -3   13.72    0.79
  -4  -5  -4   27.55    1.17
  -4  -5  -5    1.54    0.26
  -4  -5  -6   15.49    0.85
  -4  -5  -7    0.29    0.14
  -4  -5  -8    5.08    0.48
  -4  -5  -9    1.43    0.26
  -4  -5 -10   14.92    0.85
  -4  -5 -11    0.29    0.14
  -4  -5 -12    8.93    0.67
  -4  -5 -13    3.68    0.43
  -4  -5 -13    2.98    0.35
  -4  -5 -14    4.50    0.49
  -4  -5 -14    4.74    0.44
  -4  -5 -15   -0.01    0.09
  -4  -5 -16    0.73    0.22
  -4  -5 -17    0.04    0.13
  -4  -5 -18    1.86    0.34
  -4  -6  12    1.28    0.32
  -4  -6  11   -0.09    0.11
  -4  -6  11    0.15    0.14
  -4  -6  10    1.49    0.33
  -4  -6  10    1.38    0.33
  -4  -6   9    2.13    0.41
  -4  -6   9    2.11    0.28
  -4  -6   9    2.30    0.40
  -4  -6   8    0.16    0.14
  -4  -6   8    0.41    0.16
  -4  -6   8    0.14    0.08
  -4  -6   7    8.64    0.78
  -4  -6   7    9.13    0.76
  -4  -6   7    8.91    0.58
  -4  -6   6    0.64    0.20
  -4  -6   6    0.30    0.11
  -4  -6   6    0.66    0.26
  -4  -6   5   -0.05    0.07
  -4  -6   5    0.01    0.10
  -4  -6   4    1.97    0.27
  -4  -6   4    2.32    0.36
  -4  -6   3    2.39    0.36
  -4  -6   3    2.20    0.28
  -4  -6   2    6.08    0.47
  -4  -6   2    6.38    0.57
  -4  -6   1    4.29    0.46
  -4  -6   0    3.87    0.43
  -4  -6  -1    8.63    0.64
  -4  -6  -2   21.17    1.02
  -4  -6  -3   12.04    0.75
  -4  -6  -4    0.20    0.11
  -4  -6  -5   13.10    0.78
  -4  -6  -6    3.41    0.39
  -4  -6  -7   23.43    1.07
  -4  -6  -8   14.67    0.79
  -4  -6  -8   13.11    0.79
  -4  -6  -9   21.43    1.03
  -4  -6  -9   20.49    0.96
  -4  -6 -10    0.55    0.16
  -4  -6 -10    0.51    0.16
  -4  -6 -11    3.60    0.42
  -4  -6 -11    3.30    0.38
  -4  -6 -12    4.03    0.45
  -4  -6 -12    4.37    0.44
  -4  -6 -13   11.69    0.78
  -4  -6 -13   11.92    0.75
  -4  -6 -14    0.46    0.15
  -4  -6 -14    0.35    0.15
  -4  -6 -15    0.87    0.23
  -4  -6 -16   13.23    0.87
  -4  -6 -17    3.32    0.44
  -4  -7   8   -0.20    0.16
  -4  -7   8    0.10    0.10
  -4  -7   7   16.82    0.88
  -4  -7   7   16.27    1.15
  -4  -7   6    2.38    0.32
  -4  -7   5    0.56    0.16
  -4  -7   4    8.18    0.58
  -4  -7   3   -0.01    0.07
  -4  -7   2   12.18    0.72
  -4  -7   1    2.62    0.33
  -4  -7   0   31.54    1.22
  -4  -7  -1    1.77    0.28
  -4  -7  -2   36.29    1.34
  -4  -7  -3    0.81    0.20
  -4  -7  -4    2.08    0.30
  -4  -7  -5   10.81    0.69
  -4  -7  -6    1.48    0.26
  -4  -7  -7    4.58    0.45
  -4  -7  -8    2.57    0.35
  -4  -7  -9    1.41    0.26
  -4  -7 -10    1.84    0.30
  -4  -7 -11    1.63    0.29
  -4  -7 -12    0.52    0.17
  -4  -7 -13    2.76    0.39
  -4  -7 -14    1.68    0.30
  -4  -8   8    0.26    0.13
  -4  -8   7    0.32    0.15
  -4  -8   6    7.71    0.60
  -4  -8   5   -0.01    0.07
  -4  -8   4    3.78    0.42
  -4  -8   3    3.58    0.41
  -4  -8   2    7.32    0.59
  -4  -8   1    5.08    0.49
  -4  -8   0    9.76    0.69
  -4  -8  -1    0.40    0.15
  -4  -8  -2   -0.01    0.11
  -4  -8  -3    3.02    0.38
  -4  -8  -4    9.81    0.70
  -4  -8  -5    0.30    0.13
  -4  -8  -6    1.53    0.28
  -4  -8  -7    1.21    0.26
  -4  -8  -8    0.91    0.24
  -4  -8  -9    1.53    0.30
  -4  -8 -10    3.30    0.43
  -4  -8 -11    0.75    0.22
  -4  -8 -12    8.89    0.71
  -4  -8 -13    2.38    0.37
  -4  -8 -14    0.72    0.21
  -5   7  10    1.86    0.37
   5  -7  -9    3.48    0.50
   5  -7  -8    0.40    0.20
   5  -7  -7    1.19    0.30
   5  -7  -6    3.87    0.51
   5  -7  -5    1.28    0.31
   5  -7  -4    1.98    0.37
   5  -7  -3    0.62    0.22
   5  -7  -2    2.09    0.37
   5  -7  -1    1.36    0.31
   5  -7   0    0.94    0.26
   5  -7   1    0.26    0.16
   5  -7   2    1.63    0.34
   5  -7   3    0.26    0.18
   5  -7   4    5.49    0.59
   5  -7   5    0.16    0.16
   5  -7   6    0.85    0.25
   5  -7   7    4.17    0.53
  -5   6  11    2.05    0.40
   5  -6 -10    0.52    0.21
  -5   6  10    0.53    0.23
   5  -6  -9   -0.04    0.11
  -5   6   9    0.03    0.14
   5  -6  -8    0.36    0.17
  -5   6   8    0.40    0.18
   5  -6  -7    1.93    0.35
  -5   6   7    2.25    0.37
   5  -6  -6    0.21    0.13
   5  -6  -5    0.62    0.21
   5  -6  -4   11.45    0.83
   5  -6  -3    1.87    0.34
   5  -6  -2   -0.04    0.10
   5  -6  -1    0.04    0.09
   5  -6   0    6.20    0.59
   5  -6   1    8.08    0.67
   5  -6   2    3.04    0.42
   5  -6   3    1.64    0.31
   5  -6   4    0.24    0.16
   5  -6   5   12.92    0.87
   5  -6   6    0.85    0.24
   5  -6   7    0.25    0.15
   5  -6   7    0.11    0.11
   5  -6   8    4.07    0.43
   5  -6   8    3.67    0.47
   5  -6   9   10.22    0.71
   5  -6   9   11.11    0.82
   5  -6  10   11.40    0.77
   5  -6  10   11.66    0.84
   5  -6  11    0.84    0.23
   5  -6  11    1.09    0.25
   5  -6  12    5.71    0.57
   5  -6  12    5.20    0.56
  -5   5  12    1.22    0.31
   5  -5 -11   -0.03    0.12
  -5   5  11    0.39    0.20
  -5   5  10    3.31    0.49
   5  -5 -10    3.52    0.45
  -5   5  10    3.16    0.46
   5  -5  -9    2.80    0.40
  -5   5   9    2.83    0.44
  -5   5   9    2.68    0.42
  -5   5   8    3.66    0.49
  -5   5   8    3.38    0.46
   5  -5  -8    3.90    0.47
  -5   5   7   11.05    0.84
  -5   5   7   10.27    0.78
   5  -5  -7   12.32    0.83
   5  -5  -6    0.49    0.18
  -5   5   6    0.36    0.17
   5  -5  -5    1.44    0.29
  -5   5   5    1.05    0.25
   5  -5  -4   16.00    0.94
  -5   5   4   13.87    0.89
   5  -5  -3   12.39    0.82
  -5   5   3   11.50    0.79
  -5   5   2    5.14    0.51
   5  -5  -2    5.13    0.52
  -5   5   1    3.79    0.43
   5  -5  -1    4.02    0.46
  -5   5   0    2.95    0.37
   5  -5   0    3.18    0.41
   5  -5   1    0.82    0.21
  -5   5  -1    0.99    0.22
  -5   5  -2   10.64    0.70
   5  -5   2   12.25    0.80
  -5   5  -3    6.13    0.52
   5  -5   3    6.66    0.59
   5  -5   4    1.49    0.29
  -5   5  -4    1.67    0.27
   5  -5   5    3.15    0.33
  -5   5  -5    3.27    0.38
   5  -5   5    3.40    0.42
  -5   5  -6    2.18    0.31
   5  -5   6    2.14    0.34
   5  -5   6    2.53    0.31
   5  -5   7    3.51    0.37
   5  -5   7    2.75    0.38
   5  -5   8    6.39    0.52
   5  -5   8    6.48    0.59
   5  -5   9    0.02    0.10
   5  -5   9    0.02    0.08
   5  -5  10    5.99    0.53
   5  -5  10    4.98    0.51
   5  -5  11    3.19    0.40
   5  -5  11    3.03    0.41
   5  -5  12    0.46    0.17
   5  -5  12    0.28    0.13
   5  -5  13    0.44    0.17
  -5   4  14    1.79    0.40
  -5   4  13    0.20    0.16
  -5   4  13    0.46    0.22
  -5   4  12    8.12    0.81
  -5   4  12    7.97    0.76
   5  -4 -11    1.31    0.27
  -5   4  11    1.09    0.30
  -5   4  11    1.36    0.32
  -5   4  10    6.80    0.71
  -5   4  10    7.94    0.73
   5  -4 -10    7.61    0.64
  -5   4   9    4.37    0.54
  -5   4   9    5.01    0.56
   5  -4  -9    5.94    0.56
  -5   4   8   13.81    0.96
  -5   4   8   14.02    0.92
   5  -4  -8   14.08    0.87
   5  -4  -7    0.14    0.12
  -5   4   7   -0.05    0.14
  -5   4   7   -0.03    0.10
  -5   4   6    5.67    0.58
  -5   4   5    0.43    0.17
  -5   4   4    1.87    0.32
  -5   4   3   12.52    0.82
  -5   4   2    2.72    0.37
  -5   4   1   16.21    0.92
  -5   4   0   11.17    0.74
  -5   4  -1    0.78    0.19
  -5   4  -2    0.39    0.15
  -5   4  -3   43.79    1.56
  -5   4  -4    1.12    0.23
  -5   4  -5    5.36    0.49
  -5   4  -6    0.04    0.08
  -5   4  -7   13.68    0.81
  -5   4  -8    2.81    0.36
  -5   4  -9    5.79    0.52
   5  -4   9    5.86    0.54
   5  -4  10    0.17    0.13
  -5   4 -10    0.05    0.09
   5  -4  11    1.08    0.25
  -5   4 -11    0.96    0.23
   5  -4  12    1.40    0.27
   5  -4  12    1.41    0.27
  -5   4 -12    1.65    0.30
   5  -4  13    0.13    0.12
   5  -4  13    0.17    0.12
  -5   4 -13   -0.02    0.08
   5  -4  14    1.13    0.27
  -5   4 -14    1.04    0.24
  -5   4 -15    3.22    0.42
  -5   4 -16   -0.09    0.13
  -5   3  14    2.68    0.49
  -5   3  13    3.23    0.53
  -5   3  13    3.60    0.52
  -5   3  12    0.26    0.21
  -5   3  12    0.15    0.12
  -5   3  11   45.12    1.86
  -5   3  11   42.16    1.89
   5  -3 -11   44.33    1.63
  -5   3  10    4.50    0.56
  -5   3  10    4.30    0.53
  -5   3   9    0.99    0.26
  -5   3   9    1.25    0.28
  -5   3   8    1.55    0.31
  -5   3   8    1.32    0.30
  -5   3   7   -0.07    0.13
  -5   3   6   20.64    1.13
  -5   3   5   -0.02    0.13
  -5   3   4    1.53    0.30
  -5   3   3   28.89    1.29
  -5   3   2   30.74    1.32
  -5   3   1   36.64    1.46
  -5   3   0   21.92    1.07
  -5   3  -1   14.61    0.85
  -5   3  -2   16.34    0.90
  -5   3  -3   17.44    0.92
  -5   3  -4   35.33    1.38
  -5   3  -5    7.57    0.59
  -5   3  -6    9.30    0.66
  -5   3  -7    0.38    0.15
  -5   3  -8    0.77    0.21
  -5   3  -9    0.24    0.13
  -5   3 -10    0.46    0.17
  -5   3 -11    5.04    0.50
  -5   3 -12    8.07    0.65
  -5   3 -13   11.40    0.79
   5  -3  13    9.76    0.70
  -5   3 -14   14.78    0.91
  -5   3 -15    0.04    0.12
  -5   3 -16    0.01    0.10
  -5   3 -17    2.14    0.37
  -5   2  14    1.41    0.36
  -5   2  14    1.56    0.36
  -5   2  13    8.48    0.84
  -5   2  13    7.78    0.75
  -5   2  12    4.19    0.54
  -5   2  12    3.76    0.55
  -5   2  11    0.26    0.17
  -5   2  11    0.32    0.18
  -5   2  10    0.72    0.24
  -5   2  10    0.64    0.23
  -5   2   9    0.14    0.13
  -5   2   8   11.93    0.89
  -5   2   7   40.80    1.70
  -5   2   6   43.06    1.71
  -5   2   5    5.12    0.54
  -5   2   4    8.70    0.69
  -5   2   3   33.00    1.40
  -5   2   2    5.24    0.52
  -5   2   1    6.23    0.56
  -5   2   0    2.41    0.35
  -5   2  -1   19.38    0.99
  -5   2  -2   26.09    1.16
  -5   2  -3   38.15    1.44
  -5   2  -4    0.97    0.23
  -5   2  -5    5.33    0.50
  -5   2  -6   22.88    1.08
  -5   2  -7    4.13    0.44
  -5   2  -8   40.86    1.52
  -5   2  -9   15.41    0.88
  -5   2 -10   40.05    1.52
  -5   2 -11    1.77    0.30
  -5   2 -12    4.81    0.50
  -5   2 -13    0.82    0.22
  -5   2 -14    3.47    0.45
  -5   2 -15    0.78    0.23
  -5   2 -16    4.75    0.53
  -5   2 -17    8.91    0.74
  -5   1  14    9.20    0.90
  -5   1  14    7.82    0.77
  -5   1  13    0.78    0.28
  -5   1  13    0.54    0.19
  -5   1  12    3.32    0.52
  -5   1  11   13.40    1.02
  -5   1  10   50.42    2.05
  -5   1   9   15.04    1.02
  -5   1   8    8.00    0.72
  -5   1   7    2.47    0.39
  -5   1   6   24.28    1.24
  -5   1   5   11.12    0.80
  -5   1   4    2.00    0.34
  -5   1   3   15.12    0.92
  -5   1   2   28.20    1.26
  -5   1   1   28.80    1.26
  -5   1   0   39.71    1.52
  -5   1  -1   35.95    1.42
  -5   1  -2   37.28    1.44
  -5   1  -3   25.79    1.16
  -5   1  -4    3.94    0.43
  -5   1  -5   30.77    1.29
  -5   1  -6    0.33    0.15
  -5   1  -7   22.12    1.07
  -5   1  -8   21.71    1.07
  -5   1  -9    0.00    0.09
  -5   1 -10    8.78    0.67
  -5   1 -11    8.57    0.66
  -5   1 -12    1.58    0.29
  -5   1 -13    8.79    0.69
  -5   1 -14    9.02    0.71
  -5   1 -15   11.97    0.84
  -5   1 -16    5.28    0.56
  -5   1 -17   15.71    0.99
  -5   0  14    0.50    0.22
  -5   0  13    0.00    0.09
  -5   0  12    3.87    0.56
  -5   0  11    0.04    0.10
  -5   0  10    0.30    0.20
  -5   0   9    6.73    0.68
  -5   0   8   22.77    1.26
  -5   0   7   31.70    1.47
  -5   0   6    2.67    0.40
  -5   0   5    0.42    0.18
  -5   0   4   50.60    1.85
  -5   0   3   85.23    2.54
  -5   0   2    0.07    0.12
  -5   0   1    1.67    0.29
  -5   0   0    8.70    0.66
  -5   0  -1    3.42    0.41
  -5   0  -2    8.25    0.64
  -5   0  -3    3.66    0.42
  -5   0  -4    0.34    0.15
  -5   0  -5   29.73    1.26
  -5   0  -6   90.89    2.55
  -5   0  -7    0.62    0.17
  -5   0  -8   15.74    0.90
  -5   0  -9    4.08    0.45
  -5   0 -10    0.04    0.13
  -5   0 -11   93.33    2.65
  -5   0 -12   24.27    1.17
  -5   0 -13    7.05    0.62
  -5   0 -14    0.50    0.21
  -5   0 -15    6.61    0.62
  -5   0 -16    1.03    0.27
  -5   0 -17    9.02    0.74
  -5  -1  14    8.91    0.90
  -5  -1  13    1.01    0.30
  -5  -1  12    1.71    0.38
  -5  -1  11    0.71    0.25
  -5  -1  10    6.18    0.67
  -5  -1   9   33.11    1.59
  -5  -1   8    1.87    0.36
  -5  -1   7   27.87    1.39
  -5  -1   6   -0.01    0.11
  -5  -1   5   24.57    1.24
  -5  -1   4    0.34    0.14
  -5  -1   3   39.87    1.59
  -5  -1   2    1.29    0.26
  -5  -1   1    1.36    0.26
  -5  -1   0   39.10    1.52
  -5  -1  -1   12.64    0.81
  -5  -1  -2   10.71    0.74
  -5  -1  -3   63.14    2.01
  -5  -1  -4   31.19    1.31
  -5  -1  -5    9.89    0.69
  -5  -1  -6   13.42    0.83
  -5  -1  -7    0.87    0.22
  -5  -1  -8   11.26    0.76
  -5  -1  -9    0.16    0.12
  -5  -1 -10   28.91    1.28
  -5  -1 -11   16.26    0.95
  -5  -1 -12    1.57    0.30
  -5  -1 -13    0.05    0.12
  -5  -1 -14   12.88    0.87
  -5  -1 -15    1.83    0.33
  -5  -1 -16    2.47    0.39
  -5  -1 -17    0.90    0.25
  -5  -1 -18   10.65    0.82
   5   1  19    4.73    0.54
  -5  -2  14    5.73    0.73
  -5  -2  13    0.17    0.15
  -5  -2  12    0.51    0.21
  -5  -2  11    2.53    0.46
  -5  -2  10    7.25    0.74
  -5  -2   9    2.67    0.43
  -5  -2   8   18.83    1.16
  -5  -2   7    0.36    0.19
  -5  -2   6   23.91    1.26
  -5  -2   5    0.40    0.16
  -5  -2   4   13.49    0.90
  -5  -2   3    2.90    0.40
  -5  -2   2    4.41    0.49
  -5  -2   1   51.08    1.82
  -5  -2   0   15.86    0.93
  -5  -2  -1    9.17    0.70
  -5  -2  -2    0.46    0.15
  -5  -2  -3    0.10    0.12
  -5  -2  -4   14.62    0.86
  -5  -2  -5    3.55    0.42
  -5  -2  -6   47.93    1.71
  -5  -2  -7   44.42    1.64
  -5  -2  -8    3.54    0.43
  -5  -2  -9   26.69    1.23
  -5  -2 -10   -0.16    0.16
  -5  -2 -11   22.59    1.14
  -5  -2 -12    5.65    0.55
  -5  -2 -13    5.22    0.54
  -5  -2 -14   27.59    1.32
  -5  -2 -15   14.65    0.95
  -5  -2 -16    0.13    0.13
  -5  -2 -17    0.10    0.12
  -5  -2 -18    1.20    0.29
  -5  -3  14    6.90    0.72
  -5  -3  13    0.44    0.25
  -5  -3  12    1.97    0.42
  -5  -3  11    5.35    0.66
  -5  -3  10    3.58    0.52
  -5  -3   9    6.16    0.67
  -5  -3   8    1.22    0.31
  -5  -3   7    0.64    0.23
  -5  -3   6   11.09    0.86
  -5  -3   5    2.31    0.38
  -5  -3   4   23.09    1.22
  -5  -3   3    0.71    0.22
  -5  -3   2    2.75    0.40
  -5  -3   1    0.06    0.12
  -5  -3   0   15.57    0.93
  -5  -3  -1    3.49    0.43
  -5  -3  -2    2.32    0.35
  -5  -3  -3    2.61    0.37
  -5  -3  -4   88.51    2.54
  -5  -3  -5   32.70    1.37
  -5  -3  -6   49.09    1.76
  -5  -3  -7   24.84    1.18
  -5  -3  -8    2.72    0.37
  -5  -3  -9   10.80    0.76
  -5  -3 -10    0.03    0.10
  -5  -3 -11   18.70    1.05
  -5  -3 -12    4.31    0.49
  -5  -3 -13   18.45    1.05
  -5  -3 -14    3.68    0.46
  -5  -3 -15    2.35    0.38
  -5  -3 -16    3.80    0.49
  -5  -3 -17    4.64    0.54
  -5  -4  13    7.06    0.75
  -5  -4  12    0.97    0.30
  -5  -4  11    3.11    0.51
  -5  -4  10    0.20    0.17
  -5  -4   9    6.46    0.70
  -5  -4   8    5.64    0.64
  -5  -4   7   38.64    1.73
  -5  -4   6   10.81    0.86
  -5  -4   5   21.76    1.22
  -5  -4   4    1.30    0.28
  -5  -4   3   21.11    1.15
  -5  -4   2    0.15    0.12
  -5  -4   1   51.85    1.88
  -5  -4   0    1.23    0.27
  -5  -4  -1    0.33    0.15
  -5  -4  -2   13.35    0.86
  -5  -4  -3   21.87    1.11
  -5  -4  -4    5.96    0.56
  -5  -4  -5    0.05    0.10
  -5  -4  -6    0.11    0.11
  -5  -4  -7    4.26    0.48
  -5  -4  -8   33.20    1.42
  -5  -4  -9   -0.02    0.10
  -5  -4 -10   16.59    0.98
  -5  -4 -11   -0.02    0.10
  -5  -4 -12    6.19    0.60
  -5  -4 -13    1.29    0.29
  -5  -4 -14    7.59    0.68
  -5  -4 -15    4.90    0.56
  -5  -4 -16    0.01    0.09
  -5  -4 -17    8.95    0.77
  -5  -5  12    3.08    0.53
  -5  -5  11    0.13    0.13
  -5  -5  10    5.25    0.66
  -5  -5   9    4.16    0.57
  -5  -5   8    3.57    0.52
  -5  -5   7    0.16    0.15
  -5  -5   6    4.57    0.57
  -5  -5   5    5.65    0.61
  -5  -5   4    0.22    0.14
  -5  -5   3    1.94    0.34
  -5  -5   2    0.84    0.22
  -5  -5   1    0.09    0.11
  -5  -5   0    2.97    0.41
  -5  -5  -1    2.79    0.39
  -5  -5  -2    1.24    0.26
  -5  -5  -3   13.34    0.86
  -5  -5  -4   -0.07    0.12
  -5  -5  -5   14.91    0.91
  -5  -5  -6    7.05    0.62
  -5  -5  -7   17.66    1.00
  -5  -5  -8    5.65    0.56
  -5  -5  -9   13.21    0.86
  -5  -5 -10    0.52    0.19
  -5  -5 -11    4.58    0.51
  -5  -5 -12    1.22    0.28
  -5  -5 -13    0.20    0.15
  -5  -5 -14    0.00    0.09
  -5  -5 -15    1.67    0.32
  -5  -5 -16   12.70    0.92
  -5  -5 -17    1.56    0.33
  -5  -6  11    0.19    0.17
  -5  -6  10    0.09    0.12
  -5  -6   9    0.22    0.15
  -5  -6   8    1.03    0.29
  -5  -6   8    1.12    0.23
  -5  -6   7    0.66    0.18
  -5  -6   7    1.07    0.29
  -5  -6   6    3.41    0.38
  -5  -6   6    2.72    0.44
  -5  -6   5    4.27    0.54
  -5  -6   4   11.79    0.89
  -5  -6   3   -0.04    0.12
  -5  -6   2   15.38    0.99
  -5  -6   1    0.05    0.11
  -5  -6   0   45.71    1.78
  -5  -6  -1    2.63    0.39
  -5  -6  -2   18.90    1.06
  -5  -6  -3    1.87    0.32
  -5  -6  -4    5.14    0.53
  -5  -6  -5    1.57    0.30
  -5  -6  -6    6.10    0.58
  -5  -6  -7   14.06    0.89
  -5  -6  -8    1.32    0.28
  -5  -6  -9   -0.27    0.14
  -5  -6 -10    3.01    0.41
  -5  -6 -11    9.21    0.73
  -5  -6 -12    3.49    0.45
  -5  -6 -13   15.71    0.99
  -5  -6 -13   14.95    0.89
  -5  -6 -14    0.59    0.19
  -5  -6 -14    0.77    0.23
  -5  -6 -15    5.23    0.57
  -5  -6 -16    0.19    0.13
  -5  -7   7    0.38    0.16
  -5  -7   6    0.05    0.09
  -5  -7   5   -0.22    0.12
  -5  -7   4    1.72    0.28
  -5  -7   3    4.77    0.47
  -5  -7   2   -0.03    0.09
  -5  -7   1    0.07    0.10
  -5  -7   0    1.96    0.30
  -5  -7  -1    0.11    0.10
  -5  -7  -2    0.44    0.15
  -5  -7  -3    1.35    0.26
  -5  -7  -4    2.55    0.34
  -5  -7  -5    5.38    0.51
  -5  -7  -6    0.24    0.12
  -5  -7  -7    0.73    0.19
  -5  -7  -8    0.04    0.09
  -5  -7  -9    0.14    0.09
  -5  -7 -10    2.15    0.34
  -5  -7 -11    0.12    0.09
  -5  -7 -12    4.37    0.49
  -5  -7 -13    0.03    0.10
  -5  -7 -14    1.11    0.25
  -5  -8  -2    2.70    0.38
  -5  -8  -3    7.69    0.63
  -5  -8  -4    0.13    0.09
   6  -6  -4    4.13    0.54
   6  -6  -3    4.78    0.57
   6  -6  -2    0.36    0.18
   6  -6  -1    1.81    0.35
   6  -6   0    0.51    0.20
   6  -6   1    6.08    0.63
   6  -6   2    4.14    0.52
   6  -6   3    8.36    0.74
   6  -6   4    1.45    0.33
   6  -5 -10    4.98    0.59
   6  -5  -9    0.06    0.10
   6  -5  -8    1.08    0.29
   6  -5  -7    1.01    0.26
   6  -5  -6    1.22    0.29
   6  -5  -5    8.57    0.75
   6  -5  -4    0.06    0.10
   6  -5  -3   -0.17    0.18
   6  -5  -2    0.55    0.19
   6  -5  -1    0.19    0.15
   6  -5   0    2.87    0.43
   6  -5   1    0.37    0.16
   6  -5   2    0.10    0.15
   6  -5   3    0.34    0.18
   6  -5   4    0.84    0.24
   6  -5   5    1.81    0.35
   6  -5   6    3.22    0.45
   6  -5   7    0.11    0.12
   6  -5   8    0.90    0.24
   6  -5   8    1.07    0.23
   6  -5   9    0.11    0.11
   6  -5   9    0.47    0.17
   6  -5  10    0.00    0.10
   6  -5  10    0.15    0.13
   6  -5  11    0.03    0.13
   6  -5  11    0.08    0.11
   6  -5  12   -0.01    0.11
  -6   4  11    1.68    0.39
  -6   4  10    6.09    0.72
   6  -4 -10    6.70    0.66
  -6   4   9   -0.14    0.17
   6  -4  -9   -0.04    0.12
   6  -4  -8    0.00    0.11
  -6   4   8    0.30    0.18
  -6   4   7    0.55    0.21
  -6   4   6    2.28    0.41
  -6   4   5    3.16    0.47
  -6   4   4    0.11    0.14
  -6   4   3    0.16    0.14
  -6   4   2    8.74    0.75
  -6   4   1    2.38    0.38
  -6   4   0    4.12    0.49
  -6   4  -1    1.14    0.27
  -6   4  -2   17.64    1.03
  -6   4  -3    0.97    0.24
  -6   4  -4    1.41    0.29
  -6   4  -5    0.29    0.15
  -6   4  -6   13.53    0.89
  -6   4  -7   -0.06    0.10
  -6   4  -8    0.15    0.12
  -6   4  -9    0.18    0.12
  -6   4 -10   25.11    1.24
   6  -4  10   23.13    1.22
   6  -4  11    1.07    0.26
  -6   4 -11    0.92    0.25
   6  -4  12    2.39    0.39
  -6   4 -12    2.61    0.40
   6  -4  13    1.84    0.34
  -6   4 -13    1.80    0.34
  -6   4 -14    1.21    0.27
  -6   3  12    0.12    0.14
  -6   3  11    5.28    0.69
  -6   3  10    6.89    0.77
  -6   3   9   14.35    1.10
  -6   3   8    0.68    0.25
  -6   3   7    2.37    0.42
  -6   3   6    0.05    0.12
  -6   3   5   10.43    0.85
  -6   3   4    0.27    0.17
  -6   3   3    4.30    0.52
  -6   3   2    0.19    0.16
  -6   3   1    7.69    0.69
  -6   3   0    0.01    0.12
  -6   3  -1    2.85    0.40
  -6   3  -2    0.05    0.11
  -6   3  -3    5.94    0.59
  -6   3  -4    1.00    0.25
  -6   3  -5    2.22    0.35
  -6   3  -6    2.68    0.39
  -6   3  -7   -0.09    0.12
  -6   3  -8    9.90    0.76
  -6   3  -9    1.93    0.34
  -6   3 -10    0.33    0.16
  -6   3 -11    2.53    0.39
  -6   3 -12    1.78    0.33
  -6   3 -13    0.68    0.22
  -6   3 -14    0.93    0.25
  -6   2  12   12.43    1.08
  -6   2  11    5.27    0.69
  -6   2  10   12.63    1.04
  -6   2   9    3.21    0.52
  -6   2   8    0.24    0.18
  -6   2   7    0.06    0.13
  -6   2   6    4.51    0.57
  -6   2   5    0.53    0.19
  -6   2   4    0.40    0.18
  -6   2   3    1.27    0.29
  -6   2   2    1.41    0.31
  -6   2   1    7.95    0.71
  -6   2   0    1.46    0.31
  -6   2  -1   34.80    1.53
  -6   2  -2    8.45    0.71
  -6   2  -3   38.19    1.58
  -6   2  -4   30.46    1.39
  -6   2  -5    3.66    0.46
  -6   2  -6    4.11    0.48
  -6   2  -7    3.98    0.48
  -6   2  -8    1.10    0.26
  -6   2  -9    6.33    0.61
  -6   2 -10    7.78    0.68
  -6   2 -11    4.58    0.53
  -6   2 -12    0.68    0.23
  -6   2 -13    7.33    0.68
  -6   2 -14    0.96    0.26
  -6   2 -15    0.39    0.18
  -6   1  12    0.01    0.11
  -6   1  11    3.48    0.56
  -6   1  10    0.16    0.17
  -6   1   9   16.80    1.19
  -6   1   8    0.06    0.11
  -6   1   7    4.90    0.61
  -6   1   6    0.98    0.27
  -6   1   5    1.37    0.32
  -6   1   4   12.51    0.93
  -6   1   3    2.37    0.40
  -6   1   2   23.42    1.26
  -6   1   1    2.34    0.38
  -6   1   0   28.70    1.38
  -6   1  -1    0.36    0.17
  -6   1  -2    0.69    0.21
  -6   1  -3   17.75    1.03
  -6   1  -4   19.88    1.10
  -6   1  -5    1.46    0.30
  -6   1  -6   25.30    1.25
  -6   1  -7   -0.16    0.17
  -6   1  -8    7.37    0.66
  -6   1  -9    1.18    0.27
  -6   1 -10   -0.02    0.12
  -6   1 -11    5.79    0.59
  -6   1 -12    0.29    0.15
  -6   1 -13    7.44    0.68
  -6   1 -14    0.20    0.16
  -6   1 -15   16.84    1.08
  -6   0  11    9.58    0.93
  -6   0  10    0.87    0.29
  -6   0   9    1.87    0.40
  -6   0   8    0.71    0.25
  -6   0   7    9.69    0.86
  -6   0   6    0.49    0.22
  -6   0   5   23.28    1.32
  -6   0   4    1.85    0.36
  -6   0   3    3.26    0.46
  -6   0   2    1.23    0.29
  -6   0   1    7.85    0.70
  -6   0   0    1.61    0.32
  -6   0  -1    1.46    0.31
  -6   0  -2    6.14    0.61
  -6   0  -3    1.11    0.26
  -6   0  -4   87.43    2.64
  -6   0  -5    2.62    0.41
  -6   0  -6    0.54    0.18
  -6   0  -7    0.99    0.25
  -6   0  -8   12.85    0.88
  -6   0  -9    0.08    0.14
  -6   0 -10   19.18    1.10
  -6   0 -11    0.42    0.16
  -6   0 -12   13.01    0.91
  -6   0 -13   -0.01    0.12
  -6   0 -14    4.08    0.52
  -6   0 -15    0.15    0.12
  -6  -1  11    0.52    0.22
  -6  -1  10    2.92    0.51
  -6  -1   9    1.54    0.38
  -6  -1   8    0.00    0.16
  -6  -1   7    5.76    0.67
  -6  -1   6   12.76    0.98
  -6  -1   5    0.51    0.21
  -6  -1   4    6.54    0.68
  -6  -1   3    0.29    0.17
  -6  -1   2   14.72    0.99
  -6  -1   1   12.48    0.90
  -6  -1   0   -0.10    0.17
  -6  -1  -1    8.51    0.72
  -6  -1  -2   -0.08    0.14
  -6  -1  -3    0.06    0.10
  -6  -1  -4   28.78    1.36
  -6  -1  -5    5.60    0.57
  -6  -1  -6   12.69    0.88
  -6  -1  -7   26.73    1.31
  -6  -1  -8    0.97    0.25
  -6  -1  -9   26.30    1.31
  -6  -1 -10    5.86    0.60
  -6  -1 -11    6.38    0.63
  -6  -1 -12    0.29    0.14
  -6  -1 -13   -0.03    0.11
  -6  -1 -14    0.31    0.15
  -6  -1 -15    0.16    0.16
  -6  -2  11    2.46    0.48
  -6  -2  10    0.90    0.29
  -6  -2   9    0.12    0.14
  -6  -2   8    2.89    0.48
  -6  -2   7    2.74    0.47
  -6  -2   6    1.66    0.36
  -6  -2   5    2.79    0.45
  -6  -2   4    0.87    0.26
  -6  -2   3   14.99    1.02
  -6  -2   2    8.72    0.76
  -6  -2   1   30.52    1.47
  -6  -2   0    0.05    0.11
  -6  -2  -1    0.00    0.10
  -6  -2  -2    1.61    0.32
  -6  -2  -3    0.80    0.23
  -6  -2  -4    1.42    0.30
  -6  -2  -5   10.79    0.81
  -6  -2  -6   -0.03    0.13
  -6  -2  -7   15.57    0.98
  -6  -2  -8    5.26    0.57
  -6  -2  -9    1.47    0.32
  -6  -2 -10    0.34    0.18
  -6  -2 -11    1.27    0.30
  -6  -2 -12    4.97    0.56
  -6  -2 -13   32.15    1.51
  -6  -2 -14    1.02    0.27
  -6  -2 -15    1.14    0.28
  -6  -3  10    0.31    0.20
  -6  -3   9   13.08    1.08
  -6  -3   8   15.11    1.14
  -6  -3   7    1.37    0.35
  -6  -3   6   14.44    1.08
  -6  -3   5    0.84    0.26
  -6  -3   4    6.98    0.71
  -6  -3   3    9.35    0.81
  -6  -3   2   15.37    1.04
  -6  -3   1    1.44    0.33
  -6  -3   0    0.97    0.27
  -6  -3  -1   13.84    0.95
  -6  -3  -2   16.82    1.05
  -6  -3  -3    0.40    0.19
  -6  -3  -4    8.20    0.71
  -6  -3  -5    1.06    0.28
  -6  -3  -6    6.91    0.65
  -6  -3  -7    0.16    0.12
  -6  -3  -8    3.38    0.46
  -6  -3  -9    2.97    0.43
  -6  -3 -10    5.08    0.57
  -6  -3 -11    0.69    0.22
  -6  -3 -12   13.94    0.97
  -6  -3 -13    0.45    0.20
  -6  -3 -14    1.45    0.33
  -6  -3 -15    0.44    0.20
  -6  -4   9    3.52    0.57
  -6  -4   8    0.78    0.28
  -6  -4   7    1.84    0.40
  -6  -4   6   -0.08    0.17
  -6  -4   5    1.61    0.36
  -6  -4   4   -0.06    0.15
  -6  -4   3    0.14    0.14
  -6  -4   2    0.08    0.13
  -6  -4   1    5.12    0.59
  -6  -4   0    4.11    0.53
  -6  -4  -1   29.82    1.46
  -6  -4  -2   13.07    0.93
  -6  -4  -3    0.25    0.16
  -6  -4  -4    3.97    0.50
  -6  -4  -5    0.36    0.18
  -6  -4  -6    0.27    0.16
  -6  -4  -7    2.97    0.43
  -6  -4  -8    4.92    0.56
  -6  -4  -9    0.34    0.16
  -6  -4 -10    6.29    0.64
  -6  -4 -11    0.05    0.11
  -6  -4 -12    1.12    0.28
  -6  -4 -13    5.10    0.59
  -6  -4 -14    0.32    0.17
  -6  -4 -15    5.22    0.61
  -6  -5   8    4.12    0.61
  -6  -5   7    0.22    0.14
  -6  -5   6   -0.08    0.13
  -6  -5   5    8.41    0.82
  -6  -5   4    2.02    0.40
  -6  -5   3    7.03    0.72
  -6  -5   2    9.22    0.82
  -6  -5   1    5.57    0.63
  -6  -5   0    6.60    0.68
  -6  -5  -1   11.99    0.91
  -6  -5  -2    9.96    0.82
  -6  -5  -3    0.13    0.14
  -6  -5  -4    0.04    0.10
  -6  -5  -5   41.35    1.76
  -6  -5  -6    0.16    0.16
  -6  -5  -7   14.82    1.00
  -6  -5  -8    0.74    0.23
  -6  -5  -9    0.81    0.24
  -6  -5 -10    0.79    0.24
  -6  -5 -11    1.97    0.37
  -6  -5 -12    2.34    0.40
  -6  -5 -13    6.18    0.65
  -6  -5 -14    7.08    0.70
  -6  -6   7   -0.20    0.15
  -6  -6   6    4.10    0.58
  -6  -6   5    1.05    0.31
  -6  -6   4    1.82    0.37
  -6  -6   3    3.31    0.50
  -6  -6   2    1.30    0.32
  -6  -6   1    4.39    0.56
  -6  -6   0    8.47    0.78
  -6  -6  -1    0.05    0.10
  -6  -6  -2   -0.01    0.15
  -6  -6  -3   10.08    0.82
  -6  -6  -4   11.87    0.90
  -6  -6  -5    0.36    0.16
  -6  -6  -6    8.27    0.74
  -6  -6  -7   -0.06    0.13
  -6  -6  -8    0.97    0.26
  -6  -6  -9    2.81    0.43
  -6  -6 -10    2.45    0.41
  -6  -6 -11    1.04    0.28
  -6  -6 -12   -0.02    0.10
  -6  -6 -13    0.61    0.21
  -7   4   7    5.74    0.72
  -7   4   6    2.94    0.51
  -7   4   5    0.14    0.15
  -7   4   4    0.12    0.15
  -7   4   3   -0.06    0.10
  -7   4   2    0.22    0.15
  -7   4   1    0.79    0.25
  -7   4   0   -0.34    0.18
  -7   4  -1   -0.03    0.12
  -7   4  -2   -0.03    0.11
  -7   4  -3   30.46    1.52
  -7   4  -4    2.54    0.43
  -7   4  -5    0.51    0.20
  -7   4  -6    3.31    0.47
  -7   4  -7    0.02    0.10
  -7   4  -8    7.94    0.73
  -7   4  -9    1.36    0.31
  -7   4 -10   -0.09    0.12
  -7   3   7    0.23    0.16
  -7   3   6   -0.03    0.14
  -7   3   5   -0.07    0.17
  -7   3   4    1.02    0.30
  -7   3   3    6.65    0.73
  -7   3   2    0.08    0.13
  -7   3   1    2.02    0.40
  -7   3   0    1.63    0.35
  -7   3  -1   12.37    0.95
  -7   3  -2    7.53    0.73
  -7   3  -3    0.76    0.25
  -7   3  -4    0.76    0.25
  -7   3  -5    0.11    0.11
  -7   3  -6    0.10    0.13
  -7   3  -7    0.28    0.17
  -7   3  -8    1.53    0.33
  -7   3  -9    0.05    0.11
  -7   3 -10    0.46    0.20
  -7   3 -11    0.49    0.19
  -7   2   7    0.25    0.18
  -7   2   6    1.12    0.31
  -7   2   5   -0.03    0.16
  -7   2   4   13.46    1.05
  -7   2   3    0.29    0.16
  -7   2   2   -0.05    0.11
  -7   2   1    0.50    0.20
  -7   2   0    3.68    0.52
  -7   2  -1    0.53    0.20
  -7   2  -2    0.39    0.20
  -7   2  -3    1.56    0.34
  -7   2  -4   20.99    1.24
  -7   2  -5    6.19    0.66
  -7   2  -6    2.03    0.38
  -7   2  -7    0.89    0.26
  -7   2  -8    1.32    0.31
  -7   2  -9    0.33    0.16
  -7   2 -10   -0.04    0.15
  -7   2 -11    6.15    0.67
  -7   1   7    6.05    0.75
  -7   1   6    0.22    0.18
  -7   1   5    0.22    0.15
  -7   1   4    0.17    0.15
  -7   1   3    9.83    0.89
  -7   1   2    2.05    0.40
  -7   1   1   -0.06    0.12
  -7   1   0    6.20    0.68
  -7   1  -1    2.02    0.39
  -7   1  -2   14.17    1.01
  -7   1  -3    9.96    0.84
  -7   1  -4    1.11    0.30
  -7   1  -5    4.17    0.54
  -7   1  -6    0.01    0.10
  -7   1  -7    0.62    0.22
  -7   1  -8    0.58    0.21
  -7   1  -9    1.89    0.37
  -7   1 -10    0.81    0.25
  -7   1 -11   -0.10    0.18
  -7   1 -12    0.39    0.20
  -7   0   7    1.58    0.39
  -7   0   6    1.16    0.35
  -7   0   5    9.25    0.89
  -7   0   4    1.83    0.40
  -7   0   3    4.97    0.63
  -7   0   2   11.11    0.94
  -7   0   1    1.46    0.34
  -7   0   0    0.95    0.27
  -7   0  -1    0.69    0.25
  -7   0  -2    6.40    0.68
  -7   0  -3    6.90    0.70
  -7   0  -4    0.22    0.14
  -7   0  -5    5.75    0.64
  -7   0  -6    3.17    0.48
  -7   0  -7   16.22    1.08
  -7   0  -8   -0.06    0.10
  -7   0  -9    3.28    0.49
  -7   0 -10    5.02    0.60
  -7   0 -11    3.86    0.53
  -7   0 -12    0.19    0.14
  -7  -1   7    0.81    0.30
  -7  -1   6    1.71    0.40
  -7  -1   5    5.64    0.69
  -7  -1   4    0.89    0.29
  -7  -1   3   -0.07    0.11
  -7  -1   2    6.97    0.74
  -7  -1   1    2.30    0.42
  -7  -1   0    7.68    0.76
  -7  -1  -1    0.07    0.12
  -7  -1  -2    2.12    0.40
  -7  -1  -3    0.15    0.14
  -7  -1  -4    1.27    0.32
  -7  -1  -5    0.50    0.21
  -7  -1  -6   -0.16    0.18
  -7  -1  -7    2.67    0.43
  -7  -1  -8    0.24    0.16
  -7  -1  -9    2.15    0.40
  -7  -1 -10    0.33    0.16
  -7  -1 -11    0.44    0.21
  -7  -1 -12    0.57    0.21
  -7  -2   6   11.21    1.01
  -7  -2   5    1.71    0.40
  -7  -2   4    9.85    0.92
  -7  -2   3    0.48    0.23
  -7  -2   2    5.54    0.67
  -7  -2   1    0.69    0.25
  -7  -2   0    0.14    0.12
  -7  -2  -1    3.13    0.48
  -7  -2  -2    0.15    0.12
  -7  -2  -3    3.16    0.48
  -7  -2  -4    8.23    0.77
  -7  -2  -5   19.95    1.22
  -7  -2  -6   11.48    0.91
  -7  -2  -7   -0.14    0.18
  -7  -2  -8    0.60    0.21
  -7  -2  -9    6.30    0.67
  -7  -2 -10   14.84    1.06
  -7  -2 -11    8.81    0.81
  -7  -2 -12   -0.04    0.12
  -7  -3   6    3.72    0.59
  -7  -3   5    6.25    0.74
  -7  -3   4    0.02    0.10
  -7  -3   3   -0.23    0.17
  -7  -3   2    1.46    0.34
  -7  -3   1   -0.10    0.14
  -7  -3   0    4.16    0.57
  -7  -3  -1    8.67    0.82
  -7  -3  -2    2.76    0.46
  -7  -3  -3    0.69    0.24
  -7  -3  -4    1.15    0.30
  -7  -3  -5    5.91    0.66
  -7  -3  -6    0.01    0.13
  -7  -3  -7    1.40    0.32
  -7  -3  -8    1.96    0.39
  -7  -3  -9    0.02    0.11
  -7  -3 -10    0.21    0.17
  -7  -3 -11    0.85    0.27
  -7  -4   4    0.07    0.14
  -7  -4   3   10.39    0.95
  -7  -4   2   -0.06    0.15
  -7  -4   1    5.91    0.69
  -7  -4   0   14.12    1.08
  -7  -4  -1    0.97    0.28
  -7  -4  -2    0.06    0.12
  -7  -4  -3    4.47    0.58
  -7  -4  -4    0.03    0.15
  -7  -4  -5   10.80    0.91
  -7  -4  -6   17.67    1.18
  -7  -4  -7    2.73    0.46
  -7  -4  -8   14.58    1.06
  -7  -4  -9    5.56    0.65
  -7  -4 -10    0.20    0.15
  -7  -5   3    0.56    0.22
  -7  -5   2   22.53    1.42
  -7  -5   1    0.48    0.22
  -7  -5   0    4.97    0.64
  -7  -5  -1    0.90    0.27
  -7  -5  -2    0.27    0.17
  -7  -5  -3   25.61    1.45
  -7  -5  -4    2.90    0.48
  -7  -5  -5    1.05    0.31
  -7  -5  -6    0.37    0.18
  -7  -5  -7    0.36    0.16
  -7  -5  -8    0.28    0.18
  -7  -5  -9    0.87    0.27
  -7  -6   1    1.46    0.36
  -7  -6   0    0.13    0.14
  -7  -6  -1    0.66    0.24
  -7  -6  -2   15.74    1.14
  -7  -6  -3    8.33    0.81
  -7  -6  -4   -0.10    0.17
  -7  -6  -5    0.60    0.22
  -7  -6  -6    5.98    0.69
  -7  -6  -7    0.98    0.28
   0   0   0    0.00    0.00
;
_shelx_hkl_checksum              13001
#END Tags that were not found in dictionaries
loop_
_space_group_symop_operation_xyz
'x, y, z'
'-x, -y, -z'
loop_
_atom_site_label
_atom_site_type_symbol
_atom_site_fract_x
_atom_site_fract_y
_atom_site_fract_z
_atom_site_U_iso_or_equiv
_atom_site_adp_type
_atom_site_occupancy
_atom_site_site_symmetry_order
_atom_site_calc_flag
_atom_site_refinement_flags_posn
_atom_site_refinement_flags_adp
Cl1 Cl 0.89545(6) 0.85427(4) 0.76386(2) 0.02794(13) Uani 1 1 d . .
O1 O 0.9323(2) 0.96709(16) 0.82586(8) 0.0419(3) Uani 1 1 d . .
O2 O 1.0286(2) 0.69679(17) 0.77530(9) 0.0490(4) Uani 1 1 d . .
O3 O 0.6681(2) 0.81276(19) 0.77403(9) 0.0490(4) Uani 1 1 d . .
O4 O 0.9566(3) 0.9420(2) 0.68387(8) 0.0554(4) Uani 1 1 d . .
N1 N 0.6133(2) 0.55956(14) 0.63317(7) 0.0210(2) Uani 1 1 d . .
N2 N 0.8205(2) 0.48317(17) 0.63528(8) 0.0292(3) Uani 1 1 d . .
C3 C 0.8114(3) 0.3976(2) 0.70833(9) 0.0285(3) Uani 1 1 d . .
H3 H 0.9319 0.3304 0.7286 0.034 Uiso 1 1 calc R U
N4 N 0.6085(2) 0.41586(14) 0.75217(7) 0.0222(3) Uani 1 1 d . .
C5 C 0.4870(3) 0.51965(17) 0.70332(8) 0.0236(3) Uani 1 1 d . .
H5 H 0.3374 0.5578 0.7166 0.028 Uiso 1 1 calc R U
C6 C 0.5432(2) 0.34196(17) 0.83554(8) 0.0224(3) Uani 1 1 d . .
C7 C 0.3568(3) 0.24108(17) 0.85150(8) 0.0240(3) Uani 1 1 d . .
O7 O 0.2436(2) 0.21535(14) 0.78714(6) 0.0301(3) Uani 1 1 d D .
H7 H 0.164(3) 0.130(2) 0.8003(13) 0.045 Uiso 1 1 d D U
C8 C 0.2945(3) 0.17314(18) 0.93243(9) 0.0274(3) Uani 1 1 d . .
H8 H 0.1652 0.1067 0.9455 0.033 Uiso 1 1 calc R U
C9 C 0.4209(3) 0.20218(18) 0.99424(9) 0.0281(3) Uani 1 1 d . .
H9 H 0.3757 0.1551 1.0493 0.034 Uiso 1 1 calc R U
C10 C 0.6120(3) 0.29827(18) 0.97795(9) 0.0264(3) Uani 1 1 d . .
C11 C 0.6711(3) 0.36976(18) 0.89711(9) 0.0247(3) Uani 1 1 d . .
H11 H 0.7992 0.4377 0.8841 0.030 Uiso 1 1 calc R U
C12 C 0.7500(3) 0.3241(2) 1.04566(9) 0.0325(4) Uani 1 1 d . .
H12A H 0.6670 0.2886 1.0994 0.049 Uiso 1 1 calc R U
H12B H 0.7851 0.4477 1.0427 0.049 Uiso 1 1 calc R U
H12C H 0.8875 0.2529 1.0389 0.049 Uiso 1 1 calc R U
C13 C 0.5587(2) 0.66468(16) 0.55980(8) 0.0219(3) Uani 1 1 d . .
C14 C 0.7236(3) 0.68910(18) 0.49409(9) 0.0277(3) Uani 1 1 d . .
H14 H 0.8683 0.6392 0.4977 0.033 Uiso 1 1 calc R U
C15 C 0.6721(3) 0.7884(2) 0.42275(9) 0.0329(4) Uani 1 1 d . .
H15 H 0.7831 0.8074 0.3771 0.039 Uiso 1 1 calc R U
C16 C 0.4614(3) 0.85979(19) 0.41738(9) 0.0327(4) Uani 1 1 d . .
H16 H 0.4277 0.9269 0.3681 0.039 Uiso 1 1 calc R U
C17 C 0.2998(3) 0.83337(19) 0.48376(10) 0.0323(3) Uani 1 1 d . .
H17 H 0.1550 0.8830 0.4800 0.039 Uiso 1 1 calc R U
C18 C 0.3472(3) 0.73464(19) 0.55619(9) 0.0285(3) Uani 1 1 d . .
H18 H 0.2364 0.7160 0.6020 0.034 Uiso 1 1 calc R U
loop_
_atom_site_aniso_label
_atom_site_aniso_U_11
_atom_site_aniso_U_22
_atom_site_aniso_U_33
_atom_site_aniso_U_23
_atom_site_aniso_U_13
_atom_site_aniso_U_12
Cl1 0.0295(2) 0.0287(2) 0.02594(19) -0.00317(13) -0.00241(14) -0.00548(14)
O1 0.0448(8) 0.0403(7) 0.0436(7) -0.0172(5) -0.0001(6) -0.0151(5)
O2 0.0551(9) 0.0386(7) 0.0534(8) -0.0095(6) -0.0082(7) 0.0106(6)
O3 0.0327(7) 0.0611(8) 0.0564(8) -0.0155(7) -0.0032(6) -0.0166(6)
O4 0.0631(10) 0.0657(9) 0.0327(7) 0.0113(6) 0.0017(6) -0.0091(7)
N1 0.0216(6) 0.0211(5) 0.0204(5) -0.0029(4) -0.0023(4) -0.0016(4)
N2 0.0239(7) 0.0366(7) 0.0258(6) -0.0004(5) -0.0022(5) 0.0032(5)
C3 0.0252(8) 0.0346(8) 0.0246(7) 0.0000(6) -0.0029(6) 0.0031(6)
N4 0.0251(6) 0.0222(5) 0.0196(5) -0.0025(4) -0.0033(4) -0.0016(4)
C5 0.0255(7) 0.0227(6) 0.0219(6) -0.0013(5) -0.0013(5) -0.0003(5)
C6 0.0272(7) 0.0211(6) 0.0186(6) -0.0010(5) -0.0021(5) 0.0002(5)
C7 0.0282(8) 0.0208(6) 0.0234(6) -0.0020(5) -0.0055(5) 0.0010(5)
O7 0.0341(6) 0.0308(5) 0.0270(5) 0.0015(4) -0.0100(5) -0.0105(4)
C8 0.0300(8) 0.0243(7) 0.0269(7) -0.0001(5) -0.0004(6) -0.0024(5)
C9 0.0364(9) 0.0252(7) 0.0209(6) 0.0013(5) -0.0014(6) 0.0034(6)
C10 0.0326(8) 0.0243(7) 0.0230(7) -0.0049(5) -0.0061(6) 0.0057(5)
C11 0.0260(8) 0.0236(6) 0.0250(7) -0.0038(5) -0.0045(5) -0.0004(5)
C12 0.0377(9) 0.0369(8) 0.0248(7) -0.0069(6) -0.0103(6) 0.0064(7)
C13 0.0283(8) 0.0183(6) 0.0198(6) -0.0024(5) -0.0045(5) -0.0031(5)
C14 0.0298(8) 0.0274(7) 0.0250(7) -0.0013(5) -0.0005(6) -0.0011(6)
C15 0.0420(10) 0.0327(8) 0.0226(7) -0.0004(6) 0.0007(6) -0.0044(6)
C16 0.0487(10) 0.0251(7) 0.0261(7) 0.0005(6) -0.0126(7) -0.0056(6)
C17 0.0340(9) 0.0285(7) 0.0359(8) -0.0003(6) -0.0125(7) -0.0002(6)
C18 0.0276(8) 0.0289(7) 0.0285(7) -0.0012(5) -0.0028(6) -0.0017(6)
loop_
_atom_type_symbol
_atom_type_description
_atom_type_scat_dispersion_real
_atom_type_scat_dispersion_imag
_atom_type_scat_source
C C 0.0033 0.0016 'International Tables Vol C Tables 4.2.6.8 and 6.1.1.4'
H H 0.0000 0.0000 'International Tables Vol C Tables 4.2.6.8 and 6.1.1.4'
N N 0.0061 0.0033 'International Tables Vol C Tables 4.2.6.8 and 6.1.1.4'
O O 0.0106 0.0060 'International Tables Vol C Tables 4.2.6.8 and 6.1.1.4'
Cl Cl 0.1484 0.1585 'International Tables Vol C Tables 4.2.6.8 and 6.1.1.4'
loop_
_geom_angle_atom_site_label_1
_geom_angle_atom_site_label_2
_geom_angle_atom_site_label_3
_geom_angle
O3 Cl1 O4 110.69(9)
O3 Cl1 O2 109.44(9)
O4 Cl1 O2 109.92(9)
O3 Cl1 O1 108.88(8)
O4 Cl1 O1 109.16(9)
O2 Cl1 O1 108.72(8)
C5 N1 N2 110.99(11)
C5 N1 C13 128.99(12)
N2 N1 C13 120.01(11)
C3 N2 N1 103.89(12)
N2 C3 N4 111.80(13)
N2 C3 H3 124.1
N4 C3 H3 124.1
C5 N4 C3 106.11(12)
C5 N4 C6 127.52(12)
C3 N4 C6 126.34(12)
N1 C5 N4 107.20(13)
N1 C5 H5 126.4
N4 C5 H5 126.4
C11 C6 C7 121.95(13)
C11 C6 N4 119.14(13)
C7 C6 N4 118.89(12)
O7 C7 C8 123.49(14)
O7 C7 C6 118.44(12)
C8 C7 C6 118.07(13)
C7 O7 H7 109.5(15)
C9 C8 C7 120.07(14)
C9 C8 H8 120.0
C7 C8 H8 120.0
C8 C9 C10 121.97(13)
C8 C9 H9 119.0
C10 C9 H9 119.0
C11 C10 C9 117.83(14)
C11 C10 C12 121.11(15)
C9 C10 C12 121.06(14)
C6 C11 C10 120.05(14)
C6 C11 H11 120.0
C10 C11 H11 120.0
C10 C12 H12A 109.5
C10 C12 H12B 109.5
H12A C12 H12B 109.5
C10 C12 H12C 109.5
H12A C12 H12C 109.5
H12B C12 H12C 109.5
C18 C13 C14 122.18(13)
C18 C13 N1 120.04(13)
C14 C13 N1 117.78(13)
C13 C14 C15 118.27(15)
C13 C14 H14 120.9
C15 C14 H14 120.9
C16 C15 C14 120.78(15)
C16 C15 H15 119.6
C14 C15 H15 119.6
C15 C16 C17 119.83(14)
C15 C16 H16 120.1
C17 C16 H16 120.1
C16 C17 C18 120.58(16)
C16 C17 H17 119.7
C18 C17 H17 119.7
C13 C18 C17 118.37(15)
C13 C18 H18 120.8
C17 C18 H18 120.8
loop_
_geom_bond_atom_site_label_1
_geom_bond_atom_site_label_2
_geom_bond_distance
Cl1 O3 1.4218(13)
Cl1 O4 1.4250(13)
Cl1 O2 1.4333(13)
Cl1 O1 1.4487(12)
N1 C5 1.3194(18)
N1 N2 1.3683(17)
N1 C13 1.4410(17)
N2 C3 1.3001(19)
C3 N4 1.3610(19)
C3 H3 0.9500
N4 C5 1.3332(18)
N4 C6 1.4399(17)
C5 H5 0.9500
C6 C11 1.388(2)
C6 C7 1.389(2)
C7 O7 1.3651(17)
C7 C8 1.388(2)
O7 H7 0.830(15)
C8 C9 1.387(2)
C8 H8 0.9500
C9 C10 1.392(2)
C9 H9 0.9500
C10 C11 1.391(2)
C10 C12 1.506(2)
C11 H11 0.9500
C12 H12A 0.9800
C12 H12B 0.9800
C12 H12C 0.9800
C13 C18 1.377(2)
C13 C14 1.384(2)
C14 C15 1.388(2)
C14 H14 0.9500
C15 C16 1.380(2)
C15 H15 0.9500
C16 C17 1.380(2)
C16 H16 0.9500
C17 C18 1.393(2)
C17 H17 0.9500
C18 H18 0.9500
loop_
_geom_hbond_atom_site_label_D
_geom_hbond_atom_site_label_H
_geom_hbond_atom_site_label_A
_geom_hbond_distance_DH
_geom_hbond_distance_HA
_geom_hbond_distance_DA
_geom_hbond_angle_DHA
_geom_hbond_site_symmetry_A
C3 H3 O7 0.95 2.33 3.2629(19) 169.1 1_655
C5 H5 O2 0.95 2.28 3.196(2) 162.1 1_455
O7 H7 O1 0.830(15) 1.911(16) 2.7289(17) 168(2) 1_445
loop_
_geom_torsion_atom_site_label_1
_geom_torsion_atom_site_label_2
_geom_torsion_atom_site_label_3
_geom_torsion_atom_site_label_4
_geom_torsion
C5 N1 N2 C3 0.11(16)
C13 N1 N2 C3 -178.91(12)
N1 N2 C3 N4 0.23(17)
N2 C3 N4 C5 -0.47(17)
N2 C3 N4 C6 -178.55(13)
N2 N1 C5 N4 -0.40(16)
C13 N1 C5 N4 178.51(12)
C3 N4 C5 N1 0.51(15)
C6 N4 C5 N1 178.56(12)
C5 N4 C6 C11 -125.40(15)
C3 N4 C6 C11 52.28(19)
C5 N4 C6 C7 56.24(19)
C3 N4 C6 C7 -126.08(16)
C11 C6 C7 O7 -177.97(12)
N4 C6 C7 O7 0.34(19)
C11 C6 C7 C8 2.6(2)
N4 C6 C7 C8 -179.05(12)
O7 C7 C8 C9 178.71(13)
C6 C7 C8 C9 -1.9(2)
C7 C8 C9 C10 -0.2(2)
C8 C9 C10 C11 1.7(2)
C8 C9 C10 C12 -178.36(13)
C7 C6 C11 C10 -1.2(2)
N4 C6 C11 C10 -179.46(12)
C9 C10 C11 C6 -1.0(2)
C12 C10 C11 C6 179.04(13)
C5 N1 C13 C18 -2.0(2)
N2 N1 C13 C18 176.87(13)
C5 N1 C13 C14 179.11(14)
N2 N1 C13 C14 -2.07(18)
C18 C13 C14 C15 0.3(2)
N1 C13 C14 C15 179.24(13)
C13 C14 C15 C16 -0.4(2)
C14 C15 C16 C17 0.4(2)
C15 C16 C17 C18 -0.2(2)
C14 C13 C18 C17 -0.2(2)
N1 C13 C18 C17 -179.06(13)
C16 C17 C18 C13 0.1(2)
