#------------------------------------------------------------------------------
#$Date: 2016-03-26 14:48:51 +0200 (Sat, 26 Mar 2016) $
#$Revision: 180277 $
#$URL: svn://www.crystallography.net/cod/cif/7/11/63/7116317.cif $
#------------------------------------------------------------------------------
#
# This file is available in the Crystallography Open Database (COD),
# http://www.crystallography.net/
#
# All data on this site have been placed in the public domain by the
# contributors.
#
data_7116317
loop_
_publ_author_name
'Mikhail Kondrashov'
'Sudarkodi Raman'
'Ola F. Wendt'
_publ_section_title
;
 Metal controlled regioselectivity in the cyclometallation of
 2-(1-naphthyl)-pyridine
;
_journal_name_full               Chem.Commun.
_journal_page_first              911
_journal_paper_doi               10.1039/C4cc07962K
_journal_volume                  51
_journal_year                    2015
_chemical_formula_moiety         'C15 H10 Au Cl2 N'
_chemical_formula_sum            'C15 H10 Au Cl2 N'
_chemical_formula_weight         472.11
_chemical_name_systematic        (naphtylpyridine)golddichloride
_space_group_crystal_system      triclinic
_space_group_IT_number           2
_space_group_name_Hall           '-P 1'
_space_group_name_H-M_alt        'P -1'
_symmetry_space_group_name_Hall  '-P 1'
_symmetry_space_group_name_H-M   'P -1'
_atom_sites_solution_hydrogens   geom
_audit_creation_method           SHELXL-2014
_audit_update_record
;
2014-09-05 deposited with the CCDC.
2014-11-26 downloaded from the CCDC.
;
_cell_angle_alpha                70.370(2)
_cell_angle_beta                 89.106(2)
_cell_angle_gamma                65.222(3)
_cell_formula_units_Z            2
_cell_length_a                   8.4554(2)
_cell_length_b                   8.8766(2)
_cell_length_c                   10.4398(3)
_cell_measurement_reflns_used    2168
_cell_measurement_temperature    293(2)
_cell_measurement_theta_max      33.2366
_cell_measurement_theta_min      2.6694
_cell_volume                     662.86(4)
_computing_cell_refinement
;
CrysAlis RED, Oxford Diffraction Ltd.,
Version 1.171.33.52 (release 06-11-2009 CrysAlis171 .NET)
(compiled Nov  6 2009,16:24:50)
;
_computing_data_collection
;
CrysAlis CCD, Oxford Diffraction Ltd.,
Version 1.171.33.52 (release 06-11-2009 CrysAlis171 .NET)
(compiled Nov  6 2009,16:24:50)
;
_computing_data_reduction
;
CrysAlis RED, Oxford Diffraction Ltd.,
Version 1.171.33.52 (release 06-11-2009 CrysAlis171 .NET)
(compiled Nov  6 2009,16:24:50)
;
_computing_structure_refinement  'SHELXL-2014 (Sheldrick, 2014)'
_diffrn_ambient_temperature      293(2)
_diffrn_detector_area_resol_mean 16.1829
_diffrn_measured_fraction_theta_full 0.973
_diffrn_measured_fraction_theta_max 0.879
_diffrn_measurement_device_type  'Xcalibur, Sapphire3'
_diffrn_measurement_method       '\w scans'
_diffrn_radiation_type           MoK\a
_diffrn_radiation_wavelength     0.71073
_diffrn_reflns_av_R_equivalents  0.0221
_diffrn_reflns_av_unetI/netI     0.0366
_diffrn_reflns_Laue_measured_fraction_full 0.973
_diffrn_reflns_Laue_measured_fraction_max 0.879
_diffrn_reflns_limit_h_max       12
_diffrn_reflns_limit_h_min       -12
_diffrn_reflns_limit_k_max       13
_diffrn_reflns_limit_k_min       -13
_diffrn_reflns_limit_l_max       15
_diffrn_reflns_limit_l_min       -15
_diffrn_reflns_number            6911
_diffrn_reflns_point_group_measured_fraction_full 0.973
_diffrn_reflns_point_group_measured_fraction_max 0.879
_diffrn_reflns_theta_full        25.000
_diffrn_reflns_theta_max         33.026
_diffrn_reflns_theta_min         2.682
_diffrn_source                   'Enhance (Mo) X-ray Source'
_exptl_absorpt_coefficient_mu    11.482
_exptl_absorpt_correction_T_max  1.00000
_exptl_absorpt_correction_T_min  0.37553
_exptl_absorpt_correction_type   multi-scan
_exptl_absorpt_process_details
;
CrysAlis RED, Oxford Diffraction Ltd.,
Version 1.171.33.52 (release 06-11-2009 CrysAlis171 .NET)
(compiled Nov  6 2009,16:24:50)
Empirical absorption correction using spherical harmonics,
 implemented in SCALE3 ABSPACK scaling algorithm.
;
_exptl_crystal_colour            orange
_exptl_crystal_density_diffrn    2.365
_exptl_crystal_description       plate
_exptl_crystal_F_000             440
_exptl_crystal_recrystallization_method
'Re-crystallisation from solvent: dmso'
_exptl_crystal_size_max          0.2
_exptl_crystal_size_mid          0.1
_exptl_crystal_size_min          0.05
_refine_diff_density_max         2.197
_refine_diff_density_min         -0.649
_refine_diff_density_rms         0.149
_refine_ls_extinction_method     none
_refine_ls_goodness_of_fit_ref   0.967
_refine_ls_hydrogen_treatment    constr
_refine_ls_matrix_type           full
_refine_ls_number_parameters     172
_refine_ls_number_reflns         4396
_refine_ls_number_restraints     0
_refine_ls_restrained_S_all      0.967
_refine_ls_R_factor_all          0.0309
_refine_ls_R_factor_gt           0.0254
_refine_ls_shift/su_max          0.001
_refine_ls_shift/su_mean         0.000
_refine_ls_structure_factor_coef Fsqd
_refine_ls_weighting_details
'w=1/[\s^2^(Fo^2^)+(0.0292P)^2^] where P=(Fo^2^+2Fc^2^)/3'
_refine_ls_weighting_scheme      calc
_refine_ls_wR_factor_gt          0.0540
_refine_ls_wR_factor_ref         0.0547
_reflns_Friedel_coverage         0.000
_reflns_number_gt                3816
_reflns_number_total             4396
_reflns_threshold_expression     'I > 2\s(I)'
_cod_data_source_file            c4cc07962k2.cif
_cod_data_source_block           shelxl
_cod_original_cell_volume        662.86(3)
_cod_database_code               7116317
#BEGIN Tags that were not found in dictionaries:
_shelx_space_group_comment
;
The symmetry employed for this shelxl refinement is uniquely defined
by the following loop, which should always be used as a source of
symmetry information in preference to the above space-group names.
They are only intended as comments.
;
_shelxl_version_number           2014-3
_shelx_res_file
;
TITL 10ISkR3 in P-1
CELL  0.71073   8.4554   8.8766  10.4398   70.370   89.106   65.222
ZERR     2.00   0.0002   0.0002   0.0003    0.002    0.002    0.003
LATT   1
SFAC  C    H    N    CL   AU
UNIT  30   20   2    4    2
MERG   2
FMAP   2
PLAN   10
ACTA    50.00
BOND   $H
L.S.  10
WGHT    0.029200
FVAR       3.65077
C2    1    0.174349    0.170969    0.472247    11.00000    0.03770    0.03441 =
         0.02835   -0.01060    0.01150   -0.01480
AFIX  43
H2    2    0.095201    0.243912    0.513286    11.00000   -1.20000
AFIX   0
C3    1    0.217417   -0.007914    0.522200    11.00000    0.04264    0.03537 =
         0.03301   -0.00465    0.00701   -0.02040
AFIX  43
H3    2    0.167714   -0.055845    0.595545    11.00000   -1.20000
AFIX   0
C4    1    0.336460   -0.114919    0.460756    11.00000    0.04758    0.02851 =
         0.04256   -0.00789   -0.00115   -0.01716
AFIX  43
H4    2    0.369931   -0.236775    0.493588    11.00000   -1.20000
AFIX   0
C5    1    0.404672   -0.039445    0.350856    11.00000    0.03806    0.02929 =
         0.03552   -0.01362    0.00279   -0.00973
AFIX  43
H5    2    0.484893   -0.111593    0.309822    11.00000   -1.20000
AFIX   0
C6    1    0.356216    0.143735    0.299113    11.00000    0.02606    0.02879 =
         0.03046   -0.01406   -0.00014   -0.00874
C7    1    0.412167    0.225723    0.172384    11.00000    0.03114    0.03354 =
         0.02959   -0.01659    0.00738   -0.01518
C8    1    0.562802    0.120579    0.131139    11.00000    0.03436    0.04260 =
         0.04196   -0.01922    0.00873   -0.01138
AFIX  43
H8    2    0.640306    0.010083    0.194082    11.00000   -1.20000
AFIX   0
C9    1    0.600511    0.177309   -0.003128    11.00000    0.04734    0.05446 =
         0.04676   -0.02908    0.02481   -0.02216
AFIX  43
H9    2    0.705563    0.107993   -0.026695    11.00000   -1.20000
AFIX   0
C10   1    0.484466    0.332521   -0.098325    11.00000    0.05672    0.05495 =
         0.03566   -0.02459    0.02180   -0.03459
AFIX  43
H10   2    0.505554    0.363707   -0.189019    11.00000   -1.20000
AFIX   0
C11   1    0.329456    0.449892   -0.061916    11.00000    0.04576    0.03862 =
         0.03023   -0.01734    0.01070   -0.02607
C12   1    0.207436    0.608764   -0.160877    11.00000    0.05793    0.04304 =
         0.03036   -0.01260    0.00684   -0.03215
AFIX  43
H12   2    0.225485    0.637306   -0.252360    11.00000   -1.20000
AFIX   0
C13   1    0.062584    0.722379   -0.125459    11.00000    0.05208    0.03441 =
         0.03346   -0.00357   -0.00801   -0.02378
AFIX  43
H13   2   -0.021826    0.823205   -0.193119    11.00000   -1.20000
AFIX   0
C14   1    0.041205    0.686743    0.013440    11.00000    0.04006    0.02900 =
         0.03928   -0.01256    0.00113   -0.01455
AFIX  43
H14   2   -0.054063    0.767990    0.037932    11.00000   -1.20000
AFIX   0
C15   1    0.159321    0.533359    0.113462    11.00000    0.03366    0.02887 =
         0.02768   -0.01244    0.00605   -0.01575
C16   1    0.300637    0.401717    0.078149    11.00000    0.03180    0.03220 =
         0.02625   -0.01353    0.00591   -0.01701
N1    3    0.244009    0.243658    0.365036    11.00000    0.02916    0.02571 =
         0.02447   -0.00912    0.00402   -0.01176
CL1   4    0.233541    0.464670    0.550145    11.00000    0.04991    0.04250 =
         0.03386   -0.02121    0.00141   -0.01121
CL2   4    0.086019    0.804221    0.254550    11.00000    0.06631    0.03125 =
         0.04507   -0.02025    0.02129   -0.02480
AU1   5    0.174612    0.506488    0.313793    11.00000    0.03109    0.02585 =
         0.02803   -0.01358    0.00778   -0.01227
HKLF    4

REM  10ISkR3 in P-1
REM R1 =  0.0254 for    3816 Fo > 4sig(Fo)  and  0.0309 for all    4396 data
REM    172 parameters refined using      0 restraints

END

WGHT      0.0292      0.0000

REM Highest difference peak  2.197,  deepest hole -0.649,  1-sigma level  0.149
Q1    1   0.2607  0.4424  0.2947  11.00000  0.05    2.20
Q2    1   0.0889  0.5771  0.3307  11.00000  0.05    2.11
Q3    1   0.1162  0.4386  0.3328  11.00000  0.05    1.46
Q4    1   0.2330  0.5570  0.2999  11.00000  0.05    1.46
Q5    1   0.0787  0.5546  0.2379  11.00000  0.05    1.40
Q6    1   0.2530  0.4722  0.3861  11.00000  0.05    1.35
Q7    1   0.1753  0.5794  0.3565  11.00000  0.05    0.79
Q8    1   0.0533  0.4723  0.2240  11.00000  0.05    0.65
Q9    1   0.1995  0.3960  0.5660  11.00000  0.05    0.58
Q10   1   0.1665  0.7268  0.2440  11.00000  0.05    0.55
;
_shelx_res_checksum              52378
_shelx_hkl_file
;
 -12  -8  -3 4615.18 892.345   3
 -12  -8  -2 840.254 706.622   3
 -12  -8  -1 3797.41 819.175   3
 -12  -8   0 1131.54 704.086   3
 -12  -7  -5 247.076 799.478   3
 -12  -7  -4 2479.43 850.647   3
 -12  -7  -3 4270.36 845.446   3
 -12  -7  -2-13.7470 669.990   3
 -12  -7  -1 5694.83 867.334   3
 -12  -7   0 3698.91 801.842   3
 -12  -7   1 1830.83 736.715   3
 -12  -7   2 4734.67 845.666   3
 -12  -6  -6 3317.59 861.078   3
 -12  -6  -5 899.611 759.282   3
 -12  -6  -4 3581.14 829.161   3
 -12  -6  -3 3084.50 817.899   3
 -12  -6  -2-113.110 678.647   3
 -12  -6  -1 5188.21 847.976   3
 -12  -6   0 3223.65 777.087   3
 -12  -6   1 1430.36 739.749   3
 -12  -6   2 6251.71 858.717   3
 -12  -6   3 1456.84 726.775   3
 -12  -5  -5 1207.93 784.662   3
 -12  -5  -4 3407.00 836.975   3
 -12  -5  -3 3084.56 815.806   3
 -12  -5  -2 247.026 679.455   3
 -12  -5  -1 4400.41 846.404   3
 -12  -5   0 2207.20 750.927   3
 -12  -5   1 1616.97 724.342   3
 -12  -5   2 5159.18 843.060   3
 -12  -5   3 1096.03 718.551   3
 -12  -4  -3 2646.83 826.832   3
 -12  -4  -3 3667.98 658.693   2
 -12  -4  -2-49.8368 734.573   3
 -12  -4  -2 101.141 552.693   2
 -12  -4  -1 3513.44 630.261   2
 -12  -4  -1 3293.53 823.682   3
 -12  -4   0 3664.51 793.381   3
 -12  -4   1 1530.27 718.807   3
 -12  -4   2 5339.86 834.701   3
 -12  -4   3 1497.00 705.095   3
 -12  -3  -3 2778.33 624.158   2
 -12  -3  -2 147.879 557.042   2
 -12  -3  -2-408.200 704.959   3
 -12  -3  -1 3816.48 857.730   3
 -12  -3  -1 5209.77 673.583   2
 -12  -3   0 4271.44 643.999   2
 -12  -3   0 3421.41 811.419   3
 -12  -3   1 1231.17 690.359   3
 -12  -3   2 5672.57 902.553   3
 -12  -3   3 1258.38 729.319   3
 -12  -2  -1 1578.53 786.177   3
 -12  -2   0 1239.45 751.214   3
 -12  -2   0 2124.11 643.660   2
 -12  -2   1-135.210 695.952   3
 -12  -2   2 3286.01 831.894   3
 -12  -2   3 2398.51 744.557   3
 -12  -1   1-101.711 701.949   3
 -12  -1   2 3978.74 839.418   3
 -11 -10  -4 738.890 767.538   3
 -11 -10  -3 4978.39 872.064   3
 -11 -10  -2 4735.05 852.580   3
 -11 -10  -1 1095.72 705.413   3
 -11 -10   0 6850.41 880.842   3
 -11 -10   1 462.665 679.113   3
 -11  -9  -6 2525.05 859.793   3
 -11  -9  -5 4934.10 907.892   3
 -11  -9  -4 136.247 714.655   3
 -11  -9  -3 3912.60 837.462   3
 -11  -9  -2 3889.38 799.529   3
 -11  -9  -1 42.0104 663.086   3
 -11  -9   0 7215.16 848.751   3
 -11  -9   1 2140.88 697.561   3
 -11  -9   2 873.459 629.802   3
 -11  -9   3 5028.00 820.327   3
 -11  -8  -8 4852.97 967.811   3
 -11  -8  -7 2202.60 870.086   3
 -11  -8  -6 3914.70 873.753   3
 -11  -8  -5 5180.69 885.465   3
 -11  -8  -4 214.671 725.996   3
 -11  -8  -3 8989.64 971.553   3
 -11  -8  -2 5636.38 832.570   3
 -11  -8  -1 66.6074 675.070   3
 -11  -8   0 7737.40 824.056   3
 -11  -8   1 1401.13 672.148   3
 -11  -8   2 1494.14 641.207   3
 -11  -8   3 5315.45 803.947   3
 -11  -8   4 644.854 647.934   3
 -11  -7  -8 3049.91 903.841   3
 -11  -7  -7 1928.31 841.835   3
 -11  -7  -6 1429.53 795.764   3
 -11  -7  -5 6388.69 922.124   3
 -11  -7  -4-216.242 703.903   3
 -11  -7  -3 9634.28 955.633   3
 -11  -7  -2 6382.94 860.178   3
 -11  -7  -1-147.849 602.139   3
 -11  -7   0 8618.05 846.413   3
 -11  -7   1 3564.78 713.399   3
 -11  -7   2 4320.33 716.599   3
 -11  -7   3 4993.35 753.431   3
 -11  -7   4 414.652 621.879   3
 -11  -7   5 3357.41 743.000   3
 -11  -6  -7 1565.10 841.912   3
 -11  -6  -6 1078.05 799.895   3
 -11  -6  -5 3451.49 805.659   3
 -11  -6  -4 143.315 697.416   3
 -11  -6  -3 5090.18 837.703   3
 -11  -6  -2 7900.81 850.310   3
 -11  -6  -1-143.667 606.798   3
 -11  -6   0 10806.8 893.276   3
 -11  -6   1 6276.18 777.480   3
 -11  -6   2 4078.42 733.557   3
 -11  -6   3 7159.21 816.417   3
 -11  -6   4 865.125 617.246   3
 -11  -6   5 7098.38 807.759   3
 -11  -6   6 7015.98 819.992   3
 -11  -5  -6 1092.29 808.465   3
 -11  -5  -5 4353.11 831.374   3
 -11  -5  -4 387.303 681.083   3
 -11  -5  -3 6291.35 833.436   3
 -11  -5  -2 8521.63 862.581   3
 -11  -5  -1 205.738 586.491   3
 -11  -5   0 7958.06 808.252   3
 -11  -5   1 2276.84 665.605   3
 -11  -5   2 1663.88 632.398   3
 -11  -5   3 7286.82 794.975   3
 -11  -5   4 2093.38 674.032   3
 -11  -5   5 6157.91 779.600   3
 -11  -5   6 7011.85 821.158   3
 -11  -4  -5 5494.99 627.647   2
 -11  -4  -5 5024.82 849.173   3
 -11  -4  -4 625.846 636.064   3
 -11  -4  -4 556.127 495.948   2
 -11  -4  -3 7180.46 853.580   3
 -11  -4  -3 6187.70 622.431   2
 -11  -4  -2 7649.04 823.589   3
 -11  -4  -2 7586.98 626.303   2
 -11  -4  -1-153.691 448.212   2
 -11  -4  -1-34.0500 612.645   3
 -11  -4   0 6198.90 790.925   3
 -11  -4   1 3252.97 716.883   3
 -11  -4   2 1831.19 628.214   3
 -11  -4   3 8198.24 822.826   3
 -11  -4   4 1436.54 615.544   3
 -11  -4   5 3451.68 701.474   3
 -11  -4   6 4837.84 736.200   3
 -11  -4   7 663.467 659.862   3
 -11  -3  -6 441.307 570.224   2
 -11  -3  -5 5523.61 675.634   2
 -11  -3  -4 777.159 541.301   2
 -11  -3  -3 4533.08 596.693   2
 -11  -3  -3 4390.70 777.291   3
 -11  -3  -2 7187.34 855.856   3
 -11  -3  -2 7437.39 641.406   2
 -11  -3  -1 38.3638 498.029   2
 -11  -3  -1 468.622 623.586   3
 -11  -3   0 9721.26 878.670   3
 -11  -3   0 10892.6 721.278   2
 -11  -3   1 7658.00 812.078   3
 -11  -3   2 1163.70 595.304   3
 -11  -3   3 11023.5 894.734   3
 -11  -3   4 1162.96 629.522   3
 -11  -3   5 4501.94 736.921   3
 -11  -3   6 6442.20 801.053   3
 -11  -2  -5 4273.37 681.457   2
 -11  -2  -4 209.705 542.469   2
 -11  -2  -3 3736.19 607.140   2
 -11  -2  -2 3914.98 706.103   3
 -11  -2  -2 5192.40 652.324   2
 -11  -2  -1 3.36293 621.422   3
 -11  -2  -1-119.919 503.662   2
 -11  -2   0 7383.51 813.280   3
 -11  -2   0 5494.37 637.691   2
 -11  -2   1 2442.82 558.382   2
 -11  -2   1 2317.88 648.028   3
 -11  -2   2 1402.86 631.859   3
 -11  -2   3 10021.0 886.750   3
 -11  -2   4 2779.25 674.351   3
 -11  -2   5 2883.47 695.364   3
 -11  -2   6 9361.38 863.891   3
 -11  -1  -3 2173.16 605.310   2
 -11  -1  -2 5101.12 663.406   2
 -11  -1  -1-177.601 515.046   2
 -11  -1   0 3576.97 723.798   3
 -11  -1   0 4633.54 644.052   2
 -11  -1   1 3503.87 610.020   2
 -11  -1   1 3249.06 691.096   3
 -11  -1   2 1156.58 617.135   3
 -11  -1   2 1142.50 557.052   2
 -11  -1   3 7137.44 809.565   3
 -11  -1   4 2033.29 665.258   3
 -11  -1   5 2017.41 668.068   3
 -11  -1   6 7449.82 826.073   3
 -11   0  -1 509.513 572.782   2
 -11   0   0 2594.71 643.431   2
 -11   0   1 4537.15 690.042   2
 -11   0   1 3551.09 716.236   3
 -11   0   2 725.001 621.596   3
 -11   0   2 712.640 587.066   2
 -11   0   3 7990.21 833.153   3
 -11   0   4 1426.88 657.358   3
 -11   0   5 3216.94 698.085   3
 -11   1   3 7208.74 816.321   3
 -11   1   4 1518.85 655.602   3
 -10 -11  -6 1815.03 846.701   3
 -10 -11  -5 7622.37 983.018   3
 -10 -11  -4 4695.10 870.969   3
 -10 -11  -3-389.651 732.342   3
 -10 -11  -2 6299.49 877.758   3
 -10 -11  -1 3728.67 770.749   3
 -10 -11   0 1188.39 703.056   3
 -10 -10  -8 1199.55 828.321   3
 -10 -10  -7 6631.98 943.155   3
 -10 -10  -6 1579.37 783.144   3
 -10 -10  -5 7650.16 926.500   3
 -10 -10  -4 7712.57 924.846   3
 -10 -10  -3 289.575 677.308   3
 -10 -10  -2 7923.80 883.559   3
 -10 -10  -1 6738.51 851.867   3
 -10 -10   0 2570.90 700.075   3
 -10 -10   1 8919.61 859.036   3
 -10 -10   2 1241.87 676.855   3
 -10  -9  -9 1898.07 833.557   3
 -10  -9  -8 1609.83 799.934   3
 -10  -9  -7 7352.43 940.785   3
 -10  -9  -6 1653.16 730.369   3
 -10  -9  -5 3799.47 821.430   3
 -10  -9  -4 4664.31 820.031   3
 -10  -9  -3 99.6848 645.723   3
 -10  -9  -2 5581.11 772.049   3
 -10  -9  -1 6702.79 807.316   3
 -10  -9   0 2175.07 672.076   3
 -10  -9   1 9710.59 836.264   3
 -10  -9   2 2634.74 664.031   3
 -10  -9   3 3721.65 705.955   3
 -10  -8 -10 4310.38 962.918   3
 -10  -8  -9 3789.12 866.698   3
 -10  -8  -8 2774.48 806.184   3
 -10  -8  -7 11110.4 1036.40   3
 -10  -8  -6 2249.57 771.186   3
 -10  -8  -5 7265.04 877.269   3
 -10  -8  -4 12624.4 1002.79   3
 -10  -8  -3 624.029 609.406   3
 -10  -8  -2 7313.96 826.176   3
 -10  -8  -1 7257.13 786.463   3
 -10  -8   0 1126.86 623.847   3
 -10  -8   1 10829.2 849.224   3
 -10  -8   2 3822.62 658.346   3
 -10  -8   3 1995.79 622.833   3
 -10  -8   4 6136.11 737.657   3
 -10  -8   5 443.714 617.862   3
 -10  -7  -9 1719.67 818.738   3
 -10  -7  -8 724.287 745.590   3
 -10  -7  -7 10100.2 976.082   3
 -10  -7  -6 3703.18 789.596   3
 -10  -7  -5 6204.21 828.814   3
 -10  -7  -4 12742.6 987.419   3
 -10  -7  -3 453.347 608.104   3
 -10  -7  -2 16815.1 1002.55   3
 -10  -7  -1 8748.26 823.107   3
 -10  -7   0 2526.71 642.787   3
 -10  -7   1 11900.4 857.348   3
 -10  -7   2 3215.78 661.221   3
 -10  -7   3 2961.57 622.516   3
 -10  -7   4 7417.01 760.081   3
 -10  -7   5-7.54418 571.243   3
 -10  -7   6 3459.72 676.031   3
 -10  -6  -8 1436.65 757.912   3
 -10  -6  -7 7977.18 933.025   3
 -10  -6  -6 3587.14 787.794   3
 -10  -6  -5 2715.81 723.849   3
 -10  -6  -4 8552.61 877.564   3
 -10  -6  -3 261.918 629.675   3
 -10  -6  -2 10467.4 868.206   3
 -10  -6  -1 9725.15 849.233   3
 -10  -6   0 742.499 551.153   3
 -10  -6   1 18866.3 971.719   3
 -10  -6   2 9758.70 770.971   3
 -10  -6   3 4826.02 668.793   3
 -10  -6   4 10530.5 823.444   3
 -10  -6   5 23.3394 540.802   3
 -10  -6   6 6196.48 721.305   3
 -10  -6   7 5947.98 757.388   3
 -10  -5  -7 7364.98 891.240   3
 -10  -5  -6 3268.41 745.364   3
 -10  -5  -5 3742.37 788.057   3
 -10  -5  -4 9447.71 883.269   3
 -10  -5  -3 409.086 609.335   3
 -10  -5  -3 343.247 358.083   2
 -10  -5  -2 6713.97 758.420   3
 -10  -5  -2 7174.91 511.697   2
 -10  -5  -1 8875.03 778.565   3
 -10  -5   0 222.041 514.394   3
 -10  -5   1 16249.8 914.900   3
 -10  -5   2 5064.96 663.930   3
 -10  -5   3 2742.31 602.867   3
 -10  -5   4 14576.0 885.612   3
 -10  -5   5 1251.14 575.261   3
 -10  -5   6 6953.39 723.080   3
 -10  -5   7 7656.06 773.985   3
 -10  -5   8 464.034 622.678   3
 -10  -4  -6 2402.88 743.959   3
 -10  -4  -6 3526.80 536.241   2
 -10  -4  -5 1651.99 474.950   2
 -10  -4  -5 1012.85 672.898   3
 -10  -4  -4 12024.5 900.504   3
 -10  -4  -4 11978.1 662.777   2
 -10  -4  -3 43.0252 396.025   2
 -10  -4  -3 178.044 554.180   3
 -10  -4  -2 8743.11 786.360   3
 -10  -4  -2 9303.01 586.368   2
 -10  -4  -1 10331.8 614.471   2
 -10  -4  -1 10359.9 812.385   3
 -10  -4   0 492.765 527.700   3
 -10  -4   1 15972.6 924.289   3
 -10  -4   2 4129.93 638.245   3
 -10  -4   3 1758.11 557.564   3
 -10  -4   4 10163.2 798.346   3
 -10  -4   5 555.880 528.516   3
 -10  -4   6 6170.19 716.747   3
 -10  -4   7 5759.80 716.023   3
 -10  -4   8 47.4732 579.077   3
 -10  -4   9 5106.27 731.613   3
 -10  -3  -8-21.4666 571.825   2
 -10  -3  -7 4436.37 641.901   2
 -10  -3  -6 3522.15 583.568   2
 -10  -3  -5 699.934 484.783   2
 -10  -3  -4 10191.8 851.985   3
 -10  -3  -4 12591.3 723.751   2
 -10  -3  -3-128.392 433.459   2
 -10  -3  -3 297.045 553.892   3
 -10  -3  -2 5808.95 540.328   2
 -10  -3  -2 5754.25 708.794   3
 -10  -3  -1 15673.3 935.097   3
 -10  -3  -1 16879.6 757.708   2
 -10  -3   0-94.5758 403.312   2
 -10  -3   0 306.453 522.808   3
 -10  -3   1 17431.2 954.605   3
 -10  -3   2 7480.93 723.860   3
 -10  -3   3 2089.08 577.838   3
 -10  -3   4 11529.6 803.764   3
 -10  -3   5 1527.15 565.596   3
 -10  -3   6 6185.65 708.136   3
 -10  -3   7 5828.47 703.478   3
 -10  -3   8-230.765 569.605   3
 -10  -3   9 4088.21 705.472   3
 -10  -2  -7 3898.89 703.227   2
 -10  -2  -6 2504.63 604.133   2
 -10  -2  -5 1720.81 527.993   2
 -10  -2  -4 7844.71 663.184   2
 -10  -2  -3-131.904 426.179   2
 -10  -2  -3-52.7976 521.171   3
 -10  -2  -2 4310.57 526.388   2
 -10  -2  -2 4676.13 680.950   3
 -10  -2  -1 11781.6 687.082   2
 -10  -2  -1 12000.7 843.651   3
 -10  -2   0 19.0118 506.000   3
 -10  -2   0 184.785 424.444   2
 -10  -2   1 19645.4 823.077   2
 -10  -2   1 21806.3 1012.38   3
 -10  -2   2 7345.42 698.625   3
 -10  -2   3 1329.63 560.970   3
 -10  -2   4 16733.1 928.208   3
 -10  -2   5 1129.71 546.366   3
 -10  -2   6 7589.16 752.720   3
 -10  -2   7 12325.4 856.266   3
 -10  -2   8-8.71488 561.758   3
 -10  -2   9 6456.56 749.371   3
 -10  -1  -6 2507.34 675.693   2
 -10  -1  -5 540.913 541.242   2
 -10  -1  -4 5365.39 657.798   2
 -10  -1  -3 677.601 512.561   2
 -10  -1  -2 6135.60 623.494   2
 -10  -1  -1 9212.62 742.703   3
 -10  -1  -1 9466.09 693.045   2
 -10  -1   0 175.515 482.247   3
 -10  -1   0 82.8043 415.052   2
 -10  -1   1 8918.23 667.994   2
 -10  -1   1 9044.13 759.714   3
 -10  -1   2 4275.64 554.838   2
 -10  -1   2 3382.81 616.882   3
 -10  -1   3 602.590 539.014   3
 -10  -1   4 10961.9 806.570   3
 -10  -1   5 1395.87 570.756   3
 -10  -1   6 4060.15 637.462   3
 -10  -1   7 12492.5 865.985   3
 -10  -1   8-222.338 549.151   3
 -10   0  -5 406.675 588.872   2
 -10   0  -4 5801.57 716.729   2
 -10   0  -3 725.083 537.764   2
 -10   0  -2 4796.57 648.168   2
 -10   0  -1 10591.3 755.616   2
 -10   0   0-276.982 545.777   3
 -10   0   0 123.950 457.362   2
 -10   0   1 8948.26 744.187   3
 -10   0   1 7969.21 674.422   2
 -10   0   2 5901.56 663.269   3
 -10   0   2 5432.15 654.001   2
 -10   0   3 1051.60 543.552   3
 -10   0   3 1145.39 535.913   2
 -10   0   4 9657.42 770.538   3
 -10   0   5 1316.64 552.429   3
 -10   0   6 6671.56 711.162   3
 -10   0   7 10252.3 816.617   3
 -10   0   8 121.276 551.013   3
 -10   1  -3 819.122 601.202   2
 -10   1  -2 3197.73 658.799   2
 -10   1  -1 7805.13 736.704   2
 -10   1   0 194.826 529.696   2
 -10   1   1 7762.84 711.903   2
 -10   1   2 7291.51 698.256   3
 -10   1   2 7643.82 696.594   2
 -10   1   3 650.714 503.022   3
 -10   1   3 69.3714 511.519   2
 -10   1   4 11340.9 786.850   3
 -10   1   5 1434.39 563.284   3
 -10   1   6 3628.45 634.434   3
 -10   1   7 7114.34 746.396   3
 -10   2   0 284.750 555.615   2
 -10   2   1 4015.40 671.205   2
 -10   2   2 2839.66 629.806   2
 -10   2   3 925.376 527.716   3
 -10   2   3 1013.13 554.841   2
 -10   2   4 5841.73 686.438   3
 -10   2   5 2876.64 593.686   3
 -10   2   6 2440.69 624.599   3
 -10   2   7 9288.64 845.924   3
 -10   3   5 2807.19 670.796   3
  -9 -12  -5 315.356 756.634   3
  -9 -12  -4 4391.70 886.547   3
  -9 -12  -3 2799.35 787.993   3
  -9 -12  -2 511.439 713.643   3
  -9 -11  -5 268.049 690.577   3
  -9 -11  -4 6769.38 866.420   3
  -9 -11  -3 6798.21 858.904   3
  -9 -11  -2 196.417 653.859   3
  -9 -11  -1 6796.66 815.972   3
  -9 -11   0 2482.55 664.721   3
  -9 -10  -5 2078.29 707.036   3
  -9 -10  -4 12057.8 974.295   3
  -9 -10  -3 16339.1 1038.32   3
  -9 -10  -2 670.541 644.624   3
  -9 -10  -1 12216.2 933.434   3
  -9 -10   0 3827.65 692.452   3
  -9 -10   1 2948.98 670.564   3
  -9  -9  -5 1932.83 665.489   3
  -9  -9  -4 8613.55 859.344   3
  -9  -9  -3 10342.7 888.559   3
  -9  -9  -2 370.965 587.017   3
  -9  -9  -1 14455.8 937.219   3
  -9  -9   0 9136.81 793.366   3
  -9  -9   1 2496.92 611.746   3
  -9  -9   2 12326.3 848.065   3
  -9  -9   3 709.192 534.043   3
  -9  -8  -6 14737.9 1020.53   3
  -9  -8  -5 1128.34 622.778   3
  -9  -8  -4 14168.6 950.958   3
  -9  -8  -3 15809.6 963.951   3
  -9  -8  -2 1872.31 603.439   3
  -9  -8  -1 9057.84 771.172   3
  -9  -8   0 5948.41 680.484   3
  -9  -8   1 1025.57 531.257   3
  -9  -8   2 13636.2 825.797   3
  -9  -8   3 5389.94 662.201   3
  -9  -8   4 4379.49 638.432   3
  -9  -7  -8 6082.11 811.866   3
  -9  -7  -7 2153.47 720.589   3
  -9  -7  -6 20336.7 1116.58   3
  -9  -7  -5 2760.18 668.208   3
  -9  -7  -4 15673.4 964.508   3
  -9  -7  -3 22203.5 1090.01   3
  -9  -7  -2 207.453 548.079   3
  -9  -7  -1 22147.9 1032.30   3
  -9  -7   0 10128.3 765.902   3
  -9  -7   1 3139.35 592.956   3
  -9  -7   2 14345.2 826.828   3
  -9  -7   3 2171.70 540.608   3
  -9  -7   4 5951.21 644.059   3
  -9  -7   5 10603.1 762.731   3
  -9  -7   6 677.282 524.611   3
  -9  -6  -9 6611.57 867.539   3
  -9  -6  -8 3044.66 761.086   3
  -9  -6  -7 1105.85 650.389   3
  -9  -6  -6 13916.9 989.049   3
  -9  -6  -5 1022.56 596.027   3
  -9  -6  -4 9488.66 829.128   3
  -9  -6  -3 31459.0 1212.20   3
  -9  -6  -2 594.101 539.617   3
  -9  -6  -1 17409.8 925.320   3
  -9  -6   0 17817.5 909.604   3
  -9  -6   1 2550.29 537.083   3
  -9  -6   2 19464.6 923.214   3
  -9  -6   3 5046.22 589.844   3
  -9  -6   4 8165.35 715.571   3
  -9  -6   5 13165.0 804.035   3
  -9  -6   6 89.1550 523.105   3
  -9  -6   7 3771.40 618.609   3
  -9  -5  -8 4154.50 793.839   3
  -9  -5  -7 630.530 667.983   3
  -9  -5  -6 14831.6 978.204   3
  -9  -5  -5 2921.56 642.761   3
  -9  -5  -4 6509.90 748.708   3
  -9  -5  -4 6695.18 469.872   2
  -9  -5  -3 19736.6 1004.35   3
  -9  -5  -3 17862.1 622.273   2
  -9  -5  -2 586.173 507.622   3
  -9  -5  -2 261.561 297.085   2
  -9  -5  -1 7359.98 700.205   3
  -9  -5   0 16007.0 851.576   3
  -9  -5   1 1595.84 491.833   3
  -9  -5   2 31418.0 1081.26   3
  -9  -5   3 5371.11 602.076   3
  -9  -5   4 5379.20 606.461   3
  -9  -5   5 23312.8 961.468   3
  -9  -5   6 860.839 484.207   3
  -9  -5   7 8800.02 731.610   3
  -9  -5   8 7109.73 691.699   3
  -9  -4  -7 1322.73 651.479   3
  -9  -4  -7 1254.20 464.833   2
  -9  -4  -6 16867.8 740.199   2
  -9  -4  -6 15148.5 955.164   3
  -9  -4  -5 3404.87 686.260   3
  -9  -4  -5 3597.21 446.562   2
  -9  -4  -4 10664.5 818.042   3
  -9  -4  -4 11839.4 587.754   2
  -9  -4  -3 21409.7 721.101   2
  -9  -4  -3 22631.6 1049.85   3
  -9  -4  -2 1112.00 322.900   2
  -9  -4  -2 1604.67 528.684   3
  -9  -4  -1 11520.1 776.264   3
  -9  -4  -1 11960.2 578.111   2
  -9  -4   0 12591.2 787.438   3
  -9  -4   0 13716.8 604.090   2
  -9  -4   1 2437.63 501.083   3
  -9  -4   2 22845.3 946.646   3
  -9  -4   3 2771.43 520.498   3
  -9  -4   4 1249.93 463.979   3
  -9  -4   5 26303.1 998.198   3
  -9  -4   6 936.444 502.384   3
  -9  -4   7 7481.85 688.258   3
  -9  -4   8 5683.17 673.627   3
  -9  -4   9 71.3456 539.391   3
  -9  -4  10 7626.51 763.935   3
  -9  -3 -10 187.821 605.489   2
  -9  -3  -9 2115.72 635.440   2
  -9  -3  -8 3523.14 580.996   2
  -9  -3  -7 1960.41 506.563   2
  -9  -3  -6 10085.5 650.422   2
  -9  -3  -5 3259.20 627.625   3
  -9  -3  -5 3447.94 499.121   2
  -9  -3  -4 3894.46 459.206   2
  -9  -3  -4 2851.24 618.710   3
  -9  -3  -3 22076.3 988.325   3
  -9  -3  -3 22693.2 778.427   2
  -9  -3  -2 1911.97 412.474   2
  -9  -3  -2 1678.16 528.044   3
  -9  -3  -1 15987.3 841.876   3
  -9  -3  -1 16228.8 667.481   2
  -9  -3   0 14601.0 655.381   2
  -9  -3   0 14078.8 797.896   3
  -9  -3   1 1566.09 490.752   3
  -9  -3   1 1890.58 382.216   2
  -9  -3   2 20340.3 920.644   3
  -9  -3   3 5702.09 598.510   3
  -9  -3   4 4336.54 560.158   3
  -9  -3   5 18936.5 888.443   3
  -9  -3   6 476.064 464.875   3
  -9  -3   7 5930.38 642.838   3
  -9  -3   8 4201.40 630.815   3
  -9  -3   9 90.6284 509.757   3
  -9  -3  10 8258.20 749.778   3
  -9  -2  -9 1457.04 632.999   2
  -9  -2  -8 2577.61 608.770   2
  -9  -2  -7 604.564 544.324   2
  -9  -2  -6 8313.21 658.738   2
  -9  -2  -5 4261.87 533.829   2
  -9  -2  -4 4628.16 529.712   2
  -9  -2  -4 4610.64 606.835   3
  -9  -2  -3 18328.1 907.227   3
  -9  -2  -3 21626.1 812.898   2
  -9  -2  -2 1897.37 421.175   2
  -9  -2  -2 1475.03 503.837   3
  -9  -2  -1 9164.90 567.425   2
  -9  -2  -1 8926.94 709.641   3
  -9  -2   0 14692.3 664.047   2
  -9  -2   0 14456.8 813.825   3
  -9  -2   1 743.813 435.424   3
  -9  -2   1 971.322 372.165   2
  -9  -2   2 34721.7 1106.36   3
  -9  -2   3 19766.3 879.679   3
  -9  -2   4 3916.63 560.226   3
  -9  -2   5 22487.3 938.346   3
  -9  -2   6 916.540 480.507   3
  -9  -2   7 10115.4 744.297   3
  -9  -2   8 10113.5 746.139   3
  -9  -2   9-39.4899 537.601   3
  -9  -2  10 6420.68 712.623   3
  -9  -1  -8 2599.66 680.178   2
  -9  -1  -7 222.830 536.609   2
  -9  -1  -6 8167.95 719.151   2
  -9  -1  -5 4911.94 603.590   2
  -9  -1  -4 3448.25 539.878   2
  -9  -1  -3 9855.90 714.474   3
  -9  -1  -3 11088.5 671.339   2
  -9  -1  -2 328.768 442.941   3
  -9  -1  -2 901.828 416.453   2
  -9  -1  -1 8122.98 574.422   2
  -9  -1  -1 8257.81 645.329   3
  -9  -1   0 11953.6 748.369   3
  -9  -1   0 10793.1 638.929   2
  -9  -1   1 586.352 437.834   3
  -9  -1   1 900.558 389.499   2
  -9  -1   2 17263.1 839.248   3
  -9  -1   2 17231.4 744.201   2
  -9  -1   3 7407.71 634.112   3
  -9  -1   4 3873.79 550.680   3
  -9  -1   5 21804.8 925.378   3
  -9  -1   6 2276.23 515.840   3
  -9  -1   7 7242.37 663.228   3
  -9  -1   8 11263.0 762.853   3
  -9  -1   9 205.394 506.189   3
  -9  -1  10 10941.1 817.230   3
  -9   0  -7 258.368 593.200   2
  -9   0  -6 5424.01 703.688   2
  -9   0  -5 4431.48 636.518   2
  -9   0  -4 1631.91 533.987   2
  -9   0  -3 11838.8 757.461   2
  -9   0  -2 1758.74 475.039   2
  -9   0  -1 5527.01 576.904   3
  -9   0  -1 6990.43 611.900   2
  -9   0   0 12384.6 734.144   3
  -9   0   0 11079.1 671.439   2
  -9   0   1 1060.79 466.063   3
  -9   0   1 592.656 426.371   2
  -9   0   2 17087.5 779.313   2
  -9   0   2 16592.4 821.142   3
  -9   0   3 10737.3 702.660   3
  -9   0   3 10998.9 698.042   2
  -9   0   4 2113.58 495.181   3
  -9   0   5 11807.7 746.493   3
  -9   0   6 2288.74 510.445   3
  -9   0   7 6714.94 649.173   3
  -9   0   8 9878.62 746.085   3
  -9   0   9 414.083 501.908   3
  -9   0  10 9272.06 783.934   3
  -9   1  -5 5736.90 709.205   2
  -9   1  -4 1433.35 560.809   2
  -9   1  -3 7521.91 693.472   2
  -9   1  -2 2152.55 533.486   2
  -9   1  -1 5274.20 590.130   2
  -9   1   0 13798.1 741.813   3
  -9   1   0 13379.4 761.462   2
  -9   1   1 112.376 411.459   3
  -9   1   1 217.042 427.018   2
  -9   1   2 17922.0 843.881   3
  -9   1   2 18131.6 830.062   2
  -9   1   3 10437.1 696.411   3
  -9   1   3 12231.0 734.555   2
  -9   1   4 696.766 440.508   3
  -9   1   5 15579.4 814.565   3
  -9   1   6 1084.34 491.404   3
  -9   1   7 8484.55 691.444   3
  -9   1   8 6648.92 684.298   3
  -9   1   9-161.451 522.434   3
  -9   2  -4 1529.29 633.656   2
  -9   2  -3 5070.59 693.079   2
  -9   2  -2 1129.01 557.615   2
  -9   2  -1 4892.59 643.146   2
  -9   2   0 5972.84 643.496   2
  -9   2   1 104.516 496.656   2
  -9   2   2 15243.0 767.482   3
  -9   2   2 14022.1 794.673   2
  -9   2   3 9798.51 715.188   2
  -9   2   3 10031.5 670.611   3
  -9   2   4 1127.82 520.345   2
  -9   2   4 1218.36 472.291   3
  -9   2   5 14258.4 788.204   3
  -9   2   6 3430.30 550.776   3
  -9   2   7 4642.22 615.090   3
  -9   2   8 10214.2 781.879   3
  -9   2   9 234.684 525.845   3
  -9   3  -2 1188.91 618.568   2
  -9   3  -1 2479.33 645.415   2
  -9   3   0 5565.39 686.447   2
  -9   3   1 40.6276 503.706   2
  -9   3   2 8977.29 733.077   2
  -9   3   3 5620.74 678.037   2
  -9   3   4 584.439 550.260   2
  -9   3   4 167.656 449.321   3
  -9   3   5 5322.45 640.713   3
  -9   3   6 3658.96 599.421   3
  -9   3   7 5320.15 648.623   3
  -9   3   8 8105.25 762.830   3
  -9   4   1-123.515 572.828   2
  -9   4   2 6926.41 720.747   2
  -9   4   3 5811.89 733.420   2
  -9   4   4 683.250 572.641   2
  -9   4   5 5865.79 666.602   3
  -9   4   6 1050.01 564.405   3
  -9   4   7 6583.75 714.064   3
  -8 -13  -4 59.0708 793.729   3
  -8 -12  -3 4969.98 804.019   3
  -8 -12  -2 4668.77 825.993   3
  -8 -11  -3 6642.45 825.925   3
  -8 -11  -2 5483.82 778.070   3
  -8 -11  -1-36.5626 629.967   3
  -8 -10  -3 10656.9 881.861   3
  -8 -10  -2 10753.9 883.916   3
  -8 -10  -1 1127.01 590.497   3
  -8 -10   0 19261.1 987.092   3
  -8 -10   1 3778.96 648.254   3
  -8  -9  -3 9194.37 798.044   3
  -8  -9  -2 22425.3 1053.04   3
  -8  -9  -1 817.528 534.398   3
  -8  -9   0 27059.2 1068.72   3
  -8  -9   1 9059.85 743.344   3
  -8  -9   2 4069.08 592.013   3
  -8  -8  -3 4757.03 646.025   3
  -8  -8  -2 12699.2 844.962   3
  -8  -8  -1 293.918 484.236   3
  -8  -8   0 20226.9 945.122   3
  -8  -8   1 9427.40 700.002   3
  -8  -8   2 829.533 457.681   3
  -8  -8   3 15052.0 802.622   3
  -8  -8   4 2063.91 506.696   3
  -8  -7  -4 1578.14 554.767   3
  -8  -7  -3 20254.5 965.272   3
  -8  -7  -2 29617.3 1122.80   3
  -8  -7  -1 220.186 479.268   3
  -8  -7   0 32296.4 1087.38   3
  -8  -7   1 9104.12 687.339   3
  -8  -7   2 721.637 422.760   3
  -8  -7   3 17088.9 805.916   3
  -8  -7   4 2338.30 514.376   3
  -8  -7   5 4391.74 560.389   3
  -8  -6  -5 24100.1 1056.23   3
  -8  -6  -4 3237.67 589.224   3
  -8  -6  -3 22211.9 986.028   3
  -8  -6  -2 38288.5 1223.87   3
  -8  -6  -1 304.836 458.028   3
  -8  -6   0 43711.0 1218.32   3
  -8  -6   1 16184.8 790.691   3
  -8  -6   2 3699.81 505.307   3
  -8  -6   3 18406.2 813.444   3
  -8  -6   4 996.710 446.895   3
  -8  -6   5 9211.34 640.826   3
  -8  -6   6 14533.8 779.745   3
  -8  -5  -9 1426.97 648.112   3
  -8  -5  -8 10997.4 894.189   3
  -8  -5  -7 9647.31 823.799   3
  -8  -5  -6 1378.11 601.933   3
  -8  -5  -5 17490.0 591.337   2
  -8  -5  -5 18492.9 951.132   3
  -8  -5  -4 2202.20 309.670   2
  -8  -5  -4 2295.04 560.533   3
  -8  -5  -3 9098.78 423.933   2
  -8  -5  -3 10698.2 764.204   3
  -8  -5  -2 25848.1 649.324   2
  -8  -5  -2 29577.5 1060.00   3
  -8  -5  -1-20.9466 435.076   3
  -8  -5   0 31325.1 1039.89   3
  -8  -5   1 25729.2 926.303   3
  -8  -5   2 1214.85 417.712   3
  -8  -5   3 36686.0 1063.43   3
  -8  -5   4 8298.20 611.630   3
  -8  -5   5 13354.9 716.739   3
  -8  -5   6 19921.9 840.279   3
  -8  -5   7 34.2611 422.597   3
  -8  -5   8 9071.00 679.301   3
  -8  -4  -8 16416.6 976.942   3
  -8  -4  -8 16525.9 748.438   2
  -8  -4  -7 18157.1 725.336   2
  -8  -4  -7 20589.2 1042.30   3
  -8  -4  -6 671.200 337.985   2
  -8  -4  -6 976.133 577.048   3
  -8  -4  -5 21322.4 1019.39   3
  -8  -4  -5 20638.9 687.961   2
  -8  -4  -4 1997.28 342.767   2
  -8  -4  -4 2057.69 526.750   3
  -8  -4  -3 19939.4 939.846   3
  -8  -4  -3 18910.6 620.584   2
  -8  -4  -2 32347.0 755.582   2
  -8  -4  -2 35423.8 1135.76   3
  -8  -4  -1 559.700 278.232   2
  -8  -4  -1 563.116 408.188   3
  -8  -4   0 18105.1 597.055   2
  -8  -4   0 20854.4 871.169   3
  -8  -4   1 19394.0 815.157   3
  -8  -4   2 470.912 381.786   3
  -8  -4   3 26639.9 914.346   3
  -8  -4   4 4300.15 507.323   3
  -8  -4   5 11617.0 681.834   3
  -8  -4   6 27564.4 942.302   3
  -8  -4   7 2231.70 498.221   3
  -8  -4   8 11491.7 723.139   3
  -8  -4   9 9288.54 682.576   3
  -8  -3 -11 2812.38 700.354   2
  -8  -3 -10 5413.67 668.329   2
  -8  -3  -9 195.678 498.583   2
  -8  -3  -8 9890.92 687.765   2
  -8  -3  -7 8464.33 609.189   2
  -8  -3  -6 650.719 376.330   2
  -8  -3  -6 826.436 538.809   3
  -8  -3  -5 21328.2 990.820   3
  -8  -3  -5 23571.1 772.771   2
  -8  -3  -4 2778.61 387.142   2
  -8  -3  -4 3033.86 536.029   3
  -8  -3  -3 16707.2 628.048   2
  -8  -3  -3 15198.6 811.370   3
  -8  -3  -2 36657.9 1128.56   3
  -8  -3  -2 38033.5 864.676   2
  -8  -3  -1 411.061 271.359   2
  -8  -3  -1 203.807 411.738   3
  -8  -3   0 34352.2 827.677   2
  -8  -3   0 32962.8 1022.72   3
  -8  -3   1 19582.7 805.603   3
  -8  -3   1 21255.4 667.932   2
  -8  -3   2 4271.52 497.187   3
  -8  -3   3 20593.9 812.318   3
  -8  -3   4 5519.13 523.931   3
  -8  -3   5 10101.3 627.284   3
  -8  -3   6 18548.9 794.555   3
  -8  -3   7 1540.37 442.494   3
  -8  -3   8 8464.60 643.772   3
  -8  -3   9 8077.00 669.991   3
  -8  -3  10-113.874 500.757   3
  -8  -2 -10 3779.71 716.959   2
  -8  -2  -9 26.9150 506.109   2
  -8  -2  -8 7967.41 679.175   2
  -8  -2  -7 5609.04 577.986   2
  -8  -2  -6 92.6013 404.185   2
  -8  -2  -5 14267.3 676.611   2
  -8  -2  -5 12333.1 766.403   3
  -8  -2  -4 5670.24 605.421   3
  -8  -2  -4 6770.64 516.941   2
  -8  -2  -3 12312.8 600.858   2
  -8  -2  -3 11648.8 701.875   3
  -8  -2  -2 28318.2 969.108   3
  -8  -2  -2 32682.7 849.277   2
  -8  -2  -1 3965.94 482.631   3
  -8  -2  -1 3389.69 402.800   2
  -8  -2   0 26397.0 760.971   2
  -8  -2   0 26208.2 903.978   3
  -8  -2   1 33475.7 1002.63   3
  -8  -2   1 33875.7 872.159   2
  -8  -2   2 365.407 314.311   2
  -8  -2   2 555.126 381.071   3
  -8  -2   3 29975.5 943.797   3
  -8  -2   4 11809.7 662.283   3
  -8  -2   5 15327.8 742.778   3
  -8  -2   6 25682.5 903.282   3
  -8  -2   7 1274.95 437.738   3
  -8  -2   8 6878.01 600.965   3
  -8  -2   9 8732.41 688.358   3
  -8  -2  10 415.834 488.963   3
  -8  -2  11 5460.07 673.502   3
  -8  -1  -9 289.236 597.980   2
  -8  -1  -8 5317.66 653.077   2
  -8  -1  -7 6534.28 673.108   2
  -8  -1  -6 100.205 449.122   2
  -8  -1  -5 11171.0 675.783   2
  -8  -1  -4 3334.86 458.601   2
  -8  -1  -3 19684.1 809.479   3
  -8  -1  -3 20743.6 773.786   2
  -8  -1  -2 15147.2 660.626   2
  -8  -1  -2 15930.9 754.276   3
  -8  -1  -1 5232.74 455.284   2
  -8  -1  -1 5858.92 536.160   3
  -8  -1   0 18556.0 692.383   2
  -8  -1   0 18033.7 771.918   3
  -8  -1   1 19321.3 701.069   2
  -8  -1   1 20870.4 803.444   3
  -8  -1   2 1958.29 410.656   3
  -8  -1   2 2730.71 411.870   2
  -8  -1   3 34631.6 999.073   3
  -8  -1   4 12096.6 659.622   3
  -8  -1   5 9536.69 614.347   3
  -8  -1   6 39608.2 1111.67   3
  -8  -1   7 2292.89 467.109   3
  -8  -1   8 11494.5 694.079   3
  -8  -1   9 14571.3 793.105   3
  -8  -1  10 1009.58 503.369   3
  -8  -1  11 8779.33 726.544   3
  -8  -1  12 2309.50 625.132   3
  -8   0  -8 4235.06 701.422   2
  -8   0  -7 6924.83 708.688   2
  -8   0  -6 227.566 503.841   2
  -8   0  -5 12130.2 740.806   2
  -8   0  -4 3602.71 508.252   2
  -8   0  -3 8847.94 620.673   2
  -8   0  -2 18433.8 732.093   3
  -8   0  -2 18194.6 759.564   2
  -8   0  -1 5399.28 491.414   2
  -8   0  -1 5494.85 506.609   3
  -8   0   0 18230.7 728.152   2
  -8   0   0 18461.2 735.816   3
  -8   0   1 15645.1 719.743   3
  -8   0   1 15617.8 676.418   2
  -8   0   2 1271.39 384.492   2
  -8   0   2 1368.48 405.774   3
  -8   0   3 11867.0 633.980   2
  -8   0   3 12331.3 653.337   3
  -8   0   4 8538.03 579.564   3
  -8   0   5 6832.10 571.221   3
  -8   0   6 25644.3 919.325   3
  -8   0   7 4169.63 523.795   3
  -8   0   8 5441.25 566.341   3
  -8   0   9 11783.3 731.042   3
  -8   0  10-74.3478 487.487   3
  -8   0  11 11850.9 804.727   3
  -8   1  -7 2985.70 668.256   2
  -8   1  -6-5.00617 545.892   2
  -8   1  -5 6508.43 668.309   2
  -8   1  -4 5510.59 634.603   2
  -8   1  -3 2822.80 507.113   2
  -8   1  -2 23331.9 900.746   2
  -8   1  -1 4611.05 471.482   3
  -8   1  -1 4010.54 495.213   2
  -8   1   0 11283.1 616.503   3
  -8   1   0 11256.9 644.878   2
  -8   1   1 20089.0 765.490   3
  -8   1   1 20751.8 805.741   2
  -8   1   2 650.774 382.322   2
  -8   1   2 480.858 384.408   3
  -8   1   3 21646.4 828.604   2
  -8   1   3 21029.2 800.267   3
  -8   1   4 11323.5 645.800   3
  -8   1   4 12468.9 689.906   2
  -8   1   5 8622.15 597.831   3
  -8   1   6 20328.9 836.871   3
  -8   1   7 3176.34 506.708   3
  -8   1   8 11086.5 700.287   3
  -8   1   9 8369.16 665.719   3
  -8   1  10-42.0676 491.669   3
  -8   1  11 7577.39 723.017   3
  -8   2  -6 244.620 615.441   2
  -8   2  -5 5533.43 720.215   2
  -8   2  -4 2086.63 594.262   2
  -8   2  -3 5348.73 621.044   2
  -8   2  -2 17399.3 857.569   2
  -8   2  -1 3389.38 529.655   2
  -8   2   0 5742.23 586.395   2
  -8   2   1 14981.3 671.487   3
  -8   2   1 14173.7 745.930   2
  -8   2   2 12.5845 399.705   2
  -8   2   2 223.058 344.184   3
  -8   2   3 22459.3 820.149   3
  -8   2   3 23856.3 902.127   2
  -8   2   4 14650.4 766.633   2
  -8   2   4 13127.4 687.098   3
  -8   2   5 3612.90 477.554   3
  -8   2   6 27083.3 942.264   3
  -8   2   7 3457.67 524.134   3
  -8   2   8 6422.57 615.832   3
  -8   2   9 6482.26 657.783   3
  -8   2  10-74.0940 504.442   3
  -8   2  11 8529.42 762.421   3
  -8   3  -4 1885.51 637.570   2
  -8   3  -3 1216.22 570.500   2
  -8   3  -2 8125.28 732.135   2
  -8   3  -1 1475.32 522.604   2
  -8   3   0 4830.61 591.808   2
  -8   3   1 6830.02 643.703   2
  -8   3   2-78.1417 364.176   3
  -8   3   2 9.13438 454.507   2
  -8   3   3 11309.8 720.683   2
  -8   3   3 11949.7 641.966   3
  -8   3   4 7664.70 582.898   3
  -8   3   4 8068.85 652.064   2
  -8   3   5 2306.85 475.370   3
  -8   3   6 16033.9 790.634   3
  -8   3   7 5567.34 597.033   3
  -8   3   8 4130.04 576.914   3
  -8   3   9 11717.2 795.160   3
  -8   3  10 168.974 524.968   3
  -8   4  -2 9688.81 832.738   2
  -8   4  -1 3273.67 652.336   2
  -8   4   0 3538.73 634.278   2
  -8   4   1 9169.71 748.543   2
  -8   4   2 519.786 490.084   2
  -8   4   3 12848.3 780.414   2
  -8   4   4 6933.97 664.538   2
  -8   4   4 6241.91 559.004   3
  -8   4   5 710.508 531.000   2
  -8   4   5 524.426 432.494   3
  -8   4   6 13055.6 759.940   3
  -8   4   7 2294.09 534.080   3
  -8   4   8 3575.99 587.462   3
  -8   4   9 7559.09 703.996   3
  -8   5   0 949.478 593.805   2
  -8   5   1 4326.12 722.710   2
  -8   5   2 65.1026 569.778   2
  -8   5   3 8346.04 731.725   2
  -8   5   4 7360.71 725.633   2
  -8   5   5 596.694 535.747   2
  -8   5   6 12386.8 768.266   3
  -8   5   7 374.358 509.161   3
  -8   5   8 2223.05 575.971   3
  -8   6   4 5330.77 732.079   2
  -8   6   5 548.413 575.155   2
  -7 -11  -2 4178.05 699.623   3
  -7 -11  -1 6372.77 749.434   3
  -7 -10  -2 11567.0 825.930   3
  -7 -10  -1 11207.1 791.138   3
  -7 -10   0 1100.78 522.154   3
  -7  -9  -2 22500.5 976.716   3
  -7  -9  -1 24942.2 1004.19   3
  -7  -9   0 3282.54 562.416   3
  -7  -9   1 27032.6 999.820   3
  -7  -9   2 2579.84 530.343   3
  -7  -8  -2 10729.8 753.205   3
  -7  -8  -1 11577.0 751.445   3
  -7  -8   0 1763.51 486.183   3
  -7  -8   1 30994.1 1031.29   3
  -7  -8   2 15584.9 764.101   3
  -7  -8   3 4490.50 529.112   3
  -7  -7  -2 19345.9 867.065   3
  -7  -7  -1 23523.8 916.688   3
  -7  -7   0 346.745 412.965   3
  -7  -7   1 20810.0 845.600   3
  -7  -7   2 10979.5 646.015   3
  -7  -7   3 2819.71 439.216   3
  -7  -7   4 24189.2 856.336   3
  -7  -6  -2 22943.6 912.861   3
  -7  -6  -1 39860.3 1138.01   3
  -7  -6   0 6639.70 579.875   3
  -7  -6   1 54581.7 1246.11   3
  -7  -6   2 17498.7 748.406   3
  -7  -6   3 7080.26 550.997   3
  -7  -6   4 22052.7 819.459   3
  -7  -6   5 1633.77 407.537   3
  -7  -6   6 6358.83 546.501   3
  -7  -6   8 594.194 613.805   0
  -7  -5  -6 12688.0 489.000   2
  -7  -5  -5 9001.12 403.818   2
  -7  -5  -4 34399.9 667.644   2
  -7  -5  -3 7183.42 341.670   2
  -7  -5  -3 8377.71 634.148   3
  -7  -5  -2 16667.1 789.178   3
  -7  -5  -2 13719.8 435.316   2
  -7  -5  -1 46994.3 1186.61   3
  -7  -5   0 897.352 393.152   3
  -7  -5   1 60596.8 1263.49   3
  -7  -5   2 31780.5 913.094   3
  -7  -5   3 5101.73 476.482   3
  -7  -5   4 42373.4 1055.86   3
  -7  -5   5 4662.57 480.356   3
  -7  -5   6 13061.6 668.244   3
  -7  -5   7 12009.5 664.424   3
  -7  -5   7 11647.5 792.310   0
  -7  -5   8 200.213 579.236   0
  -7  -4  -9 10855.1 637.363   2
  -7  -4  -8 187.110 373.424   2
  -7  -4  -7 20602.1 694.660   2
  -7  -4  -6 20787.4 660.398   2
  -7  -4  -5 10847.2 742.187   3
  -7  -4  -5 10303.1 469.859   2
  -7  -4  -4 31617.7 1074.91   3
  -7  -4  -4 30950.2 697.199   2
  -7  -4  -3 10830.7 436.991   2
  -7  -4  -3 11940.3 735.019   3
  -7  -4  -2 16065.0 769.067   3
  -7  -4  -2 14969.0 481.259   2
  -7  -4  -1 18824.8 532.089   2
  -7  -4  -1 21432.9 837.150   3
  -7  -4   0 115.847 355.330   3
  -7  -4   1 42459.1 1052.01   3
  -7  -4   2 25494.4 817.737   3
  -7  -4   3 1815.72 369.007   3
  -7  -4   4 50137.9 1116.45   3
  -7  -4   5 8520.09 547.390   3
  -7  -4   6 15405.2 698.675   3
  -7  -4   7 22788.3 818.943   3
  -7  -4   7 19507.7 887.892   0
  -7  -4   8 141.444 387.360   3
  -7  -4   8-0.91381 502.334   0
  -7  -3 -12 4856.15 766.705   2
  -7  -3 -11 1398.83 577.641   2
  -7  -3 -10 2513.65 579.675   2
  -7  -3  -9 7585.74 627.771   2
  -7  -3  -8 920.255 403.829   2
  -7  -3  -7 29248.9 1114.43   3
  -7  -3  -7 29882.4 886.545   2
  -7  -3  -6 25179.2 1000.11   3
  -7  -3  -6 26410.5 791.330   2
  -7  -3  -5 7591.31 671.825   3
  -7  -3  -5 7293.25 457.924   2
  -7  -3  -4 49988.6 1283.30   3
  -7  -3  -4 50736.4 940.321   2
  -7  -3  -3 8360.98 614.675   3
  -7  -3  -3 8779.35 449.533   2
  -7  -3  -2 31518.1 716.543   2
  -7  -3  -2 31598.7 981.143   3
  -7  -3  -1 31106.1 697.270   2
  -7  -3  -1 31123.6 938.152   3
  -7  -3   0 51.3753 227.877   2
  -7  -3   0 111.025 339.275   3
  -7  -3   1 67964.3 1276.57   3
  -7  -3   2 26159.7 805.416   3
  -7  -3   3 5613.08 470.181   3
  -7  -3   4 19975.3 728.740   3
  -7  -3   5 10264.4 584.112   3
  -7  -3   6 10380.1 590.634   3
  -7  -3   7 21032.8 786.051   3
  -7  -3   8 406.027 371.894   3
  -7  -3   9 12939.5 703.005   3
  -7  -3  10 9806.53 671.695   3
  -7  -2 -11 982.852 641.370   2
  -7  -2 -10 1991.15 602.686   2
  -7  -2  -9 4894.52 596.514   2
  -7  -2  -8 153.681 405.390   2
  -7  -2  -7 16626.1 727.627   2
  -7  -2  -6 10821.2 702.139   3
  -7  -2  -6 12551.9 620.546   2
  -7  -2  -5 1875.39 487.940   3
  -7  -2  -5 1411.91 352.546   2
  -7  -2  -4 30749.2 971.368   3
  -7  -2  -4 32407.6 835.066   2
  -7  -2  -3 11773.3 529.892   2
  -7  -2  -3 10952.3 647.120   3
  -7  -2  -2 9269.38 477.964   2
  -7  -2  -2 8614.31 558.787   3
  -7  -2  -1 43217.3 1044.03   3
  -7  -2  -1 44963.3 880.428   2
  -7  -2   0 8.63325 256.397   2
  -7  -2   0 272.730 324.662   3
  -7  -2   1 76985.6 1135.06   2
  -7  -2   1 74484.9 1302.18   3
  -7  -2   2 41663.3 1000.39   3
  -7  -2   3 2815.20 383.406   3
  -7  -2   4 21054.0 732.417   3
  -7  -2   5 16319.4 675.519   3
  -7  -2   6 26044.7 833.313   3
  -7  -2   7 16522.3 709.351   3
  -7  -2   8 231.097 373.469   3
  -7  -2   9 8478.85 622.597   3
  -7  -2  10 9599.28 662.726   3
  -7  -2  11-64.7827 473.863   3
  -7  -1 -11 1425.05 702.182   2
  -7  -1 -10 2153.12 637.812   2
  -7  -1  -9 5863.66 673.035   2
  -7  -1  -8-113.964 470.394   2
  -7  -1  -7 15394.3 775.477   2
  -7  -1  -6 9354.63 608.419   2
  -7  -1  -5 1214.60 367.095   2
  -7  -1  -4 20835.7 731.865   2
  -7  -1  -4 20023.7 749.517   3
  -7  -1  -3 7766.41 536.775   3
  -7  -1  -3 7328.68 472.891   2
  -7  -1  -2 15080.0 590.170   2
  -7  -1  -2 15650.3 667.271   3
  -7  -1  -1 38223.4 941.736   3
  -7  -1  -1 36482.2 857.427   2
  -7  -1   0 351.585 307.319   3
  -7  -1   0 522.323 273.165   2
  -7  -1   1 39810.0 859.190   2
  -7  -1   1 39727.4 973.643   3
  -7  -1   2 47330.3 954.989   2
  -7  -1   2 46500.7 1027.72   3
  -7  -1   3 921.993 324.043   3
  -7  -1   4 61529.2 1185.28   3
  -7  -1   5 25568.5 813.692   3
  -7  -1   6 18192.2 721.908   3
  -7  -1   7 28876.6 896.798   3
  -7  -1   8 462.764 384.812   3
  -7  -1   9 17165.2 765.428   3
  -7  -1  10 19403.0 841.705   3
  -7  -1  11 609.171 491.723   3
  -7  -1  12 5207.92 657.402   3
  -7   0 -10 2087.22 699.979   2
  -7   0  -9 5838.37 751.108   2
  -7   0  -8 149.677 508.930   2
  -7   0  -7 14825.3 811.195   2
  -7   0  -6 17195.1 804.696   2
  -7   0  -5 290.863 407.256   2
  -7   0  -4 23547.1 837.007   2
  -7   0  -3 5374.66 473.401   2
  -7   0  -3 6287.29 471.761   3
  -7   0  -2 12129.8 582.598   2
  -7   0  -2 12880.8 582.429   3
  -7   0  -1 21083.7 708.874   3
  -7   0  -1 19286.7 678.568   2
  -7   0   0 189.352 285.672   2
  -7   0   0 298.712 305.294   3
  -7   0   1 34818.3 879.357   3
  -7   0   1 34330.3 865.667   2
  -7   0   2 33737.5 884.077   3
  -7   0   2 32652.6 834.673   2
  -7   0   3 358.780 310.602   2
  -7   0   3 129.824 302.245   3
  -7   0   4 20501.2 725.993   3
  -7   0   5 5583.22 471.367   3
  -7   0   6 13076.6 633.367   3
  -7   0   7 33763.6 967.163   3
  -7   0   8 3254.53 475.393   3
  -7   0   9 14948.4 741.880   3
  -7   0  10 17260.3 819.811   3
  -7   0  11 784.315 499.723   3
  -7   0  12 10162.2 754.708   3
  -7   0  13 2073.32 623.278   3
  -7   1  -9 3341.09 745.661   2
  -7   1  -8 255.680 590.100   2
  -7   1  -7 6734.35 731.372   2
  -7   1  -6 9413.57 722.856   2
  -7   1  -5 270.731 432.351   2
  -7   1  -4 15594.0 773.176   2
  -7   1  -3 6791.92 551.248   2
  -7   1  -2 6435.53 529.750   2
  -7   1  -2 6797.98 452.330   3
  -7   1  -1 37988.7 865.251   3
  -7   1  -1 36037.2 959.542   2
  -7   1   0 1192.09 335.488   3
  -7   1   0 1535.13 365.661   2
  -7   1   1 31184.8 819.918   3
  -7   1   1 33471.2 887.121   2
  -7   1   2 28479.1 824.390   2
  -7   1   2 29257.9 812.506   3
  -7   1   3 415.467 310.877   3
  -7   1   3 247.842 326.944   2
  -7   1   4 26546.4 832.308   2
  -7   1   4 25529.6 803.617   3
  -7   1   5 8647.41 540.995   3
  -7   1   6 8674.16 550.436   3
  -7   1   7 21006.6 797.649   3
  -7   1   8 2878.04 457.313   3
  -7   1   9 10711.7 669.196   3
  -7   1  10 14715.9 777.069   3
  -7   1  11 292.566 484.158   3
  -7   1  12 7345.91 696.524   3
  -7   2  -7 3796.64 725.232   2
  -7   2  -6 6754.80 758.033   2
  -7   2  -5 238.684 489.417   2
  -7   2  -4 12899.5 783.531   2
  -7   2  -3 6017.20 598.200   2
  -7   2  -2 5752.19 548.557   2
  -7   2  -1 24477.4 866.933   2
  -7   2   0 3115.91 361.188   3
  -7   2   0 3107.58 447.578   2
  -7   2   1 23753.3 827.563   2
  -7   2   1 24887.1 730.430   3
  -7   2   2 35119.7 959.568   2
  -7   2   2 34544.2 867.048   3
  -7   2   3 378.135 362.543   2
  -7   2   3 617.953 318.949   3
  -7   2   4 31590.3 881.646   3
  -7   2   4 32967.9 944.378   2
  -7   2   5 9402.02 561.290   3
  -7   2   6 9129.42 573.545   3
  -7   2   7 28619.9 929.247   3
  -7   2   8 1034.51 419.063   3
  -7   2   9 11007.0 691.362   3
  -7   2  10 10551.8 720.240   3
  -7   2  11-25.4913 496.312   3
  -7   2  12 5892.32 681.053   3
  -7   3  -6 7663.00 847.259   2
  -7   3  -5 257.693 561.856   2
  -7   3  -4 7548.56 712.109   2
  -7   3  -3 481.227 510.310   2
  -7   3  -2 5267.09 581.918   2
  -7   3  -1 16149.5 792.507   2
  -7   3   0 1074.85 435.373   2
  -7   3   1 12505.6 687.790   2
  -7   3   1 13825.8 573.603   3
  -7   3   2 18631.0 774.238   2
  -7   3   2 18096.7 661.739   3
  -7   3   3-13.3309 363.704   2
  -7   3   3 122.366 330.268   3
  -7   3   4 18717.6 794.067   2
  -7   3   4 17215.5 688.654   3
  -7   3   5 12157.5 671.258   2
  -7   3   5 9789.82 583.099   3
  -7   3   6 7797.05 556.108   3
  -7   3   7 31071.8 966.419   3
  -7   3   8 4922.64 554.234   3
  -7   3   9 6867.35 620.430   3
  -7   3  10 16208.9 840.806   3
  -7   3  11 198.769 510.037   3
  -7   3  12 9592.88 770.654   3
  -7   4  -5 139.734 671.073   2
  -7   4  -4 6201.14 752.793   2
  -7   4  -3 3108.11 637.784   2
  -7   4  -2 1418.12 533.540   2
  -7   4  -1 15591.7 861.773   2
  -7   4   0 1114.61 488.911   2
  -7   4   1 7612.99 631.599   2
  -7   4   2 20001.2 857.910   2
  -7   4   3-105.965 410.862   2
  -7   4   3 65.3703 344.423   3
  -7   4   4 9138.95 549.117   3
  -7   4   4 9457.78 662.160   2
  -7   4   5 5704.51 581.716   2
  -7   4   5 4934.17 494.367   3
  -7   4   6 3814.68 499.926   3
  -7   4   7 18735.7 815.398   3
  -7   4   8 5237.12 590.177   3
  -7   4   9 5420.67 602.729   3
  -7   4  10 14338.9 841.596   3
  -7   4  11 616.610 529.468   3
  -7   5  -3 2627.36 709.398   2
  -7   5  -2 1575.61 626.853   2
  -7   5  -1 11960.4 851.072   2
  -7   5   0 2793.04 593.628   2
  -7   5   1 5564.93 626.403   2
  -7   5   2 15302.0 837.924   2
  -7   5   3 177.526 481.952   2
  -7   5   4 10853.9 628.217   3
  -7   5   4 10725.5 715.753   2
  -7   5   5 5802.72 621.987   2
  -7   5   5 5264.66 539.584   3
  -7   5   6 2540.56 486.048   3
  -7   5   7 20927.7 875.675   3
  -7   5   8 676.972 463.777   3
  -7   5   9 5225.22 622.648   3
  -7   5  10 7461.58 712.080   3
  -7   6  -1 6557.72 824.293   2
  -7   6   0 1849.60 644.826   2
  -7   6   1 2553.09 635.253   2
  -7   6   2 8237.98 756.975   2
  -7   6   3 677.100 524.865   2
  -7   6   4 5677.92 679.587   2
  -7   6   5 7374.36 701.376   2
  -7   6   6 1489.81 511.254   3
  -7   6   7 16751.5 826.865   3
  -7   6   8 2165.15 540.930   3
  -7   6   9 1114.34 551.521   3
  -7   7   2 5028.67 756.302   2
  -7   7   3-260.052 569.823   2
  -7   7   4 5300.90 730.210   2
  -7   7   5 3416.09 686.867   2
  -6 -10  -1 17943.5 890.364   3
  -6  -9  -1 31564.6 1049.64   3
  -6  -9   0 21320.4 884.112   3
  -6  -9   1 2221.78 507.410   3
  -6  -8   0 38944.6 1089.15   3
  -6  -8   1 1955.45 471.005   3
  -6  -8   2 31434.1 943.594   3
  -6  -7  -1 23478.6 882.977   3
  -6  -7   0 25774.7 878.410   3
  -6  -7   1 362.513 357.134   3
  -6  -7   2 17764.8 715.285   3
  -6  -7   3 10138.6 570.107   3
  -6  -7   4 6901.50 508.668   3
  -6  -6  -1 71092.7 1369.17   3
  -6  -6   0 59267.9 1244.20   3
  -6  -6   1 3958.29 443.504   3
  -6  -6   2 29748.8 864.593   3
  -6  -6   3 11288.3 578.147   3
  -6  -6   4 8319.25 500.666   3
  -6  -6   5 29132.9 839.118   3
  -6  -6  10 6712.69 898.118   0
  -6  -5  -7 281.721 248.115   2
  -6  -5  -6 29893.0 629.898   2
  -6  -5  -5 9752.16 366.363   2
  -6  -5  -4 15765.9 414.567   2
  -6  -5  -3 61790.9 722.433   2
  -6  -5  -2 13482.6 370.525   2
  -6  -5  -2 15891.1 715.030   3
  -6  -5  -1 61902.4 1259.01   3
  -6  -5   0 84182.5 1416.05   3
  -6  -5   1 3766.05 436.476   3
  -6  -5   2 46117.3 1016.17   3
  -6  -5   3 22539.0 720.251   3
  -6  -5   4 22580.3 727.019   3
  -6  -5   5 33888.5 870.042   3
  -6  -5   6 2461.34 385.341   3
  -6  -5   9 295.794 554.947   0
  -6  -5  10 5081.83 769.838   0
  -6  -5  11 1585.76 748.541   0
  -6  -4 -10 2723.67 479.761   2
  -6  -4  -9 25255.1 821.215   2
  -6  -4  -8 23107.1 735.451   2
  -6  -4  -7 72.9507 282.164   2
  -6  -4  -6 15250.3 525.550   2
  -6  -4  -5 5967.53 349.804   2
  -6  -4  -4 22369.7 537.592   2
  -6  -4  -3 65241.8 839.809   2
  -6  -4  -2 9592.85 349.108   2
  -6  -4  -2 11434.1 628.138   3
  -6  -4  -1 21689.6 788.960   3
  -6  -4  -1 19128.6 465.147   2
  -6  -4   0 47687.5 1052.39   3
  -6  -4   1 52.5660 302.921   3
  -6  -4   2 47816.1 995.993   3
  -6  -4   3 32689.5 830.589   3
  -6  -4   4 13249.2 582.368   3
  -6  -4   5 74680.6 1231.37   3
  -6  -4   6 15259.3 628.143   3
  -6  -4   7 18907.3 887.855   0
  -6  -4   7 18724.9 701.698   3
  -6  -4   8 12364.8 802.173   0
  -6  -4   8 13643.5 645.588   3
  -6  -4   9 496.642 538.232   0
  -6  -4  10 11096.5 928.691   0
  -6  -4  11 6658.23 862.379   0
  -6  -4  12 1105.76 782.793   0
  -6  -3 -12 2266.53 615.920   2
  -6  -3 -11 14727.8 833.448   2
  -6  -3 -10 2279.52 491.533   2
  -6  -3  -9 15372.5 718.306   2
  -6  -3  -8 22042.3 783.862   2
  -6  -3  -7-11.8514 339.196   2
  -6  -3  -6 49725.3 961.989   2
  -6  -3  -5 32472.2 734.274   2
  -6  -3  -4 20018.1 572.585   2
  -6  -3  -4 18905.0 810.802   3
  -6  -3  -3 87828.8 1502.83   3
  -6  -3  -3 82200.2 1022.60   2
  -6  -3  -2 11033.1 403.031   2
  -6  -3  -2 10329.0 595.099   3
  -6  -3  -1 47240.7 750.597   2
  -6  -3  -1 49899.9 1076.00   3
  -6  -3   0 51523.7 794.170   2
  -6  -3   0 52380.5 1064.91   3
  -6  -3   1 112.637 272.413   3
  -6  -3   1 145.969 74.9997   0
  -6  -3   2 33121.3 818.651   3
  -6  -3   2 34227.8 541.369   0
  -6  -3   3 23377.1 709.279   3
  -6  -3   3 20448.1 540.862   0
  -6  -3   4 8801.26 483.043   3
  -6  -3   4 7352.45 427.884   0
  -6  -3   5 52995.7 1031.33   3
  -6  -3   5 44792.0 996.494   0
  -6  -3   6 9850.89 532.166   3
  -6  -3   6 8748.41 578.283   0
  -6  -3   7 12242.3 582.098   3
  -6  -3   7 11212.3 692.576   0
  -6  -3   8 23978.0 783.164   3
  -6  -3   8 19857.6 920.976   0
  -6  -3   9 238.135 522.179   0
  -6  -3   9 748.822 385.214   3
  -6  -3  10 13423.1 926.168   0
  -6  -3  11 8171.68 872.161   0
  -6  -3  12 4391.33 875.119   0
  -6  -2 -12 1503.48 659.211   2
  -6  -2 -11 7989.59 750.915   2
  -6  -2 -10 800.787 531.892   2
  -6  -2  -9 7619.37 621.465   2
  -6  -2  -8 15145.3 704.347   2
  -6  -2  -7 378.876 447.054   3
  -6  -2  -7 275.130 341.173   2
  -6  -2  -6 22050.8 715.658   2
  -6  -2  -6 19568.9 828.181   3
  -6  -2  -5 11552.6 533.468   2
  -6  -2  -5 11354.7 664.576   3
  -6  -2  -4 19164.6 779.998   3
  -6  -2  -4 20308.2 616.626   2
  -6  -2  -3 91365.0 1468.25   3
  -6  -2  -3 96101.1 1195.26   2
  -6  -2  -2 20474.6 732.577   3
  -6  -2  -2 20521.9 571.470   2
  -6  -2  -1 36224.3 712.887   2
  -6  -2  -1 35852.6 887.252   3
  -6  -2   0 61915.7 1101.55   3
  -6  -2   0 64096.5 929.350   2
  -6  -2   1 963.450 227.340   2
  -6  -2   1 1053.81 285.305   3
  -6  -2   2 72883.9 1162.23   3
  -6  -2   2 67579.8 505.450   0
  -6  -2   3 25711.4 467.048   0
  -6  -2   3 29156.4 769.641   3
  -6  -2   4 18773.2 509.116   0
  -6  -2   4 20092.5 658.969   3
  -6  -2   5 43785.8 874.995   0
  -6  -2   5 48213.1 988.344   3
  -6  -2   6 9128.46 508.113   3
  -6  -2   6 8458.83 517.839   0
  -6  -2   7 8351.12 505.548   3
  -6  -2   7 6813.69 538.607   0
  -6  -2   8 14648.8 780.213   0
  -6  -2   8 16283.0 664.372   3
  -6  -2   9 305.761 496.297   0
  -6  -2   9 227.558 353.481   3
  -6  -2  10 11289.1 829.868   0
  -6  -2  10 12148.0 663.466   3
  -6  -2  11 7157.15 812.339   0
  -6  -2  12-131.455 683.425   0
  -6  -2  13 5016.66 880.082   0
  -6  -1 -12 756.174 673.045   2
  -6  -1 -11 9551.93 838.265   2
  -6  -1 -10 1436.29 579.230   2
  -6  -1  -9 4145.38 600.528   2
  -6  -1  -8 12611.9 736.933   2
  -6  -1  -7 64.8159 378.924   2
  -6  -1  -6 16585.9 693.492   2
  -6  -1  -5 12832.2 586.220   2
  -6  -1  -5 12306.9 597.149   3
  -6  -1  -4 9958.76 504.616   2
  -6  -1  -4 9508.32 539.468   3
  -6  -1  -3 52503.7 1042.61   3
  -6  -1  -3 54778.2 986.244   2
  -6  -1  -2 27130.7 751.868   3
  -6  -1  -2 28430.0 694.116   2
  -6  -1  -1 15475.2 586.722   3
  -6  -1  -1 15167.4 519.597   2
  -6  -1   0 66488.8 1000.20   2
  -6  -1   0 62758.1 1062.82   3
  -6  -1   1 409.270 224.427   2
  -6  -1   1 447.174 263.088   3
  -6  -1   2 68302.0 1032.88   2
  -6  -1   2 65270.0 476.271   0
  -6  -1   2 70001.4 1131.45   3
  -6  -1   3 58131.8 1038.25   3
  -6  -1   3 56814.2 601.294   0
  -6  -1   4 3423.33 356.831   3
  -6  -1   4 3765.03 258.453   0
  -6  -1   5 94028.1 1156.92   0
  -6  -1   5 96263.6 1362.79   3
  -6  -1   6 15442.3 613.957   3
  -6  -1   6 14238.0 565.844   0
  -6  -1   7 11809.9 602.919   0
  -6  -1   7 12912.7 592.826   3
  -6  -1   8 24862.2 793.979   3
  -6  -1   8 21818.5 864.772   0
  -6  -1   9 59.0329 441.600   0
  -6  -1   9 12.7191 340.560   3
  -6  -1  10 14186.7 692.942   3
  -6  -1  10 11077.9 798.322   0
  -6  -1  11 9341.28 645.388   3
  -6  -1  11 7165.44 770.505   0
  -6  -1  12 234.235 605.352   0
  -6  -1  12 248.979 470.160   3
  -6  -1  13 4646.03 861.648   0
  -6   0 -11 7276.31 856.107   2
  -6   0 -10 2449.74 675.169   2
  -6   0  -9 3559.44 636.689   2
  -6   0  -8 16074.9 863.187   2
  -6   0  -7 30.2469 426.801   2
  -6   0  -6 14704.6 729.062   2
  -6   0  -5 19865.2 760.583   2
  -6   0  -4 8528.62 509.859   2
  -6   0  -4 7189.76 442.530   3
  -6   0  -3 54212.7 1052.89   2
  -6   0  -3 50039.9 913.351   3
  -6   0  -2 5958.62 400.510   3
  -6   0  -2 5391.67 394.998   2
  -6   0  -1 16324.2 573.818   2
  -6   0  -1 17021.9 579.604   3
  -6   0   0 34935.7 787.340   2
  -6   0   0 34926.1 787.466   3
  -6   0   1 34.3011 229.586   2
  -6   0   1-9.06980 247.975   3
  -6   0   2 43463.6 883.204   3
  -6   0   2 43796.8 863.721   2
  -6   0   2 43635.7 490.676   0
  -6   0   3 33231.0 795.579   3
  -6   0   3 31036.8 759.783   2
  -6   0   3 31095.8 477.922   0
  -6   0   4 5162.79 268.320   0
  -6   0   4 5722.83 403.109   3
  -6   0   5 84076.1 1278.81   3
  -6   0   5 82101.5 998.791   0
  -6   0   6 16565.2 630.010   3
  -6   0   6 16291.3 555.103   0
  -6   0   7 7430.25 498.498   3
  -6   0   7 8602.00 517.479   0
  -6   0   8 37364.9 1038.23   0
  -6   0   8 37411.1 966.916   3
  -6   0   9 446.251 365.435   3
  -6   0   9 644.729 430.603   0
  -6   0  10 28432.2 936.797   3
  -6   0  10 26717.1 1086.46   0
  -6   0  11 11234.8 869.528   0
  -6   0  11 12758.0 710.898   3
  -6   0  12 1017.22 494.648   3
  -6   0  12 984.074 616.913   0
  -6   0  13 8464.50 722.888   3
  -6   0  13 8988.12 970.515   0
  -6   1 -10 1582.05 688.725   2
  -6   1  -9 2318.68 697.888   2
  -6   1  -8 5644.18 701.124   2
  -6   1  -7 240.646 496.048   2
  -6   1  -6 13160.9 743.121   2
  -6   1  -5 19516.1 808.700   2
  -6   1  -4 5950.44 511.559   2
  -6   1  -3 61090.8 1196.80   2
  -6   1  -2 8497.77 416.767   3
  -6   1  -2 8184.37 494.544   2
  -6   1  -1 2867.58 309.717   3
  -6   1  -1 2995.02 355.376   2
  -6   1   0 54317.6 938.514   3
  -6   1   0 52860.0 1010.19   2
  -6   1   1 597.518 293.409   2
  -6   1   1 746.953 279.612   3
  -6   1   2 54011.3 668.583   0
  -6   1   2 50214.7 972.113   2
  -6   1   2 51910.1 950.579   3
  -6   1   3 26535.1 738.599   2
  -6   1   3 25307.1 493.258   0
  -6   1   3 25630.2 712.493   3
  -6   1   4 2034.07 342.815   2
  -6   1   4 2232.82 326.612   3
  -6   1   4 1903.52 231.884   0
  -6   1   5 30589.6 636.606   0
  -6   1   5 30940.3 806.969   3
  -6   1   6 14825.9 609.987   3
  -6   1   6 13662.0 510.421   0
  -6   1   7 6111.36 478.873   3
  -6   1   7 5839.52 432.458   0
  -6   1   8 19312.6 727.870   0
  -6   1   8 20251.4 751.275   3
  -6   1   9 2850.11 476.122   0
  -6   1   9 2137.94 421.312   3
  -6   1  10 17688.5 790.275   3
  -6   1  10 17728.7 885.744   0
  -6   1  11 12011.1 720.762   3
  -6   1  11 11058.2 826.360   0
  -6   1  12-33.4654 583.293   0
  -6   1  12 186.639 476.407   3
  -6   1  13 10833.4 790.485   3
  -6   1  13 10706.0 994.065   0
  -6   1  14 2846.73 846.366   0
  -6   2  -9 1473.51 680.342   2
  -6   2  -8 6919.10 771.575   2
  -6   2  -7 342.349 558.673   2
  -6   2  -6 8534.55 722.264   2
  -6   2  -5 9416.53 699.875   2
  -6   2  -4 1875.07 442.276   2
  -6   2  -3 27905.3 922.629   2
  -6   2  -2 16330.3 695.795   2
  -6   2  -1 1492.68 353.181   2
  -6   2  -1 1620.92 276.141   3
  -6   2   0 53667.5 1081.80   2
  -6   2   0 53700.6 901.256   3
  -6   2   1 165.545 299.811   2
  -6   2   1 177.987 259.723   3
  -6   2   2 46042.7 905.167   3
  -6   2   2 47363.3 992.706   2
  -6   2   3 42184.2 722.077   0
  -6   2   3 38880.0 852.925   3
  -6   2   3 38912.2 908.435   2
  -6   2   4 384.769 312.067   2
  -6   2   4 592.487 285.099   3
  -6   2   4 343.164 226.678   0
  -6   2   5 57989.4 894.258   0
  -6   2   5 58479.9 1095.49   3
  -6   2   6 13637.7 607.444   3
  -6   2   6 14001.7 520.671   0
  -6   2   7 9691.05 501.552   0
  -6   2   7 10062.7 556.772   3
  -6   2   8 18051.2 736.558   3
  -6   2   8 18727.8 713.547   0
  -6   2   9 134.500 423.800   0
  -6   2   9 138.312 369.628   3
  -6   2  10 15775.8 825.211   0
  -6   2  10 15773.2 758.289   3
  -6   2  11 14482.0 779.198   3
  -6   2  11 13644.9 846.483   0
  -6   2  12 34.1220 479.570   3
  -6   2  12 189.753 576.284   0
  -6   2  13 4971.43 787.304   0
  -6   2  13 6843.29 702.104   3
  -6   2  14 2946.92 830.382   0
  -6   3  -7 246.973 615.670   2
  -6   3  -6 7986.56 772.713   2
  -6   3  -5 8441.66 735.290   2
  -6   3  -4 1416.37 500.005   2
  -6   3  -3 19446.7 856.129   2
  -6   3  -2 5887.11 560.759   2
  -6   3  -1 8062.83 559.433   2
  -6   3   0 23826.5 617.054   3
  -6   3   0 24425.3 813.235   2
  -6   3   1 967.793 354.018   2
  -6   3   1 867.835 272.675   3
  -6   3   2 26344.7 819.040   2
  -6   3   2 26853.6 704.392   3
  -6   3   3 32228.8 787.970   3
  -6   3   3 31510.4 865.929   2
  -6   3   4-0.56935 324.014   2
  -6   3   4 17.8362 278.648   3
  -6   3   4 31.7161 263.926   0
  -6   3   5 50141.3 910.005   0
  -6   3   5 51611.6 1120.73   2
  -6   3   5 50565.5 1039.27   3
  -6   3   6 18139.7 616.762   0
  -6   3   6 17465.3 691.624   3
  -6   3   7 5423.01 482.336   3
  -6   3   7 5508.24 442.805   0
  -6   3   8 34545.3 917.348   0
  -6   3   8 31381.1 951.481   3
  -6   3   9 399.422 404.388   0
  -6   3   9 146.743 392.355   3
  -6   3  10 13045.8 730.176   3
  -6   3  10 11273.8 731.922   0
  -6   3  11 14746.0 795.357   3
  -6   3  11 14952.2 882.671   0
  -6   3  12-180.315 623.503   0
  -6   3  12 272.370 488.151   3
  -6   3  13 8126.01 744.809   3
  -6   3  13 6863.68 883.566   0
  -6   4  -6 3975.76 765.953   2
  -6   4  -5 8370.54 828.508   2
  -6   4  -4 500.869 542.950   2
  -6   4  -3 15181.9 864.822   2
  -6   4  -2 6386.51 607.907   2
  -6   4  -1 2330.63 465.229   2
  -6   4   0 11240.7 658.460   2
  -6   4   1 225.810 369.305   2
  -6   4   2 21349.1 650.668   3
  -6   4   2 20486.0 793.356   2
  -6   4   3 21425.7 684.799   3
  -6   4   3 21350.0 778.109   2
  -6   4   4-38.8362 288.624   3
  -6   4   4 88.4707 348.970   2
  -6   4   5 17305.2 636.821   0
  -6   4   5 17686.3 732.056   2
  -6   4   5 17028.8 674.326   3
  -6   4   6 10177.6 572.754   3
  -6   4   6 10743.9 553.016   0
  -6   4   7 3334.47 443.403   3
  -6   4   7 4264.23 454.058   0
  -6   4   8 21024.1 821.637   3
  -6   4   8 22297.3 793.474   0
  -6   4   9 2044.10 470.414   0
  -6   4   9 2219.15 460.643   3
  -6   4  10 10886.9 708.989   3
  -6   4  10 11563.2 724.134   0
  -6   4  11 23166.5 958.537   3
  -6   4  11 23395.2 1051.58   0
  -6   4  12 526.530 613.806   0
  -6   4  12 193.005 517.957   3
  -6   5  -5 5810.47 868.024   2
  -6   5  -4 270.896 620.959   2
  -6   5  -3 8030.46 779.097   2
  -6   5  -2 8223.28 710.631   2
  -6   5  -1 1790.95 534.478   2
  -6   5   0 16834.3 836.590   2
  -6   5   1 1453.42 472.969   2
  -6   5   2 17844.3 803.747   2
  -6   5   3 23473.3 720.210   3
  -6   5   3 23692.3 878.871   2
  -6   5   4-60.3624 394.545   2
  -6   5   4 305.656 338.183   3
  -6   5   5 20139.3 830.128   2
  -6   5   5 20199.9 740.467   3
  -6   5   6 7818.09 556.860   3
  -6   5   7 3571.63 472.895   3
  -6   5   8 15487.8 765.909   3
  -6   5   9 1188.25 465.110   3
  -6   5  10 9055.60 689.223   3
  -6   5  11 13666.2 831.398   3
  -6   6  -3 6148.59 835.569   2
  -6   6  -2 3437.12 654.695   2
  -6   6  -1 1799.93 572.708   2
  -6   6   0 9150.70 767.132   2
  -6   6   1 1455.33 531.208   2
  -6   6   2 8811.57 683.876   2
  -6   6   3 14525.0 761.208   2
  -6   6   4 187.159 444.677   2
  -6   6   5 13185.7 654.122   3
  -6   6   5 14443.9 760.388   2
  -6   6   6 10166.6 623.570   3
  -6   6   7 3985.25 525.537   3
  -6   6   8 13203.9 755.109   3
  -6   6   9 309.008 464.262   3
  -6   6  10 7357.31 696.803   3
  -6   6  11 10388.5 793.208   3
  -6   7  -1 1516.67 647.643   2
  -6   7   0 5101.41 727.220   2
  -6   7   1 319.958 528.811   2
  -6   7   2 5712.57 679.089   2
  -6   7   3 12094.4 778.134   2
  -6   7   4 777.719 520.865   2
  -6   7   5 7009.50 670.155   2
  -6   7   7 2301.65 513.622   3
  -6   7   8 10783.1 745.816   3
  -6   7   9 5841.76 665.168   3
  -5  -9   0 39022.8 1066.92   3
  -5  -8   0 65483.1 1286.14   3
  -5  -8   1 40413.7 1013.25   3
  -5  -8   2 8189.21 538.598   3
  -5  -7   0 34254.9 930.783   3
  -5  -7   1 22115.1 759.318   3
  -5  -7   2 2823.49 389.053   3
  -5  -7   3 31492.0 808.925   3
  -5  -6   0 65710.3 1212.56   3
  -5  -6   1 60411.2 1127.49   3
  -5  -6   2 983.488 334.801   3
  -5  -6   3 23932.7 692.956   3
  -5  -6   4 11010.1 504.215   3
  -5  -5  -8 27414.0 666.301   2
  -5  -5  -7 36473.0 679.137   2
  -5  -5  -6 30.7755 181.555   2
  -5  -5  -5 75093.3 770.201   2
  -5  -5  -4 27674.9 432.990   2
  -5  -5  -3 28336.0 417.746   2
  -5  -5   0 99875.4 1431.34   3
  -5  -5   1 87699.5 1298.27   3
  -5  -5   2 8697.70 472.280   3
  -5  -5   3 73735.3 1121.13   3
  -5  -5   4 12348.9 509.923   3
  -5  -5   5 13779.7 548.506   3
  -5  -5   6 21811.1 663.884   3
  -5  -5  10 410.315 625.308   0
  -5  -5  11 4838.47 842.352   0
  -5  -4 -11 3754.49 556.162   2
  -5  -4 -10 20997.9 802.662   2
  -5  -4  -9 1038.86 390.432   2
  -5  -4  -8 31826.3 787.700   2
  -5  -4  -7 34528.8 743.629   2
  -5  -4  -6 3850.22 310.580   2
  -5  -4  -5 55854.6 770.600   2
  -5  -4  -4 15525.3 399.715   2
  -5  -4  -3 10595.1 317.331   2
  -5  -4  -2 50788.4 611.689   2
  -5  -4  -1 4865.63 424.403   3
  -5  -4  -1 4050.07 220.094   2
  -5  -4   0 96351.0 1377.45   3
  -5  -4   1 98901.8 1337.67   3
  -5  -4   2 259.182 271.546   3
  -5  -4   3 80076.5 1141.34   3
  -5  -4   4 29737.3 730.638   3
  -5  -4   5 18248.2 597.625   3
  -5  -4   6 51324.1 959.690   3
  -5  -4   7 1871.89 339.203   3
  -5  -4   9 14896.2 916.250   0
  -5  -4  10 399.713 589.563   0
  -5  -4  11 4078.06 780.305   0
  -5  -4  12 2364.08 790.340   0
  -5  -3 -13 5423.49 739.826   2
  -5  -3 -12 6526.81 720.350   2
  -5  -3 -11 1286.68 524.966   2
  -5  -3 -10 26965.7 938.804   2
  -5  -3  -9 360.088 397.631   2
  -5  -3  -8 29338.5 820.421   2
  -5  -3  -7 66952.8 1099.52   2
  -5  -3  -6 445.680 256.614   2
  -5  -3  -5 72258.6 975.676   2
  -5  -3  -4 22425.2 527.263   2
  -5  -3  -3 19304.1 458.441   2
  -5  -3  -2 64978.1 1164.79   3
  -5  -3  -2 62033.8 756.392   2
  -5  -3  -1 3636.46 222.778   2
  -5  -3  -1 4317.65 401.090   3
  -5  -3   0 74597.2 1156.16   3
  -5  -3   0 69479.5 798.622   2
  -5  -3   1 69909.1 1082.42   3
  -5  -3   2 3308.70 313.928   3
  -5  -3   3 37532.7 775.245   3
  -5  -3   4 25908.7 669.145   3
  -5  -3   5 11598.1 495.950   3
  -5  -3   6 58632.3 1262.63   0
  -5  -3   6 63871.7 1050.83   3
  -5  -3   7 5696.11 557.205   0
  -5  -3   7 6463.26 426.582   3
  -5  -3   8 21981.2 698.659   3
  -5  -3   8 19478.2 906.969   0
  -5  -3   9 27733.3 1128.97   0
  -5  -3  10-189.643 538.168   0
  -5  -3  11 12740.5 943.034   0
  -5  -3  12 3124.75 747.240   0
  -5  -2 -13 3783.42 772.622   2
  -5  -2 -12 2834.70 637.951   2
  -5  -2 -11 3277.96 615.428   2
  -5  -2 -10 13527.6 764.179   2
  -5  -2  -9 190.235 406.888   2
  -5  -2  -8 17658.4 711.716   2
  -5  -2  -7 43165.3 962.311   2
  -5  -2  -6 123.201 265.114   2
  -5  -2  -5 96644.8 1236.55   2
  -5  -2  -4 23515.9 772.070   3
  -5  -2  -4 24259.3 599.024   2
  -5  -2  -3 18596.7 690.811   3
  -5  -2  -3 18308.9 502.503   2
  -5  -2  -2 139099. 1622.81   3
  -5  -2  -2 145782. 1255.15   2
  -5  -2  -1 1750.78 218.361   2
  -5  -2  -1 1577.27 311.677   3
  -5  -2   0 111193. 1333.09   3
  -5  -2   0 108493. 1051.04   2
  -5  -2   1 123102. 521.145   0
  -5  -2   1 135832. 1198.12   2
  -5  -2   1 136472. 1424.09   3
  -5  -2   2 1415.65 243.831   3
  -5  -2   2 1138.15 152.486   0
  -5  -2   3 57547.3 956.723   3
  -5  -2   3 56375.8 777.932   0
  -5  -2   4 23621.3 615.534   0
  -5  -2   4 24733.6 647.324   3
  -5  -2   5 17648.2 627.961   0
  -5  -2   5 20161.9 601.024   3
  -5  -2   6 36823.8 949.803   0
  -5  -2   6 39152.0 840.997   3
  -5  -2   7 6587.33 433.150   3
  -5  -2   7 5751.66 509.625   0
  -5  -2   8 10515.5 691.454   0
  -5  -2   8 11334.9 529.255   3
  -5  -2   9 28537.5 818.331   3
  -5  -2   9 27872.2 1078.97   0
  -5  -2  10 864.774 358.593   3
  -5  -2  10 465.848 510.141   0
  -5  -2  11 10924.5 903.397   0
  -5  -2  12 2020.33 688.756   0
  -5  -2  13 355.783 737.343   0
  -5  -1 -12 1454.32 654.754   2
  -5  -1 -11 1549.77 623.013   2
  -5  -1 -10 8908.25 736.930   2
  -5  -1  -9 395.390 465.802   2
  -5  -1  -8 21435.5 821.130   2
  -5  -1  -7 27643.8 854.786   2
  -5  -1  -6 252.432 368.850   3
  -5  -1  -6 468.880 327.207   2
  -5  -1  -5 26096.1 785.373   3
  -5  -1  -5 30694.2 781.113   2
  -5  -1  -4 14383.4 594.229   3
  -5  -1  -4 14016.3 525.917   2
  -5  -1  -3 7821.60 454.309   3
  -5  -1  -3 8463.88 400.439   2
  -5  -1  -2 88562.6 1083.40   2
  -5  -1  -2 88943.0 1194.23   3
  -5  -1  -1 15659.6 465.892   2
  -5  -1  -1 14898.5 517.527   3
  -5  -1   0 39875.9 774.908   3
  -5  -1   0 39815.8 698.817   2
  -5  -1   1 185985. 1600.12   3
  -5  -1   1 164645. 520.253   0
  -5  -1   1 184872. 1447.13   2
  -5  -1   2 147.770 183.686   2
  -5  -1   2 213.558 99.0983   0
  -5  -1   2 280.436 215.124   3
  -5  -1   3 79085.3 772.477   0
  -5  -1   3 81798.1 1096.80   3
  -5  -1   4 32721.5 731.864   3
  -5  -1   4 31540.1 608.044   0
  -5  -1   5 10042.2 445.434   0
  -5  -1   5 10331.4 459.156   3
  -5  -1   6 77057.8 1158.74   3
  -5  -1   6 72770.3 1195.86   0
  -5  -1   7 3773.97 421.616   0
  -5  -1   7 4229.50 372.300   3
  -5  -1   8 22024.8 707.694   3
  -5  -1   8 19477.8 815.214   0
  -5  -1   9 22265.9 937.534   0
  -5  -1   9 24711.3 779.623   3
  -5  -1  10 289.317 333.256   3
  -5  -1  10 188.179 524.064   0
  -5  -1  11 7632.71 572.096   3
  -5  -1  11 7911.04 761.721   0
  -5  -1  12 3329.90 710.906   0
  -5  -1  13 181.901 668.831   0
  -5   0 -12 2560.78 765.670   2
  -5   0 -11 120.236 600.529   2
  -5   0 -10 11304.0 832.898   2
  -5   0  -9 825.286 530.887   2
  -5   0  -8 16873.1 830.354   2
  -5   0  -7 32213.2 994.298   2
  -5   0  -6 442.162 374.484   2
  -5   0  -5 24011.1 623.805   3
  -5   0  -5 24223.0 770.734   2
  -5   0  -4 12900.4 481.423   3
  -5   0  -4 13541.7 570.895   2
  -5   0  -3 16261.8 511.684   3
  -5   0  -3 16909.1 567.874   2
  -5   0  -2 52599.9 844.025   3
  -5   0  -2 54329.9 921.079   2
  -5   0  -1 8545.75 393.673   2
  -5   0  -1 8597.23 386.891   3
  -5   0   0 59712.9 908.371   3
  -5   0   0 60074.0 907.238   2
  -5   0   1 120983. 1277.56   3
  -5   0   1 122084. 1275.90   2
  -5   0   2 2456.02 270.317   2
  -5   0   2 2463.29 271.710   3
  -5   0   2 2345.77 158.796   0
  -5   0   3 37873.0 521.257   0
  -5   0   3 37914.7 751.206   2
  -5   0   3 37848.8 760.828   3
  -5   0   4 36068.3 596.602   0
  -5   0   4 37151.1 772.838   3
  -5   0   5 6402.93 387.389   3
  -5   0   5 6597.86 355.653   0
  -5   0   6 179685. 1762.58   3
  -5   0   6 174363. 1719.40   0
  -5   0   7 11444.9 527.844   3
  -5   0   7 10290.3 545.839   0
  -5   0   8 14534.2 688.972   0
  -5   0   8 15959.8 620.831   3
  -5   0   9 35488.2 912.853   3
  -5   0   9 34234.7 1083.24   0
  -5   0  10 645.416 358.578   3
  -5   0  10 948.191 487.171   0
  -5   0  11 17210.3 991.247   0
  -5   0  11 19426.2 786.559   3
  -5   0  12 6855.15 810.267   0
  -5   0  12 6967.25 606.985   3
  -5   0  13 2529.07 748.616   0
  -5   0  14 6598.46 943.304   0
  -5   1 -11 751.932 674.391   2
  -5   1 -10 9438.88 878.070   2
  -5   1  -9 1426.77 571.313   2
  -5   1  -8 9230.06 716.225   2
  -5   1  -7 27504.9 1000.84   2
  -5   1  -6 302.625 382.404   2
  -5   1  -5 27869.1 895.065   2
  -5   1  -4 26326.8 800.088   2
  -5   1  -3 11224.1 390.781   3
  -5   1  -3 11611.5 542.915   2
  -5   1  -2 79264.9 1189.60   2
  -5   1  -2 80416.9 955.666   3
  -5   1  -1 8094.69 422.292   2
  -5   1  -1 8482.61 364.837   3
  -5   1   0 36832.2 694.429   3
  -5   1   0 38695.4 788.557   2
  -5   1   1 51668.4 891.331   2
  -5   1   1 50885.8 831.896   3
  -5   1   2 15.3842 221.933   2
  -5   1   2 133.978 146.199   0
  -5   1   2 60.7588 198.888   3
  -5   1   3 38410.2 574.247   0
  -5   1   3 38376.7 790.143   2
  -5   1   3 38071.0 770.439   3
  -5   1   4 22671.6 497.515   0
  -5   1   4 24033.0 642.747   3
  -5   1   5 5809.44 375.031   3
  -5   1   5 5752.56 328.756   0
  -5   1   6 55174.3 934.733   0
  -5   1   6 55339.2 1014.33   3
  -5   1   7 4926.13 397.094   0
  -5   1   7 4650.34 402.032   3
  -5   1   8 9299.43 566.892   0
  -5   1   8 10238.0 538.750   3
  -5   1   9 40750.0 1154.91   0
  -5   1   9 40195.1 986.706   3
  -5   1  10 3903.74 595.402   0
  -5   1  10 3787.74 464.002   3
  -5   1  11 19898.4 821.609   3
  -5   1  11 19588.4 1039.67   0
  -5   1  12 6777.00 602.148   3
  -5   1  12 6882.37 820.880   0
  -5   1  13 1320.12 504.387   3
  -5   1  13 1820.21 715.629   0
  -5   1  14 12611.8 1130.98   0
  -5   2 -10 3746.24 780.831   2
  -5   2  -9 392.232 607.461   2
  -5   2  -8 5480.13 697.309   2
  -5   2  -7 13282.3 844.071   2
  -5   2  -6 632.284 480.377   2
  -5   2  -5 10570.0 668.658   2
  -5   2  -4 12687.4 646.531   2
  -5   2  -3 6301.28 475.319   2
  -5   2  -2 54566.4 736.914   3
  -5   2  -2 55412.2 1093.78   2
  -5   2  -1 17776.5 469.283   3
  -5   2  -1 17513.0 627.556   2
  -5   2   0 26487.6 588.119   3
  -5   2   0 26433.1 715.773   2
  -5   2   1 93531.5 1101.85   3
  -5   2   1 96774.3 1278.50   2
  -5   2   2 3692.10 271.456   0
  -5   2   2 3343.14 307.234   3
  -5   2   2 3667.57 345.758   2
  -5   2   3 47914.3 901.957   2
  -5   2   3 47884.8 724.375   0
  -5   2   3 48013.8 861.282   3
  -5   2   4 23013.2 635.165   3
  -5   2   4 24945.6 557.262   0
  -5   2   4 24747.5 693.486   2
  -5   2   5 13201.4 530.238   3
  -5   2   5 13491.1 460.629   0
  -5   2   6 65720.5 1111.36   3
  -5   2   6 62006.4 988.979   0
  -5   2   7 15229.4 605.312   3
  -5   2   7 15443.7 608.377   0
  -5   2   8 8355.13 529.611   0
  -5   2   8 7692.52 495.774   3
  -5   2   9 21236.4 836.975   0
  -5   2   9 22160.7 783.826   3
  -5   2  10 1408.19 456.339   0
  -5   2  10 1443.39 403.343   3
  -5   2  11 11035.7 802.321   0
  -5   2  11 12343.2 684.121   3
  -5   2  12 8577.63 834.746   0
  -5   2  12 9923.25 683.194   3
  -5   2  13 133.989 505.654   3
  -5   2  13 214.821 643.726   0
  -5   2  14 10250.4 1037.60   0
  -5   2  14 9930.28 780.494   3
  -5   3  -9 1464.83 745.346   2
  -5   3  -8 5728.77 799.250   2
  -5   3  -7 12077.8 901.589   2
  -5   3  -6 532.224 517.538   2
  -5   3  -5 9806.57 695.650   2
  -5   3  -4 7635.47 602.098   2
  -5   3  -3 5424.24 520.378   2
  -5   3  -2 38350.3 1006.67   2
  -5   3  -1 18596.9 701.583   2
  -5   3   0 14899.7 452.925   3
  -5   3   0 14350.2 600.541   2
  -5   3   1 52457.6 1022.06   2
  -5   3   1 52080.3 831.515   3
  -5   3   2 5483.25 351.417   3
  -5   3   2 5482.71 421.518   2
  -5   3   3 32894.2 732.190   3
  -5   3   3 35195.3 727.494   0
  -5   3   3 35011.5 824.230   2
  -5   3   4 46615.9 962.095   2
  -5   3   4 44922.5 808.333   0
  -5   3   4 45277.5 885.280   3
  -5   3   5 5173.42 396.907   3
  -5   3   5 4655.41 348.167   0
  -5   3   6 79098.9 1236.50   3
  -5   3   6 78275.9 1146.86   0
  -5   3   7 19416.4 663.876   0
  -5   3   7 20065.5 702.362   3
  -5   3   8 10593.5 576.490   0
  -5   3   8 10674.2 586.099   3
  -5   3   9 28516.2 886.453   3
  -5   3   9 28195.9 919.622   0
  -5   3  10 120.054 453.456   0
  -5   3  10 2.64819 387.787   3
  -5   3  11 12899.1 833.699   0
  -5   3  11 13681.5 735.877   3
  -5   3  12 7462.35 654.613   3
  -5   3  12 6290.24 766.438   0
  -5   3  13 1337.30 667.720   0
  -5   3  13 863.516 530.507   3
  -5   3  14 7473.04 945.830   0
  -5   3  14 9669.85 771.845   3
  -5   4  -7 5481.21 787.019   2
  -5   4  -6 1047.22 624.912   2
  -5   4  -5 9075.43 767.331   2
  -5   4  -4 8544.69 692.251   2
  -5   4  -3 3974.17 552.962   2
  -5   4  -2 23953.6 877.389   2
  -5   4  -1 2863.65 447.184   2
  -5   4   0 12155.6 590.390   1
  -5   4   0 12403.1 604.226   2
  -5   4   1 26177.7 781.897   1
  -5   4   1 25563.5 791.746   2
  -5   4   1 26269.0 617.951   3
  -5   4   2 333.599 295.036   1
  -5   4   2 525.201 257.920   3
  -5   4   2 739.663 310.413   2
  -5   4   3 17887.4 617.933   1
  -5   4   3 17838.7 585.685   3
  -5   4   3 18405.4 671.142   2
  -5   4   3 19337.9 621.166   0
  -5   4   4 22809.6 660.654   0
  -5   4   4 22524.5 725.241   2
  -5   4   4 22880.2 675.940   3
  -5   4   5 3969.53 392.448   3
  -5   4   5 4622.93 421.065   2
  -5   4   5 4445.43 382.869   0
  -5   4   6 42464.2 915.356   0
  -5   4   6 41549.4 955.030   3
  -5   4   7 22887.1 769.810   3
  -5   4   7 24664.7 763.233   0
  -5   4   8 6109.10 497.200   0
  -5   4   8 6755.67 513.413   3
  -5   4   9 30908.7 936.777   3
  -5   4   9 32924.5 981.563   0
  -5   4  10 3722.75 498.392   3
  -5   4  10 2975.40 514.227   0
  -5   4  11 16288.1 804.665   3
  -5   4  11 15682.9 864.962   0
  -5   4  12 12218.3 783.733   3
  -5   4  12 12805.5 909.960   0
  -5   4  13 637.974 653.888   0
  -5   4  13 931.900 539.437   3
  -5   4  14 10106.8 1024.15   0
  -5   5  -6 2908.19 781.253   2
  -5   5  -5 4801.91 783.512   2
  -5   5  -4 6886.35 736.172   2
  -5   5  -3 1888.57 574.068   2
  -5   5  -2 21004.1 931.193   2
  -5   5  -1 16500.8 756.935   1
  -5   5  -1 16349.9 796.652   2
  -5   5   0 3439.85 442.054   1
  -5   5   0 2997.61 456.875   2
  -5   5   1 29578.1 891.518   1
  -5   5   1 28251.4 896.651   2
  -5   5   2 737.892 270.010   3
  -5   5   2 1191.15 376.688   2
  -5   5   2 544.729 360.749   1
  -5   5   3 19850.0 710.276   1
  -5   5   3 19964.7 631.469   3
  -5   5   3 20380.8 746.838   2
  -5   5   4 17076.7 660.512   0
  -5   5   4 17945.3 668.045   1
  -5   5   4 17693.8 689.822   2
  -5   5   4 17281.5 612.140   3
  -5   5   5 1816.79 396.176   2
  -5   5   5 2037.43 380.757   0
  -5   5   5 1919.09 348.387   3
  -5   5   5 1888.86 340.917   1
  -5   5   6 29022.7 831.187   3
  -5   5   6 30114.1 856.019   0
  -5   5   7 12923.1 636.964   0
  -5   5   7 12624.2 641.566   3
  -5   5   8 2794.83 437.190   0
  -5   5   8 2921.34 435.003   3
  -5   5   9 15613.5 745.161   3
  -5   5   9 14878.8 751.589   0
  -5   5  10 3371.28 524.890   3
  -5   5  10 3186.24 546.365   0
  -5   5  11 13309.9 785.722   3
  -5   5  11 12198.8 808.498   0
  -5   5  12 12601.6 803.750   3
  -5   5  12 12420.2 879.411   0
  -5   5  13 100.279 545.597   3
  -5   5  13 201.094 644.932   0
  -5   6  -5 3288.28 820.401   2
  -5   6  -4 3695.26 736.615   2
  -5   6  -3 459.695 575.643   2
  -5   6  -2 9983.25 797.114   2
  -5   6  -1 10968.2 734.236   2
  -5   6  -1 10446.0 698.397   1
  -5   6   0 3300.36 497.597   1
  -5   6   0 4356.00 543.220   2
  -5   6   1 18604.5 801.977   2
  -5   6   1 17850.2 779.658   1
  -5   6   2 3161.82 495.232   2
  -5   6   2 3250.82 479.899   1
  -5   6   3 19121.4 758.672   1
  -5   6   3 19741.9 776.658   2
  -5   6   4 15457.2 708.064   2
  -5   6   4 14832.4 675.991   1
  -5   6   4 15539.3 612.820   3
  -5   6   5 1432.38 434.315   2
  -5   6   5 908.096 352.197   1
  -5   6   5 1424.77 361.352   3
  -5   6   5 1353.20 401.407   0
  -5   6   6 37645.6 921.316   1
  -5   6   6 36428.2 1015.72   0
  -5   6   6 37237.5 965.034   3
  -5   6   7 12745.0 666.430   3
  -5   6   7 10273.9 634.943   0
  -5   6   8 4042.16 529.193   0
  -5   6   8 4047.32 524.318   3
  -5   6   9 13545.1 735.537   3
  -5   6   9 13206.8 761.825   0
  -5   6  10 248.793 442.517   3
  -5   6  10-318.809 497.851   0
  -5   6  11 10944.2 766.713   3
  -5   6  11 10985.7 797.999   0
  -5   6  12 9091.75 822.740   0
  -5   6  13 89.0105 665.146   0
  -5   7  -3 337.871 629.922   2
  -5   7  -2 8184.84 804.576   2
  -5   7  -1 3351.21 619.055   2
  -5   7  -1 2626.27 548.924   1
  -5   7   0 1546.29 512.701   2
  -5   7   0 2180.93 530.992   1
  -5   7   1 9748.25 686.090   1
  -5   7   1 9671.64 718.554   2
  -5   7   2 1533.86 491.543   2
  -5   7   2 1289.51 458.128   1
  -5   7   3 9867.89 655.966   1
  -5   7   3 9423.71 643.393   2
  -5   7   4 12489.2 680.319   1
  -5   7   4 12649.7 687.956   2
  -5   7   5 245.479 405.899   2
  -5   7   5 573.083 396.164   1
  -5   7   6 18582.4 759.119   1
  -5   7   6 17092.3 756.802   3
  -5   7   6 18073.2 833.542   0
  -5   7   7 16812.2 773.638   3
  -5   7   7 15529.6 824.701   0
  -5   7   8 2302.88 527.621   3
  -5   7   8 3187.74 562.648   0
  -5   7   9 10741.7 756.762   0
  -5   7  10 2525.54 614.531   0
  -5   7  11 6046.98 756.380   0
  -5   7  12 8398.75 880.401   0
  -5   8  -1 3163.46 711.759   2
  -5   8   1 6474.64 680.437   1
  -5   8   2 440.436 477.172   1
  -5   8   3 7076.30 657.334   1
  -5   8   4 8433.21 666.790   1
  -5   8   5 101.781 458.464   1
  -5   8   7 8753.92 738.977   0
  -5   8   8 728.481 574.090   0
  -5   8   9 6703.57 738.300   0
  -5   8  10 2571.79 676.308   0
  -5   9   4 7705.04 731.573   1
  -5   9   5 95.7660 526.350   1
  -4  -8   1 38999.5 932.683   3
  -4  -7   1 43583.9 938.034   3
  -4  -7   2 30497.1 767.601   3
  -4  -6   1 29683.6 759.798   3
  -4  -6   2 20698.0 625.329   3
  -4  -6   3 819.015 269.636   3
  -4  -5  -8 1220.16 271.513   2
  -4  -5  -7 18529.2 482.634   2
  -4  -5  -6 45092.8 606.166   2
  -4  -5  -5 16432.1 317.778   2
  -4  -5  -4 188395. 827.242   2
  -4  -5   1 111667. 1352.92   3
  -4  -5   2 49356.6 877.916   3
  -4  -5   3 14098.6 490.413   3
  -4  -5   4 70387.8 985.703   3
  -4  -5   5 15925.8 511.812   3
  -4  -5  11-14.2178 693.793   0
  -4  -4 -12 22394.3 920.453   2
  -4  -4 -11 5057.67 549.642   2
  -4  -4 -10 17283.7 713.200   2
  -4  -4  -9 30292.5 811.716   2
  -4  -4  -8 652.626 295.224   2
  -4  -4  -7 31592.7 689.542   2
  -4  -4  -6 33886.4 624.809   2
  -4  -4  -5 20836.4 440.068   2
  -4  -4  -4 144574. 958.874   2
  -4  -4  -3 14604.9 287.482   2
  -4  -4  -2 1621.77 127.103   2
  -4  -4   0 2089.41 312.555   3
  -4  -4   1 133756. 1415.74   3
  -4  -4   2 65862.8 963.059   3
  -4  -4   3 6712.86 355.433   3
  -4  -4   4 121623. 1263.89   3
  -4  -4   5 28559.0 646.090   3
  -4  -4   6 18182.4 543.820   3
  -4  -4  10 8323.08 798.297   0
  -4  -4  11 62.6192 607.123   0
  -4  -4  12 3273.12 805.674   0
  -4  -3 -14 3281.57 756.941   2
  -4  -3 -13 2022.29 617.190   2
  -4  -3 -12 16688.6 859.530   2
  -4  -3 -11 8904.89 673.921   2
  -4  -3 -10 4048.27 514.754   2
  -4  -3  -9 42312.1 1001.75   2
  -4  -3  -8 542.648 312.079   2
  -4  -3  -7 53492.7 941.177   2
  -4  -3  -6 38408.4 737.605   2
  -4  -3  -5 11902.4 399.562   2
  -4  -3  -4 77300.2 832.505   2
  -4  -3  -3 26418.8 453.197   2
  -4  -3  -2 16563.9 341.211   2
  -4  -3  -1 100440. 779.838   2
  -4  -3   0 1488.72 293.436   3
  -4  -3   1 56789.7 896.129   3
  -4  -3   2 33213.3 667.431   3
  -4  -3   3 893.095 210.511   3
  -4  -3   4 143276. 1353.75   3
  -4  -3   5 44096.8 787.411   3
  -4  -3   6 10769.0 439.834   3
  -4  -3   7 62855.1 976.673   3
  -4  -3   8 1633.65 306.375   3
  -4  -3   9 18901.6 952.388   0
  -4  -3  10 17332.7 971.582   0
  -4  -3  11 654.638 596.509   0
  -4  -3  12 10543.8 980.100   0
  -4  -2 -14 1688.70 758.965   2
  -4  -2 -13 1806.18 640.386   2
  -4  -2 -12 11535.2 817.170   2
  -4  -2 -11 7303.49 655.651   2
  -4  -2 -10 4196.98 514.698   2
  -4  -2  -9 38873.7 1040.21   2
  -4  -2  -8 1093.54 360.163   2
  -4  -2  -7 34385.3 835.107   2
  -4  -2  -6 48891.7 900.463   2
  -4  -2  -5 9780.88 423.437   2
  -4  -2  -4 257287. 1678.93   2
  -4  -2  -3 138543. 1137.36   2
  -4  -2  -2 27171.4 485.717   2
  -4  -2  -1 105431. 1244.20   3
  -4  -2  -1 106176. 898.866   2
  -4  -2   0 203.535 137.325   2
  -4  -2   0 155.940 212.955   3
  -4  -2   1 147266. 1362.70   3
  -4  -2   2 93129.3 1046.39   3
  -4  -2   3 136.195 190.023   3
  -4  -2   4 82968.2 1029.11   3
  -4  -2   5 32484.1 822.026   0
  -4  -2   5 35056.1 701.113   3
  -4  -2   6 3430.41 412.468   0
  -4  -2   6 3889.08 308.905   3
  -4  -2   7 35115.9 1002.71   0
  -4  -2   7 38433.4 780.302   3
  -4  -2   8 1118.19 433.883   0
  -4  -2   8 704.850 283.257   3
  -4  -2   9 16039.2 843.388   0
  -4  -2   9 17244.9 606.148   3
  -4  -2  10 25613.2 1088.11   0
  -4  -2  11 384.563 555.529   0
  -4  -2  12 14771.4 1010.29   0
  -4  -2  13 2395.66 752.404   0
  -4  -1 -13 123.316 698.360   2
  -4  -1 -12 10487.9 840.536   2
  -4  -1 -11 5751.59 703.898   2
  -4  -1 -10 3864.03 566.717   2
  -4  -1  -9 15017.6 771.498   2
  -4  -1  -8 19.3492 387.395   2
  -4  -1  -7 22478.9 762.036   2
  -4  -1  -6 38692.2 896.500   2
  -4  -1  -5 1552.55 279.413   2
  -4  -1  -4 94025.1 1133.17   2
  -4  -1  -3 44372.6 840.514   3
  -4  -1  -3 46917.4 752.017   2
  -4  -1  -2 20913.6 565.740   3
  -4  -1  -2 20138.7 480.020   2
  -4  -1  -1 148682. 1353.88   3
  -4  -1  -1 149723. 1172.57   2
  -4  -1   0 5547.80 264.175   2
  -4  -1   0 5182.09 314.397   3
  -4  -1   1 125615. 1177.26   3
  -4  -1   1 131551. 1086.53   2
  -4  -1   1 126308. 512.937   0
  -4  -1   2 143678. 1272.06   3
  -4  -1   2 144150. 837.501   0
  -4  -1   3 7658.57 287.294   0
  -4  -1   3 8040.88 347.895   3
  -4  -1   4 145811. 1357.53   3
  -4  -1   4 146426. 1319.90   0
  -4  -1   5 41690.3 771.945   3
  -4  -1   5 40156.5 820.879   0
  -4  -1   6 14886.0 590.648   0
  -4  -1   6 16540.8 532.363   3
  -4  -1   7 34330.1 747.966   3
  -4  -1   7 33677.6 939.282   0
  -4  -1   8 793.615 290.014   3
  -4  -1   8 1040.99 404.641   0
  -4  -1   9 15207.6 591.354   3
  -4  -1   9 14858.3 782.659   0
  -4  -1  10 24388.3 749.836   3
  -4  -1  10 21245.8 985.058   0
  -4  -1  11 546.749 543.192   0
  -4  -1  12 11653.9 929.666   0
  -4  -1  13 2146.06 717.385   0
  -4   0 -12 7674.15 843.662   2
  -4   0 -11 6476.94 765.707   2
  -4   0 -10 3082.10 602.146   2
  -4   0  -9 17979.2 862.398   2
  -4   0  -8 473.507 410.353   2
  -4   0  -7 23393.1 846.059   2
  -4   0  -6 32307.6 874.652   2
  -4   0  -5 4480.98 350.039   3
  -4   0  -5 4657.19 399.894   2
  -4   0  -4 69660.9 927.770   3
  -4   0  -4 70011.9 1066.19   2
  -4   0  -3 43693.2 718.864   3
  -4   0  -3 42922.2 792.737   2
  -4   0  -2 5745.04 304.539   3
  -4   0  -2 5522.85 321.934   2
  -4   0  -1 69340.1 842.626   3
  -4   0  -1 70759.4 896.731   2
  -4   0   0 12073.0 385.063   2
  -4   0   0 12102.4 381.775   3
  -4   0   1 78156.6 902.001   2
  -4   0   1 81456.9 539.273   0
  -4   0   1 77854.7 914.816   3
  -4   0   2 156421. 1288.02   2
  -4   0   2 160651. 1328.04   3
  -4   0   2 160917. 879.359   0
  -4   0   3 1900.86 166.619   0
  -4   0   3 1806.53 220.830   3
  -4   0   4 138794. 1323.01   3
  -4   0   4 134739. 1167.33   0
  -4   0   5 85436.5 1068.97   0
  -4   0   5 89827.3 1109.69   3
  -4   0   6 6439.29 369.848   3
  -4   0   6 5709.72 396.181   0
  -4   0   7 76965.3 1286.54   0
  -4   0   7 82244.8 1154.66   3
  -4   0   8 4560.03 390.581   3
  -4   0   8 4711.03 475.176   0
  -4   0   9 32746.3 836.399   3
  -4   0   9 33269.7 1055.41   0
  -4   0  10 32882.9 875.586   3
  -4   0  10 31383.4 1100.50   0
  -4   0  11 209.405 501.451   0
  -4   0  11 170.089 339.715   3
  -4   0  12 11250.1 877.679   0
  -4   0  12 10322.9 606.044   3
  -4   0  13 3884.04 767.750   0
  -4   0  14 201.684 728.584   0
  -4   1 -11 7538.13 888.808   2
  -4   1 -10 1625.79 616.790   2
  -4   1  -9 12477.8 839.071   2
  -4   1  -8 2734.84 540.503   2
  -4   1  -7 26575.5 945.153   2
  -4   1  -6 43963.9 1103.91   2
  -4   1  -5 101.107 318.415   2
  -4   1  -4 78486.6 763.408   3
  -4   1  -4 83137.2 1261.63   2
  -4   1  -3 42352.2 598.737   3
  -4   1  -3 43159.7 871.583   2
  -4   1  -2 7589.40 295.892   3
  -4   1  -2 6875.19 379.421   2
  -4   1  -1 61594.9 746.586   3
  -4   1  -1 62699.8 921.485   2
  -4   1   0 536.573 196.613   2
  -4   1   0 583.093 171.902   3
  -4   1   1 98784.3 792.349   0
  -4   1   1 95260.2 986.866   3
  -4   1   1 97540.3 1079.37   2
  -4   1   2 76041.7 921.317   3
  -4   1   2 76987.8 722.478   0
  -4   1   2 76515.1 959.569   2
  -4   1   3 1327.16 216.946   2
  -4   1   3 1086.48 206.294   3
  -4   1   3 1194.28 166.380   0
  -4   1   4 61148.3 901.359   3
  -4   1   4 62793.3 778.668   0
  -4   1   5 52031.9 808.944   0
  -4   1   5 50197.8 853.574   3
  -4   1   6 12221.3 497.921   0
  -4   1   6 11989.5 477.024   3
  -4   1   7 57517.3 990.539   3
  -4   1   7 51789.0 1037.28   0
  -4   1   8 8034.79 522.937   0
  -4   1   8 9469.84 482.936   3
  -4   1   9 34454.1 1039.90   0
  -4   1   9 34238.1 870.853   3
  -4   1  10 51953.0 1345.12   0
  -4   1  10 50143.1 1075.64   3
  -4   1  11 961.306 504.047   0
  -4   1  11 911.478 378.540   3
  -4   1  12 19695.2 1053.45   0
  -4   1  12 18927.0 799.938   3
  -4   1  13 6896.79 593.332   3
  -4   1  13 6926.86 846.266   0
  -4   1  14 1915.68 756.228   0
  -4   2 -11 1452.36 721.063   2
  -4   2 -10 1353.40 693.154   2
  -4   2  -9 6651.17 768.193   2
  -4   2  -8 820.397 558.110   2
  -4   2  -7 14335.8 835.793   2
  -4   2  -6 17983.9 827.780   2
  -4   2  -5 554.997 377.147   2
  -4   2  -4 60548.6 1183.39   2
  -4   2  -3 43037.4 946.414   2
  -4   2  -2 7590.52 268.325   3
  -4   2  -2 7965.37 448.018   2
  -4   2  -1 75369.2 789.946   3
  -4   2  -1 73175.1 1085.07   2
  -4   2   0 10905.5 350.433   3
  -4   2   0 10997.7 443.229   2
  -4   2   1 72658.9 869.914   3
  -4   2   1 74646.1 1012.87   2
  -4   2   2 113452. 1127.49   3
  -4   2   2 119169. 1040.39   0
  -4   2   2 117656. 1249.96   2
  -4   2   3 69.7697 209.497   2
  -4   2   3 144.742 188.638   3
  -4   2   3 75.3473 170.139   0
  -4   2   4 68549.8 969.736   3
  -4   2   4 69149.1 1008.52   2
  -4   2   4 69687.6 867.029   0
  -4   2   5 34662.7 735.717   3
  -4   2   5 33774.8 670.606   0
  -4   2   6 8855.02 436.421   3
  -4   2   6 8418.94 415.903   0
  -4   2   7 20542.3 656.186   0
  -4   2   7 20186.7 631.219   3
  -4   2   8 8688.94 529.619   0
  -4   2   8 9491.32 502.868   3
  -4   2   9 21651.4 837.395   0
  -4   2   9 20091.6 700.604   3
  -4   2  10 34561.3 1122.45   0
  -4   2  10 35930.2 960.617   3
  -4   2  11 1637.10 549.703   0
  -4   2  11 1387.40 405.043   3
  -4   2  12 7280.98 776.902   0
  -4   2  12 8375.86 607.579   3
  -4   2  13 9847.03 931.155   0
  -4   2  13 9083.26 669.112   3
  -4   2  14 1200.90 731.163   0
  -4   3 -10 123.059 747.290   2
  -4   3  -9 6342.69 848.009   2
  -4   3  -8 274.204 571.172   2
  -4   3  -7 9793.15 761.910   2
  -4   3  -6 17020.3 860.039   2
  -4   3  -5 1040.13 440.451   2
  -4   3  -4 27908.3 918.237   2
  -4   3  -3 19739.4 729.515   2
  -4   3  -2 3436.79 378.503   2
  -4   3  -2 2467.91 323.182   1
  -4   3  -1 25645.2 468.208   3
  -4   3  -1 27518.3 717.860   1
  -4   3  -1 26539.2 737.896   2
  -4   3   0 37944.3 603.926   3
  -4   3   0 38878.9 813.132   1
  -4   3   0 37208.0 813.286   2
  -4   3   1 63889.2 989.394   1
  -4   3   1 60723.4 988.853   2
  -4   3   1 61599.1 812.465   3
  -4   3   2 107073. 1125.22   3
  -4   3   2 111386. 1168.31   0
  -4   3   2 113335. 1255.72   1
  -4   3   2 109494. 1284.29   2
  -4   3   3 3667.29 295.485   3
  -4   3   3 4188.05 301.889   1
  -4   3   3 3622.04 290.711   0
  -4   3   3 3731.69 321.900   2
  -4   3   4 62001.9 953.268   3
  -4   3   4 62716.7 861.685   1
  -4   3   4 60738.7 887.840   0
  -4   3   4 60087.7 982.935   2
  -4   3   5 54868.3 938.479   3
  -4   3   5 52849.2 869.138   0
  -4   3   6 6976.45 414.986   3
  -4   3   6 7139.09 410.637   0
  -4   3   7 70104.7 1155.57   3
  -4   3   7 67151.8 1131.31   0
  -4   3   8 5649.50 445.435   3
  -4   3   8 4991.19 452.307   0
  -4   3   9 24086.9 849.821   0
  -4   3   9 25293.0 790.336   3
  -4   3  10 32087.3 1049.32   0
  -4   3  10 33551.6 944.883   3
  -4   3  11 358.641 380.677   3
  -4   3  11-12.0035 487.711   0
  -4   3  12 7523.95 756.443   0
  -4   3  12 7092.03 599.008   3
  -4   3  13 9921.11 887.920   0
  -4   3  13 9667.03 701.742   3
  -4   3  14 616.925 686.051   0
  -4   4  -9 4973.25 883.023   2
  -4   4  -8 1184.74 699.073   2
  -4   4  -7 7842.55 804.999   2
  -4   4  -6 16633.8 964.424   2
  -4   4  -5 80.7431 469.029   2
  -4   4  -4 21602.4 893.216   2
  -4   4  -3 12815.4 630.791   1
  -4   4  -3 12654.7 683.114   2
  -4   4  -2 3912.72 453.092   2
  -4   4  -2 3252.00 386.893   1
  -4   4  -1 23349.2 729.963   1
  -4   4  -1 21629.6 733.382   2
  -4   4   0 4870.71 276.973   3
  -4   4   0 5114.43 406.987   1
  -4   4   0 5159.23 409.996   2
  -4   4   1 63626.2 846.651   3
  -4   4   1 65216.5 1086.59   1
  -4   4   1 63687.7 1090.33   2
  -4   4   2 53107.5 952.689   1
  -4   4   2 52227.2 823.820   3
  -4   4   2 52900.7 972.209   2
  -4   4   3 7631.92 419.648   0
  -4   4   3 7328.58 420.225   2
  -4   4   3 7356.45 398.712   1
  -4   4   3 7608.09 384.505   3
  -4   4   4 23576.2 644.498   0
  -4   4   4 25731.8 698.254   2
  -4   4   4 24419.5 640.350   3
  -4   4   4 25233.8 633.006   1
  -4   4   5 50296.1 834.290   1
  -4   4   5 49199.8 916.789   0
  -4   4   5 50494.5 962.041   2
  -4   4   5 48453.0 925.546   3
  -4   4   6 4825.22 390.162   3
  -4   4   6 4825.04 310.426   1
  -4   4   6 4505.62 384.748   0
  -4   4   7 61970.0 1114.86   0
  -4   4   7 63136.9 1144.78   3
  -4   4   8 14061.9 617.763   3
  -4   4   8 13629.1 631.390   0
  -4   4   9 16661.8 700.917   3
  -4   4   9 17141.6 752.075   0
  -4   4  10 47612.3 1140.08   3
  -4   4  10 45269.9 1217.81   0
  -4   4  11 2595.18 567.263   0
  -4   4  11 2645.60 484.190   3
  -4   4  12 10208.7 832.597   0
  -4   4  12 10988.0 702.988   3
  -4   4  13 5654.77 791.477   0
  -4   4  13 6212.30 651.773   3
  -4   4  14 2144.48 769.768   0
  -4   5  -7 4126.70 858.006   2
  -4   5  -6 10566.8 911.540   2
  -4   5  -5 2013.42 623.114   2
  -4   5  -4 11003.5 798.108   2
  -4   5  -4 10725.5 660.824   1
  -4   5  -3 15024.2 724.862   1
  -4   5  -3 14811.3 798.311   2
  -4   5  -2 1792.86 463.088   2
  -4   5  -2 1596.85 398.994   1
  -4   5  -1 31629.4 910.576   1
  -4   5  -1 31879.8 945.066   2
  -4   5   0 5594.83 478.947   2
  -4   5   0 5725.07 470.034   1
  -4   5   1 17177.2 650.635   1
  -4   5   1 16061.1 636.210   2
  -4   5   2 33968.9 849.253   1
  -4   5   2 34115.2 694.932   3
  -4   5   2 33634.5 842.041   2
  -4   5   3 231.933 297.254   2
  -4   5   3 438.333 292.201   0
  -4   5   3 463.255 242.532   3
  -4   5   3 472.608 274.395   1
  -4   5   4 19876.8 614.055   3
  -4   5   4 19536.7 625.290   1
  -4   5   4 20833.6 687.384   0
  -4   5   4 19225.9 639.732   2
  -4   5   5 21420.6 660.802   3
  -4   5   5 22480.5 697.714   2
  -4   5   5 21631.2 629.811   1
  -4   5   5 21008.4 682.969   0
  -4   5   6 4042.32 339.194   1
  -4   5   6 3817.41 393.392   3
  -4   5   6 3520.98 386.803   0
  -4   5   7 21748.8 743.635   0
  -4   5   7 22800.1 748.061   3
  -4   5   8 11423.1 619.416   0
  -4   5   8 11210.5 595.393   3
  -4   5   9 9801.20 607.905   3
  -4   5   9 10641.1 649.280   0
  -4   5  10 28799.7 1007.80   0
  -4   5  10 28519.4 956.010   3
  -4   5  11 6750.01 596.634   3
  -4   5  11 6305.37 653.270   0
  -4   5  12 12852.2 775.662   3
  -4   5  12 13444.4 902.184   0
  -4   5  13 11412.8 914.691   0
  -4   5  14 496.458 693.549   0
  -4   6  -6 4759.09 844.432   2
  -4   6  -5 702.261 642.649   2
  -4   6  -4 7476.07 645.464   1
  -4   6  -4 6084.26 750.801   2
  -4   6  -3 9313.31 661.017   1
  -4   6  -3 8591.95 742.282   2
  -4   6  -2 137.548 453.828   2
  -4   6  -2 390.133 409.844   1
  -4   6  -1 18048.7 766.241   1
  -4   6  -1 17890.1 818.408   2
  -4   6   0 8916.83 570.343   1
  -4   6   0 8531.99 603.011   2
  -4   6   1 13631.3 663.858   1
  -4   6   1 13089.6 640.132   2
  -4   6   2 54138.0 1144.04   1
  -4   6   2 56665.8 1143.23   2
  -4   6   3 4102.40 411.217   1
  -4   6   3 4152.79 429.488   2
  -4   6   3 4160.99 369.756   3
  -4   6   4 22209.8 684.128   3
  -4   6   4 23174.1 794.238   0
  -4   6   4 22552.4 718.926   1
  -4   6   4 22346.6 721.248   2
  -4   6   5 20074.8 675.922   1
  -4   6   5 21823.6 778.335   0
  -4   6   5 20246.3 721.029   2
  -4   6   5 21232.7 705.956   3
  -4   6   6 4250.27 451.504   3
  -4   6   6 3950.86 388.755   1
  -4   6   6 4533.11 463.962   0
  -4   6   7 35935.1 986.419   0
  -4   6   7 37155.5 959.778   3
  -4   6   8 6871.05 571.005   0
  -4   6   8 6710.04 531.960   3
  -4   6   9 9548.25 657.818   0
  -4   6   9 9291.42 633.429   3
  -4   6  10 20186.8 858.676   3
  -4   6  10 19366.7 874.809   0
  -4   6  11 2628.38 587.457   0
  -4   6  12 7203.07 770.175   0
  -4   6  13 6752.49 850.868   0
  -4   7  -5-405.753 712.816   2
  -4   7  -4 4289.86 795.735   2
  -4   7  -4 3589.51 640.268   1
  -4   7  -3 3217.75 681.685   2
  -4   7  -3 3384.15 612.688   1
  -4   7  -2 999.220 542.278   2
  -4   7  -2 968.850 486.269   1
  -4   7  -1 12484.0 751.682   1
  -4   7  -1 12678.1 784.780   2
  -4   7   0 4359.95 544.370   1
  -4   7   0 3797.10 548.488   2
  -4   7   1 5268.30 527.240   1
  -4   7   1 5149.35 544.649   2
  -4   7   2 24081.9 867.393   1
  -4   7   2 24734.5 865.693   2
  -4   7   3 4510.01 476.247   2
  -4   7   3 4634.00 475.343   1
  -4   7   4 9082.94 570.962   1
  -4   7   4 8501.32 551.976   2
  -4   7   5 17491.4 785.134   0
  -4   7   5 15637.0 672.765   2
  -4   7   5 17275.8 691.814   1
  -4   7   6 490.990 442.004   0
  -4   7   6 484.860 340.892   1
  -4   7   7 29425.5 956.388   0
  -4   7   8 11240.6 693.073   0
  -4   7   9 7277.89 647.722   0
  -4   7  10 16062.3 884.932   0
  -4   7  11 633.523 558.986   0
  -4   7  12 6924.87 777.727   0
  -4   7  13 4424.74 763.493   0
  -4   8  -3 2826.80 784.071   2
  -4   8  -2 531.871 632.566   2
  -4   8  -2 376.869 527.908   1
  -4   8  -1 7033.80 700.895   1
  -4   8  -1 7754.99 751.498   2
  -4   8   0 2387.04 558.589   2
  -4   8   0 1670.66 531.625   1
  -4   8   1 4545.30 568.877   1
  -4   8   2 12479.0 749.880   1
  -4   8   3 347.378 408.873   1
  -4   8   4 7128.58 592.935   1
  -4   8   5 12370.4 688.846   1
  -4   8   6-100.840 466.494   0
  -4   8   6 289.932 400.862   1
  -4   8   7 18518.4 904.870   0
  -4   8   8 9707.53 738.684   0
  -4   8   9 1523.02 540.755   0
  -4   8  10 18308.1 960.665   0
  -4   8  11 5263.83 744.285   0
  -4   9   1 1578.69 574.339   1
  -4   9   2 11008.6 798.367   1
  -4   9   3 1633.36 529.421   1
  -4   9   4 6267.38 625.172   1
  -4   9   5 6716.65 643.867   1
  -4   9   6 1377.65 480.550   1
  -4   9   7 12616.5 854.600   0
  -4   9   8 3825.75 668.387   0
  -4   9   9 279.380 566.778   0
  -4   9  10 10962.3 870.557   0
  -3  -6   2 21506.6 579.766   3
  -3  -6   3 9166.45 392.391   3
  -3  -5  -9 21116.0 626.932   2
  -3  -5  -8 73976.6 972.622   2
  -3  -5  -7 143.585 203.270   2
  -3  -5  -6 82385.6 737.089   2
  -3  -5  -5 62526.5 476.194   2
  -3  -5   1 857.556 263.363   3
  -3  -5   2 61510.4 877.188   3
  -3  -5   3 36953.9 645.526   3
  -3  -5   4 389.573 207.883   3
  -3  -4 -12 1621.58 495.150   2
  -3  -4 -11 21741.2 808.702   2
  -3  -4 -10 1210.68 369.396   2
  -3  -4  -9 38204.0 863.406   2
  -3  -4  -8 70193.3 1036.86   2
  -3  -4  -7 2470.36 274.608   2
  -3  -4  -6 30980.0 566.781   2
  -3  -4  -5 58340.4 636.382   2
  -3  -4  -4 2157.69 137.219   2
  -3  -4  -3 160624. 2483.63   2
  -3  -4   1 13879.9 455.779   3
  -3  -4   2 101785. 1056.84   3
  -3  -4   3 50296.7 720.642   3
  -3  -4   4 34981.4 618.349   3
  -3  -4   5 104463. 1041.06   3
  -3  -4  11 3638.58 738.424   0
  -3  -4  12 87.7773 665.260   0
  -3  -3 -14 7127.15 830.515   2
  -3  -3 -13 5597.43 734.872   2
  -3  -3 -12 1459.87 531.055   2
  -3  -3 -11 26791.7 938.177   2
  -3  -3 -10 2325.22 456.893   2
  -3  -3  -9 41454.1 959.860   2
  -3  -3  -8 67578.1 1101.40   2
  -3  -3  -7 1018.66 271.108   2
  -3  -3  -6 62910.7 870.520   2
  -3  -3  -5 35111.7 580.331   2
  -3  -3  -4 36976.7 519.962   2
  -3  -3  -3 101419. 705.533   2
  -3  -3  -2 11062.7 220.102   2
  -3  -3  -1 45770.7 421.700   2
  -3  -3   1 27292.6 569.732   3
  -3  -3   2 72135.8 848.155   3
  -3  -3   3 66447.5 796.490   3
  -3  -3   4 9443.83 341.873   3
  -3  -3   5 122243. 1126.10   3
  -3  -3   6 31025.7 611.653   3
  -3  -3   7 22275.0 543.133   3
  -3  -3  10 12336.8 841.563   0
  -3  -3  11 6150.38 738.354   0
  -3  -3  12 917.726 674.665   0
  -3  -2 -14 5149.63 798.582   2
  -3  -2 -13 2083.86 647.676   2
  -3  -2 -12 144.747 533.437   2
  -3  -2 -11 17513.3 843.902   2
  -3  -2 -10 9935.76 626.577   2
  -3  -2  -9 26792.5 861.234   2
  -3  -2  -8 67601.7 1173.86   2
  -3  -2  -7 12100.3 533.250   2
  -3  -2  -6 81430.8 1086.52   2
  -3  -2  -5 94809.5 1054.77   2
  -3  -2  -4 12858.1 383.330   2
  -3  -2  -3 191358. 4625.74   2
  -3  -2  -2 57228.9 577.039   2
  -3  -2  -1 97422.5 696.703   2
  -3  -2   0 184989. 1396.33   3
  -3  -2   0 176881. 3806.91   2
  -3  -2   1 10412.5 354.158   3
  -3  -2   2 31784.1 550.627   3
  -3  -2   3 57602.7 742.127   3
  -3  -2   4 4955.50 269.909   3
  -3  -2   5 75899.5 900.023   3
  -3  -2   6 34636.4 651.534   3
  -3  -2   7 13118.0 453.171   3
  -3  -2   8 54698.9 873.958   3
  -3  -2   8 56043.4 1306.76   0
  -3  -2   9 3577.27 561.237   0
  -3  -2  10 16226.6 883.255   0
  -3  -2  11 12640.8 889.289   0
  -3  -2  12 1207.53 630.301   0
  -3  -2  13 13114.4 1044.77   0
  -3  -1 -14 2956.74 806.374   2
  -3  -1 -13 2121.20 722.616   2
  -3  -1 -12 337.343 552.306   2
  -3  -1 -11 13131.9 816.390   2
  -3  -1 -10 3592.92 530.601   2
  -3  -1  -9 33017.6 1008.80   2
  -3  -1  -8 25415.3 818.537   2
  -3  -1  -7 16085.0 631.115   2
  -3  -1  -6 38425.6 844.340   2
  -3  -1  -5 52045.8 878.111   2
  -3  -1  -4 32246.5 643.060   2
  -3  -1  -3 228080. 5751.01   2
  -3  -1  -2 80492.6 788.057   2
  -3  -1  -1 96762.2 985.300   3
  -3  -1  -1 102492. 828.021   2
  -3  -1   0 415152. 6450.44   2
  -3  -1   0 398814. 7421.29   3
  -3  -1   1 5156.67 255.324   3
  -3  -1   1 5809.20 145.283   0
  -3  -1   1 5256.91 218.190   2
  -3  -1   2 138435. 1090.59   3
  -3  -1   2 147270. 938.147   0
  -3  -1   3 97707.8 952.087   0
  -3  -1   3 92622.7 933.854   3
  -3  -1   4 36339.2 694.944   0
  -3  -1   4 35389.4 606.652   3
  -3  -1   5 131978. 1451.22   0
  -3  -1   5 136596. 1225.94   3
  -3  -1   6 30382.2 804.037   0
  -3  -1   6 32505.3 644.779   3
  -3  -1   7 12792.9 613.495   0
  -3  -1   7 13929.0 467.354   3
  -3  -1   8 32804.7 713.304   3
  -3  -1   8 32122.9 991.038   0
  -3  -1   9 5015.61 374.774   3
  -3  -1   9 4933.10 555.704   0
  -3  -1  10 10938.8 510.163   3
  -3  -1  10 11168.6 766.337   0
  -3  -1  11 10077.5 780.992   0
  -3  -1  12 491.669 586.378   0
  -3  -1  13 9344.14 901.818   0
  -3  -1  14 3819.87 827.914   0
  -3   0 -13 3492.25 762.094   2
  -3   0 -12 1073.37 686.006   2
  -3   0 -11 15929.0 930.902   2
  -3   0 -10 3364.44 598.460   2
  -3   0  -9 15945.4 791.444   2
  -3   0  -8 30846.0 966.992   2
  -3   0  -7 7458.46 539.187   2
  -3   0  -6 31788.2 833.405   2
  -3   0  -5 30943.5 764.941   2
  -3   0  -4 23260.1 618.722   2
  -3   0  -3 55533.1 740.139   3
  -3   0  -3 54412.0 809.352   2
  -3   0  -2 87904.7 856.730   3
  -3   0  -2 88375.1 944.853   2
  -3   0  -1 32198.3 506.951   3
  -3   0  -1 32118.0 536.639   2
  -3   0   0 191996. 1184.88   3
  -3   0   0 200763. 4953.98   2
  -3   0   1 74125.2 781.981   3
  -3   0   1 77875.8 485.951   0
  -3   0   1 76247.4 765.661   2
  -3   0   2 81948.7 621.096   0
  -3   0   2 81091.1 830.544   3
  -3   0   2 79574.4 808.457   2
  -3   0   3 105408. 989.574   3
  -3   0   3 107120. 874.833   0
  -3   0   4 7063.65 309.919   3
  -3   0   4 7297.50 314.341   0
  -3   0   5 220792. 1573.22   3
  -3   0   5 219136. 1715.80   0
  -3   0   6 60459.5 886.109   3
  -3   0   6 57961.8 1010.06   0
  -3   0   7 11461.3 554.873   0
  -3   0   7 10625.5 428.512   3
  -3   0   8 51981.9 899.491   3
  -3   0   8 52173.3 1158.72   0
  -3   0   9 2312.66 446.742   0
  -3   0   9 2582.74 338.764   3
  -3   0  10 22030.4 685.840   3
  -3   0  10 21431.9 924.746   0
  -3   0  11 10096.0 535.271   3
  -3   0  11 10790.1 782.416   0
  -3   0  12 1228.70 579.204   0
  -3   0  13 6000.16 790.862   0
  -3   0  14 7598.19 900.862   0
  -3   1 -12 664.176 667.593   2
  -3   1 -11 11019.3 885.934   2
  -3   1 -10 8977.69 763.316   2
  -3   1  -9 3842.59 607.515   2
  -3   1  -8 44706.0 1203.45   2
  -3   1  -7 4532.33 499.032   2
  -3   1  -6 29474.4 887.836   2
  -3   1  -5 42946.8 498.505   3
  -3   1  -5 44501.3 987.367   2
  -3   1  -4 10805.4 271.864   3
  -3   1  -4 11795.9 512.450   2
  -3   1  -3 89691.6 701.745   3
  -3   1  -3 88241.9 1131.20   2
  -3   1  -2 50320.0 549.901   3
  -3   1  -2 50250.5 799.324   2
  -3   1  -1 40101.2 513.919   3
  -3   1  -1 39254.2 662.323   2
  -3   1   0 93051.7 808.897   3
  -3   1   0 94761.6 958.075   2
  -3   1   1 23413.1 362.881   0
  -3   1   1 23416.1 477.911   2
  -3   1   1 22122.9 434.476   3
  -3   1   2 134905. 1095.45   2
  -3   1   2 135462. 887.617   0
  -3   1   2 132688. 1075.24   3
  -3   1   3 54537.9 738.305   3
  -3   1   3 53669.6 730.879   2
  -3   1   3 54908.0 631.082   0
  -3   1   4 76.0464 139.490   0
  -3   1   4 39.6761 156.720   3
  -3   1   5 123645. 1244.52   0
  -3   1   5 124066. 1219.18   3
  -3   1   6 94303.0 1206.27   0
  -3   1   6 95627.1 1128.93   3
  -3   1   7 18556.4 561.112   3
  -3   1   7 18179.0 631.187   0
  -3   1   8 97936.4 1260.62   3
  -3   1   8 96946.5 1493.34   0
  -3   1   9 11484.4 526.137   3
  -3   1   9 12488.8 674.952   0
  -3   1  10 22637.2 710.483   3
  -3   1  10 23735.6 944.177   0
  -3   1  11 24131.9 781.594   3
  -3   1  11 23389.8 1017.00   0
  -3   1  12 596.764 365.356   3
  -3   1  12 991.315 556.677   0
  -3   1  13 16380.4 1022.59   0
  -3   1  14 10129.4 959.205   0
  -3   2 -11 7227.57 851.075   2
  -3   2 -10 3520.50 709.028   2
  -3   2  -9 7608.57 753.336   2
  -3   2  -8 28755.4 1088.31   2
  -3   2  -7 6032.05 602.346   2
  -3   2  -6 13962.7 727.410   2
  -3   2  -5 38102.1 993.544   2
  -3   2  -4 4090.27 414.043   2
  -3   2  -3 137795. 710.183   3
  -3   2  -3 144811. 1409.12   1
  -3   2  -3 152325. 1610.80   2
  -3   2  -2 78680.0 1015.22   1
  -3   2  -2 78599.7 616.627   3
  -3   2  -2 78273.5 1084.45   2
  -3   2  -1 20470.4 521.390   1
  -3   2  -1 19911.2 362.034   3
  -3   2  -1 19718.1 529.865   2
  -3   2   0 166942. 1338.61   1
  -3   2   0 164817. 1069.27   3
  -3   2   0 162814. 1375.58   2
  -3   2   1 11666.4 336.575   3
  -3   2   1 12158.3 378.106   1
  -3   2   1 11554.3 340.091   0
  -3   2   1 11796.7 391.860   2
  -3   2   2 72766.1 809.878   1
  -3   2   2 73723.7 782.614   0
  -3   2   2 72322.0 815.951   3
  -3   2   2 72226.4 875.995   2
  -3   2   3 23103.5 441.165   1
  -3   2   3 22826.3 506.953   3
  -3   2   3 21854.7 505.655   2
  -3   2   3 22057.4 453.507   0
  -3   2   4 7240.31 244.427   1
  -3   2   4 7502.07 331.754   3
  -3   2   4 7491.75 317.691   0
  -3   2   5 95977.8 1080.24   0
  -3   2   5 100365. 1136.88   3
  -3   2   6 77242.6 1072.14   0
  -3   2   6 82487.9 1080.44   3
  -3   2   7 13571.1 551.220   0
  -3   2   7 12722.2 499.502   3
  -3   2   8 13235.8 630.290   0
  -3   2   8 11614.5 500.740   3
  -3   2   9 6661.28 448.319   3
  -3   2   9 7628.66 565.004   0
  -3   2  10 18830.3 682.309   3
  -3   2  10 19619.1 864.921   0
  -3   2  11 35215.0 951.803   3
  -3   2  11 35506.1 1201.39   0
  -3   2  12 77.5823 396.471   3
  -3   2  12-100.351 514.009   0
  -3   2  13 17700.2 1091.66   0
  -3   2  14 9225.68 958.445   0
  -3   3 -10 4531.16 844.119   2
  -3   3  -9 2050.57 668.279   2
  -3   3  -8 9719.93 826.536   2
  -3   3  -7 1417.22 531.000   2
  -3   3  -6 11082.3 734.788   2
  -3   3  -5 14840.2 595.881   1
  -3   3  -5 16011.7 747.239   2
  -3   3  -4 391.632 343.993   2
  -3   3  -4 159.546 272.018   1
  -3   3  -3 58175.0 1003.02   1
  -3   3  -3 55899.0 1091.16   2
  -3   3  -2 41950.0 432.365   3
  -3   3  -2 45989.7 859.149   1
  -3   3  -2 43702.8 900.836   2
  -3   3  -1 5210.47 326.983   1
  -3   3  -1 5395.77 213.284   3
  -3   3  -1 5387.19 367.176   2
  -3   3   0 100861. 1151.15   1
  -3   3   0 99972.0 849.928   3
  -3   3   0 99639.5 1176.67   2
  -3   3   1 24039.1 574.532   2
  -3   3   1 25991.8 584.454   1
  -3   3   1 24747.1 477.768   3
  -3   3   2 65784.9 854.493   0
  -3   3   2 62944.5 846.436   1
  -3   3   2 63398.4 798.468   3
  -3   3   2 64564.1 891.505   2
  -3   3   3 129485. 1148.10   1
  -3   3   3 124661. 1170.26   3
  -3   3   3 125624. 1179.50   0
  -3   3   3 123220. 1214.02   2
  -3   3   4 817.625 225.914   2
  -3   3   4 873.705 210.792   3
  -3   3   4 920.429 209.321   0
  -3   3   4 801.098 172.347   1
  -3   3   5 127520. 1019.64   1
  -3   3   5 123515. 1302.10   3
  -3   3   5 122112. 1270.55   0
  -3   3   6 60274.7 657.890   1
  -3   3   6 62481.2 989.064   3
  -3   3   6 61206.5 976.971   0
  -3   3   7 14721.5 542.898   3
  -3   3   7 14061.1 559.170   0
  -3   3   8 30469.4 835.261   0
  -3   3   8 31487.6 798.095   3
  -3   3   9 8904.82 559.384   0
  -3   3   9 9627.54 513.916   3
  -3   3  10 16618.4 777.711   0
  -3   3  10 16378.4 674.011   3
  -3   3  11 24756.4 1016.78   0
  -3   3  11 24231.8 829.808   3
  -3   3  12 437.031 522.058   0
  -3   3  12 517.945 418.285   3
  -3   3  13 10067.8 880.752   0
  -3   3  14 11088.2 961.858   0
  -3   4  -9 1369.22 751.849   2
  -3   4  -8 13632.5 985.370   2
  -3   4  -7 2866.31 651.012   2
  -3   4  -6 11290.2 796.344   2
  -3   4  -5 16607.5 682.949   1
  -3   4  -5 17804.5 844.585   2
  -3   4  -4 2298.73 451.144   2
  -3   4  -4 2299.06 361.137   1
  -3   4  -3 46679.1 984.612   1
  -3   4  -3 46511.2 1093.90   2
  -3   4  -2 24762.0 717.200   1
  -3   4  -2 24188.9 767.180   2
  -3   4  -1 4946.82 358.506   1
  -3   4  -1 4773.31 396.999   2
  -3   4  -1 4576.22 212.773   3
  -3   4   0 55301.4 665.255   3
  -3   4   0 56961.3 966.170   1
  -3   4   0 54250.4 962.990   2
  -3   4   1 16026.7 414.487   3
  -3   4   1 16660.7 527.524   1
  -3   4   1 16043.8 531.788   2
  -3   4   2 32354.3 608.329   3
  -3   4   2 34597.7 722.572   0
  -3   4   2 33015.7 696.689   1
  -3   4   2 32631.4 699.072   2
  -3   4   3 75227.0 957.662   3
  -3   4   3 75987.9 995.960   1
  -3   4   3 75286.6 1011.77   2
  -3   4   3 75736.6 1029.98   0
  -3   4   4 593.971 222.235   2
  -3   4   4 798.629 233.910   0
  -3   4   4 832.496 235.820   3
  -3   4   4 650.150 195.510   1
  -3   4   5 87329.8 1146.29   3
  -3   4   5 89470.0 989.514   1
  -3   4   5 88534.7 1157.57   0
  -3   4   6 86710.0 921.098   1
  -3   4   6 85012.5 1196.82   3
  -3   4   6 82079.7 1168.01   0
  -3   4   7 2275.53 215.062   1
  -3   4   7 2939.31 337.707   3
  -3   4   7 2999.11 351.351   0
  -3   4   8 62112.0 1138.77   3
  -3   4   8 57388.3 1123.71   0
  -3   4   9 6998.56 488.726   3
  -3   4   9 6745.18 519.657   0
  -3   4  10 22586.8 804.683   3
  -3   4  10 20601.8 844.927   0
  -3   4  11 29234.1 1063.12   0
  -3   4  11 29081.9 934.095   3
  -3   4  12 392.608 492.161   0
  -3   4  13 11962.9 886.507   0
  -3   4  14 7630.06 860.361   0
  -3   5  -8 8697.32 953.229   2
  -3   5  -7 2067.43 735.044   2
  -3   5  -6 4477.92 724.524   2
  -3   5  -6 3782.99 510.357   1
  -3   5  -5 12122.0 674.383   1
  -3   5  -5 12658.2 847.130   2
  -3   5  -4 419.488 490.397   2
  -3   5  -4 411.821 348.676   1
  -3   5  -3 35990.0 956.038   1
  -3   5  -3 36778.2 1073.24   2
  -3   5  -2 26647.5 805.580   1
  -3   5  -2 26002.2 859.734   2
  -3   5  -1 2503.93 359.134   1
  -3   5  -1 2856.62 394.190   2
  -3   5   0 34282.9 835.674   1
  -3   5   0 33696.7 832.356   2
  -3   5   1 310.615 268.903   2
  -3   5   1 374.331 203.039   3
  -3   5   1 449.228 272.830   1
  -3   5   2 27707.0 598.031   3
  -3   5   2 27241.8 699.572   1
  -3   5   2 27440.4 700.305   2
  -3   5   3 36106.6 708.104   3
  -3   5   3 36860.4 783.845   1
  -3   5   3 37912.4 851.452   0
  -3   5   3 37166.6 778.960   2
  -3   5   4 209.995 238.355   2
  -3   5   4 106.609 263.583   0
  -3   5   4 328.428 222.585   3
  -3   5   4 578.803 239.666   1
  -3   5   5 51932.4 940.716   3
  -3   5   5 50714.0 846.945   1
  -3   5   5 51518.0 973.872   0
  -3   5   5 51226.6 906.910   2
  -3   5   6 37956.1 713.509   1
  -3   5   6 36425.9 849.623   0
  -3   5   6 39351.2 862.596   3
  -3   5   7 773.766 310.045   0
  -3   5   7 315.664 294.219   3
  -3   5   7 570.824 220.834   1
  -3   5   8 30370.6 851.390   3
  -3   5   8 27760.5 833.552   0
  -3   5   9 10381.5 591.444   3
  -3   5   9 9378.84 594.207   0
  -3   5  10 18366.7 772.618   3
  -3   5  10 17474.0 800.480   0
  -3   5  11 40188.7 1103.09   3
  -3   5  11 39350.2 1208.69   0
  -3   5  12 1332.91 556.598   0
  -3   5  13 14635.8 982.996   0
  -3   5  14 11639.4 967.475   0
  -3   6  -7 198.892 753.953   2
  -3   6  -6 2056.58 698.977   2
  -3   6  -6 1553.94 525.614   1
  -3   6  -5 13052.2 762.581   1
  -3   6  -5 13037.6 945.380   2
  -3   6  -4 379.479 512.877   2
  -3   6  -4 413.446 406.941   1
  -3   6  -3 18135.0 787.625   1
  -3   6  -3 19699.2 928.055   2
  -3   6  -2 20629.9 787.500   1
  -3   6  -2 23419.6 913.768   2
  -3   6  -1 686.895 378.910   2
  -3   6  -1 674.239 351.254   1
  -3   6   0 33332.9 898.560   1
  -3   6   0 33318.1 918.976   2
  -3   6   1 15367.7 632.615   1
  -3   6   1 14380.3 599.877   2
  -3   6   2 17870.5 654.525   1
  -3   6   2 18209.7 629.927   2
  -3   6   3 54084.1 1109.10   0
  -3   6   3 52659.3 1023.87   1
  -3   6   3 52239.6 968.312   2
  -3   6   4 46.8909 282.594   2
  -3   6   4 207.059 329.768   0
  -3   6   4 110.858 269.338   3
  -3   6   4 126.314 271.791   1
  -3   6   5 50230.4 974.042   3
  -3   6   5 48859.5 931.602   1
  -3   6   5 48161.2 1022.32   0
  -3   6   5 49863.7 938.591   2
  -3   6   6 25098.1 667.002   1
  -3   6   6 25480.5 750.505   3
  -3   6   6 23440.8 771.785   0
  -3   6   7 249.007 334.376   0
  -3   6   7 463.990 335.194   3
  -3   6   7 303.776 237.193   1
  -3   6   8 21279.2 788.563   0
  -3   6   8 22226.8 787.914   3
  -3   6   9 3910.55 472.862   3
  -3   6   9 3207.81 477.655   0
  -3   6  10 8188.92 640.733   0
  -3   6  11 24378.4 1001.79   0
  -3   6  12 2085.64 582.945   0
  -3   6  13 9405.46 854.467   0
  -3   6  14 12672.5 1021.68   0
  -3   7  -6 773.958 753.303   2
  -3   7  -5 8603.04 733.022   1
  -3   7  -5 9130.71 932.370   2
  -3   7  -4 811.381 579.486   2
  -3   7  -4 155.410 487.886   1
  -3   7  -3 9825.90 695.059   1
  -3   7  -3 10134.7 812.395   2
  -3   7  -2 8460.76 697.151   2
  -3   7  -2 8459.46 628.642   1
  -3   7  -1 239.187 425.630   2
  -3   7  -1 137.118 398.861   1
  -3   7   0 15846.8 710.567   1
  -3   7   0 17472.1 763.758   2
  -3   7   1 7250.73 526.460   1
  -3   7   1 7257.11 528.354   2
  -3   7   2 15311.2 685.764   1
  -3   7   2 15213.4 650.898   2
  -3   7   3 35613.1 938.969   1
  -3   7   3 37290.6 890.131   2
  -3   7   4 2335.52 362.728   2
  -3   7   4 2418.82 454.418   0
  -3   7   4 2757.10 390.950   1
  -3   7   5 30654.9 951.422   0
  -3   7   5 29630.0 820.132   1
  -3   7   5 30261.0 794.420   2
  -3   7   6 29655.7 800.365   1
  -3   7   6 29389.6 914.810   0
  -3   7   7 1206.23 407.711   0
  -3   7   7 1275.87 322.878   1
  -3   7   8 30710.0 976.731   0
  -3   7   9 3105.00 511.929   0
  -3   7  10 11736.9 745.557   0
  -3   7  11 21255.0 975.527   0
  -3   7  12 12.5723 529.963   0
  -3   7  13 6715.98 790.446   0
  -3   8  -4-340.335 689.749   2
  -3   8  -3 7577.94 722.195   1
  -3   8  -3 6424.20 815.779   2
  -3   8  -2 5894.68 639.327   1
  -3   8  -2 6689.85 741.212   2
  -3   8  -1 223.349 493.774   2
  -3   8  -1 184.985 419.849   1
  -3   8   0 10453.9 692.563   1
  -3   8   0 12161.1 736.929   2
  -3   8   1 916.520 437.752   1
  -3   8   2 8170.73 582.752   1
  -3   8   3 20553.6 807.364   1
  -3   8   4 851.308 370.011   1
  -3   8   5 9349.79 668.009   0
  -3   8   5 10801.6 609.291   1
  -3   8   6 27269.0 848.267   1
  -3   8   6 28556.8 1002.50   0
  -3   8   7-54.1026 441.812   0
  -3   8   7 362.586 352.364   1
  -3   8   8 14880.6 786.863   0
  -3   8   9 8260.46 685.252   0
  -3   8  10 6232.16 681.630   0
  -3   8  11 22718.9 1051.91   0
  -3   8  12 2586.07 681.567   0
  -3   9  -1-5.71857 498.410   1
  -3   9   0 9524.42 743.483   1
  -3   9   1 2814.06 548.180   1
  -3   9   2 4580.22 558.026   1
  -3   9   3 15644.2 800.130   1
  -3   9   4 120.345 400.409   1
  -3   9   5 8552.56 643.534   1
  -3   9   6 11055.8 776.975   0
  -3   9   6 11593.5 683.497   1
  -3   9   7 715.503 518.219   0
  -3   9   8 12245.2 830.013   0
  -3   9   9 2283.82 598.870   0
  -3   9  10 1808.52 600.304   0
  -3   9  11 16129.4 1005.55   0
  -3  10   3 13163.8 839.682   1
  -3  10   4 1324.12 535.012   1
  -3  10   5 7127.86 663.560   1
  -3  10   6 8353.75 692.369   1
  -3  10   8 10158.9 826.512   0
  -3  10   9 781.897 639.829   0
  -2  -6   2 294.605 234.303   3
  -2  -5 -10 34141.0 835.239   2
  -2  -5  -9 6462.65 421.026   2
  -2  -5  -8 37743.9 707.341   2
  -2  -5  -7 75263.8 848.821   2
  -2  -5  -6 7973.85 276.552   2
  -2  -5  -5 196696. 832.115   2
  -2  -5   2 605.104 205.096   3
  -2  -5   3 50912.8 631.658   3
  -2  -4 -13 15838.6 865.986   2
  -2  -4 -12 16479.5 787.671   2
  -2  -4 -11 5269.28 537.258   2
  -2  -4 -10 24495.0 777.172   2
  -2  -4  -9 6292.79 448.080   2
  -2  -4  -8 28423.3 674.324   2
  -2  -4  -7 38764.0 693.293   2
  -2  -4  -6 953.361 202.853   2
  -2  -4  -5 142072. 908.394   2
  -2  -4  -4 105284. 570.401   2
  -2  -4   2 2793.15 219.590   3
  -2  -4   3 145263. 1009.45   3
  -2  -4   4 65188.0 675.468   3
  -2  -4  11 4964.87 764.173   0
  -2  -4  12 4071.16 820.329   0
  -2  -3 -15 4011.32 830.253   2
  -2  -3 -14 702.613 650.891   2
  -2  -3 -13 21415.8 982.071   2
  -2  -3 -12 19364.6 888.169   2
  -2  -3 -11 5461.12 558.329   2
  -2  -3 -10 41662.2 1026.11   2
  -2  -3  -9 1927.90 396.570   2
  -2  -3  -8 61117.3 1028.26   2
  -2  -3  -7 45771.7 815.513   2
  -2  -3  -6 237.638 209.094   2
  -2  -3  -5 188389. 1235.23   2
  -2  -3  -4 87682.3 689.586   2
  -2  -3  -3 20993.0 263.188   2
  -2  -3   1 212987. 5240.35   3
  -2  -3   2 3753.71 214.473   3
  -2  -3   3 158000. 1020.35   3
  -2  -3   4 102096. 851.855   3
  -2  -3   5 7894.48 283.554   3
  -2  -3   6 64307.1 719.123   3
  -2  -3  11 6561.35 757.726   0
  -2  -3  12 3970.13 767.620   0
  -2  -2 -15 1859.52 772.454   2
  -2  -2 -14 146.766 660.710   2
  -2  -2 -13 13654.4 890.542   2
  -2  -2 -12 11999.0 802.562   2
  -2  -2 -11 913.469 465.604   2
  -2  -2 -10 32590.5 978.272   2
  -2  -2  -9 8126.42 528.328   2
  -2  -2  -8 28771.9 779.861   2
  -2  -2  -7 96981.6 1260.90   2
  -2  -2  -6 658.544 252.145   2
  -2  -2  -5 242637. 6169.51   2
  -2  -2  -4 127810. 996.272   2
  -2  -2  -3 9454.60 253.310   2
  -2  -2  -2 4636.24 152.108   2
  -2  -2  -1 88526.3 1847.68   2
  -2  -2   1 123412. 922.303   3
  -2  -2   2 3539.04 188.396   3
  -2  -2   3 31454.2 469.851   3
  -2  -2   4 93240.5 826.766   3
  -2  -2   5 941.591 164.418   3
  -2  -2   6 77197.3 834.974   3
  -2  -2   7 11588.3 374.901   3
  -2  -2   9 58873.9 1401.99   0
  -2  -2  10 2323.37 531.682   0
  -2  -2  11 11030.4 818.406   0
  -2  -2  12 8117.35 818.491   0
  -2  -2  13 1110.89 725.455   0
  -2  -1 -14 32.7374 711.859   2
  -2  -1 -13 12886.8 907.623   2
  -2  -1 -12 4992.39 686.549   2
  -2  -1 -11 696.372 475.252   2
  -2  -1 -10 14261.8 742.796   2
  -2  -1  -9 6077.07 522.010   2
  -2  -1  -8 39045.2 953.992   2
  -2  -1  -7 87078.1 1261.96   2
  -2  -1  -6 3409.11 331.687   2
  -2  -1  -5 119174. 1217.72   2
  -2  -1  -4 153559. 1230.87   2
  -2  -1  -3 16505.9 392.026   2
  -2  -1  -2 466798. 6453.56   2
  -2  -1  -1 191900. 3534.17   2
  -2  -1   0 310962. 5609.11   3
  -2  -1   0 316287. 4302.72   2
  -2  -1   1 244035. 4699.58   3
  -2  -1   2 790.585 145.992   3
  -2  -1   3 110798. 871.436   3
  -2  -1   4 200598. 4932.52   3
  -2  -1   5 10902.6 334.807   3
  -2  -1   6 41437.6 650.258   3
  -2  -1   7 10554.3 553.312   0
  -2  -1   7 11132.3 384.245   3
  -2  -1   8 17559.1 734.962   0
  -2  -1   8 17640.8 492.138   3
  -2  -1   9 35920.0 1070.77   0
  -2  -1   9 34754.8 697.855   3
  -2  -1  10 4071.77 567.185   0
  -2  -1  11 13668.5 849.080   0
  -2  -1  12 11865.5 865.082   0
  -2  -1  13 381.513 643.219   0
  -2  -1  14 6927.70 895.106   0
  -2   0 -13 11151.7 974.772   2
  -2   0 -12 9141.01 858.973   2
  -2   0 -11 290.314 529.864   2
  -2   0 -10 18457.4 874.467   2
  -2   0  -9 3760.30 511.840   2
  -2   0  -8 34533.7 986.345   2
  -2   0  -7 28150.1 835.675   2
  -2   0  -6 563.726 307.454   2
  -2   0  -5 66779.1 1032.68   2
  -2   0  -4 111094. 1191.73   2
  -2   0  -3 312.939 190.317   2
  -2   0  -2 72015.6 756.931   2
  -2   0  -1 4070.93 197.699   3
  -2   0  -1 4436.88 205.637   2
  -2   0   0 156815. 3433.67   3
  -2   0   0 163631. 3627.55   2
  -2   0   1 534537. 4553.18   0
  -2   0   1 516250. 6659.01   3
  -2   0   1 518450. 6391.37   2
  -2   0   2 30809.8 447.312   3
  -2   0   2 31419.2 391.603   0
  -2   0   3 146199. 4045.84   3
  -2   0   3 149608. 1050.97   0
  -2   0   4 154538. 4480.99   3
  -2   0   4 159768. 1290.06   0
  -2   0   5 25380.4 507.101   3
  -2   0   5 25506.0 615.416   0
  -2   0   6 108724. 1069.64   3
  -2   0   6 105562. 1338.27   0
  -2   0   7 13756.9 442.413   3
  -2   0   7 14092.2 592.882   0
  -2   0   8 38291.3 728.520   3
  -2   0   8 37975.2 985.738   0
  -2   0   9 38089.1 761.853   3
  -2   0   9 38270.5 1071.28   0
  -2   0  10 6205.92 406.629   3
  -2   0  10 6218.02 597.566   0
  -2   0  11 10041.9 747.505   0
  -2   0  12 7839.78 758.506   0
  -2   0  13 383.579 612.285   0
  -2   0  14 4541.29 802.011   0
  -2   1 -13 3359.01 851.473   2
  -2   1 -12 7773.92 900.553   2
  -2   1 -11 236.312 570.234   2
  -2   1 -10 14910.6 888.629   2
  -2   1  -9 4864.53 605.022   2
  -2   1  -8 24180.6 916.581   2
  -2   1  -7 61004.8 1272.15   2
  -2   1  -6 3008.10 412.255   2
  -2   1  -5 71027.5 1170.46   2
  -2   1  -4 62892.4 539.719   3
  -2   1  -4 64584.1 1011.74   2
  -2   1  -3 9061.65 198.467   3
  -2   1  -3 8800.00 307.034   1
  -2   1  -3 9876.88 399.879   2
  -2   1  -2 76021.4 782.914   1
  -2   1  -2 76069.4 507.833   3
  -2   1  -2 75771.8 897.745   2
  -2   1  -1 16876.1 361.132   1
  -2   1  -1 16306.7 266.061   3
  -2   1  -1 16915.1 396.221   2
  -2   1   0 83930.3 723.468   1
  -2   1   0 83853.7 627.667   3
  -2   1   0 86646.5 780.683   2
  -2   1   1 258660. 4241.02   0
  -2   1   1 248133. 4543.46   1
  -2   1   1 247726. 4636.76   3
  -2   1   1 253157. 5050.00   2
  -2   1   2 65387.9 536.227   1
  -2   1   2 65259.5 658.578   2
  -2   1   2 66584.8 590.656   0
  -2   1   2 68883.0 682.621   3
  -2   1   3 76186.2 729.192   0
  -2   1   3 79422.8 786.101   3
  -2   1   4 152763. 4691.76   3
  -2   1   4 152128. 1176.43   0
  -2   1   5 189.861 181.184   0
  -2   1   5 259.754 171.821   3
  -2   1   6 144753. 1285.87   3
  -2   1   6 142028. 1463.17   0
  -2   1   7 44750.4 772.129   3
  -2   1   7 44687.9 928.724   0
  -2   1   8 29450.4 674.608   3
  -2   1   8 31232.4 873.435   0
  -2   1   9 87291.7 1185.34   3
  -2   1   9 89754.5 1539.81   0
  -2   1  10 10936.4 506.158   3
  -2   1  10 10511.3 670.699   0
  -2   1  11 17494.6 644.437   3
  -2   1  11 16443.9 860.756   0
  -2   1  12 12523.1 840.245   0
  -2   1  13 2284.15 628.094   0
  -2   1  14 5062.06 786.673   0
  -2   2 -12 4589.64 814.938   2
  -2   2 -11-36.6278 686.314   2
  -2   2 -10 14324.2 936.751   2
  -2   2  -9 5936.85 711.459   2
  -2   2  -8 12012.7 766.582   2
  -2   2  -7 54566.5 1317.74   2
  -2   2  -6 9017.67 606.989   2
  -2   2  -5 52507.8 846.553   1
  -2   2  -5 59256.8 1173.66   2
  -2   2  -4 94107.4 1083.32   1
  -2   2  -4 98953.8 1375.60   2
  -2   2  -3 946.103 276.715   2
  -2   2  -3 823.218 186.951   1
  -2   2  -2 146467. 1223.87   1
  -2   2  -2 141710. 606.590   3
  -2   2  -2 146836. 1370.88   2
  -2   2  -1 31500.2 554.437   1
  -2   2  -1 32089.8 354.455   3
  -2   2  -1 30029.7 583.527   2
  -2   2   0 96057.9 692.266   3
  -2   2   0 96282.5 906.779   1
  -2   2   0 94153.1 917.439   2
  -2   2   1 199367. 4903.17   1
  -2   2   1 198043. 1188.01   0
  -2   2   1 196536. 1099.10   3
  -2   2   1 193000. 4892.00   2
  -2   2   2 4138.45 214.832   3
  -2   2   2 4781.72 212.613   1
  -2   2   2 4233.18 217.807   0
  -2   2   2 4134.69 221.977   2
  -2   2   3 67151.9 765.354   3
  -2   2   3 71665.2 642.510   1
  -2   2   3 65252.8 733.055   2
  -2   2   3 67731.4 732.693   0
  -2   2   4 53468.1 719.349   0
  -2   2   4 54766.6 515.432   1
  -2   2   4 55482.7 754.523   3
  -2   2   5 3608.77 264.531   0
  -2   2   5 3026.62 244.421   3
  -2   2   5 3007.51 133.861   1
  -2   2   6 72461.3 966.285   3
  -2   2   6 74369.9 1062.70   0
  -2   2   7 27209.7 726.157   0
  -2   2   7 25942.9 626.965   3
  -2   2   8 24577.7 651.107   3
  -2   2   8 23868.0 748.404   0
  -2   2   9 72193.3 1132.85   3
  -2   2   9 73322.3 1356.86   0
  -2   2  10 11168.5 540.108   3
  -2   2  10 11225.0 676.547   0
  -2   2  11 16179.3 649.558   3
  -2   2  11 17299.2 860.963   0
  -2   2  12 21298.1 989.850   0
  -2   2  13 1080.65 586.746   0
  -2   2  14 12719.0 979.314   0
  -2   2  15 4316.40 843.201   0
  -2   3 -11 96.5207 722.983   2
  -2   3 -10 8255.75 869.490   2
  -2   3  -9 439.054 613.049   2
  -2   3  -8 8885.46 762.267   2
  -2   3  -7 27868.5 1067.42   2
  -2   3  -6 2946.85 334.316   1
  -2   3  -6 3079.13 519.462   2
  -2   3  -5 18980.8 589.775   1
  -2   3  -5 20077.6 804.550   2
  -2   3  -4 41893.2 817.741   1
  -2   3  -4 45388.7 1047.66   2
  -2   3  -3 1592.17 318.121   2
  -2   3  -3 1363.00 237.944   1
  -2   3  -2 85731.0 1057.73   1
  -2   3  -2 85943.1 1157.36   2
  -2   3  -1 50542.5 459.418   3
  -2   3  -1 53665.5 810.497   1
  -2   3  -1 49508.9 815.015   2
  -2   3   0 68205.8 874.658   1
  -2   3   0 67234.4 616.168   3
  -2   3   0 64067.8 851.179   2
  -2   3   1 257777. 5288.15   3
  -2   3   1 258619. 1608.73   0
  -2   3   1 262213. 6414.78   1
  -2   3   1 252820. 6210.31   2
  -2   3   2 38594.6 574.273   3
  -2   3   2 38262.2 606.103   1
  -2   3   2 38688.9 632.029   0
  -2   3   2 39326.9 614.527   2
  -2   3   3 59919.4 765.179   3
  -2   3   3 58989.3 701.198   1
  -2   3   3 58178.3 771.326   0
  -2   3   3 57044.7 724.925   2
  -2   3   4 106808. 1087.63   3
  -2   3   4 108302. 890.906   1
  -2   3   4 104038. 1061.66   0
  -2   3   5 8348.45 364.036   3
  -2   3   5 8047.56 253.989   1
  -2   3   5 7677.42 352.164   0
  -2   3   6 103990. 1225.99   0
  -2   3   6 105738. 1213.96   3
  -2   3   6 104440. 751.940   1
  -2   3   7 14812.3 543.058   0
  -2   3   7 15724.0 529.769   3
  -2   3   7 13955.6 247.264   1
  -2   3   8 9284.34 505.419   0
  -2   3   8 9151.23 457.518   3
  -2   3   9 50613.2 1145.37   0
  -2   3   9 48040.4 983.946   3
  -2   3  10 11042.8 663.216   0
  -2   3  10 10671.7 549.130   3
  -2   3  11 6640.69 631.122   0
  -2   3  12 13441.0 862.987   0
  -2   3  13-12.9699 565.105   0
  -2   3  14 13435.7 1015.47   0
  -2   3  15 7018.70 895.077   0
  -2   4 -10 7074.18 934.631   2
  -2   4  -9 2773.88 775.726   2
  -2   4  -8 2793.03 736.006   2
  -2   4  -7 24643.6 796.642   1
  -2   4  -7 25241.5 1109.49   2
  -2   4  -6 1597.63 516.246   2
  -2   4  -6 1389.90 354.379   1
  -2   4  -5 12267.8 565.427   1
  -2   4  -5 14327.2 788.413   2
  -2   4  -4 32476.9 787.165   1
  -2   4  -4 33735.5 1004.39   2
  -2   4  -3 1163.92 366.399   2
  -2   4  -3 1362.35 279.162   1
  -2   4  -2 35901.4 770.101   1
  -2   4  -2 34343.1 825.064   2
  -2   4  -1 21283.6 594.806   1
  -2   4  -1 21771.2 623.580   2
  -2   4   0 14774.8 326.695   3
  -2   4   0 15314.9 492.913   1
  -2   4   0 14459.6 482.309   2
  -2   4   1 143682. 1059.18   3
  -2   4   1 145589. 1349.64   1
  -2   4   1 141389. 1290.12   2
  -2   4   2 58271.8 740.022   3
  -2   4   2 57906.9 827.213   1
  -2   4   2 59650.6 903.697   0
  -2   4   2 58710.7 805.149   2
  -2   4   3 38380.0 655.050   3
  -2   4   3 38425.9 658.521   1
  -2   4   3 39108.1 723.373   0
  -2   4   3 37330.9 643.857   2
  -2   4   4 101601. 1109.07   3
  -2   4   4 98573.6 987.219   1
  -2   4   4 98547.1 1132.05   0
  -2   4   4 101191. 1045.46   2
  -2   4   5 591.666 231.353   3
  -2   4   5 590.435 224.305   0
  -2   4   5 734.628 173.117   1
  -2   4   6 119376. 1340.39   3
  -2   4   6 117864. 977.861   1
  -2   4   6 114291. 1328.09   0
  -2   4   7 41773.2 859.148   3
  -2   4   7 42070.6 564.754   1
  -2   4   7 40904.2 878.953   0
  -2   4   8 9021.36 479.705   3
  -2   4   8 8003.38 485.088   0
  -2   4   9 95458.2 1508.88   0
  -2   4   9 100663. 1424.84   3
  -2   4  10 5065.04 516.786   0
  -2   4  10 5553.40 466.606   3
  -2   4  11 14204.1 767.608   0
  -2   4  12 9263.14 726.843   0
  -2   4  13 435.045 567.389   0
  -2   4  14 13088.1 982.930   0
  -2   4  15 6571.13 874.021   0
  -2   5  -9 3063.18 842.981   2
  -2   5  -8 3799.47 819.796   2
  -2   5  -7 16984.3 753.396   1
  -2   5  -7 19840.7 1105.78   2
  -2   5  -6 4703.89 694.949   2
  -2   5  -6 4248.65 464.319   1
  -2   5  -5 11208.8 601.681   1
  -2   5  -5 13783.2 827.216   2
  -2   5  -4 27432.1 801.159   1
  -2   5  -4 25886.2 975.860   2
  -2   5  -3 5203.09 413.148   1
  -2   5  -3 5245.09 509.133   2
  -2   5  -2 43220.4 929.532   1
  -2   5  -2 47390.3 1054.37   2
  -2   5  -1 11588.2 502.802   1
  -2   5  -1 12810.8 558.287   2
  -2   5   0 9096.22 436.780   1
  -2   5   0 8950.91 446.786   2
  -2   5   1 103198. 1259.44   1
  -2   5   1 104910. 1215.73   2
  -2   5   2 966.225 233.197   2
  -2   5   2 700.657 274.624   0
  -2   5   2 738.359 227.151   1
  -2   5   3 28964.7 607.535   3
  -2   5   3 30113.8 719.763   0
  -2   5   3 27200.0 633.196   1
  -2   5   3 27390.2 599.577   2
  -2   5   4 41829.3 837.107   0
  -2   5   4 40952.4 733.257   1
  -2   5   4 41047.1 718.537   2
  -2   5   4 42197.7 775.349   3
  -2   5   5 364.318 234.966   3
  -2   5   5 348.200 244.833   0
  -2   5   5 332.987 198.664   1
  -2   5   6 65392.3 1063.23   3
  -2   5   6 62251.4 832.127   1
  -2   5   6 61212.4 1043.23   0
  -2   5   7 52375.6 1000.74   3
  -2   5   7 48673.0 715.284   1
  -2   5   7 48436.6 982.927   0
  -2   5   8 8232.74 491.137   3
  -2   5   8 7530.27 485.820   0
  -2   5   9 72679.9 1278.74   3
  -2   5   9 67061.9 1291.10   0
  -2   5  10 14905.8 737.143   0
  -2   5  11 12680.3 744.289   0
  -2   5  12 18636.5 934.353   0
  -2   5  13 11.8607 561.925   0
  -2   5  14 17718.6 1086.97   0
  -2   6  -8 1862.61 822.755   2
  -2   6  -7 8824.52 672.596   1
  -2   6  -7 8700.27 936.573   2
  -2   6  -6 3117.45 717.181   2
  -2   6  -6 3981.45 529.539   1
  -2   6  -5 5508.72 552.099   1
  -2   6  -5 5110.43 709.832   2
  -2   6  -4 17113.1 732.434   1
  -2   6  -4 18416.8 913.368   2
  -2   6  -3 78.8715 433.836   2
  -2   6  -3 204.327 350.744   1
  -2   6  -2 26044.8 812.424   1
  -2   6  -2 28324.0 922.131   2
  -2   6  -1 24318.7 771.875   1
  -2   6  -1 25170.8 803.746   2
  -2   6   0 6701.41 459.230   1
  -2   6   0 6561.60 447.346   2
  -2   6   1 98813.9 1350.65   1
  -2   6   1 102157. 1301.75   2
  -2   6   2 6881.32 411.763   1
  -2   6   2 6448.52 388.714   2
  -2   6   3 6172.00 441.261   0
  -2   6   3 6522.13 403.346   1
  -2   6   3 6858.86 374.108   2
  -2   6   4 24421.8 723.089   0
  -2   6   4 22840.6 634.602   1
  -2   6   4 23742.2 591.633   2
  -2   6   5 1964.94 282.431   2
  -2   6   5 2088.56 275.428   1
  -2   6   5 2420.36 349.558   0
  -2   6   6 59069.5 916.952   1
  -2   6   6 58462.1 1100.01   0
  -2   6   7 20007.4 541.713   1
  -2   6   7 20333.9 704.456   0
  -2   6   8 2241.89 384.451   0
  -2   6   9 22074.6 812.680   0
  -2   6  10 11246.6 676.260   0
  -2   6  11 6417.38 619.655   0
  -2   6  12 16513.6 910.486   0
  -2   6  13 367.570 577.565   0
  -2   6  14 18257.2 1094.16   0
  -2   7  -7 4386.44 946.221   2
  -2   7  -7 4906.94 683.511   1
  -2   7  -6 629.301 733.035   2
  -2   7  -6 1302.21 522.875   1
  -2   7  -5 2344.45 683.223   2
  -2   7  -5 2388.82 531.989   1
  -2   7  -4 8026.80 632.444   1
  -2   7  -4 8351.54 789.526   2
  -2   7  -3 21.9079 493.092   2
  -2   7  -3 8.21592 398.078   1
  -2   7  -2 17613.0 749.612   1
  -2   7  -2 18949.5 861.790   2
  -2   7  -1 17917.5 730.123   1
  -2   7  -1 17401.6 753.106   2
  -2   7   0 1103.50 382.521   2
  -2   7   0 1192.93 347.352   1
  -2   7   1 42540.7 1005.19   1
  -2   7   1 43334.2 940.513   2
  -2   7   2 16349.2 650.643   1
  -2   7   2 17304.2 600.803   2
  -2   7   3 15597.3 609.633   1
  -2   7   3 16716.6 569.669   2
  -2   7   4 49924.2 1113.94   0
  -2   7   4 48493.8 977.434   1
  -2   7   4 48874.9 866.903   2
  -2   7   5 53.6978 265.504   2
  -2   7   5 205.561 332.366   0
  -2   7   5 171.626 281.443   1
  -2   7   6 60739.5 1035.67   1
  -2   7   6 58912.8 1198.59   0
  -2   7   7 25725.2 682.814   1
  -2   7   7 23841.8 818.496   0
  -2   7   8 3039.58 445.541   0
  -2   7   9 36767.8 1060.21   0
  -2   7  10 4626.40 550.197   0
  -2   7  11 6136.72 638.247   0
  -2   7  12 14802.4 891.207   0
  -2   7  13 231.906 599.797   0
  -2   7  14 8946.35 892.432   0
  -2   8  -5 2158.92 748.079   2
  -2   8  -5 2592.40 586.245   1
  -2   8  -4 5120.56 780.163   2
  -2   8  -4 6906.14 664.787   1
  -2   8  -3 410.317 563.677   2
  -2   8  -3 30.1214 453.471   1
  -2   8  -2 9495.75 661.508   1
  -2   8  -2 11720.5 787.210   2
  -2   8  -1 6855.17 575.991   1
  -2   8  -1 7873.66 632.389   2
  -2   8   0 2857.09 451.285   2
  -2   8   0 2462.59 453.130   1
  -2   8   1 20162.4 797.761   1
  -2   8   2 7529.48 541.226   1
  -2   8   3 5566.00 492.498   1
  -2   8   4 19381.8 814.362   0
  -2   8   4 17818.6 694.957   1
  -2   8   5 1197.49 423.867   0
  -2   8   5 1310.48 368.907   1
  -2   8   6 26212.6 915.282   0
  -2   8   6 27209.5 800.924   1
  -2   8   7 30566.6 827.681   1
  -2   8   7 28548.7 944.459   0
  -2   8   8 293.087 415.014   0
  -2   8   9 28548.8 1006.53   0
  -2   8  10 7053.60 648.935   0
  -2   8  11 5732.67 658.727   0
  -2   8  12 13100.8 877.918   0
  -2   8  13-100.373 609.378   0
  -2   9  -3 455.670 522.849   1
  -2   9  -2 7283.16 712.050   1
  -2   9  -1 7723.77 697.302   1
  -2   9   0 1587.98 488.642   1
  -2   9   1 13415.2 770.533   1
  -2   9   2 2416.82 498.659   1
  -2   9   3 6471.03 566.471   1
  -2   9   4 9250.86 624.981   1
  -2   9   5 117.958 362.523   1
  -2   9   6 18824.2 869.203   0
  -2   9   6 17395.3 739.012   1
  -2   9   7 19987.1 917.963   0
  -2   9   7 20008.4 776.706   1
  -2   9   8 143.565 452.838   0
  -2   9   9 12847.2 799.381   0
  -2   9  10 6625.53 703.669   0
  -2   9  11 2899.87 630.435   0
  -2   9  12 16880.0 1025.96   0
  -2  10   0 135.194 533.749   1
  -2  10   1 9902.72 773.768   1
  -2  10   2 6823.96 692.950   1
  -2  10   3 3566.71 575.951   1
  -2  10   4 13706.0 805.164   1
  -2  10   5 127.752 437.332   1
  -2  10   6 16241.4 816.831   1
  -2  10   7 10053.4 776.939   0
  -2  10   7 11950.7 712.341   1
  -2  10   8 1117.59 589.072   0
  -2  10   9 7345.68 744.215   0
  -2  10  10 2429.38 651.208   0
  -2  11   5 849.571 535.296   1
  -2  11   6 7575.97 733.457   1
  -1  -5   2 30587.1 471.860   3
  -1  -4 -13 810.319 566.660   2
  -1  -4   2 42394.4 496.924   3
  -1  -4   3 10945.4 225.546   3
  -1  -3 -15 4682.55 799.715   2
  -1  -3 -14 7765.42 832.844   2
  -1  -3 -13 1238.12 574.722   2
  -1  -3 -12 28669.7 1016.46   2
  -1  -3   2 132417. 764.838   3
  -1  -3   3 1023.51 110.920   3
  -1  -3   4 148867. 763.276   3
  -1  -3   5 69577.5 533.117   3
  -1  -3  11 997.919 609.770   0
  -1  -3  12 7076.89 846.393   0
  -1  -2 -15 1495.17 716.182   2
  -1  -2 -14 5396.50 795.539   2
  -1  -2 -13 426.782 613.637   2
  -1  -2 -12 19129.6 933.087   2
  -1  -2 -11 12944.7 743.354   2
  -1  -2 -10 15665.7 737.348   2
  -1  -2   1 21126.8 323.636   3
  -1  -2   2 88292.1 570.168   3
  -1  -2   3 274.634 92.7107   3
  -1  -2   4 149713. 836.553   3
  -1  -2   5 92949.7 701.710   3
  -1  -2   6 5126.71 210.622   3
  -1  -2  10 27568.2 1060.09   0
  -1  -2  11 313.111 528.502   0
  -1  -2  12 9225.16 848.493   0
  -1  -2  13 6250.69 837.512   0
  -1  -1 -14 3696.58 771.079   2
  -1  -1 -13 863.998 620.156   2
  -1  -1 -12 11698.1 837.559   2
  -1  -1 -11 9542.47 726.044   2
  -1  -1 -10 6176.48 565.132   2
  -1  -1  -9 57685.2 1231.14   2
  -1  -1  -8 28074.2 835.641   2
  -1  -1  -3 293164. 5460.32   2
  -1  -1  -2 23580.8 319.119   2
  -1  -1  -1 394784. 3263.22   2
  -1  -1   1 81851.5 2023.40   3
  -1  -1   2 113113. 2522.77   3
  -1  -1   3 6906.18 198.886   3
  -1  -1   4 131964. 3365.50   3
  -1  -1   5 94615.5 780.506   3
  -1  -1   6 438.849 139.564   3
  -1  -1   7 36952.2 572.388   3
  -1  -1   8 11057.8 611.166   0
  -1  -1   8 11007.0 362.136   3
  -1  -1   9 12753.5 693.145   0
  -1  -1  10 28135.7 1023.71   0
  -1  -1  11 168.340 487.433   0
  -1  -1  12 15231.7 940.870   0
  -1  -1  13 10531.8 893.837   0
  -1   0 -14 6699.41 881.045   2
  -1   0 -13 650.765 666.613   2
  -1   0 -12 11332.2 887.408   2
  -1   0 -11 13574.8 823.290   2
  -1   0 -10 4722.13 576.933   2
  -1   0  -9 40808.6 1101.44   2
  -1   0  -8 2537.88 426.185   2
  -1   0  -7 15490.8 627.292   2
  -1   0  -6 47376.0 920.383   2
  -1   0  -5 984.108 257.871   2
  -1   0  -4 164533. 1380.32   2
  -1   0  -3 174289. 4913.92   2
  -1   0  -2 26560.8 430.289   2
  -1   0  -1 439289. 5187.85   2
  -1   0   0 65565.7 1574.53   3
  -1   0   0 69385.3 1666.99   2
  -1   0   1 179324. 2948.00   3
  -1   0   1 182312. 2550.09   0
  -1   0   2 371747. 5294.82   0
  -1   0   2 374126. 4939.27   3
  -1   0   3 3852.26 226.142   0
  -1   0   3 3608.69 168.377   3
  -1   0   4 367224. 7770.10   0
  -1   0   4 368017. 6071.87   3
  -1   0   5 119582. 1265.40   0
  -1   0   5 116525. 940.220   3
  -1   0   6 8781.62 433.692   0
  -1   0   6 8151.79 295.206   3
  -1   0   7 69507.1 1174.27   0
  -1   0   7 67012.3 815.764   3
  -1   0   8 7396.08 337.196   3
  -1   0   8 8976.53 536.525   0
  -1   0   9 15537.7 723.618   0
  -1   0  10 21244.2 878.098   0
  -1   0  11 532.080 456.930   0
  -1   0  12 9916.11 789.933   0
  -1   0  13 10422.9 877.197   0
  -1   0  14 217.474 661.494   0
  -1   1 -13 225.927 725.676   2
  -1   1 -12 12295.0 926.792   2
  -1   1 -11 14866.6 909.640   2
  -1   1 -10 5112.06 633.362   2
  -1   1  -9 50402.4 1287.28   2
  -1   1  -8 2111.33 448.081   2
  -1   1  -7 6772.71 522.358   2
  -1   1  -6 72100.7 1237.73   2
  -1   1  -5 5553.16 245.030   1
  -1   1  -5 6352.35 431.746   2
  -1   1  -4 135047. 997.885   1
  -1   1  -4 147392. 1435.64   2
  -1   1  -3 69720.0 677.330   1
  -1   1  -3 74540.7 919.774   2
  -1   1  -2 267.431 184.767   2
  -1   1  -2 439.866 114.892   1
  -1   1  -1 80841.7 635.996   1
  -1   1  -1 80374.0 360.557   3
  -1   1  -1 79550.7 709.711   2
  -1   1   0 114367. 2733.21   1
  -1   1   0 116556. 2183.62   3
  -1   1   0 112294. 2764.08   2
  -1   1   1 59749.2 448.295   1
  -1   1   1 61255.3 480.300   3
  -1   1   1 61192.5 465.822   0
  -1   1   1 60045.6 474.956   2
  -1   1   2 189794. 3690.54   0
  -1   1   2 196473. 3906.80   3
  -1   1   2 193667. 2730.78   1
  -1   1   3 20064.3 370.304   3
  -1   1   3 20769.1 183.968   1
  -1   1   3 20016.2 377.856   0
  -1   1   4 221504. 5040.07   3
  -1   1   4 215754. 5537.01   0
  -1   1   5 183474. 4983.57   3
  -1   1   5 188226. 1477.02   0
  -1   1   6 271.351 161.968   3
  -1   1   6 331.414 218.937   0
  -1   1   7 108529. 1107.92   3
  -1   1   7 111108. 1411.84   0
  -1   1   8 17948.2 509.025   3
  -1   1   8 19585.4 691.366   0
  -1   1   9 19929.3 565.645   3
  -1   1   9 21745.1 791.798   0
  -1   1  10 42237.7 1141.17   0
  -1   1  11 111.635 447.497   0
  -1   1  12 14551.1 869.723   0
  -1   1  13 8557.92 797.129   0
  -1   1  14-40.2098 603.006   0
  -1   2 -12 7392.79 872.445   2
  -1   2 -11 9106.28 845.866   2
  -1   2 -10 1279.13 556.832   2
  -1   2  -9 25931.6 1057.18   2
  -1   2  -8 17257.2 848.150   2
  -1   2  -7 4766.48 522.231   2
  -1   2  -6 78179.3 966.821   1
  -1   2  -6 86449.7 1438.24   2
  -1   2  -5 1645.07 350.422   2
  -1   2  -5 1403.43 209.067   1
  -1   2  -4 166268. 1275.85   1
  -1   2  -4 175581. 1725.33   2
  -1   2  -3 103584. 969.555   1
  -1   2  -3 105694. 1223.87   2
  -1   2  -2 3273.60 210.006   1
  -1   2  -2 2880.43 261.488   2
  -1   2  -1 183441. 2355.60   3
  -1   2  -1 193400. 1181.99   1
  -1   2  -1 186584. 1262.24   2
  -1   2   0 11748.5 209.223   3
  -1   2   0 11486.8 293.869   1
  -1   2   0 10806.3 295.044   2
  -1   2   1 90287.5 643.282   3
  -1   2   1 90079.0 719.205   1
  -1   2   1 91557.3 742.304   0
  -1   2   1 88675.0 689.388   2
  -1   2   2 114304. 3258.76   3
  -1   2   2 116994. 767.089   1
  -1   2   2 111696. 2973.77   2
  -1   2   2 115982. 845.494   0
  -1   2   3 4093.42 212.375   3
  -1   2   3 4030.73 158.543   1
  -1   2   3 3805.19 204.991   0
  -1   2   4 148504. 1157.56   0
  -1   2   4 153824. 1132.76   3
  -1   2   4 156673. 2928.66   1
  -1   2   5 180440. 5218.99   3
  -1   2   5 185211. 1450.38   0
  -1   2   5 179014. 2714.05   1
  -1   2   6 952.364 200.014   3
  -1   2   6 1187.12 227.839   0
  -1   2   7 56002.1 850.858   3
  -1   2   7 54291.7 965.863   0
  -1   2   8 24054.8 605.054   3
  -1   2   8 25059.2 745.709   0
  -1   2   9 31535.7 736.580   3
  -1   2   9 31648.2 892.424   0
  -1   2  10 85831.2 1538.18   0
  -1   2  11 3139.89 526.003   0
  -1   2  12 18278.1 919.858   0
  -1   2  13 14581.6 915.404   0
  -1   2  14 287.847 612.395   0
  -1   2  15 10436.3 973.838   0
  -1   3 -12 4750.94 889.224   2
  -1   3 -11 4549.86 810.098   2
  -1   3 -10 803.529 693.199   2
  -1   3  -9 12618.7 895.905   2
  -1   3  -8 3170.30 631.195   2
  -1   3  -7 16184.0 555.386   1
  -1   3  -7 18438.4 868.206   2
  -1   3  -6 39490.5 784.036   1
  -1   3  -6 42170.8 1147.81   2
  -1   3  -5 2476.58 445.270   2
  -1   3  -5 2450.62 272.780   1
  -1   3  -4 74431.5 975.619   1
  -1   3  -4 78920.8 1291.48   2
  -1   3  -3 105783. 1117.91   1
  -1   3  -3 107133. 1367.39   2
  -1   3  -2 260.309 227.764   2
  -1   3  -2 191.130 154.866   1
  -1   3  -1 255587. 1578.60   1
  -1   3  -1 248207. 1651.78   2
  -1   3   0 59809.8 740.207   1
  -1   3   0 58982.0 719.444   2
  -1   3   1 76781.1 658.602   3
  -1   3   1 83332.8 888.238   0
  -1   3   1 78353.8 807.428   1
  -1   3   1 76823.4 741.276   2
  -1   3   2 292387. 5640.42   3
  -1   3   2 295704. 5918.32   1
  -1   3   2 308045. 6442.80   0
  -1   3   2 301810. 5488.26   2
  -1   3   3 3197.62 213.060   3
  -1   3   3 2922.24 182.626   1
  -1   3   3 2866.41 180.528   2
  -1   3   3 3207.97 219.385   0
  -1   3   4 76143.9 858.174   3
  -1   3   4 75536.9 673.036   1
  -1   3   4 73247.3 857.180   0
  -1   3   5 92989.3 1037.71   0
  -1   3   5 94214.5 1017.89   3
  -1   3   5 92015.1 703.518   1
  -1   3   6 1780.63 233.298   3
  -1   3   6 1513.39 228.976   0
  -1   3   6 1497.89 125.256   1
  -1   3   7 56683.2 985.064   0
  -1   3   7 54947.8 882.471   3
  -1   3   7 53423.8 438.063   1
  -1   3   8 10225.5 524.111   0
  -1   3   8 9431.57 434.391   3
  -1   3   9 11512.6 603.056   0
  -1   3  10 30456.4 969.894   0
  -1   3  11 2537.90 491.919   0
  -1   3  12 14892.7 849.172   0
  -1   3  13 19981.9 1038.81   0
  -1   3  14 401.571 647.445   0
  -1   3  15 9657.75 963.447   0
  -1   4 -11 5870.58 984.015   2
  -1   4 -10 489.710 714.605   2
  -1   4  -9 14745.0 1011.05   2
  -1   4  -8 3790.77 721.665   2
  -1   4  -8 3513.84 419.545   1
  -1   4  -7 5265.47 436.663   1
  -1   4  -7 5077.57 677.929   2
  -1   4  -6 12587.1 534.449   1
  -1   4  -6 12911.4 788.142   2
  -1   4  -5 51.1640 400.853   2
  -1   4  -5 102.280 242.313   1
  -1   4  -4 40805.2 824.836   1
  -1   4  -4 44587.6 1092.51   2
  -1   4  -3 57645.3 930.154   1
  -1   4  -3 59661.7 1130.14   2
  -1   4  -2 750.184 292.237   2
  -1   4  -2 855.221 216.318   1
  -1   4  -1 41055.2 724.380   1
  -1   4  -1 40040.1 754.823   2
  -1   4   0 40683.7 702.021   1
  -1   4   0 38540.1 663.488   2
  -1   4   1 37929.9 699.572   0
  -1   4   1 37806.9 653.339   1
  -1   4   1 36391.2 585.006   2
  -1   4   2 186678. 1459.10   0
  -1   4   2 182173. 1364.58   1
  -1   4   2 184467. 1209.96   2
  -1   4   3 10825.9 351.817   3
  -1   4   3 10546.0 340.641   1
  -1   4   3 11391.9 394.264   0
  -1   4   3 11024.1 317.809   2
  -1   4   4 96615.2 1032.60   3
  -1   4   4 94602.6 909.692   1
  -1   4   4 92957.9 1051.26   0
  -1   4   5 205565. 1594.44   3
  -1   4   5 202798. 1264.79   1
  -1   4   5 201644. 1608.09   0
  -1   4   6 629.773 229.372   0
  -1   4   6 440.253 147.141   1
  -1   4   6 686.056 229.669   3
  -1   4   7 100741. 1251.60   3
  -1   4   7 97364.7 799.998   1
  -1   4   7 100240. 1295.43   0
  -1   4   8 3182.21 347.531   0
  -1   4   9 12907.9 610.569   0
  -1   4  10 65934.5 1331.42   0
  -1   4  11 4587.26 535.802   0
  -1   4  12 11961.5 780.495   0
  -1   4  13 10673.6 824.505   0
  -1   4  14 66.9762 586.736   0
  -1   4  15 5685.78 827.337   0
  -1   5 -10-31.2737 793.790   2
  -1   5  -9 7461.48 926.999   2
  -1   5  -8 4726.73 815.930   2
  -1   5  -7 5414.16 507.930   1
  -1   5  -7 6125.92 781.602   2
  -1   5  -6 27978.8 818.639   1
  -1   5  -6 30539.0 1156.26   2
  -1   5  -5 672.724 493.198   2
  -1   5  -5 508.140 325.230   1
  -1   5  -4 38342.8 889.810   1
  -1   5  -4 38696.3 1123.24   2
  -1   5  -3 45785.3 926.244   1
  -1   5  -3 47025.0 1106.71   2
  -1   5  -2 1556.89 340.653   2
  -1   5  -2 1740.98 271.858   1
  -1   5  -1 42399.9 818.847   1
  -1   5  -1 41350.4 841.931   2
  -1   5   0 14480.3 489.892   1
  -1   5   0 13517.6 467.798   2
  -1   5   1 32252.0 681.886   1
  -1   5   1 32209.6 621.046   2
  -1   5   2 103460. 1250.78   0
  -1   5   2 99365.0 1134.85   1
  -1   5   2 100613. 992.676   2
  -1   5   3 14048.5 491.208   0
  -1   5   3 14058.0 441.766   1
  -1   5   3 14292.6 389.801   2
  -1   5   4 49573.1 768.066   1
  -1   5   4 52007.9 883.348   0
  -1   5   4 50107.5 679.481   2
  -1   5   5 105162. 1067.22   1
  -1   5   5 101984. 1240.04   0
  -1   5   6 3861.25 257.287   1
  -1   5   6 4091.62 336.776   0
  -1   5   7 67621.4 809.000   1
  -1   5   7 68742.0 1118.14   0
  -1   5   8 20873.9 694.622   0
  -1   5   9 9592.46 549.912   0
  -1   5  10 84364.2 1505.41   0
  -1   5  11 6033.30 569.637   0
  -1   5  12 16912.4 858.909   0
  -1   5  13 12393.6 847.477   0
  -1   5  14 262.984 575.186   0
  -1   5  15 7280.87 853.824   0
  -1   6  -9 4099.72 941.266   2
  -1   6  -8 3144.16 845.788   2
  -1   6  -7 2687.89 763.930   2
  -1   6  -7 2299.43 495.764   1
  -1   6  -6 17902.0 758.478   1
  -1   6  -6 17307.2 1031.79   2
  -1   6  -5 3831.21 649.644   2
  -1   6  -5 3281.42 428.955   1
  -1   6  -4 16678.0 687.572   1
  -1   6  -4 17495.5 864.631   2
  -1   6  -3 35620.1 913.472   1
  -1   6  -3 37299.0 1076.01   2
  -1   6  -2-26.3932 343.989   2
  -1   6  -2-85.0116 290.956   1
  -1   6  -1 42167.1 912.501   1
  -1   6  -1 43840.7 950.152   2
  -1   6   0 18553.6 609.716   1
  -1   6   0 18956.5 597.940   2
  -1   6   1 27186.7 704.478   1
  -1   6   1 27416.1 642.932   2
  -1   6   2 65301.9 1119.98   0
  -1   6   2 63346.6 1012.50   1
  -1   6   2 63550.4 865.466   2
  -1   6   3 898.859 243.193   1
  -1   6   3 836.436 206.795   2
  -1   6   3 643.335 289.354   0
  -1   6   4 36500.6 821.552   0
  -1   6   4 36159.6 744.676   1
  -1   6   4 37964.6 640.898   2
  -1   6   5 39617.5 760.561   1
  -1   6   5 39581.6 864.614   0
  -1   6   6 13.0993 205.562   1
  -1   6   6 100.490 260.855   0
  -1   6   7 32440.6 653.808   1
  -1   6   7 30554.2 811.278   0
  -1   6   8 11155.5 403.989   1
  -1   6   8 11720.6 574.089   0
  -1   6   9 8448.26 546.618   0
  -1   6  10 45711.2 1151.07   0
  -1   6  11 10998.3 717.858   0
  -1   6  12 11797.0 786.668   0
  -1   6  13 20347.9 1006.57   0
  -1   6  14 605.435 623.420   0
  -1   7  -8 539.962 843.066   2
  -1   7  -7 1776.60 808.968   2
  -1   7  -7 2494.36 555.241   1
  -1   7  -6 6543.83 609.271   1
  -1   7  -6 6473.37 857.371   2
  -1   7  -5 607.324 564.475   2
  -1   7  -5 582.607 423.199   1
  -1   7  -4 8545.20 600.987   1
  -1   7  -4 8212.74 728.852   2
  -1   7  -3 24736.4 862.768   1
  -1   7  -3 23290.8 958.220   2
  -1   7  -2 1772.15 460.478   2
  -1   7  -2 1373.57 390.768   1
  -1   7  -1 22390.6 753.971   1
  -1   7  -1 21655.2 771.249   2
  -1   7   0 19510.6 695.440   1
  -1   7   0 20386.4 679.419   2
  -1   7   1 12034.7 563.083   1
  -1   7   1 12261.6 511.337   2
  -1   7   2 71585.2 1182.34   1
  -1   7   2 74184.5 1024.37   2
  -1   7   3 28772.5 843.686   0
  -1   7   3 26058.2 732.024   1
  -1   7   3 26958.1 610.845   2
  -1   7   4 32316.3 884.119   0
  -1   7   4 30056.1 759.970   1
  -1   7   4 29381.3 610.285   2
  -1   7   5 60040.7 1141.24   0
  -1   7   5 61539.6 1041.72   1
  -1   7   6 53.9688 249.302   1
  -1   7   6 118.467 311.408   0
  -1   7   7 32757.6 753.113   1
  -1   7   7 32562.2 900.134   0
  -1   7   8 10876.8 461.868   1
  -1   7   8 10341.5 594.243   0
  -1   7   9 8136.86 583.341   0
  -1   7  10 33132.3 1032.02   0
  -1   7  11 6864.59 630.818   0
  -1   7  12 4973.07 628.339   0
  -1   7  13 11361.8 860.054   0
  -1   7  14-122.308 605.934   0
  -1   8  -6 3473.39 828.429   2
  -1   8  -6 3973.12 632.965   1
  -1   8  -5 1557.28 700.558   2
  -1   8  -5 1744.03 517.749   1
  -1   8  -4 8879.12 670.673   1
  -1   8  -4 8709.67 852.616   2
  -1   8  -3 10565.8 686.721   1
  -1   8  -3 11925.8 812.312   2
  -1   8  -2 499.278 473.433   2
  -1   8  -2 391.564 378.541   1
  -1   8  -1 9387.58 619.486   1
  -1   8  -1 10910.1 656.129   2
  -1   8   0 5294.74 489.901   1
  -1   8   0 6440.74 509.144   2
  -1   8   1 2683.93 420.426   1
  -1   8   2 36451.8 938.803   1
  -1   8   3 14086.8 615.396   1
  -1   8   4 16211.5 739.963   0
  -1   8   4 14724.1 631.351   1
  -1   8   5 42693.7 1097.89   0
  -1   8   5 40923.4 956.603   1
  -1   8   6 579.770 369.679   0
  -1   8   6 789.240 303.651   1
  -1   8   7 27112.9 767.524   1
  -1   8   7 26138.7 881.216   0
  -1   8   8 20402.8 672.639   1
  -1   8   8 20232.3 820.387   0
  -1   8   9 11231.2 675.416   0
  -1   8  10 37953.8 1135.33   0
  -1   8  11 6454.59 636.304   0
  -1   8  12 7248.59 713.777   0
  -1   8  13 8239.20 794.042   0
  -1   9  -4 5263.03 686.961   1
  -1   9  -3 5320.69 654.416   1
  -1   9  -2 170.956 451.225   1
  -1   9  -1 9362.21 695.947   1
  -1   9   0 6952.72 610.448   1
  -1   9   1 5705.70 550.439   1
  -1   9   2 21287.9 844.871   1
  -1   9   3 1297.07 413.781   1
  -1   9   4 6710.02 513.634   1
  -1   9   5 17506.0 822.194   0
  -1   9   5 17065.6 714.622   1
  -1   9   6 675.014 439.585   0
  -1   9   6 759.066 382.283   1
  -1   9   7 13971.3 752.676   0
  -1   9   7 14591.1 665.227   1
  -1   9   8 17037.9 691.193   1
  -1   9   8 17495.8 824.173   0
  -1   9   9 876.631 466.087   0
  -1   9  10 21267.9 958.103   0
  -1   9  11 11355.6 800.378   0
  -1   9  12 4432.32 690.823   0
  -1   9  13 11080.0 901.351   0
  -1  10  -1 4105.07 639.221   1
  -1  10   0 9061.27 716.425   1
  -1  10   1 2682.95 555.276   1
  -1  10   2 20135.8 886.031   1
  -1  10   3 6822.68 617.444   1
  -1  10   4 5456.32 579.950   1
  -1  10   5 11236.3 708.051   1
  -1  10   6-1.12714 471.285   0
  -1  10   6 112.311 403.251   1
  -1  10   7 14480.6 848.060   0
  -1  10   7 16074.3 757.261   1
  -1  10   8 5243.62 636.691   0
  -1  10   9 2317.54 570.250   0
  -1  10  10 15007.8 891.484   0
  -1  10  11 7326.96 756.360   0
  -1  11   2 9500.87 782.423   1
  -1  11   3 6168.81 691.749   1
  -1  11   4 3271.31 622.508   1
  -1  11   5 13059.0 833.740   1
  -1  11   6 850.560 514.171   1
  -1  11   7 14993.4 948.894   0
  -1  11   7 13573.6 817.958   1
  -1  11   8 7660.29 778.266   0
  -1  11   9 1398.04 632.525   0
   0  -4   2 63696.6 445.022   3
   0  -3 -15 382.406 694.414   2
   0  -3 -14 12979.4 924.833   2
   0  -3  11 5180.69 742.666   0
   0  -3  12-65.6363 634.655   0
   0  -2 -15 287.046 714.181   2
   0  -2 -14 8581.99 869.281   2
   0  -2 -13 17322.1 978.003   2
   0  -2  10 10080.4 739.070   0
   0  -2  11 7431.48 741.291   0
   0  -2  12-242.589 580.583   0
   0  -2  13 4531.78 810.306   0
   0  -1 -14 6265.11 831.646   2
   0  -1 -13 9693.14 871.433   2
   0  -1 -12 511.471 525.352   2
   0  -1   3 81555.6 434.990   3
   0  -1   4 712.085 88.8038   3
   0  -1   9 13452.3 701.030   0
   0  -1  10 12898.0 744.501   0
   0  -1  11 14546.2 844.452   0
   0  -1  12 352.765 572.263   0
   0  -1  13 9748.27 890.351   0
   0   0 -14 5951.21 880.725   2
   0   0 -13 11896.3 946.074   2
   0   0 -12 500.868 598.809   2
   0   0 -11 10784.3 787.153   2
   0   0  -2 55626.3 1177.43   1
   0   0   2 56270.2 366.117   3
   0   0   3 116814. 2507.03   3
   0   0   4 1155.36 116.709   3
   0   0   5 164101. 3835.84   3
   0   0   6 59833.9 994.838   0
   0   0   7 15462.9 589.456   0
   0   0   8 49577.6 1076.12   0
   0   0   9 14997.2 699.197   0
   0   0  10 5474.99 547.181   0
   0   0  11 9399.38 695.022   0
   0   0  12 259.455 495.819   0
   0   0  13 11054.3 879.274   0
   0   0  14 5402.03 808.253   0
   0   1 -13 10031.1 995.335   2
   0   1 -12 382.886 663.939   2
   0   1 -11 16222.9 939.356   2
   0   1 -10 12848.0 798.868   2
   0   1  -9 13775.3 782.545   2
   0   1  -8 79166.7 1451.38   2
   0   1  -6 26592.3 433.828   1
   0   1  -5 39397.7 494.385   1
   0   1  -4 659.408 110.413   1
   0   1  -3 91499.2 656.568   1
   0   1  -2 96134.5 617.084   1
   0   1  -1 11349.6 258.175   2
   0   1  -1 11426.1 206.489   1
   0   1   0 355608. 3890.91   0
   0   1   0 394725. 3988.31   1
   0   1   0 356526. 3472.42   2
   0   1   1 11436.7 167.355   3
   0   1   1 12121.5 170.457   1
   0   1   1 12772.5 192.912   0
   0   1   2 37892.2 369.671   3
   0   1   2 40306.1 410.248   0
   0   1   2 38616.9 303.580   1
   0   1   3 225964. 4097.61   3
   0   1   3 247980. 4949.97   0
   0   1   4 17223.8 332.276   3
   0   1   4 18810.6 430.885   0
   0   1   5 252320. 5318.50   3
   0   1   5 286443. 7176.36   0
   0   1   6 44386.1 812.396   0
   0   1   7 20294.0 629.023   0
   0   1   8 98083.4 1422.29   0
   0   1   9 15005.6 668.122   0
   0   1  10 7595.63 576.654   0
   0   1  11 15186.2 796.381   0
   0   1  12 329.667 479.266   0
   0   1  13 8923.40 789.485   0
   0   1  14 6253.64 795.782   0
   0   2 -13 4674.64 899.117   2
   0   2 -12 616.842 686.373   2
   0   2 -11 7559.37 796.389   2
   0   2 -10 10719.6 815.358   2
   0   2  -9 6617.89 676.210   2
   0   2  -8 67737.3 1460.35   2
   0   2  -7 13421.7 695.858   2
   0   2  -7 12792.1 398.830   1
   0   2  -6 24720.1 806.596   2
   0   2  -6 23016.3 488.491   1
   0   2  -5 111809. 1485.77   2
   0   2  -5 105169. 959.592   1
   0   2  -4 325.375 284.772   2
   0   2  -4 405.786 144.295   1
   0   2  -3 154290. 1418.29   2
   0   2  -3 149986. 1037.73   1
   0   2  -2 45414.5 697.251   2
   0   2  -2 44482.0 549.011   1
   0   2  -1 79785.5 681.579   1
   0   2  -1 77800.1 746.647   2
   0   2   0 231941. 4328.46   1
   0   2   0 223557. 3902.49   2
   0   2   1 133627. 3254.53   0
   0   2   1 128762. 768.987   1
   0   2   1 133241. 2341.24   2
   0   2   2 32964.6 383.973   1
   0   2   2 34851.8 440.373   0
   0   2   3 87946.4 758.379   0
   0   2   3 83391.0 710.744   3
   0   2   3 86469.0 607.066   1
   0   2   4 7097.66 257.387   3
   0   2   4 8055.10 300.490   0
   0   2   4 7531.51 201.361   1
   0   2   5 154524. 1277.39   0
   0   2   5 150448. 837.539   1
   0   2   6 102973. 1164.75   0
   0   2   6 96033.0 696.282   1
   0   2   7 1310.90 262.364   0
   0   2   7 1372.19 136.870   1
   0   2   8 123134. 1543.56   0
   0   2   9 33550.0 908.508   0
   0   2  10 8326.96 567.469   0
   0   2  11 40792.1 1151.59   0
   0   2  12 215.279 470.811   0
   0   2  13 17618.5 945.571   0
   0   2  14 8374.20 814.821   0
   0   2  15 170.058 656.660   0
   0   3 -12 104.098 719.747   2
   0   3 -11 6327.64 834.169   2
   0   3 -10 6590.03 787.082   2
   0   3  -9 4379.43 655.378   2
   0   3  -8 42213.6 1273.85   2
   0   3  -7 19957.6 552.949   1
   0   3  -7 23255.9 927.115   2
   0   3  -6 12570.4 437.819   1
   0   3  -6 12004.8 691.210   2
   0   3  -5 83150.4 994.845   1
   0   3  -5 83431.4 1421.55   2
   0   3  -4 3269.34 249.204   1
   0   3  -4 2843.68 401.992   2
   0   3  -3 137545. 1162.17   1
   0   3  -3 139526. 1490.36   2
   0   3  -2 138135. 1128.01   1
   0   3  -2 135923. 1314.82   2
   0   3  -1 27361.7 494.910   1
   0   3  -1 28007.5 542.656   2
   0   3   0 368931. 6645.33   1
   0   3   0 365335. 6170.35   2
   0   3   1 105621. 913.116   0
   0   3   1 101004. 844.803   1
   0   3   1 106124. 684.991   2
   0   3   2 55563.8 656.228   0
   0   3   2 52601.8 601.249   1
   0   3   2 54560.9 446.574   2
   0   3   3 79583.6 724.205   1
   0   3   3 83473.2 819.735   0
   0   3   4 9695.66 262.830   1
   0   3   4 9875.96 330.450   0
   0   3   5 112406. 1103.42   0
   0   3   5 111161. 822.388   1
   0   3   6 63902.1 935.017   0
   0   3   6 60364.6 602.588   1
   0   3   7 5993.11 377.270   0
   0   3   7 5363.94 207.314   1
   0   3   8 60623.6 1081.80   0
   0   3   8 53863.1 527.942   1
   0   3   9 21890.5 737.500   0
   0   3  10 6159.23 518.149   0
   0   3  11 27661.2 958.817   0
   0   3  12 71.0650 465.212   0
   0   3  13 21904.6 1030.79   0
   0   3  14 12110.7 910.608   0
   0   3  15 22.6932 657.052   0
   0   4 -11 7621.90 990.989   2
   0   4 -10 5789.98 872.953   2
   0   4  -9 3923.59 726.918   2
   0   4  -8 18071.0 970.834   2
   0   4  -7 2518.85 571.434   2
   0   4  -7 2438.63 321.788   1
   0   4  -6 9973.71 457.910   1
   0   4  -6 10468.2 689.806   2
   0   4  -5 25447.1 641.903   1
   0   4  -5 26627.0 928.172   2
   0   4  -4 99.0996 355.518   2
   0   4  -4 205.743 211.971   1
   0   4  -3 54007.3 835.846   1
   0   4  -3 53408.1 1052.22   2
   0   4  -2 65751.8 894.658   1
   0   4  -2 63900.0 1018.31   2
   0   4  -1 9770.74 366.696   1
   0   4  -1 10479.3 401.118   2
   0   4   0 181039. 1357.21   1
   0   4   0 177091. 1257.96   2
   0   4   1 110179. 1096.57   0
   0   4   1 107563. 1020.16   1
   0   4   1 107377. 839.374   2
   0   4   2 45269.9 695.620   0
   0   4   2 41646.3 629.909   1
   0   4   2 43574.5 480.040   2
   0   4   3 164379. 1207.78   1
   0   4   3 168423. 1313.35   0
   0   4   3 165552. 893.084   2
   0   4   4 2171.49 188.689   1
   0   4   4 2151.16 218.269   0
   0   4   5 145642. 1109.22   1
   0   4   5 149691. 1334.79   0
   0   4   6 107996. 929.570   1
   0   4   6 109377. 1224.31   0
   0   4   7 5824.77 362.757   0
   0   4   7 5739.44 252.595   1
   0   4   8 69487.2 1140.80   0
   0   4   8 65912.2 682.050   1
   0   4   9 15738.0 638.931   0
   0   4  10 4712.95 465.454   0
   0   4  11 20080.9 853.427   0
   0   4  12 552.100 469.080   0
   0   4  13 13679.9 872.989   0
   0   4  14 10039.8 857.833   0
   0   4  15 597.259 680.061   0
   0   5 -10 6200.97 957.786   2
   0   5  -9 2391.26 800.401   2
   0   5  -8 18699.4 1119.18   2
   0   5  -7 10897.3 562.421   1
   0   5  -7 14183.9 939.222   2
   0   5  -6 6215.62 443.732   1
   0   5  -6 6236.84 684.490   2
   0   5  -5 26656.9 728.618   1
   0   5  -5 28314.8 1023.51   2
   0   5  -4 21.4785 417.184   2
   0   5  -4 151.815 229.925   1
   0   5  -3 52326.9 918.457   1
   0   5  -3 49906.5 1115.01   2
   0   5  -2 37166.2 764.606   1
   0   5  -2 35111.8 846.829   2
   0   5  -1 2304.48 265.685   1
   0   5  -1 2085.16 290.290   2
   0   5   0 73233.2 987.789   1
   0   5   0 72537.3 903.039   2
   0   5   1 45394.4 758.392   1
   0   5   1 45822.1 633.577   2
   0   5   2 8971.55 404.309   0
   0   5   2 7886.94 345.303   1
   0   5   2 8586.63 275.606   2
   0   5   3 92536.8 1106.95   0
   0   5   3 86274.7 999.138   1
   0   5   3 89010.5 738.630   2
   0   5   4 15288.8 437.660   1
   0   5   4 16016.2 491.523   0
   0   5   5 105753. 1069.10   1
   0   5   5 103278. 1203.51   0
   0   5   6 117183. 1105.59   1
   0   5   6 120233. 1345.95   0
   0   5   7 478.328 173.225   1
   0   5   7 837.831 253.033   0
   0   5   8 67084.7 798.008   1
   0   5   8 65241.8 1131.03   0
   0   5   9 39320.9 954.699   0
   0   5  10 13502.0 654.980   0
   0   5  11 36780.9 1068.11   0
   0   5  12 237.917 440.665   0
   0   5  13 17285.3 912.609   0
   0   5  14 12866.0 886.784   0
   0   5  15 66.6100 616.302   0
   0   6  -9 1115.25 762.017   2
   0   6  -8 9562.24 962.560   2
   0   6  -7 11534.7 639.373   1
   0   6  -7 10438.3 889.745   2
   0   6  -6 4497.23 705.640   2
   0   6  -6 4235.41 474.347   1
   0   6  -5 22656.2 754.517   1
   0   6  -5 20496.0 1000.37   2
   0   6  -4 1813.54 506.579   2
   0   6  -4 2425.51 369.036   1
   0   6  -3 48952.8 980.597   1
   0   6  -3 47525.5 1165.22   2
   0   6  -2 33377.6 803.012   1
   0   6  -2 36097.8 943.588   2
   0   6  -1 4829.50 367.229   1
   0   6  -1 4569.07 394.494   2
   0   6   0 84828.2 1182.09   1
   0   6   0 82293.9 1076.36   2
   0   6   1 24349.0 639.508   1
   0   6   1 25572.7 548.860   2
   0   6   2 20415.3 628.813   0
   0   6   2 18242.5 551.107   1
   0   6   2 18898.4 435.699   2
   0   6   3 42622.4 861.543   0
   0   6   3 39712.7 772.962   1
   0   6   3 41376.9 570.359   2
   0   6   4 2613.58 299.992   0
   0   6   4 2452.54 261.736   1
   0   6   4 2413.95 197.685   2
   0   6   5 71385.0 993.532   1
   0   6   5 72040.4 1101.96   0
   0   6   6 62598.0 923.625   1
   0   6   6 63972.5 1063.84   0
   0   6   7 931.269 234.906   1
   0   6   7 1194.13 289.462   0
   0   6   8 32565.3 651.389   1
   0   6   8 32978.9 854.610   0
   0   6   9 37435.7 952.902   0
   0   6  10 14287.9 696.309   0
   0   6  11 29721.2 991.302   0
   0   6  12 2215.77 524.943   0
   0   6  13 13699.5 845.644   0
   0   6  14 21789.3 1075.30   0
   0   6  15 14.7433 632.895   0
   0   7  -8 4916.33 886.644   2
   0   7  -7 2467.94 749.528   2
   0   7  -7 2239.93 490.776   1
   0   7  -6 2392.23 734.070   2
   0   7  -6 1941.12 445.240   1
   0   7  -5 11164.5 660.763   1
   0   7  -5 11262.5 882.974   2
   0   7  -4 2346.95 594.815   2
   0   7  -4 2346.42 430.066   1
   0   7  -3 22252.4 763.097   1
   0   7  -3 22717.4 931.165   2
   0   7  -2 32133.1 866.114   1
   0   7  -2 31078.2 939.810   2
   0   7  -1 1391.09 353.658   2
   0   7  -1 1461.26 319.396   1
   0   7   0 44558.9 957.530   1
   0   7   0 45462.8 877.891   2
   0   7   1 47010.3 970.269   1
   0   7   1 48888.3 809.301   2
   0   7   2 27612.4 739.597   1
   0   7   2 26538.3 556.923   2
   0   7   3 51102.8 1041.11   0
   0   7   3 48702.6 943.352   1
   0   7   3 49651.5 684.790   2
   0   7   4 4898.20 410.787   0
   0   7   4 4087.10 350.016   1
   0   7   5 37212.2 884.028   0
   0   7   5 36446.2 809.887   1
   0   7   6 46303.3 889.031   1
   0   7   6 47537.7 1001.77   0
   0   7   7 739.165 263.420   1
   0   7   7 602.764 316.960   0
   0   7   8 30221.8 714.775   1
   0   7   8 28288.5 838.439   0
   0   7   9 10253.7 595.337   0
   0   7  10 3265.27 478.131   0
   0   7  11 15081.7 778.767   0
   0   7  12 3038.70 558.712   0
   0   7  13 8528.70 743.924   0
   0   7  14 21087.7 1085.03   0
   0   8  -7 1274.34 799.225   2
   0   8  -6 719.187 732.935   2
   0   8  -6 1383.64 506.081   1
   0   8  -5 6695.24 604.676   1
   0   8  -5 5732.42 813.650   2
   0   8  -4 81.6816 543.161   2
   0   8  -4 363.969 421.990   1
   0   8  -3 10764.6 651.611   1
   0   8  -3 10993.4 767.970   2
   0   8  -2 13284.4 676.929   1
   0   8  -2 13821.5 735.159   2
   0   8  -1-15.6790 350.169   2
   0   8  -1-65.9010 343.557   1
   0   8   0 22728.1 769.515   1
   0   8   1 28702.6 860.966   1
   0   8   2 7429.95 501.207   1
   0   8   3 25238.1 780.802   1
   0   8   4 12837.0 641.923   0
   0   8   4 11971.0 562.780   1
   0   8   5 48966.7 1104.81   0
   0   8   5 48980.7 1027.57   1
   0   8   6 79272.0 1376.15   0
   0   8   6 83576.8 1298.46   1
   0   8   7 129.263 291.601   1
   0   8   7 24.3721 343.981   0
   0   8   8 31984.0 807.711   1
   0   8   8 31223.9 937.971   0
   0   8   9 12403.1 673.254   0
   0   8  10 7700.35 610.403   0
   0   8  11 27493.8 1007.91   0
   0   8  12 984.979 512.159   0
   0   8  13 8683.69 790.547   0
   0   8  14 10869.2 886.786   0
   0   9  -5 6388.78 680.083   1
   0   9  -4 729.354 503.645   1
   0   9  -3 12240.4 744.748   1
   0   9  -2 10840.5 679.158   1
   0   9  -1 312.948 409.655   1
   0   9   0 13632.5 696.399   1
   0   9   1 5740.54 519.815   1
   0   9   2 6121.93 514.817   1
   0   9   3 19841.4 771.840   1
   0   9   4 3269.17 426.992   1
   0   9   5 13447.6 710.352   0
   0   9   5 14469.1 680.098   1
   0   9   6 37939.1 1081.51   0
   0   9   6 37853.0 1001.75   1
   0   9   7 1824.32 392.784   1
   0   9   7 1567.13 435.136   0
   0   9   8 13730.9 648.128   1
   0   9   8 13284.0 730.280   0
   0   9   9 16661.0 816.028   0
   0   9  10 3509.66 539.905   0
   0   9  11 21923.2 977.732   0
   0   9  12 3779.89 644.725   0
   0   9  13 8162.22 793.241   0
   0  10  -3 2322.16 628.642   1
   0  10  -2 7349.58 716.279   1
   0  10  -1 290.492 464.577   1
   0  10   0 12284.6 749.132   1
   0  10   1 7960.87 634.406   1
   0  10   2 3599.55 534.011   1
   0  10   3 16692.9 796.800   1
   0  10   4 712.947 433.150   1
   0  10   5 10799.7 662.539   1
   0  10   6 18943.9 882.697   0
   0  10   6 19769.1 826.846   1
   0  10   7 278.519 397.267   1
   0  10   7 317.732 448.122   0
   0  10   8 10390.7 718.958   0
   0  10   8 11930.6 676.848   1
   0  10   9 7620.51 681.994   0
   0  10  10 1323.49 537.235   0
   0  10  11 13585.1 875.696   0
   0  10  12 6069.15 734.548   0
   0  11   0 5466.64 683.326   1
   0  11   1 7512.22 719.588   1
   0  11   2 147.864 510.163   1
   0  11   3 17731.0 894.824   1
   0  11   4 4795.11 597.777   1
   0  11   5 9169.26 718.189   1
   0  11   6 23115.2 972.049   1
   0  11   7 350.693 535.607   0
   0  11   7 470.214 473.813   1
   0  11   8 10739.9 810.914   0
   0  11   8 11566.2 761.554   1
   0  11   9 3957.17 650.531   0
   0  11  10 3084.98 664.905   0
   0  12   5 2077.57 621.570   1
   0  12   6 13433.6 887.130   1
   0  12   7 1227.98 556.721   1
   1  -3  11 5191.28 763.041   0
   1  -3  12 4907.07 827.036   0
   1  -2 -15 12137.0 1059.11   2
   1  -2  11 7449.39 760.301   0
   1  -2  12 6244.94 770.501   0
   1  -1 -15 4203.90 885.973   2
   1  -1 -14 435.107 726.045   2
   1  -1   9 49112.9 1204.75   0
   1  -1  10 3685.62 537.629   0
   1  -1  11 15183.3 876.445   0
   1  -1  12 11282.7 868.922   0
   1  -1  13 155.618 637.516   0
   1   0 -14-223.186 762.884   2
   1   0 -13 9956.91 919.416   2
   1   0   7 16739.7 612.552   0
   1   0   8 2371.05 374.695   0
   1   0   9 38939.3 1028.61   0
   1   0  10 5071.77 538.222   0
   1   0  11 12194.3 759.535   0
   1   0  12 12404.6 827.379   0
   1   0  13 450.350 574.113   0
   1   0  14 6643.48 838.183   0
   1   1 -14 580.080 807.485   2
   1   1 -13 11812.0 1010.43   2
   1   1 -12 17323.4 1023.36   2
   1   1  -6 265.126 96.0510   1
   1   1  -5 88467.4 616.014   1
   1   1  -4 130026. 701.048   1
   1   1  -3 6515.89 165.140   1
   1   1  -2 111154. 2308.87   1
   1   1  -1 86872.9 2054.37   1
   1   1   1 409251. 3554.26   0
   1   1   2 24545.4 315.457   0
   1   1   3 302934. 5431.59   0
   1   1   4 354389. 6973.65   0
   1   1   5 814.858 199.865   0
   1   1   6 107363. 1228.26   0
   1   1   7 23003.1 660.754   0
   1   1   8 27064.8 774.338   0
   1   1   9 55965.2 1167.39   0
   1   1  10 5936.82 535.835   0
   1   1  11 10120.2 677.974   0
   1   1  12 11013.6 770.432   0
   1   1  13 826.833 571.496   0
   1   1  14 3765.74 732.935   0
   1   2 -13 6100.45 894.998   2
   1   2 -12 9368.38 921.078   2
   1   2 -11 339.501 624.576   2
   1   2 -10 30230.1 1177.18   2
   1   2  -7 50435.9 648.274   1
   1   2  -6 5840.33 250.419   1
   1   2  -5 93644.5 813.498   1
   1   2  -4 151079. 1003.50   1
   1   2  -3 157.040 108.003   1
   1   2  -2 92975.5 715.018   1
   1   2  -1 22329.2 351.327   1
   1   2   0 42958.4 485.930   1
   1   2   1 113429. 678.542   0
   1   2   1 114528. 815.060   1
   1   2   2 117898. 897.352   1
   1   2   2 109455. 2816.94   0
   1   2   3 92629.5 755.894   0
   1   2   4 254503. 5622.46   0
   1   2   5 14203.5 408.891   0
   1   2   6 57151.2 864.439   0
   1   2   7 53330.0 924.213   0
   1   2   8 16749.0 603.751   0
   1   2   9 87061.7 1391.09   0
   1   2  10 14391.7 680.374   0
   1   2  11 12574.7 713.545   0
   1   2  12 18970.1 884.089   0
   1   2  13 211.949 524.201   0
   1   2  14 5230.81 721.577   0
   1   3 -12 6794.04 949.257   2
   1   3 -11 1394.93 729.928   2
   1   3 -10 13381.9 908.960   2
   1   3  -9 9986.90 804.741   2
   1   3  -8 6163.82 639.152   2
   1   3  -7 34008.1 1057.11   2
   1   3  -7 31489.3 614.870   1
   1   3  -6 47886.5 729.985   1
   1   3  -5 75010.2 867.782   1
   1   3  -4 145897. 1172.88   1
   1   3  -3 1095.01 170.042   1
   1   3  -2 130818. 1029.82   1
   1   3  -1 102996. 964.819   2
   1   3  -1 101834. 887.146   1
   1   3   0 39044.4 544.591   1
   1   3   0 38803.7 474.529   2
   1   3   1 300203. 5615.45   0
   1   3   1 308716. 6040.69   1
   1   3   1 294988. 3263.47   2
   1   3   2 10487.4 288.120   0
   1   3   2 9332.20 299.512   1
   1   3   3 98025.1 913.145   1
   1   3   3 97739.2 840.904   0
   1   3   4 120399. 1006.19   0
   1   3   4 122285. 1065.23   1
   1   3   5 194.326 177.178   1
   1   3   5 189.406 165.035   0
   1   3   6 51023.5 824.289   0
   1   3   6 45762.8 732.401   1
   1   3   7 49222.8 877.401   0
   1   3   7 43951.4 754.951   1
   1   3   8 11236.9 498.387   0
   1   3   8 8578.71 403.143   1
   1   3   9 67718.6 1203.92   0
   1   3  10 19605.2 749.712   0
   1   3  11 17218.1 778.604   0
   1   3  12 30263.8 1056.00   0
   1   3  13 1193.88 543.682   0
   1   3  14 8425.78 787.707   0
   1   3  15 5175.68 769.481   0
   1   4 -11 396.977 728.291   2
   1   4 -10 9504.59 937.696   2
   1   4  -9 4787.74 736.274   2
   1   4  -8 4481.35 685.249   2
   1   4  -7 18004.0 904.143   2
   1   4  -7 16815.3 543.204   1
   1   4  -6 5807.85 614.022   2
   1   4  -6 6170.09 361.006   1
   1   4  -5 64906.5 1329.22   2
   1   4  -5 67113.9 939.978   1
   1   4  -4 79971.0 1354.64   2
   1   4  -4 80025.3 999.871   1
   1   4  -3 10785.5 523.636   2
   1   4  -3 10860.0 388.904   1
   1   4  -2 39587.8 664.071   1
   1   4  -2 39487.5 801.340   2
   1   4  -1 121547. 1117.93   1
   1   4  -1 122792. 1166.14   2
   1   4   0 74887.5 864.365   1
   1   4   0 73664.8 757.137   2
   1   4   1 359387. 7387.54   0
   1   4   1 356364. 7351.77   1
   1   4   1 357999. 4893.31   2
   1   4   2 80565.1 867.674   0
   1   4   2 77964.3 872.646   1
   1   4   2 77207.4 426.417   2
   1   4   3 99861.5 965.918   0
   1   4   3 98046.6 994.323   1
   1   4   4 190803. 1403.31   1
   1   4   4 190489. 1377.49   0
   1   4   5 5939.48 302.294   1
   1   4   5 6266.20 311.118   0
   1   4   6 60913.9 894.706   0
   1   4   6 57930.2 813.367   1
   1   4   7 17051.6 547.037   0
   1   4   7 16051.6 466.426   1
   1   4   8 17488.4 603.806   0
   1   4   8 16794.6 479.200   1
   1   4   9 65749.3 1204.62   0
   1   4  10 17620.8 734.643   0
   1   4  11 4571.78 515.227   0
   1   4  12 9640.90 703.103   0
   1   4  13 675.982 539.886   0
   1   4  14 6413.52 743.726   0
   1   4  15 8693.39 879.062   0
   1   5 -11 597.220 802.102   2
   1   5 -10 5997.47 883.830   2
   1   5  -9 6790.97 865.982   2
   1   5  -8 3833.15 727.434   2
   1   5  -7 29652.1 782.112   1
   1   5  -7 30109.7 1193.26   2
   1   5  -6 4337.81 377.125   1
   1   5  -6 4320.87 609.848   2
   1   5  -5 12999.2 513.245   1
   1   5  -5 14457.9 778.142   2
   1   5  -4 32716.6 738.670   1
   1   5  -4 30322.3 960.465   2
   1   5  -3 164.939 218.349   1
   1   5  -3 95.9441 352.370   2
   1   5  -2 25677.5 605.493   1
   1   5  -2 25063.0 719.261   2
   1   5  -1 47778.2 798.145   1
   1   5  -1 47116.6 826.276   2
   1   5   0 12817.9 433.483   1
   1   5   0 13977.7 411.743   2
   1   5   1 85180.7 1030.40   1
   1   5   1 84999.9 737.588   2
   1   5   2 72458.6 960.021   0
   1   5   2 68313.9 922.855   1
   1   5   2 71404.9 538.200   2
   1   5   3 47581.7 770.965   0
   1   5   3 45284.7 752.770   1
   1   5   3 43865.3 365.192   2
   1   5   4 114104. 1181.75   0
   1   5   4 111534. 1173.47   1
   1   5   5 26349.9 602.493   1
   1   5   5 27178.4 610.007   0
   1   5   6 93837.0 1113.47   1
   1   5   6 95553.4 1169.13   0
   1   5   7 65556.5 936.385   1
   1   5   7 65351.1 1036.63   0
   1   5   8 11506.0 434.254   1
   1   5   8 11960.1 525.118   0
   1   5   9 78096.2 1290.36   0
   1   5  10 19309.3 729.115   0
   1   5  11 9301.14 613.467   0
   1   5  12 20337.8 882.580   0
   1   5  13 1162.86 524.920   0
   1   5  14 8230.55 768.024   0
   1   5  15 5700.23 779.793   0
   1   6 -10 3569.44 989.179   2
   1   6  -9 6009.50 936.405   2
   1   6  -8 1068.47 730.007   2
   1   6  -7 17228.2 704.561   1
   1   6  -7 18611.9 1081.87   2
   1   6  -6 7156.42 502.610   1
   1   6  -6 6870.76 753.601   2
   1   6  -5 13934.6 592.746   1
   1   6  -5 14526.7 853.492   2
   1   6  -4 58401.6 1061.63   1
   1   6  -4 55427.4 1349.59   2
   1   6  -3 949.218 267.545   1
   1   6  -3 664.514 412.127   2
   1   6  -2 43708.3 876.917   1
   1   6  -2 42528.3 983.155   2
   1   6  -1 23735.7 645.250   1
   1   6  -1 24379.8 678.443   2
   1   6   0 18945.2 575.603   1
   1   6   0 19287.8 526.084   2
   1   6   1 107638. 1271.56   1
   1   6   1 105990. 946.804   2
   1   6   2 23362.0 639.067   0
   1   6   2 23103.2 613.211   1
   1   6   2 22639.5 384.629   2
   1   6   3 27571.6 672.986   0
   1   6   3 26133.9 648.818   1
   1   6   3 25979.9 342.800   2
   1   6   4 55488.5 928.788   0
   1   6   4 55882.2 919.905   1
   1   6   5 13855.2 498.141   0
   1   6   5 14012.2 502.882   1
   1   6   6 48635.7 867.070   1
   1   6   6 47971.1 894.655   0
   1   6   7 50706.6 880.237   1
   1   6   7 50015.2 952.602   0
   1   6   8 5640.75 361.858   1
   1   6   8 5905.79 420.217   0
   1   6   9 53810.0 1104.58   0
   1   6  10 49182.2 1130.53   0
   1   6  11 9372.85 624.098   0
   1   6  12 25567.6 961.426   0
   1   6  13 1186.49 510.612   0
   1   6  14 9017.70 798.434   0
   1   6  15 8146.02 842.639   0
   1   7  -9 2044.65 852.227   2
   1   7  -8 929.445 775.384   2
   1   7  -7 9534.76 997.483   2
   1   7  -6 4692.11 791.678   2
   1   7  -6 5075.27 520.766   1
   1   7  -5 3884.59 672.658   2
   1   7  -5 4757.13 475.819   1
   1   7  -4 29132.3 837.557   1
   1   7  -4 27309.3 1071.94   2
   1   7  -3 5689.52 464.186   1
   1   7  -3 5112.34 582.723   2
   1   7  -2 23886.0 749.673   1
   1   7  -2 21262.6 794.693   2
   1   7  -1 29869.0 798.374   1
   1   7  -1 30626.4 802.462   2
   1   7   0 4147.77 367.224   1
   1   7   0 4126.27 347.180   2
   1   7   1 104074. 1377.48   1
   1   7   1 102227. 1031.99   2
   1   7   2 27275.6 730.823   1
   1   7   2 26880.2 477.693   2
   1   7   3 20856.8 675.819   0
   1   7   3 20022.0 637.136   1
   1   7   4 42330.4 899.561   0
   1   7   4 41595.9 877.959   1
   1   7   5 162.361 252.757   1
   1   7   5 388.981 266.881   0
   1   7   6 33292.1 821.064   0
   1   7   6 33730.8 801.524   1
   1   7   7 20444.0 644.889   1
   1   7   7 19223.9 668.355   0
   1   7   8 7395.57 435.335   1
   1   7   8 7433.24 489.345   0
   1   7   9 27528.6 849.963   0
   1   7  10 26653.2 887.410   0
   1   7  11 3615.75 507.696   0
   1   7  12 14413.1 797.205   0
   1   7  13 1081.22 529.438   0
   1   7  14 7886.37 787.301   0
   1   8  -8 373.520 902.484   2
   1   8  -7 6029.74 916.873   2
   1   8  -6 1506.02 758.723   2
   1   8  -6 1000.74 477.003   1
   1   8  -5 2928.04 708.615   2
   1   8  -5 3304.07 496.336   1
   1   8  -4 10466.4 638.135   1
   1   8  -4 10093.9 825.860   2
   1   8  -3 377.410 493.749   2
   1   8  -3 895.895 389.303   1
   1   8  -2 11468.1 614.668   1
   1   8  -2 11327.7 666.690   2
   1   8  -1 21782.7 765.580   1
   1   8   0 72.5832 289.276   1
   1   8   1 52552.1 1096.67   1
   1   8   2 32729.0 870.106   1
   1   8   3 6673.79 507.634   0
   1   8   3 5758.17 446.109   1
   1   8   4 66735.2 1247.88   0
   1   8   4 65584.7 1199.94   1
   1   8   5 10341.8 565.130   0
   1   8   5 10865.3 568.408   1
   1   8   6 39383.7 964.984   0
   1   8   6 42129.4 969.897   1
   1   8   7 41973.0 1014.81   0
   1   8   7 42548.3 964.113   1
   1   8   8 3715.06 399.624   1
   1   8   8 3281.85 433.099   0
   1   8   9 35097.8 1000.06   0
   1   8  10 15799.6 748.221   0
   1   8  11 1939.04 474.097   0
   1   8  12 13238.5 789.080   0
   1   8  13 288.542 512.714   0
   1   8  14 6051.24 750.500   0
   1   9  -6 3209.12 619.176   1
   1   9  -5 2206.77 540.972   1
   1   9  -4 10891.0 703.252   1
   1   9  -3 744.523 448.439   1
   1   9  -2 12173.7 678.197   1
   1   9  -1 9681.85 624.213   1
   1   9   0 2665.60 434.646   1
   1   9   1 22913.4 849.075   1
   1   9   2 11615.3 644.814   1
   1   9   3 1137.78 366.350   1
   1   9   4 32619.5 990.478   0
   1   9   4 31366.3 934.681   1
   1   9   5 4311.89 501.255   0
   1   9   5 4440.06 473.117   1
   1   9   6 21717.0 817.945   0
   1   9   6 22328.2 812.668   1
   1   9   7 30028.5 941.071   0
   1   9   7 31932.6 939.639   1
   1   9   8 96.9770 357.275   1
   1   9   8 53.8717 381.040   0
   1   9   9 35167.5 1051.30   0
   1   9  10 18526.6 848.872   0
   1   9  11 3192.77 559.086   0
   1   9  12 17991.0 909.457   0
   1   9  13 470.236 559.629   0
   1  10  -4 9175.98 775.039   1
   1  10  -3 631.657 528.852   1
   1  10  -2 5207.30 614.287   1
   1  10  -1 6999.67 627.668   1
   1  10   0 1102.63 451.941   1
   1  10   1 22638.4 925.029   1
   1  10   2 10541.3 692.257   1
   1  10   3 3978.93 505.213   1
   1  10   4 15500.2 762.048   1
   1  10   5 51.2198 397.530   1
   1  10   5 292.562 440.341   0
   1  10   6 11935.6 739.408   0
   1  10   6 12164.7 696.290   1
   1  10   7 14986.0 786.617   0
   1  10   7 14497.8 743.001   1
   1  10   8 201.305 401.665   1
   1  10   8 6.55450 426.402   0
   1  10   9 18830.6 880.759   0
   1  10  10 14884.6 837.734   0
   1  10  11 78.2673 510.560   0
   1  10  12 11972.6 839.905   0
   1  11  -1 10971.1 798.444   1
   1  11   0 1234.04 550.052   1
   1  11   1 11148.6 793.964   1
   1  11   2 11511.1 777.466   1
   1  11   3 2164.39 532.862   1
   1  11   4 16407.3 879.749   1
   1  11   5 2602.22 557.749   1
   1  11   6 10574.2 797.309   0
   1  11   6 11460.8 776.081   1
   1  11   7 13655.4 827.753   0
   1  11   7 14665.6 834.174   1
   1  11   8 343.797 480.875   1
   1  11   8 15.2518 511.703   0
   1  11   9 13484.3 847.267   0
   1  11  10 3840.95 628.513   0
   1  11  11 755.144 600.670   0
   1  12   3 29.5838 568.304   1
   1  12   4 9880.38 829.272   1
   1  12   5 2412.53 597.720   1
   1  12   6 7759.04 759.667   1
   1  12   7 16205.6 948.893   1
   1  12   8-39.2458 530.638   1
   1  12   8 306.768 581.784   0
   2  -3  11 437.001 642.159   0
   2  -2  11 229.267 587.809   0
   2  -2  12 4324.12 752.468   0
   2  -1  10 15871.3 811.453   0
   2  -1  11 352.477 490.699   0
   2  -1  12 7438.22 768.666   0
   2  -1  13 3415.34 739.845   0
   2   0   8 32261.1 879.426   0
   2   0   9 3366.47 450.344   0
   2   0  10 17160.0 783.374   0
   2   0  11 393.185 493.082   0
   2   0  12 9967.53 779.247   0
   2   0  13 10428.2 874.881   0
   2   1 -14 8840.01 1007.76   2
   2   1  -6 34768.2 330.101   1
   2   1  -5 10266.2 194.534   1
   2   1  -4 200398. 3256.54   1
   2   1  -3 116558. 670.844   1
   2   1   1 179454. 2060.59   0
   2   1   2 501352. 5449.26   0
   2   1   3 16640.9 338.409   0
   2   1   4 159655. 4616.67   0
   2   1   5 118082. 1144.26   0
   2   1   6 2937.51 284.970   0
   2   1   7 88465.9 1225.06   0
   2   1   8 38537.7 909.276   0
   2   1   9 5785.27 477.566   0
   2   1  10 13558.3 695.981   0
   2   1  11 410.011 423.287   0
   2   1  12 5787.96 640.954   0
   2   1  13 10318.3 805.418   0
   2   1  14 359.050 599.879   0
   2   2 -13 1239.51 794.504   2
   2   2 -12 8365.34 869.639   2
   2   2  -6 73296.9 677.926   1
   2   2  -5 781.211 134.231   1
   2   2  -4 90816.2 733.980   1
   2   2  -3 31168.5 435.241   1
   2   2  -2 3864.88 188.931   1
   2   2  -1 132912. 936.981   1
   2   2   1 96415.2 2185.34   0
   2   2   2 4832.17 160.058   0
   2   2   3 9538.54 254.715   0
   2   2   4 132996. 1003.71   0
   2   2   5 245798. 6211.73   0
   2   2   6 683.155 199.196   0
   2   2   7 96514.9 1216.96   0
   2   2   8 28347.6 754.727   0
   2   2   9 8387.59 508.636   0
   2   2  10 31196.4 933.179   0
   2   2  11 649.280 403.082   0
   2   2  12 12883.8 763.826   0
   2   2  13 12326.9 821.596   0
   2   2  14 63.2287 577.885   0
   2   3 -12 6280.06 887.741   2
   2   3 -11 6877.32 845.948   2
   2   3  -6 63542.0 777.490   1
   2   3  -5 8306.33 312.950   1
   2   3  -4 100963. 928.726   1
   2   3  -3 157374. 1139.09   1
   2   3  -2 3806.60 225.252   1
   2   3  -1 225606. 5445.46   1
   2   3   0 115458. 1012.73   1
   2   3   1 75136.1 667.198   0
   2   3   1 77062.5 863.790   1
   2   3   2 32963.9 448.223   0
   2   3   2 34744.0 640.534   1
   2   3   3 21574.1 390.459   0
   2   3   4 87573.8 834.394   0
   2   3   5 190054. 1396.24   0
   2   3   6 139.942 179.526   0
   2   3   7 44841.4 821.445   0
   2   3   8 59312.3 1027.42   0
   2   3   9 1158.74 312.750   0
   2   3  10 41573.1 1023.81   0
   2   3  11 5694.70 532.952   0
   2   3  12 17910.4 849.770   0
   2   3  13 20924.9 967.853   0
   2   3  14 767.573 564.920   0
   2   3  15 4449.14 742.979   0
   2   4 -12 4832.58 908.367   2
   2   4 -11 5605.65 849.300   2
   2   4 -10 405.585 644.431   2
   2   4  -9 19963.3 1063.26   2
   2   4  -8 13541.2 866.216   2
   2   4  -6 33638.6 669.445   1
   2   4  -5 14667.6 461.647   1
   2   4  -4 63005.8 847.671   1
   2   4  -3 140793. 1234.94   1
   2   4  -2 2572.98 220.630   1
   2   4  -1 187110. 1392.47   1
   2   4   0 170757. 1351.43   1
   2   4   1 18300.6 419.509   0
   2   4   1 18692.5 483.395   1
   2   4   1 17715.3 272.036   2
   2   4   2 235344. 1386.08   0
   2   4   2 242895. 1682.72   1
   2   4   3 5229.97 251.321   0
   2   4   3 5777.38 338.032   1
   2   4   4 106174. 993.673   0
   2   4   4 105393. 1217.88   1
   2   4   5 137859. 1463.12   1
   2   4   5 139312. 1208.34   0
   2   4   6 770.838 274.252   1
   2   4   6 844.663 196.528   0
   2   4   7 38625.1 773.373   0
   2   4   7 32552.2 801.252   1
   2   4   8 27952.1 743.542   0
   2   4   8 21941.1 710.743   1
   2   4   9 6307.91 455.544   0
   2   4   9 4277.31 421.669   1
   2   4  10 23299.0 811.517   0
   2   4  11 5526.93 528.816   0
   2   4  12 15423.9 808.165   0
   2   4  13 16029.2 893.592   0
   2   4  14 720.672 579.454   0
   2   4  15 4144.92 755.047   0
   2   5 -11 5977.09 984.899   2
   2   5 -10 392.241 715.503   2
   2   5  -9 17098.1 1096.57   2
   2   5  -8 11911.5 916.819   2
   2   5  -7 4386.53 686.846   2
   2   5  -6 16838.0 854.350   2
   2   5  -6 15415.2 538.865   1
   2   5  -5 181.398 226.216   1
   2   5  -5 407.937 432.815   2
   2   5  -4 29637.8 942.079   2
   2   5  -4 33117.5 711.197   1
   2   5  -3 46853.1 1053.04   2
   2   5  -3 47745.2 824.611   1
   2   5  -2 372.730 188.751   1
   2   5  -2 255.720 302.031   2
   2   5  -1 58164.6 913.583   2
   2   5  -1 63988.1 923.373   1
   2   5   0 71577.9 969.293   1
   2   5   0 67056.6 798.954   2
   2   5   1 4246.94 295.357   1
   2   5   1 4782.76 195.035   2
   2   5   2 129630. 1204.72   0
   2   5   2 129164. 1330.48   1
   2   5   3 20920.2 507.067   0
   2   5   3 20852.5 579.723   1
   2   5   4 96705.4 1050.44   0
   2   5   4 98949.5 1232.14   1
   2   5   5 196914. 1541.15   0
   2   5   5 198827. 1776.50   1
   2   5   6 7286.17 429.063   1
   2   5   6 7456.45 372.394   0
   2   5   7 67821.9 1127.49   1
   2   5   7 70606.0 1048.43   0
   2   5   8 35399.9 814.132   0
   2   5   8 31411.1 818.408   1
   2   5   9 6834.66 452.946   0
   2   5   9 5141.37 419.661   1
   2   5  10 31880.3 907.762   0
   2   5  11 4483.07 492.957   0
   2   5  12 11789.1 714.906   0
   2   5  13 15703.4 867.971   0
   2   5  14 1303.37 565.255   0
   2   5  15 2066.54 638.574   0
   2   6 -10 691.322 785.268   2
   2   6  -9 11764.3 1026.17   2
   2   6  -8 11161.0 989.743   2
   2   6  -7 2074.47 652.729   2
   2   6  -6 26763.2 763.263   1
   2   6  -6 25100.1 1083.65   2
   2   6  -5 6122.89 434.623   1
   2   6  -5 6132.67 681.156   2
   2   6  -4 28852.0 745.984   1
   2   6  -4 26296.0 969.509   2
   2   6  -3 61064.6 1015.15   1
   2   6  -3 55487.3 1213.78   2
   2   6  -2 99.6737 244.318   1
   2   6  -2 89.7155 339.072   2
   2   6  -1 55692.2 945.040   1
   2   6  -1 50065.6 920.016   2
   2   6   0 31311.5 725.095   1
   2   6   0 30401.7 611.984   2
   2   6   1 2747.04 290.994   1
   2   6   1 2469.71 199.349   2
   2   6   2 59631.3 936.928   0
   2   6   2 60473.6 986.932   1
   2   6   2 54939.4 424.954   2
   2   6   3 12476.7 456.148   0
   2   6   3 12638.0 495.002   1
   2   6   4 37701.0 741.097   0
   2   6   4 36080.8 810.995   1
   2   6   5 125217. 1340.66   0
   2   6   5 126648. 1502.64   1
   2   6   6 17914.7 556.664   0
   2   6   6 16232.0 601.033   1
   2   6   7 45292.1 955.139   1
   2   6   7 45682.3 893.669   0
   2   6   8 38253.3 889.857   1
   2   6   8 41134.5 898.874   0
   2   6   9 2301.56 365.524   1
   2   6   9 3053.22 392.121   0
   2   6  10 49220.8 1099.66   0
   2   6  11 11137.4 645.482   0
   2   6  12 15590.9 782.246   0
   2   6  13 23961.1 998.298   0
   2   6  14 486.420 534.257   0
   2   6  15 4008.03 702.905   0
   2   7  -9 4556.63 1005.75   2
   2   7  -8 3683.39 868.959   2
   2   7  -7-82.2151 697.355   2
   2   7  -6 15997.4 691.581   1
   2   7  -6 15839.7 1038.95   2
   2   7  -5 6866.92 513.349   1
   2   7  -5 6566.81 740.466   2
   2   7  -4 16124.1 645.985   1
   2   7  -4 13697.4 830.480   2
   2   7  -3 52464.4 1051.80   1
   2   7  -3 49449.5 1234.50   2
   2   7  -2 1603.75 310.901   1
   2   7  -2 1376.85 401.303   2
   2   7  -1 43237.5 932.927   1
   2   7  -1 42097.0 905.900   2
   2   7   0 37315.3 860.051   1
   2   7   0 37999.7 734.445   2
   2   7   1 12203.6 525.748   1
   2   7   1 11298.2 352.858   2
   2   7   2 77654.0 1218.83   1
   2   7   3 6117.17 414.949   0
   2   7   3 6338.72 429.387   1
   2   7   4 39665.6 840.027   0
   2   7   4 40886.6 912.345   1
   2   7   5 63304.9 1060.26   0
   2   7   5 63354.0 1142.20   1
   2   7   6 247.698 293.332   1
   2   7   6-11.8254 260.146   0
   2   7   7 26282.1 736.834   0
   2   7   7 25226.0 774.254   1
   2   7   8 18611.6 687.917   1
   2   7   8 19100.2 672.087   0
   2   7   9 287.528 321.457   1
   2   7   9 366.173 334.457   0
   2   7  10 38144.7 1012.66   0
   2   7  11 8990.53 634.816   0
   2   7  12 9532.71 688.368   0
   2   7  13 22735.7 980.934   0
   2   7  14 2841.50 631.263   0
   2   7  15 3577.88 720.472   0
   2   8  -8 2562.15 902.251   2
   2   8  -7-346.397 811.604   2
   2   8  -6 5628.82 872.348   2
   2   8  -6 8055.12 613.671   1
   2   8  -5 82.4699 657.037   2
   2   8  -5 682.917 398.055   1
   2   8  -4 7322.79 549.904   1
   2   8  -4 6892.46 725.281   2
   2   8  -3 29294.1 895.490   1
   2   8  -3 24793.8 992.964   2
   2   8  -2 2142.94 402.488   1
   2   8  -1 15144.1 659.305   1
   2   8   0 42207.2 987.495   1
   2   8   1 150.080 303.079   1
   2   8   2 58950.7 1150.06   1
   2   8   3 17813.1 682.564   0
   2   8   3 19581.3 715.101   1
   2   8   4 34476.8 904.291   0
   2   8   4 33649.7 908.611   1
   2   8   5 81825.9 1299.46   0
   2   8   5 83416.7 1388.20   1
   2   8   6 7370.75 482.362   0
   2   8   6 8090.12 529.666   1
   2   8   7 16444.3 666.481   0
   2   8   7 15898.2 677.465   1
   2   8   8 12944.1 623.048   0
   2   8   8 12283.0 625.235   1
   2   8   9 2985.08 418.909   1
   2   8   9 2604.30 428.204   0
   2   8  10 34917.7 1009.84   0
   2   8  11 3007.81 505.137   0
   2   8  12 1800.89 507.308   0
   2   8  13 12290.9 815.705   0
   2   8  14 3458.57 649.976   0
   2   9  -5 1479.43 486.216   1
   2   9  -4 5087.81 568.877   1
   2   9  -3 16188.5 768.351   1
   2   9  -2 132.080 397.534   1
   2   9  -1 7798.87 561.141   1
   2   9   0 12745.5 645.765   1
   2   9   1 847.558 355.393   1
   2   9   2 37391.3 1026.71   1
   2   9   3 9617.90 607.302   1
   2   9   4 3549.43 463.352   0
   2   9   4 4385.79 466.769   1
   2   9   5 57882.4 1245.32   0
   2   9   5 57876.7 1262.32   1
   2   9   6 9911.21 596.989   0
   2   9   6 9304.83 593.158   1
   2   9   7 28198.3 900.201   0
   2   9   7 29843.5 946.103   1
   2   9   8 29406.2 924.805   0
   2   9   8 31972.7 984.875   1
   2   9   9 1618.77 417.138   1
   2   9   9 2064.97 435.300   0
   2   9  10 33358.3 1046.43   0
   2   9  11 7816.14 644.755   0
   2   9  12 4838.06 612.103   0
   2   9  13 15897.2 917.008   0
   2   9  14 899.085 596.371   0
   2  10  -5 1551.35 580.664   1
   2  10  -4 3772.56 599.745   1
   2  10  -3 13836.2 789.305   1
   2  10  -2 217.684 484.636   1
   2  10  -1 11062.0 716.082   1
   2  10   0 10203.9 693.991   1
   2  10   1 2086.46 458.041   1
   2  10   2 24898.3 929.338   1
   2  10   3 1390.32 416.224   1
   2  10   4 3193.34 514.775   1
   2  10   5 30601.2 1008.01   0
   2  10   5 33895.8 1078.80   1
   2  10   6 2241.23 480.016   1
   2  10   6 2666.20 489.020   0
   2  10   7 8001.57 606.528   0
   2  10   7 8674.41 646.555   1
   2  10   8 11741.4 703.428   0
   2  10   8 11546.8 728.759   1
   2  10   9-43.9917 456.359   1
   2  10   9 83.5781 433.027   0
   2  10  10 19986.6 891.596   0
   2  10  11 14087.5 825.668   0
   2  10  12 3169.05 603.837   0
   2  10  13 14113.2 917.598   0
   2  11  -2 2575.85 616.777   1
   2  11  -1 2378.68 592.369   1
   2  11   0 9964.81 752.917   1
   2  11   1-31.9800 512.755   1
   2  11   2 22445.5 991.153   1
   2  11   3 5693.36 626.908   1
   2  11   4 4935.40 639.715   1
   2  11   5 21417.8 972.749   1
   2  11   6 1203.89 512.907   1
   2  11   6 1256.17 496.617   0
   2  11   7 7438.93 691.368   0
   2  11   7 8749.08 727.683   1
   2  11   8 5711.98 647.025   0
   2  11   8 5453.64 630.290   1
   2  11   9 839.038 509.207   1
   2  11   9 658.359 511.593   0
   2  11  10 14073.2 855.327   0
   2  11  11 6916.66 728.045   0
   2  12   1 239.652 551.109   1
   2  12   2 9428.22 794.444   1
   2  12   3 9231.35 826.524   1
   2  12   4 1217.78 605.969   1
   2  12   5 18258.0 1018.52   1
   2  12   6 5789.83 714.637   1
   2  12   7 8988.39 795.886   0
   2  12   7 9233.24 821.531   1
   2  12   8 10014.8 816.002   0
   2  12   8 10622.9 827.287   1
   2  12   9 697.156 591.012   0
   3  -3  11 4910.67 808.382   0
   3  -2  11 5131.30 734.899   0
   3  -2  12 175.039 655.686   0
   3  -1  10 8978.80 693.865   0
   3  -1  11 9386.38 774.282   0
   3  -1  12 570.956 626.615   0
   3   0  -5 215483. 834.352   1
   3   0   8 31298.9 885.971   0
   3   0   9 14513.6 692.069   0
   3   0  10 3472.50 517.976   0
   3   0  11 15260.9 844.042   0
   3   0  12 895.339 565.503   0
   3   0  13 4543.06 741.066   0
   3   1  -6 28249.3 281.599   1
   3   1  -5 135246. 725.064   1
   3   1  -4 37570.6 446.543   1
   3   1   2 84670.3 568.007   0
   3   1   3 245977. 4917.79   0
   3   1   4 32683.7 548.395   0
   3   1   5 51615.6 772.194   0
   3   1   6 36858.4 734.355   0
   3   1   7 17002.0 580.448   0
   3   1   8 27273.9 783.430   0
   3   1   9 31980.3 908.710   0
   3   1  10 3913.62 482.789   0
   3   1  11 13458.7 746.984   0
   3   1  12 492.889 497.696   0
   3   1  13 2834.51 645.294   0
   3   1  14 2788.13 696.023   0
   3   2  -6 33723.6 449.212   1
   3   2  -5 75447.8 682.421   1
   3   2  -4 5066.94 220.953   1
   3   2  -3 61472.0 688.047   1
   3   2   1 93077.3 1757.69   0
   3   2   2 57270.3 436.513   0
   3   2   3 195654. 1002.64   0
   3   2   4 13039.6 333.621   0
   3   2   5 97847.6 985.465   0
   3   2   6 77325.0 985.823   0
   3   2   7 11601.7 474.486   0
   3   2   8 67380.2 1115.50   0
   3   2   9 26442.0 793.749   0
   3   2  10 9167.72 588.497   0
   3   2  11 16024.1 779.419   0
   3   2  12 743.761 494.396   0
   3   2  13 2026.52 568.735   0
   3   2  14 3990.01 707.347   0
   3   3  -6 28840.8 517.447   1
   3   3  -5 120512. 1019.34   1
   3   3  -4 9187.16 313.848   1
   3   3  -3 71605.9 807.906   1
   3   3  -2 76793.3 862.018   1
   3   3  -1 27820.6 553.314   1
   3   3   1 49667.8 492.513   0
   3   3   2 11974.1 261.645   0
   3   3   3 102285. 780.208   0
   3   3   4 37242.4 538.200   0
   3   3   5 37114.9 617.311   0
   3   3   6 59664.0 846.022   0
   3   3   7 895.851 228.563   0
   3   3   8 65119.1 1070.32   0
   3   3   9 39525.4 917.062   0
   3   3  10 2423.09 386.543   0
   3   3  11 24322.9 875.147   0
   3   3  12 1194.12 467.489   0
   3   3  13 5226.81 632.577   0
   3   3  14 7015.42 782.852   0
   3   4 -12-2.63889 763.597   2
   3   4 -11 3392.26 836.496   2
   3   4  -6 5511.12 311.144   1
   3   4  -5 102706. 1084.89   1
   3   4  -4 34855.0 650.961   1
   3   4  -3 50520.8 763.847   1
   3   4  -2 104386. 1097.82   1
   3   4  -1 14310.6 446.781   1
   3   4   0 259632. 1816.67   1
   3   4   1 120956. 960.958   0
   3   4   1 128047. 1317.63   1
   3   4   2 12074.2 316.461   0
   3   4   2 13376.1 500.956   1
   3   4   3 184968. 1180.35   0
   3   4   4 2152.75 191.159   0
   3   4   5 56149.1 756.765   0
   3   4   6 30764.2 619.924   0
   3   4   7 2476.02 284.087   0
   3   4   8 71521.1 1136.37   0
   3   4   9 39034.8 927.211   0
   3   4  10 1537.60 376.451   0
   3   4  11 19980.6 804.845   0
   3   4  12 1808.56 499.054   0
   3   4  13 10126.8 747.620   0
   3   4  14 10834.0 867.133   0
   3   4  15-395.737 635.993   0
   3   5 -11 5536.49 952.599   2
   3   5 -10 7300.72 917.592   2
   3   5  -9 4202.10 794.944   2
   3   5  -6 1511.00 288.316   1
   3   5  -5 53439.0 886.321   1
   3   5  -4 185.162 225.222   1
   3   5  -3 36546.5 725.179   1
   3   5  -2 56823.5 894.753   1
   3   5  -1 470.802 212.072   1
   3   5   0 140299. 1427.55   1
   3   5   1 131770. 1417.05   1
   3   5   2 34173.8 616.483   0
   3   5   2 34735.0 774.806   1
   3   5   3 183249. 1358.42   0
   3   5   3 190652. 1820.25   1
   3   5   4 21355.5 493.584   0
   3   5   4 21847.4 678.770   1
   3   5   5 65610.5 870.789   0
   3   5   5 65789.9 1180.75   1
   3   5   6 72020.7 1287.01   1
   3   5   6 75968.6 997.452   0
   3   5   7-102.081 218.112   0
   3   5   7 220.909 325.524   1
   3   5   8 71870.6 1113.20   0
   3   5   8 65203.5 1309.63   1
   3   5   9 19792.8 672.905   0
   3   5   9 18095.3 772.061   1
   3   5  10 1210.60 343.924   0
   3   5  11 17050.7 756.361   0
   3   5  12 1585.58 470.948   0
   3   5  13 3740.82 577.384   0
   3   5  14 6351.65 724.463   0
   3   5  15 522.720 617.958   0
   3   6 -10 8871.70 1041.41   2
   3   6  -9-60.6944 726.648   2
   3   6  -8 16051.0 1071.75   2
   3   6  -7 11135.3 891.952   2
   3   6  -6 5591.20 679.417   2
   3   6  -6 4825.35 410.179   1
   3   6  -5 59053.4 1456.54   2
   3   6  -5 55991.4 1013.68   1
   3   6  -4 988.976 284.894   1
   3   6  -4 1531.37 488.826   2
   3   6  -3 7892.85 577.756   2
   3   6  -3 8989.74 453.296   1
   3   6  -2 17741.8 683.113   2
   3   6  -2 21393.9 626.937   1
   3   6  -1 1036.66 259.751   1
   3   6  -1 882.386 309.156   2
   3   6   0 95281.1 1068.08   2
   3   6   0 104318. 1319.87   1
   3   6   1 47327.5 923.195   1
   3   6   1 42556.3 535.061   2
   3   6   2 1112.42 273.461   1
   3   6   2 680.140 216.737   0
   3   6   3 45753.5 782.219   0
   3   6   3 48241.3 982.512   1
   3   6   4 20905.5 556.421   0
   3   6   4 20435.3 689.517   1
   3   6   5 31455.6 674.971   0
   3   6   5 31416.0 856.837   1
   3   6   6 87632.4 1132.91   0
   3   6   6 85257.3 1426.03   1
   3   6   7 9.75295 311.248   1
   3   6   7 395.584 239.604   0
   3   6   8 62736.3 1291.29   1
   3   6   8 72659.1 1158.87   0
   3   6   9 39363.5 1064.46   1
   3   6   9 49975.0 1024.42   0
   3   6  10 1197.17 364.383   0
   3   6  11 24168.8 865.745   0
   3   6  12 1374.18 438.128   0
   3   6  13 8009.57 687.256   0
   3   6  14 11198.9 805.334   0
   3   6  15 348.676 595.748   0
   3   7  -9 493.189 796.390   2
   3   7  -8 11513.8 1010.22   2
   3   7  -7 12189.3 1013.81   2
   3   7  -6 1197.73 651.653   2
   3   7  -6 1097.32 357.591   1
   3   7  -5 28046.9 827.063   1
   3   7  -5 25392.6 1097.48   2
   3   7  -4 7532.67 496.629   1
   3   7  -4 6918.09 697.094   2
   3   7  -3 26062.9 762.766   1
   3   7  -3 21869.7 882.004   2
   3   7  -2 50822.0 1017.05   1
   3   7  -2 43423.1 1050.43   2
   3   7  -1 409.713 283.410   1
   3   7  -1 334.943 331.063   2
   3   7   0 99550.7 1395.91   1
   3   7   0 92632.9 1092.55   2
   3   7   1 30183.0 800.011   1
   3   7   2 5773.90 425.192   1
   3   7   3 65657.3 1057.63   0
   3   7   3 65104.7 1194.18   1
   3   7   4 2331.81 357.580   1
   3   7   4 2470.35 315.609   0
   3   7   5 20780.1 617.029   0
   3   7   5 20545.6 749.648   1
   3   7   6 61931.7 1034.59   0
   3   7   6 59654.2 1231.19   1
   3   7   7 280.145 331.058   1
   3   7   7-100.220 258.584   0
   3   7   8 39409.2 903.599   0
   3   7   8 34045.7 994.871   1
   3   7   9 33281.7 999.909   1
   3   7   9 36742.9 918.876   0
   3   7  10 79.8193 337.799   0
   3   7  11 23187.7 850.979   0
   3   7  12 4475.95 552.020   0
   3   7  13 8539.14 718.034   0
   3   7  14 15627.9 900.882   0
   3   7  15 316.374 623.904   0
   3   8  -8 4316.19 998.813   2
   3   8  -7 2964.26 841.952   2
   3   8  -6 547.744 737.056   2
   3   8  -5 12414.5 659.167   1
   3   8  -5 10732.8 899.078   2
   3   8  -4 4686.09 670.139   2
   3   8  -4 5875.96 508.099   1
   3   8  -3 9107.83 562.171   1
   3   8  -2 29558.4 863.251   1
   3   8  -1 1616.68 363.222   1
   3   8   0 44185.8 1030.06   1
   3   8   1 53804.9 1128.88   1
   3   8   2 2626.20 371.093   1
   3   8   3 59331.6 1102.97   0
   3   8   3 59634.9 1207.40   1
   3   8   4 6840.17 461.375   0
   3   8   4 6139.84 488.530   1
   3   8   5 22304.6 698.585   0
   3   8   5 23904.6 850.687   1
   3   8   6 47870.1 997.477   0
   3   8   6 47050.8 1166.75   1
   3   8   7 541.817 382.915   1
   3   8   7 891.276 327.588   0
   3   8   8 27453.6 820.022   0
   3   8   8 26075.9 925.477   1
   3   8   9 12012.0 609.221   0
   3   8   9 10300.0 660.052   1
   3   8  10 191.027 369.384   0
   3   8  11 17080.8 787.553   0
   3   8  12 1093.40 468.250   0
   3   8  13 4200.78 600.492   0
   3   8  14 10431.5 802.898   0
   3   9  -5 7446.28 624.455   1
   3   9  -4 923.839 434.696   1
   3   9  -3 6414.19 573.551   1
   3   9  -2 10818.7 633.095   1
   3   9  -1 90.7736 358.841   1
   3   9   0 20278.0 797.608   1
   3   9   1 34565.3 1000.85   1
   3   9   2 292.078 357.898   1
   3   9   3 31146.1 970.106   1
   3   9   4 13349.4 645.384   0
   3   9   4 15620.5 756.139   1
   3   9   5 16532.7 716.635   0
   3   9   5 15323.7 741.309   1
   3   9   6 63730.9 1234.17   0
   3   9   6 64476.7 1398.62   1
   3   9   7 3256.49 495.707   1
   3   9   7 3359.26 444.066   0
   3   9   8 34926.9 967.932   0
   3   9   8 33295.2 1076.99   1
   3   9   9 22088.5 826.636   0
   3   9   9 21788.0 908.678   1
   3   9  10 368.991 406.975   0
   3   9  11 18951.0 850.262   0
   3   9  12 1468.60 509.773   0
   3   9  13 4395.53 650.905   0
   3   9  14 10876.0 839.584   0
   3  10  -5 6505.81 680.856   1
   3  10  -4 2624.12 566.664   1
   3  10  -3 6077.45 641.339   1
   3  10  -2 13736.8 769.831   1
   3  10  -1-39.8064 434.003   1
   3  10   0 18964.9 840.530   1
   3  10   1 13385.9 746.290   1
   3  10   2 1505.67 437.995   1
   3  10   3 12110.6 722.183   1
   3  10   4 5045.19 562.426   1
   3  10   5 7207.43 585.245   0
   3  10   5 8390.41 651.340   1
   3  10   6 31366.7 999.830   0
   3  10   6 34106.0 1115.26   1
   3  10   7 2265.60 522.524   1
   3  10   7 1915.02 443.322   0
   3  10   8 16157.2 762.723   0
   3  10   8 16227.4 846.686   1
   3  10   9 17434.3 820.689   0
   3  10   9 18020.9 888.907   1
   3  10  10 434.740 444.220   0
   3  10  11 16441.2 847.258   0
   3  10  12 4028.64 611.961   0
   3  10  13 6435.04 747.521   0
   3  11  -3 2491.14 584.332   1
   3  11  -2 10018.5 770.834   1
   3  11  -1 1110.13 509.505   1
   3  11   0 10014.4 734.556   1
   3  11   1 10692.1 763.357   1
   3  11   2 1484.33 542.445   1
   3  11   3 16385.5 892.380   1
   3  11   4 5199.87 622.774   1
   3  11   5 12820.1 812.076   1
   3  11   6 14381.8 799.141   0
   3  11   6 14368.0 857.877   1
   3  11   7 231.236 455.875   1
   3  11   7 77.4817 465.554   0
   3  11   8 6954.25 652.780   0
   3  11   8 7398.21 704.372   1
   3  11   9 11041.3 757.175   0
   3  11   9 11462.1 808.128   1
   3  11  10 95.0039 475.175   0
   3  11  11 9443.46 775.561   0
   3  11  12 4822.63 680.551   0
   3  12   0 3778.30 675.105   1
   3  12   1 12859.5 915.038   1
   3  12   2 616.102 580.243   1
   3  12   3 11407.8 841.770   1
   3  12   4 6131.66 754.695   1
   3  12   5 6257.45 751.797   1
   3  12   6 19912.4 1049.59   1
   3  12   7 2474.84 646.991   1
   3  12   7 2524.46 614.797   0
   3  12   8 7970.11 748.623   0
   3  12   8 6688.20 788.524   1
   3  12   9 8681.62 781.194   0
   3  12   9 9124.91 847.813   1
   3  12  10 573.886 563.755   0
   3  13   6 12166.8 973.399   1
   3  13   7 2393.83 704.397   1
   3  13   8 4846.45 833.215   1
   3  13   9 8371.61 911.853   1
   4  -2  10 1790.46 602.100   0
   4  -2  11 1748.71 676.428   0
   4  -1   9 13343.6 756.584   0
   4  -1  10 1437.04 535.746   0
   4  -1  11 6346.71 741.766   0
   4  -1  12 5030.18 760.262   0
   4   0   8 868.601 351.242   0
   4   0   9 16475.7 730.271   0
   4   0  10 2303.79 498.023   0
   4   0  11 6708.33 698.377   0
   4   0  12 7580.86 775.576   0
   4   0  13 63.9937 617.010   0
   4   1  -5 42892.8 542.277   1
   4   1   2 22710.2 309.150   0
   4   1   3 50313.0 575.742   0
   4   1   4 96097.9 927.914   0
   4   1   5 1519.41 229.945   0
   4   1   6 37131.2 746.145   0
   4   1   7 21492.0 649.883   0
   4   1   8 363.538 291.655   0
   4   1   9 14200.1 661.899   0
   4   1  10 4331.55 517.742   0
   4   1  11 5773.70 618.834   0
   4   1  12 10470.5 789.855   0
   4   1  13 618.510 610.252   0
   4   2  -5 35165.5 530.345   1
   4   2  -4 87997.6 874.008   1
   4   2   2 27020.7 274.298   0
   4   2   3 144801. 835.583   0
   4   2   4 281498. 1424.89   0
   4   2   5 9722.82 346.248   0
   4   2   6 50270.6 803.656   0
   4   2   7 32012.6 724.834   0
   4   2   8 1015.51 297.808   0
   4   2   9 41789.2 972.614   0
   4   2  10 3575.40 469.301   0
   4   2  11 6587.50 594.294   0
   4   2  12 10426.7 720.403   0
   4   2  13 1389.05 595.084   0
   4   2  14 1450.32 637.859   0
   4   3  -5 44810.3 662.495   1
   4   3  -4 149859. 1234.57   1
   4   3  -3 686.928 193.540   1
   4   3  -2 39228.8 705.719   1
   4   3   2 17053.3 271.268   0
   4   3   3 27659.1 391.840   0
   4   3   4 82576.8 766.210   0
   4   3   5 11966.6 370.436   0
   4   3   6 38465.6 683.325   0
   4   3   7 54587.7 896.351   0
   4   3   8 750.714 272.331   0
   4   3   9 39612.9 923.201   0
   4   3  10 3470.12 426.751   0
   4   3  11 7371.26 570.816   0
   4   3  12 16373.4 836.295   0
   4   3  13 2458.23 566.570   0
   4   3  14 2890.47 648.331   0
   4   4  -6 16731.3 474.148   1
   4   4  -5 28899.2 604.733   1
   4   4  -4 121486. 1209.78   1
   4   4  -3 6691.39 350.500   1
   4   4  -2 69151.7 967.369   1
   4   4  -1 140500. 1400.41   1
   4   4   0 2037.87 280.344   1
   4   4   2 1920.76 155.166   0
   4   4   3 16242.5 349.279   0
   4   4   4 147611. 1080.53   0
   4   4   5 21394.0 472.633   0
   4   4   6 32526.8 634.362   0
   4   4   7 31297.9 690.502   0
   4   4   8 790.160 283.005   0
   4   4   9 32002.4 840.145   0
   4   4  10 17719.3 710.729   0
   4   4  11 4741.33 509.930   0
   4   4  12 23854.4 952.968   0
   4   4  13 4509.63 633.041   0
   4   4  14 5384.48 741.501   0
   4   5 -11 432.676 796.494   2
   4   5  -5 14956.5 508.090   1
   4   5  -4 71306.2 1029.69   1
   4   5  -3 14617.1 509.058   1
   4   5  -2 48231.0 872.832   1
   4   5  -1 111994. 1327.61   1
   4   5   0 312.715 248.102   1
   4   5   1 177109. 1762.00   1
   4   5   2 28076.9 523.829   0
   4   5   2 29133.8 781.664   1
   4   5   3 24182.9 489.338   0
   4   5   3 26015.2 777.233   1
   4   5   4 218581. 1447.70   0
   4   5   5 16547.2 456.577   0
   4   5   6 46720.6 776.773   0
   4   5   7 18273.9 552.726   0
   4   5   8 1000.85 287.962   0
   4   5   9 30762.1 802.862   0
   4   5  10 9599.76 558.407   0
   4   5  11 5841.00 540.679   0
   4   5  12 16072.7 792.299   0
   4   5  13 2136.18 529.602   0
   4   5  14 1898.71 628.235   0
   4   5  15 2638.29 699.111   0
   4   6 -10 5135.32 934.298   2
   4   6  -9 11801.7 1033.50   2
   4   6  -5 10957.0 515.119   1
   4   6  -4 37791.5 832.266   1
   4   6  -3 767.117 267.778   1
   4   6  -2 19506.3 619.750   1
   4   6  -1 29663.2 753.899   1
   4   6   0 861.215 276.775   1
   4   6   1 62305.9 1111.04   1
   4   6   2 32960.7 654.550   0
   4   6   2 33745.3 865.060   1
   4   6   3 17743.4 493.482   0
   4   6   3 20141.3 710.569   1
   4   6   4 101804. 1117.93   0
   4   6   4 106492. 1580.13   1
   4   6   5 31698.2 657.950   0
   4   6   5 30866.0 924.052   1
   4   6   6 39360.3 758.911   0
   4   6   6 39609.5 1081.51   1
   4   6   7 44969.8 846.942   0
   4   6   7 45315.7 1189.07   1
   4   6   8 387.477 397.050   1
   4   6   8 121.794 264.396   0
   4   6   9 54023.0 1358.06   1
   4   6   9 51839.9 1037.74   0
   4   6  10 15746.2 829.622   1
   4   6  10 15719.7 668.453   0
   4   6  11 2807.30 444.126   0
   4   6  12 20600.2 859.168   0
   4   6  13 2399.54 522.067   0
   4   6  14 980.103 553.380   0
   4   6  15 3324.42 692.720   0
   4   7  -9 9045.38 1073.92   2
   4   7  -8 736.638 745.096   2
   4   7  -7 17387.7 1054.50   2
   4   7  -6 9932.77 822.179   2
   4   7  -5 8287.75 756.887   2
   4   7  -5 7410.18 499.646   1
   4   7  -4 50391.1 1337.83   2
   4   7  -4 50483.1 1037.92   1
   4   7  -3 9728.88 685.533   2
   4   7  -3 10044.8 518.423   1
   4   7  -2 24250.9 830.481   2
   4   7  -2 28723.9 794.620   1
   4   7  -1 34279.2 865.092   2
   4   7  -1 39110.5 918.259   1
   4   7   0 2107.54 344.143   2
   4   7   0 2428.58 358.909   1
   4   7   1 53856.9 1110.72   1
   4   7   2 22839.8 771.015   1
   4   7   3 12474.6 492.627   0
   4   7   3 13125.3 623.318   1
   4   7   4 55357.6 928.068   0
   4   7   4 58623.5 1243.71   1
   4   7   5 20990.3 613.357   0
   4   7   5 20786.8 810.082   1
   4   7   6 13810.5 525.370   0
   4   7   6 14519.5 723.012   1
   4   7   7 35738.9 807.076   0
   4   7   7 34040.1 1075.78   1
   4   7   8 208.836 409.759   1
   4   7   8 130.152 292.945   0
   4   7   9 33963.5 882.599   0
   4   7   9 30948.9 1078.17   1
   4   7  10 22411.0 965.292   1
   4   7  10 24009.2 806.520   0
   4   7  11 2094.01 446.361   0
   4   7  12 26189.1 958.838   0
   4   7  13 3846.90 608.583   0
   4   7  14 3231.35 634.309   0
   4   7  15 4656.16 737.731   0
   4   8  -9 3734.24 992.471   2
   4   8  -8 698.302 822.459   2
   4   8  -7 5153.23 874.031   2
   4   8  -6 5294.55 823.962   2
   4   8  -5 2008.10 434.607   1
   4   8  -5 2217.39 658.055   2
   4   8  -4 29267.3 892.488   1
   4   8  -3 10986.9 599.378   1
   4   8  -2 16258.9 679.520   1
   4   8  -1 33789.4 925.100   1
   4   8   0 40.2812 313.540   1
   4   8   1 51880.4 1143.75   1
   4   8   2 31629.1 939.509   1
   4   8   3 21622.6 826.165   1
   4   8   4 65707.7 1136.08   0
   4   8   4 66729.4 1385.50   1
   4   8   5 8569.30 463.703   0
   4   8   5 8187.26 610.966   1
   4   8   6 15975.8 607.249   0
   4   8   6 15773.4 784.381   1
   4   8   7 15341.7 616.201   0
   4   8   7 15061.9 802.007   1
   4   8   8 3627.95 536.765   1
   4   8   8 3554.18 397.509   0
   4   8   9 24267.5 791.257   0
   4   8   9 20261.0 931.888   1
   4   8  10 17567.6 737.566   0
   4   8  10 15224.3 843.140   1
   4   8  11 796.460 420.519   0
   4   8  12 16211.6 810.208   0
   4   8  13 2372.71 565.791   0
   4   8  14 2480.98 631.392   0
   4   9  -5 1866.15 488.295   1
   4   9  -4 11028.6 671.073   1
   4   9  -3 1482.17 437.948   1
   4   9  -2 6610.97 553.805   1
   4   9  -1 15730.7 737.576   1
   4   9   0 774.062 390.383   1
   4   9   1 28483.6 947.419   1
   4   9   2 39306.4 1098.24   1
   4   9   3 1427.32 412.483   1
   4   9   4 48091.1 1057.89   0
   4   9   4 48792.1 1251.70   1
   4   9   5 16539.4 681.554   0
   4   9   5 17507.9 829.522   1
   4   9   6 17796.1 699.226   0
   4   9   6 18776.4 880.222   1
   4   9   7 29478.7 864.237   0
   4   9   7 28521.6 1080.40   1
   4   9   8-54.8372 479.387   1
   4   9   8 244.014 359.133   0
   4   9   9 18121.4 752.907   0
   4   9   9 15803.9 878.054   1
   4   9  10 16855.1 751.455   0
   4   9  10 13691.5 851.986   1
   4   9  11 2198.13 483.726   0
   4   9  12 10288.6 721.335   0
   4   9  13 2096.86 561.665   0
   4   9  14 1042.33 595.940   0
   4  10  -4 10081.7 735.586   1
   4  10  -3 2768.45 534.768   1
   4  10  -2 6237.81 599.822   1
   4  10  -1 6879.64 621.063   1
   4  10   0 81.0749 415.837   1
   4  10   1 18582.8 841.397   1
   4  10   2 10247.9 688.523   1
   4  10   3 2082.69 475.085   1
   4  10   4 25738.3 1001.76   1
   4  10   5 12266.7 668.219   0
   4  10   5 11668.2 780.764   1
   4  10   6 4194.86 507.120   0
   4  10   6 4310.62 603.519   1
   4  10   7 20864.2 806.634   0
   4  10   7 22170.4 1002.74   1
   4  10   8 151.353 498.286   1
   4  10   8 265.761 401.787   0
   4  10   9 28284.9 955.657   0
   4  10   9 24669.9 1072.10   1
   4  10  10 24497.7 942.839   0
   4  10  10 21482.6 1018.46   1
   4  10  11 1303.64 497.804   0
   4  10  12 9969.01 752.755   0
   4  10  13 3509.45 629.551   0
   4  11  -4 5639.93 698.725   1
   4  11  -3 3440.79 627.248   1
   4  11  -2 5183.02 651.151   1
   4  11  -1 9101.33 730.408   1
   4  11   0 33.7185 501.541   1
   4  11   1 20498.0 959.588   1
   4  11   2 11990.7 810.451   1
   4  11   3 4193.90 608.016   1
   4  11   4 12439.1 829.813   1
   4  11   5 5091.01 671.058   1
   4  11   6 5968.22 607.783   0
   4  11   6 8011.99 759.853   1
   4  11   7 11702.5 747.131   0
   4  11   7 11433.3 841.656   1
   4  11   8 242.935 544.379   1
   4  11   8 382.697 443.105   0
   4  11   9 10034.1 697.926   0
   4  11   9 10144.5 816.351   1
   4  11  10 13372.6 803.218   0
   4  11  11 154.755 501.306   0
   4  11  12 7000.95 734.320   0
   4  12  -1 5511.79 748.518   1
   4  12   0 1581.30 575.122   1
   4  12   1 6732.33 743.145   1
   4  12   2 12803.9 878.074   1
   4  12   3 641.179 565.701   1
   4  12   4 10897.8 873.052   1
   4  12   5 7723.98 820.263   1
   4  12   6 6988.48 777.337   1
   4  12   7 10480.9 796.784   0
   4  12   7 9708.74 880.656   1
   4  12   8 4.70973 585.085   1
   4  12   8 168.590 524.738   0
   4  12   9 9230.27 793.245   0
   4  12   9 8177.95 838.678   1
   4  12  10 6959.59 742.106   0
   4  12  11-114.076 558.765   0
   4  13   5 7443.74 864.870   1
   4  13   6 2059.74 723.863   1
   4  13   7 11721.1 1012.65   1
   4  13   8 209.781 693.678   1
   4  13   9 6780.08 911.736   1
   5   0   7 33172.7 868.573   0
   5   0   8 16822.9 704.142   0
   5   0   9 762.450 419.013   0
   5   1   2 90255.5 590.407   0
   5   1   3 9018.12 273.399   0
   5   1   4 14623.5 395.868   0
   5   1   5 31385.2 625.888   0
   5   1   6 277.785 248.359   0
   5   1   7 27191.5 726.699   0
   5   1   8 20942.5 728.841   0
   5   1   9 722.239 397.761   0
   5   1  10 8287.84 618.607   0
   5   2  -5 20330.2 480.229   1
   5   2   3 19606.3 308.953   0
   5   2   4 26132.0 446.835   0
   5   2   5 101579. 994.889   0
   5   2   6 46.5171 213.124   0
   5   2   7 45081.6 855.480   0
   5   2   8 18951.1 644.028   0
   5   2   9 125.972 350.813   0
   5   2  10 11287.0 639.489   0
   5   2  11 3161.67 513.314   0
   5   3  -5 12941.9 421.326   1
   5   3  -4 27880.1 613.609   1
   5   3  -3 43911.0 790.171   1
   5   3   2 55112.2 371.778   0
   5   3   3 20556.5 309.326   0
   5   3   4 22632.4 398.056   0
   5   3   5 77676.9 849.216   0
   5   3   6 310.511 201.920   0
   5   3   7 69363.5 995.998   0
   5   3   8 30396.9 754.512   0
   5   3   9 566.322 324.822   0
   5   3  10 25789.8 832.267   0
   5   3  11 1501.80 439.616   0
   5   3  12 5742.78 632.312   0
   5   4  -5 18049.9 532.085   1
   5   4  -4 31751.3 687.224   1
   5   4  -3 93279.8 1180.41   1
   5   4  -2 539.520 237.375   1
   5   4   2 52768.0 518.780   0
   5   4   3 10908.4 273.710   0
   5   4   4 15471.9 353.803   0
   5   4   5 55905.1 714.925   0
   5   4   6 3911.01 278.688   0
   5   4   7 34305.6 715.235   0
   5   4   8 32204.6 780.633   0
   5   4   9 1391.86 338.572   0
   5   4  10 20171.5 749.309   0
   5   4  11 3292.08 496.519   0
   5   4  12 4022.11 587.048   0
   5   5  -5 13751.3 517.121   1
   5   5  -4 12362.5 500.203   1
   5   5  -3 77879.9 1140.70   1
   5   5  -2 10200.7 475.484   1
   5   5  -1 90985.9 1293.20   1
   5   5   0 110804. 1457.23   1
   5   5   1 1479.65 313.620   1
   5   5   3 32318.5 525.227   0
   5   5   4 30166.4 531.028   0
   5   5   5 78248.3 892.138   0
   5   5   6 156.793 203.249   0
   5   5   7 35845.4 723.936   0
   5   5   8 26748.2 702.565   0
   5   5   9 141.952 293.227   0
   5   5  10 15460.2 670.006   0
   5   5  11 4482.36 497.290   0
   5   5  12 4359.90 564.967   0
   5   5  13 9905.09 750.147   0
   5   6  -5 8005.31 469.922   1
   5   6  -4 11878.3 536.109   1
   5   6  -3 24577.0 712.448   1
   5   6  -2 751.441 282.222   1
   5   6  -1 58979.7 1105.71   1
   5   6   0 70275.5 1219.66   1
   5   6   1 2668.96 360.305   1
   5   6   2 55640.3 1149.68   1
   5   6   3 33877.0 634.993   0
   5   6   3 39335.7 1027.20   1
   5   6   4 46321.3 731.285   0
   5   6   4 52011.4 1205.07   1
   5   6   5 86034.3 1013.85   0
   5   6   6 5071.27 334.053   0
   5   6   7 36587.5 766.561   0
   5   6   8 51329.1 950.445   0
   5   6   9-77.3979 318.822   0
   5   6  10 14708.0 641.294   0
   5   6  11 2842.25 456.773   0
   5   6  12 5724.13 603.339   0
   5   6  13 8693.81 705.092   0
   5   7  -9 7955.40 1031.15   2
   5   7  -8 10924.8 1006.07   2
   5   7  -5 14288.3 629.597   1
   5   7  -4 25547.6 785.042   1
   5   7  -3 29451.5 831.983   1
   5   7  -2 2718.55 361.587   1
   5   7  -1 21316.2 749.346   1
   5   7   0 34384.3 925.201   1
   5   7   1 1148.30 333.021   1
   5   7   2 39871.4 1032.06   1
   5   7   3 11841.4 458.471   0
   5   7   3 13183.8 672.165   1
   5   7   4 8174.00 404.076   0
   5   7   4 8494.43 608.534   1
   5   7   5 38434.6 769.540   0
   5   7   5 39281.5 1131.50   1
   5   7   6 10992.4 467.658   0
   5   7   6 10766.0 692.685   1
   5   7   7 21975.5 648.583   0
   5   7   7 20760.2 916.040   1
   5   7   8 48222.2 963.321   0
   5   7   8 50470.8 1390.74   1
   5   7   9 251.078 473.354   1
   5   7   9-144.393 330.638   0
   5   7  10 17821.6 716.172   0
   5   7  10 17632.6 948.106   1
   5   7  11 8942.44 613.638   0
   5   7  12 5097.94 578.107   0
   5   7  13 14074.6 801.363   0
   5   7  14 1726.31 624.438   0
   5   8  -7 312.968 713.716   2
   5   8  -5 12566.1 653.001   1
   5   8  -4 9108.91 578.487   1
   5   8  -3 20596.8 770.827   1
   5   8  -2 7405.11 544.658   1
   5   8  -1 37138.6 988.655   1
   5   8   0 66533.1 1329.59   1
   5   8   1 1552.49 412.746   1
   5   8   2 38961.2 1072.32   1
   5   8   3 9967.65 629.651   1
   5   8   4 15618.4 572.662   0
   5   8   4 17927.7 824.586   1
   5   8   5 50629.6 950.790   0
   5   8   5 52179.9 1329.33   1
   5   8   6 4326.23 389.151   0
   5   8   6 4121.53 556.585   1
   5   8   7 19396.7 665.030   0
   5   8   7 18973.1 929.870   1
   5   8   8 23066.0 726.492   0
   5   8   8 23768.0 1048.17   1
   5   8   9-61.1520 485.230   1
   5   8   9 252.705 344.239   0
   5   8  10 13657.1 654.527   0
   5   8  10 11918.4 847.786   1
   5   8  11 8690.35 625.515   0
   5   8  12 3466.93 534.759   0
   5   8  13 13174.4 815.765   0
   5   8  14 3428.78 666.482   0
   5   9  -4 3584.83 515.401   1
   5   9  -3 15053.7 747.934   1
   5   9  -2 3347.70 497.056   1
   5   9  -1 11328.2 660.591   1
   5   9   0 36887.6 1066.41   1
   5   9   1 575.989 413.544   1
   5   9   2 21924.6 898.809   1
   5   9   3 25910.4 973.877   1
   5   9   4 11486.5 577.350   0
   5   9   4 11907.3 755.431   1
   5   9   5 45091.4 1015.74   0
   5   9   5 46661.8 1309.94   1
   5   9   6 7985.74 509.257   0
   5   9   6 8292.30 693.430   1
   5   9   7 19272.7 715.672   0
   5   9   7 18559.7 966.432   1
   5   9   8 14994.5 673.425   0
   5   9   8 13310.5 881.235   1
   5   9   9-187.203 524.125   1
   5   9   9-35.8861 352.272   0
   5   9  10 10486.3 645.362   0
   5   9  10 8353.41 795.336   1
   5   9  11 3436.80 523.356   0
   5   9  12 2875.98 545.467   0
   5   9  13 9326.87 765.295   0
   5   9  14 2141.35 628.005   0
   5  10  -4 2286.54 526.531   1
   5  10  -3 10731.6 712.036   1
   5  10  -2 251.251 466.496   1
   5  10  -1 5418.84 590.864   1
   5  10   0 11860.1 723.429   1
   5  10   1 124.646 432.482   1
   5  10   2 15455.1 806.684   1
   5  10   3 13483.5 808.596   1
   5  10   4 3137.89 578.995   1
   5  10   5 30726.7 928.278   0
   5  10   5 31612.2 1163.77   1
   5  10   6 16249.9 737.832   0
   5  10   6 17043.7 932.172   1
   5  10   7 11996.8 645.681   0
   5  10   7 11911.5 866.173   1
   5  10   8 23557.0 846.242   0
   5  10   8 25566.8 1150.42   1
   5  10   9 1136.95 573.453   1
   5  10   9 729.563 432.254   0
   5  10  10 13167.6 725.800   0
   5  10  10 11506.8 896.893   1
   5  10  11 11148.4 721.737   0
   5  10  12 2696.77 562.349   0
   5  10  13 8510.17 774.005   0
   5  11  -4 963.764 587.506   1
   5  11  -3 12282.0 849.201   1
   5  11  -2 2310.90 591.459   1
   5  11  -1 6844.21 701.782   1
   5  11   0 13593.0 844.238   1
   5  11   1 275.111 500.912   1
   5  11   2 15620.4 902.510   1
   5  11   3 3989.49 640.704   1
   5  11   4 3595.84 624.233   1
   5  11   5 18195.8 994.884   1
   5  11   6 4545.30 567.201   0
   5  11   6 5369.74 717.725   1
   5  11   7 4800.18 582.790   0
   5  11   7 6043.19 721.753   1
   5  11   8 11569.1 733.344   0
   5  11   8 12067.7 909.673   1
   5  11   9-36.3965 598.260   1
   5  11   9 274.033 467.073   0
   5  11  10 5353.01 763.601   1
   5  11  10 7140.13 660.666   0
   5  11  11 10172.8 760.217   0
   5  11  12 1375.42 583.016   0
   5  12  -1 2505.06 628.180   1
   5  12   0 11451.0 860.203   1
   5  12   1 1163.70 598.038   1
   5  12   2 9937.92 816.278   1
   5  12   3 5141.00 688.642   1
   5  12   4 2147.80 629.769   1
   5  12   5 21216.8 1099.74   1
   5  12   6 2965.50 695.627   1
   5  12   7 5272.36 639.835   0
   5  12   7 5474.80 780.594   1
   5  12   8 5639.23 658.044   0
   5  12   8 5701.86 811.045   1
   5  12   9 168.114 650.720   1
   5  12   9 64.9232 520.925   0
   5  12  10 3444.69 762.411   1
   5  12  10 4391.83 662.836   0
   5  12  11 5250.17 695.883   0
   5  13   4-178.700 680.044   1
   5  13   5 13501.5 1032.56   1
   5  13   6 4360.04 813.751   1
   5  13   7 2693.36 769.273   1
   5  13   8 8529.04 941.752   1
   5  13   9 663.991 726.400   1
   6   3  -5 55423.3 890.593   1
   6   3  -4 8842.83 435.529   1
   6   4  -5 80123.5 1105.97   1
   6   4  -4 15603.9 554.876   1
   6   4  -3 37340.8 829.134   1
   6   5  -5 35004.0 807.190   1
   6   5  -4 23585.7 687.220   1
   6   5  -3 24629.6 715.524   1
   6   5  -2 49862.7 1006.32   1
   6   5  -1 4957.23 422.973   1
   6   5   3 67297.6 680.325   0
   6   5   4 16398.1 383.762   0
   6   5   5 9363.95 333.647   0
   6   6  -5 28665.0 789.047   1
   6   6  -4 8402.77 507.272   1
   6   6  -3 11839.0 565.106   1
   6   6  -2 30232.4 830.790   1
   6   6  -1 4362.71 422.093   1
   6   6   0 60427.8 1201.00   1
   6   6   1 73020.3 1349.82   1
   6   6   2 9847.57 599.360   1
   6   6   3 43463.1 664.891   0
   6   6   4 48345.9 700.089   0
   6   6   5 19509.2 497.869   0
   6   6   6 48241.4 784.182   0
   6   6   7 35.1264 241.453   0
   6   7  -4 5930.58 489.883   1
   6   7  -3 10034.0 564.826   1
   6   7  -2 17466.9 700.492   1
   6   7  -1 18.1831 336.782   1
   6   7   0 25766.7 855.906   1
   6   7   1 26468.5 886.263   1
   6   7   2 4974.74 514.575   1
   6   7   3 26420.6 937.877   1
   6   7   4 34843.8 704.717   0
   6   7   4 37875.9 1135.71   1
   6   7   5 9234.69 409.491   0
   6   7   5 11934.2 738.000   1
   6   7   6 28040.4 666.969   0
   6   7   6 34590.9 1152.61   1
   6   7   7 874.422 506.380   1
   6   7   7 263.940 262.916   0
   6   7   8 23490.5 687.203   0
   6   7   9 38931.9 1323.38   1
   6   7  10 330.453 540.739   1
   6   8  -4 11729.4 645.764   1
   6   8  -3 7784.64 553.150   1
   6   8  -2 32093.1 967.860   1
   6   8  -1 2025.22 449.593   1
   6   8   0 37054.2 1054.76   1
   6   8   1 35039.3 1040.60   1
   6   8   2 2810.32 471.747   1
   6   8   3 34648.7 1106.62   1
   6   8   4 12617.2 511.606   0
   6   8   4 14223.3 802.687   1
   6   8   5 4021.16 369.257   0
   6   8   5 4833.92 590.098   1
   6   8   6 25824.8 702.415   0
   6   8   6 26393.6 1058.32   1
   6   8   7 720.587 510.448   1
   6   8   7 561.178 295.112   0
   6   8   8 14077.0 594.582   0
   6   8   8 15155.9 924.608   1
   6   8   9 27029.1 813.682   0
   6   8   9 28232.5 1196.22   1
   6   8  10 975.474 571.286   1
   6   9  -4 5271.20 566.189   1
   6   9  -3 2098.35 459.988   1
   6   9  -2 21989.5 874.354   1
   6   9  -1 2861.43 489.701   1
   6   9   0 21431.8 889.208   1
   6   9   1 30974.0 1059.82   1
   6   9   2-64.7837 447.636   1
   6   9   3 38472.3 1202.14   1
   6   9   4 13765.5 829.320   1
   6   9   5 8012.30 490.627   0
   6   9   5 8093.90 702.852   1
   6   9   6 28166.6 805.639   0
   6   9   6 30122.2 1156.78   1
   6   9   7 558.897 544.949   1
   6   9   7 224.958 317.873   0
   6   9   8 14525.9 651.787   0
   6   9   8 17134.4 1015.76   1
   6   9   9 13057.3 651.440   0
   6   9   9 13564.6 945.627   1
   6   9  10 116.576 613.402   1
   6  10  -4 3392.71 562.059   1
   6  10  -3 2447.54 524.372   1
   6  10  -2 7422.03 676.623   1
   6  10  -1 283.961 473.938   1
   6  10   0 9000.55 707.022   1
   6  10   1 17500.3 877.765   1
   6  10   2 448.199 476.196   1
   6  10   3 23484.4 1019.88   1
   6  10   4 17686.8 931.511   1
   6  10   5 1448.79 563.419   1
   6  10   6 23996.4 818.764   0
   6  10   6 25301.2 1152.12   1
   6  10   7 2227.51 639.059   1
   6  10   7 2054.56 422.993   0
   6  10   8 14564.5 686.492   0
   6  10   8 15452.7 1002.83   1
   6  10   9 19221.8 813.914   0
   6  10   9 20998.4 1155.08   1
   6  10  10 1272.08 645.193   1
   6  11  -3 2368.24 596.240   1
   6  11  -2 8811.77 765.312   1
   6  11  -1 1177.75 525.855   1
   6  11   0 7154.18 717.724   1
   6  11   1 11776.1 823.453   1
   6  11   2 466.984 561.885   1
   6  11   3 12598.3 871.174   1
   6  11   4 4756.26 704.813   1
   6  11   5 2041.81 611.750   1
   6  11   6 16190.9 1005.81   1
   6  11   7 2483.30 685.756   1
   6  11   7 1915.87 484.331   0
   6  11   8 5971.80 613.210   0
   6  11   8 8047.61 860.676   1
   6  11   9 14699.0 771.438   0
   6  11   9 16794.2 1082.42   1
   6  11  10 731.608 628.187   1
   6  12  -1 715.789 593.534   1
   6  12   0 5844.67 759.670   1
   6  12   1 14029.8 933.508   1
   6  12   2 140.901 575.887   1
   6  12   3 11601.9 893.176   1
   6  12   4 5210.90 763.135   1
   6  12   5 3434.15 681.531   1
   6  12   6 11622.2 956.006   1
   6  12   7 436.887 668.523   1
   6  12   8 5132.37 835.424   1
   6  12   8 5012.19 653.401   0
   6  12   9 8606.03 762.382   0
   6  12   9 7330.01 898.178   1
   6  12  10 286.806 663.349   1
   6  13   4 5452.00 843.501   1
   6  13   5 552.412 697.945   1
   6  13   6 11874.4 1014.62   1
   6  13   7 1400.56 735.398   1
   6  13   8 3878.84 880.479   1
   7   4  -4 54857.0 1040.52   1
   7   5  -4 44879.9 977.048   1
   7   5  -3 5795.74 461.822   1
   7   5  -2 34593.9 921.890   1
   7   6  -4 22286.2 759.481   1
   7   6  -3 7782.21 525.967   1
   7   6  -2 19169.0 742.998   1
   7   6  -1 52833.6 1156.90   1
   7   6   0 7366.07 561.540   1
   7   7  -4 26195.1 857.336   1
   7   7  -3 3585.91 455.582   1
   7   7  -2 10603.0 614.548   1
   7   7  -1 20924.7 819.761   1
   7   7   0 96.0751 365.809   1
   7   7   1 23113.5 867.587   1
   7   7   2 19518.2 852.366   1
   7   7   3 1348.66 428.960   1
   7   7   4 51824.3 1354.17   1
   7   8  -4 24944.2 897.559   1
   7   8  -3 4938.13 537.051   1
   7   8  -2 13440.9 710.298   1
   7   8  -1 31041.5 999.330   1
   7   8   0 1538.94 461.423   1
   7   8   1 11811.2 719.706   1
   7   8   2 11840.2 731.066   1
   7   8   3 4026.61 545.430   1
   7   8   4 36544.7 1184.72   1
   7   8   5 6720.76 672.307   1
   7   8   6 2507.24 601.704   1
   7   8   7 18643.5 988.244   1
   7   8   8 3211.32 688.479   1
   7   8   9 13053.3 966.910   1
   7   8  10 10554.5 900.482   1
   7   8  11 840.086 611.916   1
   7   9  -4 16901.2 835.010   1
   7   9  -3 3962.66 544.189   1
   7   9  -2 2036.10 493.207   1
   7   9  -1 26872.9 990.954   1
   7   9   0 2998.66 521.900   1
   7   9   1 26686.7 1026.99   1
   7   9   2 23470.8 999.909   1
   7   9   3 3746.03 573.571   1
   7   9   4 32775.9 1195.18   1
   7   9   5 7774.62 752.505   1
   7   9   6 5453.24 716.938   1
   7   9   7 21294.8 1083.11   1
   7   9   8 798.695 580.546   1
   7   9   9 12200.5 956.549   1
   7   9  10 6026.54 803.133   1
   7   9  11 418.087 665.951   1
   7  10  -3 650.682 513.318   1
   7  10  -2 1423.49 504.567   1
   7  10  -1 15402.0 854.107   1
   7  10   0 1280.28 506.518   1
   7  10   1 11238.6 806.286   1
   7  10   2 13137.0 858.533   1
   7  10   3 383.599 510.533   1
   7  10   4 24745.9 1110.45   1
   7  10   5 15514.1 979.596   1
   7  10   6 3978.19 699.731   1
   7  10   7 18899.2 1089.91   1
   7  10   8 1001.26 638.604   1
   7  10   9 8050.62 880.565   1
   7  10  10 7972.75 911.766   1
   7  10  11-240.229 735.401   1
   7  11  -3 1864.37 585.986   1
   7  11  -2 1884.74 581.863   1
   7  11  -1 7527.91 753.175   1
   7  11   0 362.864 529.171   1
   7  11   1 6771.65 722.212   1
   7  11   2 5560.04 680.271   1
   7  11   3 84.6263 559.686   1
   7  11   4 16869.1 1004.14   1
   7  11   5 7007.62 830.881   1
   7  11   6 650.220 632.595   1
   7  11   7 15667.2 1037.70   1
   7  11   8 1473.86 671.822   1
   7  11   9 5868.94 901.743   1
   7  11  10 12135.5 1078.34   1
   7  12  -1 8096.50 799.194   1
   7  12   0 1521.68 664.560   1
   7  12   1 7971.27 835.488   1
   7  12   2 7079.12 790.977   1
   7  12   3 437.492 595.637   1
   7  12   4 11883.3 935.706   1
   7  12   5 3593.76 736.048   1
   7  12   6 986.057 684.844   1
   7  12   7 9032.57 964.444   1
   7  12   8 638.767 709.028   1
   7  12   9 4385.31 869.214   1
   7  12  10 6487.85 961.293   1
   8   4  -4 4447.86 460.295   1
   8   5  -4 8590.12 554.420   1
   8   5  -3 40703.4 1034.44   1
   8   6  -4 828.481 382.861   1
   8   6  -3 20928.2 805.995   1
   8   6  -2 3874.14 481.099   1
   8   6  -1 17678.5 780.219   1
   8   7  -4 2854.59 481.051   1
   8   7  -3 18815.1 797.597   1
   8   7  -2 621.054 404.955   1
   8   7  -1 9888.97 655.155   1
   8   7   0 32527.1 1039.30   1
   8   7   1 54.6763 407.061   1
   8   7   2 30852.6 1075.11   1
   8   8  -3 16254.3 801.706   1
   8   8  -2 1351.70 463.981   1
   8   8  -1 8751.12 662.010   1
   8   8   0 21845.4 928.300   1
   8   8   1-11.7609 462.113   1
   8   8   2 12958.2 787.499   1
   8   8   3 5024.24 606.191   1
   8   8   4 249.209 497.685   1
   8   8   5 27898.1 1150.26   1
   8   8   6 3233.78 652.135   1
   8   8   7 8453.71 837.872   1
   8   8  10 6810.01 867.254   1
   8   8  11 5653.71 884.457   1
   8   9  -3 13436.2 792.602   1
   8   9  -2 4569.42 611.441   1
   8   9  -1 8438.42 684.629   1
   8   9   0 28577.8 1075.27   1
   8   9   1 455.695 498.973   1
   8   9   2 21347.8 996.809   1
   8   9   3 9889.80 774.186   1
   8   9   4 596.056 524.444   1
   8   9   5 22784.5 1088.88   1
   8   9   6 1746.21 577.409   1
   8   9   7 6519.10 766.201   1
   8   9   8 13678.3 964.378   1
   8   9   9 2254.12 697.001   1
   8   9  10 5564.68 846.839   1
   8   9  11 4353.90 834.913   1
   8  10  -3 5898.99 682.752   1
   8  10  -2 1860.78 533.322   1
   8  10  -1 4431.16 637.778   1
   8  10   0 18572.9 959.198   1
   8  10   1 1113.65 582.338   1
   8  10   2 11882.3 864.603   1
   8  10   3 11153.7 857.888   1
   8  10   4 380.580 593.181   1
   8  10   5 20466.9 1077.98   1
   8  10   6 4522.21 746.391   1
   8  10   7 8887.23 894.207   1
   8  10   8 13609.6 1040.88   1
   8  10   9 1908.45 780.830   1
   8  10  10 5167.43 894.449   1
   8  10  11 1945.53 827.688   1
   8  11  -3 6289.01 715.555   1
   8  11  -2 1461.28 593.787   1
   8  11  -1 3940.63 681.648   1
   8  11   0 5821.58 721.759   1
   8  11   1 167.282 552.298   1
   8  11   2 4186.00 698.060   1
   8  11   3 9619.10 834.612   1
   8  11   4 236.940 602.371   1
   8  11   5 12238.5 969.640   1
   8  11   6 7668.50 864.371   1
   8  11   7 3143.18 815.711   1
   8  11   8 12951.2 1083.12   1
   8  11   9 1888.16 763.605   1
   8  11  10 4100.94 878.907   1
   8  11  11 4956.51 1019.68   1
   8  12   0 8485.75 838.347   1
   8  12   1 701.255 605.919   1
   8  12   2 5804.43 806.878   1
   8  12   3 4675.40 787.528   1
   8  12   4 847.654 710.444   1
   8  12   5 8002.92 891.178   1
   8  12   6 2537.45 768.479   1
   8  12   7 2926.05 808.163   1
   8  12   8 8266.32 982.696   1
   8  12   9 1084.37 762.957   1
   9   5  -3 6729.60 580.693   1
   9   6  -3 4378.34 526.069   1
   9   6  -2 22435.8 902.390   1
   9   7  -3 2868.97 516.221   1
   9   7  -2 13670.5 765.147   1
   9   7  -1 3753.05 553.299   1
   9   7   0 10422.6 733.917   1
   9   7   1 23891.5 988.628   1
   9   8  -3 3746.42 568.257   1
   9   8  -2 13856.9 796.112   1
   9   8  -1 1377.80 496.329   1
   9   8   0 5683.83 644.932   1
   9   8   1 8741.13 707.562   1
   9   8   2 2556.79 572.267   1
   9   8   3 14754.5 887.747   1
   9   8   4 13297.8 911.272   1
   9   9  -3 699.188 524.658   1
   9   9  -2 13168.9 810.392   1
   9   9  -1 1979.56 579.664   1
   9   9   0 9102.99 759.924   1
   9   9   1 13431.6 873.998   1
   9   9   2 180.592 546.215   1
   9   9   3 9762.48 839.315   1
   9   9   4 9324.63 815.435   1
   9   9   5 1588.82 660.409   1
   9   9   6 10104.7 876.385   1
   9   9   7 1249.48 653.181   1
   9   9   8 2265.58 726.933   1
   9   9   9 7412.09 902.697   1
   9   9  10 707.960 752.249   1
   9   9  11 5717.47 951.585   1
   9  10  -2 7224.76 751.717   1
   9  10  -1 2770.16 645.116   1
   9  10   0 4595.90 708.297   1
   9  10   1 12961.9 912.826   1
   9  10   2 89.1639 573.988   1
   9  10   3 16839.2 1017.17   1
   9  10   4 11342.3 913.747   1
   9  10   5 1897.85 694.994   1
   9  10   6 9151.86 920.497   1
   9  10   7 1518.78 718.668   1
   9  10   8 5711.33 896.362   1
   9  10   9 10281.5 1026.48   1
   9  10  10 151.671 779.986   1
   9  11  -2 3147.09 683.503   1
   9  11  -1 1145.07 637.193   1
   9  11   0 2376.34 648.767   1
   9  11   1 6833.12 783.326   1
   9  11   2-161.701 613.809   1
   9  11   3 9136.49 870.270   1
   9  11   4 7649.47 873.064   1
   9  11   5 258.314 630.972   1
   9  11   6 8976.26 939.575   1
   9  11   7 3346.02 804.267   1
   9  11   8 3927.68 841.376   1
   9  11   9 8075.36 1034.63   1
   9  12   2 8.74004 688.015   1
   9  12   3 3300.82 770.049   1
   9  12   4 3916.76 824.308   1
   9  12   5 374.362 687.210   1
   9  12   6 4777.96 929.375   1
  10   6  -3 4075.21 564.909   1
  10   6  -2 9805.36 729.479   1
  10   7  -2 2303.25 532.889   1
  10   7  -1 11807.1 798.523   1
  10   7   0 2914.50 584.816   1
  10   8  -2 4126.99 640.966   1
  10   8  -1 11205.3 808.738   1
  10   8   0 679.425 550.586   1
  10   8   1 7181.54 766.936   1
  10   8   2 7912.93 750.642   1
  10   8   3 149.449 555.391   1
  10   9  -2 3199.74 657.403   1
  10   9  -1 8777.53 767.950   1
  10   9   0 1451.90 624.281   1
  10   9   1 7264.68 793.900   1
  10   9   2 5643.12 720.201   1
  10   9   3 182.209 559.875   1
  10   9   4 5618.31 786.810   1
  10   9   5 4414.05 779.687   1
  10   9   6 2137.30 693.128   1
  10   9   7 9385.63 931.309   1
  10   9   8 1482.30 798.044   1
  10   9   9 1792.69 841.510   1
  10  10  -2 1083.85 602.932   1
  10  10  -1 8958.10 800.998   1
  10  10   0 3347.50 703.724   1
  10  10   1 6283.00 772.061   1
  10  10   2 8772.90 867.409   1
  10  10   3 78.1408 656.233   1
  10  10   4 8429.86 863.023   1
  10  10   5 8943.69 902.025   1
  10  10   6 2382.58 762.174   1
  10  10   7 6363.57 877.896   1
  10  10   8 2050.40 816.399   1
  10  11  -1 3191.46 724.345   1
  10  11   0 1024.73 665.655   1
  10  11   1 3379.22 737.898   1
  10  11   2 5867.57 807.090   1
  10  11   3 114.990 615.291   1
  10  11   4 5546.38 853.921   1
  10  11   5 7546.20 916.107   1
  10  11   6 1721.40 800.995   1
  11   7  -2 4210.54 656.126   1
  11   7  -1 3207.83 669.812   1
  11   8  -2 1599.00 625.658   1
  11   8  -1 1650.48 621.806   1
  11   8   0 8530.71 823.565   1
  11   8   1 479.184 580.467   1
  11   8   2 6441.00 806.487   1
  11   9  -1 2148.77 662.969   1
  11   9   0 7471.01 837.464   1
  11   9   1 86.9497 648.782   1
  11   9   2 3655.31 725.401   1
  11   9   3 3700.43 759.294   1
  11   9   4 269.411 666.116   1
  11   9   5 5778.31 859.679   1
  11   9   6 3105.77 785.096   1
  11  10  -1 581.490 650.936   1
  11  10   0 5979.56 799.764   1
  11  10   1 552.778 634.864   1
  11  10   2 5432.99 853.938   1
  11  10   3 6153.82 869.659   1
  11  10   4 330.728 672.722   1
  12   7  -1 2639.44 723.725   1
  12   8  -1 862.205 690.783   1
  12   8   0 1266.98 681.585   1
  12   8   1 4724.30 828.281   1
  12   8   2 338.629 727.757   1
  12   9  -1 704.469 701.687   1
  12   9   0 1063.65 718.717   1
;
_shelx_hkl_checksum              39395
#END Tags that were not found in dictionaries
loop_
_space_group_symop_operation_xyz
'x, y, z'
'-x, -y, -z'
loop_
_atom_site_label
_atom_site_type_symbol
_atom_site_fract_x
_atom_site_fract_y
_atom_site_fract_z
_atom_site_U_iso_or_equiv
_atom_site_adp_type
_atom_site_occupancy
_atom_site_site_symmetry_order
_atom_site_calc_flag
_atom_site_refinement_flags_posn
_atom_site_refinement_flags_adp
C2 C 0.1743(5) 0.1710(5) 0.4722(4) 0.0342(8) Uani 1 1 d . .
H2 H 0.0952 0.2439 0.5133 0.041 Uiso 1 1 calc R U
C3 C 0.2174(5) -0.0079(5) 0.5222(4) 0.0380(8) Uani 1 1 d . .
H3 H 0.1677 -0.0558 0.5955 0.046 Uiso 1 1 calc R U
C4 C 0.3365(5) -0.1149(5) 0.4608(4) 0.0407(9) Uani 1 1 d . .
H4 H 0.3699 -0.2368 0.4936 0.049 Uiso 1 1 calc R U
C5 C 0.4047(5) -0.0394(5) 0.3509(4) 0.0356(8) Uani 1 1 d . .
H5 H 0.4849 -0.1116 0.3098 0.043 Uiso 1 1 calc R U
C6 C 0.3562(4) 0.1437(4) 0.2991(4) 0.0287(7) Uani 1 1 d . .
C7 C 0.4122(4) 0.2257(5) 0.1724(4) 0.0296(7) Uani 1 1 d . .
C8 C 0.5628(5) 0.1206(6) 0.1311(4) 0.0406(9) Uani 1 1 d . .
H8 H 0.6403 0.0101 0.1941 0.049 Uiso 1 1 calc R U
C9 C 0.6005(6) 0.1773(6) -0.0031(4) 0.0468(10) Uani 1 1 d . .
H9 H 0.7056 0.1080 -0.0267 0.056 Uiso 1 1 calc R U
C10 C 0.4845(6) 0.3325(6) -0.0983(4) 0.0433(9) Uani 1 1 d . .
H10 H 0.5056 0.3637 -0.1890 0.052 Uiso 1 1 calc R U
C11 C 0.3295(5) 0.4499(5) -0.0619(4) 0.0341(7) Uani 1 1 d . .
C12 C 0.2074(6) 0.6088(5) -0.1609(4) 0.0403(8) Uani 1 1 d . .
H12 H 0.2255 0.6373 -0.2524 0.048 Uiso 1 1 calc R U
C13 C 0.0626(6) 0.7224(5) -0.1255(4) 0.0405(9) Uani 1 1 d . .
H13 H -0.0218 0.8232 -0.1931 0.049 Uiso 1 1 calc R U
C14 C 0.0412(5) 0.6867(5) 0.0134(4) 0.0362(8) Uani 1 1 d . .
H14 H -0.0541 0.7680 0.0379 0.043 Uiso 1 1 calc R U
C15 C 0.1593(4) 0.5334(4) 0.1135(3) 0.0287(7) Uani 1 1 d . .
C16 C 0.3006(4) 0.4017(4) 0.0781(3) 0.0282(6) Uani 1 1 d . .
N1 N 0.2440(4) 0.2437(4) 0.3650(3) 0.0265(5) Uani 1 1 d . .
Cl1 Cl 0.23354(13) 0.46467(13) 0.55015(10) 0.0433(2) Uani 1 1 d . .
Cl2 Cl 0.08602(15) 0.80422(12) 0.25455(11) 0.0446(2) Uani 1 1 d . .
Au1 Au 0.17461(2) 0.50649(2) 0.31379(2) 0.02737(4) Uani 1 1 d . .
loop_
_atom_site_aniso_label
_atom_site_aniso_U_11
_atom_site_aniso_U_22
_atom_site_aniso_U_33
_atom_site_aniso_U_23
_atom_site_aniso_U_13
_atom_site_aniso_U_12
C2 0.0377(18) 0.0344(17) 0.0283(17) -0.0106(14) 0.0115(14) -0.0148(15)
C3 0.043(2) 0.0354(18) 0.0330(19) -0.0047(15) 0.0070(15) -0.0204(16)
C4 0.048(2) 0.0285(17) 0.043(2) -0.0079(16) -0.0012(17) -0.0172(16)
C5 0.0381(18) 0.0293(16) 0.0355(19) -0.0136(15) 0.0028(15) -0.0097(14)
C6 0.0261(15) 0.0288(15) 0.0305(16) -0.0141(13) -0.0001(12) -0.0087(12)
C7 0.0311(16) 0.0335(16) 0.0296(16) -0.0166(14) 0.0074(13) -0.0152(13)
C8 0.0344(18) 0.043(2) 0.042(2) -0.0192(18) 0.0087(16) -0.0114(16)
C9 0.047(2) 0.054(3) 0.047(2) -0.029(2) 0.0248(19) -0.022(2)
C10 0.057(2) 0.055(2) 0.036(2) -0.0246(19) 0.0218(18) -0.035(2)
C11 0.046(2) 0.0386(18) 0.0302(17) -0.0173(15) 0.0107(15) -0.0261(16)
C12 0.058(2) 0.043(2) 0.0304(18) -0.0126(16) 0.0068(17) -0.0322(18)
C13 0.052(2) 0.0344(18) 0.0335(19) -0.0036(15) -0.0080(17) -0.0238(17)
C14 0.0401(19) 0.0290(16) 0.039(2) -0.0126(15) 0.0011(15) -0.0146(14)
C15 0.0337(16) 0.0289(15) 0.0277(16) -0.0124(13) 0.0061(13) -0.0157(13)
C16 0.0318(16) 0.0322(16) 0.0262(15) -0.0135(13) 0.0059(13) -0.0170(13)
N1 0.0292(13) 0.0257(12) 0.0245(13) -0.0091(11) 0.0040(11) -0.0118(11)
Cl1 0.0499(5) 0.0425(5) 0.0339(5) -0.0212(4) 0.0014(4) -0.0112(4)
Cl2 0.0663(6) 0.0312(4) 0.0451(5) -0.0203(4) 0.0213(5) -0.0248(4)
Au1 0.03109(7) 0.02585(6) 0.02803(7) -0.01358(5) 0.00778(5) -0.01227(5)
loop_
_atom_type_symbol
_atom_type_description
_atom_type_scat_dispersion_real
_atom_type_scat_dispersion_imag
_atom_type_scat_source
C C 0.0033 0.0016 'International Tables Vol C Tables 4.2.6.8 and 6.1.1.4'
H H 0.0000 0.0000 'International Tables Vol C Tables 4.2.6.8 and 6.1.1.4'
N N 0.0061 0.0033 'International Tables Vol C Tables 4.2.6.8 and 6.1.1.4'
Cl Cl 0.1484 0.1585 'International Tables Vol C Tables 4.2.6.8 and 6.1.1.4'
Au Au -2.0133 8.8022 'International Tables Vol C Tables 4.2.6.8 and 6.1.1.4'
loop_
_geom_angle_atom_site_label_1
_geom_angle_atom_site_label_2
_geom_angle_atom_site_label_3
_geom_angle
N1 C2 C3 121.8(3)
N1 C2 H2 119.1
C3 C2 H2 119.1
C2 C3 C4 118.4(4)
C2 C3 H3 120.8
C4 C3 H3 120.8
C5 C4 C3 119.4(4)
C5 C4 H4 120.3
C3 C4 H4 120.3
C4 C5 C6 121.5(3)
C4 C5 H5 119.2
C6 C5 H5 119.2
N1 C6 C5 117.5(3)
N1 C6 C7 121.3(3)
C5 C6 C7 121.0(3)
C8 C7 C16 118.9(3)
C8 C7 C6 118.8(3)
C16 C7 C6 121.5(3)
C7 C8 C9 121.5(4)
C7 C8 H8 119.2
C9 C8 H8 119.2
C10 C9 C8 120.1(4)
C10 C9 H9 119.9
C8 C9 H9 119.9
C9 C10 C11 121.1(4)
C9 C10 H10 119.4
C11 C10 H10 119.4
C12 C11 C16 120.1(3)
C12 C11 C10 121.2(3)
C16 C11 C10 118.8(4)
C13 C12 C11 121.1(4)
C13 C12 H12 119.5
C11 C12 H12 119.5
C12 C13 C14 119.7(4)
C12 C13 H13 120.1
C14 C13 H13 120.1
C15 C14 C13 120.7(3)
C15 C14 H14 119.7
C13 C14 H14 119.7
C14 C15 C16 120.8(3)
C14 C15 Au1 121.7(3)
C16 C15 Au1 116.2(2)
C15 C16 C11 116.8(3)
C15 C16 C7 124.7(3)
C11 C16 C7 118.5(3)
C2 N1 C6 121.4(3)
C2 N1 Au1 115.7(2)
C6 N1 Au1 122.9(2)
C15 Au1 N1 88.66(12)
C15 Au1 Cl2 90.97(10)
N1 Au1 Cl2 177.89(8)
C15 Au1 Cl1 172.36(10)
N1 Au1 Cl1 90.87(8)
Cl2 Au1 Cl1 89.77(4)
loop_
_geom_bond_atom_site_label_1
_geom_bond_atom_site_label_2
_geom_bond_distance
C2 N1 1.352(4)
C2 C3 1.375(5)
C2 H2 0.9300
C3 C4 1.384(5)
C3 H3 0.9300
C4 C5 1.373(6)
C4 H4 0.9300
C5 C6 1.401(5)
C5 H5 0.9300
C6 N1 1.358(4)
C6 C7 1.458(5)
C7 C8 1.391(5)
C7 C16 1.435(5)
C8 C9 1.402(6)
C8 H8 0.9300
C9 C10 1.351(6)
C9 H9 0.9300
C10 C11 1.433(5)
C10 H10 0.9300
C11 C12 1.398(5)
C11 C16 1.427(5)
C12 C13 1.362(6)
C12 H12 0.9300
C13 C14 1.403(5)
C13 H13 0.9300
C14 C15 1.371(5)
C14 H14 0.9300
C15 C16 1.426(4)
C15 Au1 2.024(3)
N1 Au1 2.024(3)
Cl1 Au1 2.3963(9)
Cl2 Au1 2.2771(9)
