#------------------------------------------------------------------------------
#$Date: 2018-09-12 01:19:06 +0300 (Wed, 12 Sep 2018) $
#$Revision: 210856 $
#$URL: file:///home/coder/svn-repositories/cod/cif/7/11/64/7116474.cif $
#------------------------------------------------------------------------------
#
# This file is available in the Crystallography Open Database (COD),
# http://www.crystallography.net/
#
# All data on this site have been placed in the public domain by the
# contributors.
#
data_7116474
loop_
_publ_author_name
'Li, Xing Guang'
'Sun, Min'
'Liu, Kai'
'Jin, Qiao'
'Liu, Pei Nian'
_publ_section_title
;
 Rh(III)-catalyzed C--H activation/cyclization of benzamides and diazo
 compounds to form isocoumarins and \a-pyrones
;
_journal_coden_ASTM              CHCOFS
_journal_issue                   12
_journal_name_full
;
 Chemical Communications (Cambridge, United Kingdom)
;
_journal_page_first              2380
_journal_page_last               2383
_journal_paper_doi               10.1039/c4cc09314c
_journal_volume                  51
_journal_year                    2015
_chemical_formula_sum            'C15 H16 O4'
_chemical_formula_weight         260.28
_space_group_crystal_system      triclinic
_space_group_IT_number           2
_space_group_name_Hall           '-P 1'
_space_group_name_H-M_alt        'P -1'
_symmetry_space_group_name_Hall  '-P 1'
_symmetry_space_group_name_H-M   'P -1'
_atom_sites_solution_hydrogens   geom
_audit_creation_method           SHELXL-2013
_audit_update_record
;
2014-11-20 deposited with the CCDC.
2014-12-22 downloaded from the CCDC.
;
_cell_angle_alpha                86.72(3)
_cell_angle_beta                 72.91(2)
_cell_angle_gamma                72.86(2)
_cell_formula_units_Z            2
_cell_length_a                   8.153(9)
_cell_length_b                   8.436(8)
_cell_length_c                   10.959(10)
_cell_measurement_reflns_used    630
_cell_measurement_temperature    293(2)
_cell_measurement_theta_max      45.384
_cell_measurement_theta_min      5.056
_cell_volume                     688.1(12)
_computing_cell_refinement       'Bruker SMART'
_computing_data_collection       'Bruker SMART'
_computing_data_reduction        'Bruker SHELXTL'
_computing_molecular_graphics    'Bruker SHELXTL'
_computing_publication_material  'Bruker SHELXTL'
_computing_structure_refinement  'SHELXL-2013 (Sheldrick, 2013)'
_computing_structure_solution    'Bruker SHELXTL'
_diffrn_ambient_temperature      293(2)
_diffrn_measured_fraction_theta_full 0.992
_diffrn_measured_fraction_theta_max 0.992
_diffrn_measurement_device_type  'CCD area detector'
_diffrn_measurement_method       'phi and omega scans'
_diffrn_radiation_type           MoK\a
_diffrn_radiation_wavelength     0.71073
_diffrn_reflns_av_R_equivalents  0.0238
_diffrn_reflns_av_unetI/netI     0.0540
_diffrn_reflns_Laue_measured_fraction_full 0.992
_diffrn_reflns_Laue_measured_fraction_max 0.992
_diffrn_reflns_limit_h_max       9
_diffrn_reflns_limit_h_min       -10
_diffrn_reflns_limit_k_max       7
_diffrn_reflns_limit_k_min       -10
_diffrn_reflns_limit_l_max       12
_diffrn_reflns_limit_l_min       -13
_diffrn_reflns_number            4021
_diffrn_reflns_point_group_measured_fraction_full 0.992
_diffrn_reflns_point_group_measured_fraction_max 0.992
_diffrn_reflns_theta_full        25.242
_diffrn_reflns_theta_max         25.998
_diffrn_reflns_theta_min         1.945
_exptl_absorpt_coefficient_mu    0.091
_exptl_absorpt_correction_T_max  0.7457
_exptl_absorpt_correction_T_min  0.6689
_exptl_absorpt_correction_type   multi-scan
_exptl_absorpt_process_details   sadabs
_exptl_crystal_colour            cololress
_exptl_crystal_density_diffrn    1.256
_exptl_crystal_description       prismatic
_exptl_crystal_F_000             276
_exptl_crystal_size_max          0.211
_exptl_crystal_size_mid          0.156
_exptl_crystal_size_min          0.112
_refine_diff_density_max         0.127
_refine_diff_density_min         -0.116
_refine_diff_density_rms         0.029
_refine_ls_extinction_method     none
_refine_ls_goodness_of_fit_ref   0.898
_refine_ls_hydrogen_treatment    constr
_refine_ls_matrix_type           full
_refine_ls_number_parameters     176
_refine_ls_number_reflns         2687
_refine_ls_number_restraints     0
_refine_ls_restrained_S_all      0.898
_refine_ls_R_factor_all          0.1073
_refine_ls_R_factor_gt           0.0468
_refine_ls_shift/su_max          0.000
_refine_ls_shift/su_mean         0.000
_refine_ls_structure_factor_coef Fsqd
_refine_ls_weighting_details
'w=1/[\s^2^(Fo^2^)+(0.0605P)^2^] where P=(Fo^2^+2Fc^2^)/3'
_refine_ls_weighting_scheme      calc
_refine_ls_wR_factor_gt          0.1120
_refine_ls_wR_factor_ref         0.1336
_reflns_Friedel_coverage         0.000
_reflns_number_gt                1312
_reflns_number_total             2687
_reflns_threshold_expression     'I > 2\s(I)'
_cod_duplicate_entry             7116452
_cod_data_source_file            c4cc09314c2.cif
_cod_data_source_block           cd214432
_cod_database_code               7116474
#BEGIN Tags that were not found in dictionaries:
_shelx_space_group_comment
; 
The symmetry employed for this shelxl refinement is uniquely defined 
by the following loop, which should always be used as a source of 
symmetry information in preference to the above space-group names. 
They are only intended as comments. 
;
_shelxl_version_number           2013-4
_shelx_res_file
; 
TITL cd214432 in P-1 
CELL 0.71073   8.1526   8.4359  10.9590  86.720  72.906  72.863 
ZERR    2.00   0.0086   0.0083   0.0103   0.025   0.023   0.022 
LATT 1 
SFAC C  H  O 
UNIT 30 32 8 
OMIT  0   1   0 
OMIT    -3   1   1 
OMIT      2   1   5 
OMIT  -3.00  52.00 
L.S. 10 
ACTA 
BOND  $H 
FMAP 2 
PLAN 20 
HTAB C14 O3 
HTAB C13 O3 
HTAB C10 O4 
wpdb -1 
mpla c2 > c7 
htab 
conf 
HTAB C10 O4 
HTAB C13 O3 
HTAB C14 O3 
HTAB C10 O4 
HTAB C13 O3 
HTAB C14 O3 
WGHT    0.060500 
FVAR       0.34581 
MOLE 1 
O1    3   -0.389167    0.685272    1.213251    11.00000    0.07535    0.16622 = 
         0.10451    0.00813   -0.00502   -0.06210 
O2    3   -0.295219    0.791693    1.029126    11.00000    0.05364    0.09154 = 
         0.07934   -0.01065   -0.01362   -0.02213 
O3    3    0.256747    0.895854    0.848959    11.00000    0.08082    0.10128 = 
         0.08552   -0.02280   -0.00951   -0.04808 
O4    3    0.145806    0.788712    0.717668    11.00000    0.06153    0.07139 = 
         0.05770   -0.01280   -0.00829   -0.01972 
C1    1   -0.262132    0.710380    1.134194    11.00000    0.06461    0.08656 = 
         0.07897   -0.01431   -0.00966   -0.03208 
C2    1   -0.078252    0.663517    1.141538    11.00000    0.06016    0.06388 = 
         0.06914   -0.01744   -0.01306   -0.02079 
C3    1   -0.039937    0.578002    1.247018    11.00000    0.09034    0.07316 = 
         0.07247   -0.00719   -0.01619   -0.03460 
AFIX  43 
H3    2   -0.130860    0.551077    1.310683    11.00000   -1.20000 
AFIX   0 
C4    1    0.130027    0.533549    1.257478    11.00000    0.10086    0.07945 = 
         0.08485   -0.00250   -0.04019   -0.02373 
AFIX  43 
H4    2    0.154815    0.475983    1.327994    11.00000   -1.20000 
AFIX   0 
C5    1    0.264218    0.573346    1.164590    11.00000    0.07665    0.09528 = 
         0.09375   -0.00753   -0.03810   -0.01655 
AFIX  43 
H5    2    0.379741    0.543306    1.172672    11.00000   -1.20000 
AFIX   0 
C6    1    0.230113    0.657067    1.059706    11.00000    0.05789    0.08657 = 
         0.08048   -0.01657   -0.01363   -0.01935 
AFIX  43 
H6    2    0.323054    0.683361    0.997626    11.00000   -1.20000 
AFIX   0 
C7    1    0.055840    0.704374    1.044020    11.00000    0.05212    0.05968 = 
         0.06401   -0.01924   -0.00970   -0.01611 
C8    1    0.007330    0.789536    0.936295    11.00000    0.05131    0.06451 = 
         0.05792   -0.02041   -0.00403   -0.01562 
C9    1   -0.163248    0.830053    0.932162    11.00000    0.05852    0.06781 = 
         0.06832   -0.01690   -0.00752   -0.01720 
C10   1   -0.246009    0.925368    0.835514    11.00000    0.07645    0.09445 = 
         0.08992   -0.00479   -0.03123   -0.01155 
AFIX 137 
H10A  2   -0.163591    0.977589    0.779709    11.00000   -1.50000 
H10B  2   -0.354342    1.008657    0.878206    11.00000   -1.50000 
H10C  2   -0.273339    0.851179    0.786447    11.00000   -1.50000 
AFIX   0 
C11   1    0.149317    0.833899    0.831691    11.00000    0.06002    0.06188 = 
         0.06959   -0.01955   -0.00888   -0.01478 
C12   1    0.277033    0.816939    0.599430    11.00000    0.06506    0.06233 = 
         0.06085    0.00144   -0.00511   -0.01548 
C13   1    0.465092    0.712473    0.599477    11.00000    0.06605    0.07721 = 
         0.07553   -0.00369   -0.00562   -0.00707 
AFIX 137 
H13A  2    0.504721    0.762046    0.657932    11.00000   -1.50000 
H13B  2    0.546053    0.707358    0.515096    11.00000   -1.50000 
H13C  2    0.462740    0.602333    0.625432    11.00000   -1.50000 
AFIX   0 
C14   1    0.258752    1.001708    0.586973    11.00000    0.09340    0.06687 = 
         0.11293    0.01609   -0.01672   -0.01629 
AFIX 137 
H14A  2    0.133992    1.063445    0.609582    11.00000   -1.50000 
H14B  2    0.316199    1.023306    0.500421    11.00000   -1.50000 
H14C  2    0.314546    1.034800    0.643068    11.00000   -1.50000 
AFIX   0 
C15   1    0.219430    0.751867    0.496676    11.00000    0.10408    0.10691 = 
         0.06442   -0.00189   -0.02387   -0.02613 
AFIX 137 
H15A  2    0.224045    0.637481    0.510863    11.00000   -1.50000 
H15B  2    0.298827    0.761454    0.414162    11.00000   -1.50000 
H15C  2    0.099141    0.815685    0.500288    11.00000   -1.50000 
AFIX   0 
HKLF 4 
  
REM  cd214432 in P-1 
REM R1 =  0.0468 for    1312 Fo > 4sig(Fo)  and  0.1073 for all    2687 data 
REM    176 parameters refined using      0 restraints 
  
END 
  
WGHT      0.0602      0.0000 
  
REM Instructions for potential hydrogen bonds 
HTAB C10 O4 
HTAB C13 O3 
HTAB C14 O3 
  
REM Highest difference peak  0.127,  deepest hole -0.116,  1-sigma level  0.029 
Q1    1  -0.3924  0.8631  0.8559  11.00000  0.05    0.12 
Q2    1  -0.0779  0.8814  0.9451  11.00000  0.05    0.12 
Q3    1   0.4596  0.5502  0.5924  11.00000  0.05    0.12 
Q4    1  -0.1415  0.6623  1.1078  11.00000  0.05    0.11 
Q5    1  -0.0001  0.6856  1.0984  11.00000  0.05    0.11 
Q6    1  -0.0583  0.7489  0.9016  11.00000  0.05    0.11 
Q7    1  -0.1617  0.8713  0.7454  11.00000  0.05    0.10 
Q8    1  -0.4443  0.7014  1.2359  11.00000  0.05    0.10 
Q9    1  -0.1691  0.5548  1.2759  11.00000  0.05    0.09 
Q10   1  -0.0630  0.5919  1.1735  11.00000  0.05    0.09 
Q11   1   0.2904  0.5989  0.4889  11.00000  0.05    0.09 
Q12   1  -0.3527  0.5979  1.2400  11.00000  0.05    0.09 
Q13   1   0.3089  0.7905  0.8270  11.00000  0.05    0.09 
Q14   1   0.0856  0.9410  0.7203  11.00000  0.05    0.09 
Q15   1   0.2317  0.7618  0.5387  11.00000  0.05    0.09 
Q16   1   0.0496  0.7913  0.8978  11.00000  0.05    0.09 
Q17   1  -0.4095  0.8173  1.0203  11.00000  0.05    0.08 
Q18   1   0.1025  0.9600  1.0154  11.00000  0.05    0.08 
Q19   1  -0.3063  0.6151  1.1647  11.00000  0.05    0.08 
Q20   1  -0.3818  0.9621  1.0447  11.00000  0.05    0.08 
;
_shelx_res_checksum              93716
_shelx_hkl_file
; 
  -1   0   0  172.33    1.65 
   1   0   0  169.80    1.85 
  -2   0   0  361.92    3.32 
   2   0   0  358.69    3.76 
  -3   0   0    0.64    0.13 
   3   0   0    0.56    0.13 
  -4   0   0   38.16    0.78 
   4   0   0   38.52    0.94 
  -5   0   0    2.62    0.29 
   5   0   0    2.65    0.34 
  -6   0   0    3.52    0.37 
   6   0   0    3.28    0.43 
  -7   0   0    4.29    0.43 
   7   0   0    4.73    0.55 
  -8   0   0    1.23    0.29 
   8   0   0    0.71    0.32 
  -9   0   0    1.36    0.32 
   9   0   0    0.88    0.40 
   9  -1   0    1.69    0.49 
  -9   1   0    0.78    0.23 
   8  -1   0    0.36    0.31 
  -8   1   0    0.30    0.21 
   7  -1   0    0.30    0.26 
  -7   1   0    0.53    0.22 
   6  -1   0    0.98    0.29 
  -6   1   0    1.10    0.25 
   5  -1   0    1.37    0.27 
  -5   1   0    1.34    0.23 
   4  -1   0   21.30    0.70 
  -4   1   0   20.72    0.59 
   3  -1   0    1.81    0.18 
   3  -1   0    1.64    0.22 
   2  -1   0  331.55    3.09 
   2  -1   0  332.94    3.59 
   1  -1   0   72.13    0.97 
   1  -1   0   71.41    0.81 
   0  -1   0    0.12    0.05 
  -1  -1   0   17.22    0.32 
  -2  -1   0    6.55    0.26 
   2   1   0    6.38    0.42 
   2   1   0    6.44    0.26 
  -3  -1   0   10.36    0.37 
   3   1   0   11.49    0.41 
  -4  -1   0    0.13    0.15 
   4   1   0    0.26    0.13 
  -5  -1   0    0.34    0.18 
   5   1   0    0.61    0.17 
  -6  -1   0   -0.09    0.17 
   6   1   0   -0.05    0.13 
  -7  -1   0    3.38    0.40 
   7   1   0    3.71    0.50 
  -8  -1   0   -0.19    0.17 
   8   1   0   -0.01    0.24 
  -9  -1   0    0.84    0.29 
   9   1   0    0.80    0.38 
 -10  -1   0    0.23    0.22 
  10   1   0    0.28    0.35 
   9  -2   0   -0.02    0.30 
   8  -2   0    0.25    0.29 
  -8   2   0    0.17    0.19 
   7  -2   0    0.13    0.20 
  -7   2   0    0.31    0.17 
   6  -2   0    0.85    0.29 
  -6   2   0    0.61    0.20 
   5  -2   0    0.52    0.23 
  -5   2   0    0.78    0.21 
   4  -2   0    2.36    0.24 
   4  -2   0    2.51    0.32 
   3  -2   0    7.64    0.31 
   3  -2   0    8.39    0.42 
   2  -2   0    7.23    0.33 
   2  -2   0    7.19    0.26 
   1  -2   0    1.83    0.17 
   1  -2   0    1.73    0.13 
   0  -2   0  328.57    3.37 
   0  -2   0  325.66    3.00 
  -1  -2   0   -0.06    0.10 
  -2  -2   0    0.14    0.12 
  -3  -2   0   25.89    0.61 
  -4  -2   0    2.67    0.28 
   4   2   0    2.16    0.25 
  -5  -2   0    0.09    0.15 
   5   2   0    0.10    0.11 
  -6  -2   0    0.82    0.25 
   6   2   0    0.71    0.23 
  -7  -2   0    4.45    0.45 
   7   2   0    4.37    0.51 
  -8  -2   0    1.11    0.29 
   8   2   0    0.86    0.30 
  -9  -2   0    0.98    0.31 
   9   2   0   -0.21    0.29 
 -10  -2   0    0.26    0.25 
   8  -3   0    0.02    0.22 
   7  -3   0    1.14    0.37 
  -7   3   0    1.81    0.29 
   6  -3   0    1.61    0.37 
  -6   3   0    1.90    0.30 
   5  -3   0    0.23    0.16 
   5  -3   0    0.29    0.22 
   4  -3   0    0.77    0.24 
   4  -3   0    0.84    0.18 
   3  -3   0   28.35    0.84 
   3  -3   0   28.34    0.67 
   2  -3   0   49.01    0.83 
   2  -3   0   49.79    1.03 
   1  -3   0   34.18    0.62 
   1  -3   0   33.51    0.73 
   0  -3   0    2.69    0.20 
   0  -3   0    2.60    0.17 
  -1  -3   0   23.51    0.52 
  -2  -3   0    7.15    0.30 
  -3  -3   0    4.48    0.29 
  -4  -3   0    8.82    0.44 
  -5  -3   0    4.51    0.39 
  -6  -3   0   35.03    1.01 
  -7  -3   0   29.92    1.00 
  -8  -3   0    0.32    0.23 
  -9  -3   0    0.37    0.27 
 -10  -3   0    0.51    0.32 
   8  -4   0    0.30    0.26 
   7  -4   0    0.18    0.26 
   6  -4   0    0.31    0.25 
   6  -4   0    0.14    0.20 
   5  -4   0    0.86    0.21 
   5  -4   0    0.87    0.29 
   4  -4   0    0.01    0.17 
   4  -4   0    0.09    0.11 
   3  -4   0    0.06    0.08 
   3  -4   0    0.04    0.15 
   2  -4   0    2.46    0.30 
   2  -4   0    2.91    0.25 
   1  -4   0   10.51    0.38 
   1  -4   0   11.43    0.46 
   0  -4   0   11.13    0.43 
   0  -4   0   10.54    0.38 
  -2  -4   0    0.06    0.07 
  -2  -4   0    0.29    0.15 
  -3  -4   0    0.58    0.17 
  -4  -4   0    1.37    0.25 
  -5  -4   0    1.46    0.30 
  -6  -4   0    4.75    0.48 
  -7  -4   0    9.35    0.59 
  -8  -4   0    0.62    0.30 
  -9  -4   0    0.42    0.30 
 -10  -4   0    0.57    0.33 
   7  -5   0    0.68    0.33 
   6  -5   0    0.67    0.34 
   5  -5   0    0.21    0.19 
   5  -5   0    0.24    0.23 
   4  -5   0   -0.17    0.18 
   4  -5   0    0.11    0.15 
   3  -5   0    0.70    0.18 
   3  -5   0    1.17    0.29 
   2  -5   0    5.77    0.41 
   2  -5   0    5.34    0.33 
   1  -5   0    3.55    0.26 
   1  -5   0    3.68    0.32 
   0  -5   0    3.74    0.29 
   0  -5   0    4.37    0.29 
  -2  -5   0    0.08    0.12 
  -2  -5   0    0.21    0.13 
  -3  -5   0   11.43    0.51 
  -3  -5   0   10.61    0.43 
  -4  -5   0    0.89    0.22 
  -5  -5   0    3.03    0.40 
  -6  -5   0   12.02    0.66 
  -7  -5   0    5.74    0.57 
  -8  -5   0    0.11    0.26 
  -9  -5   0    0.20    0.27 
 -10  -5   0    0.02    0.28 
   6  -6   0   -0.14    0.23 
   5  -6   0    0.12    0.28 
   5  -6   0    0.20    0.22 
   4  -6   0    0.21    0.18 
   4  -6   0    0.30    0.27 
   3  -6   0    0.18    0.22 
   3  -6   0    0.20    0.17 
   2  -6   0    0.53    0.18 
   2  -6   0    1.00    0.30 
   1  -6   0    0.95    0.23 
   1  -6   0    0.82    0.19 
   0  -6   0    2.79    0.33 
   0  -6   0    2.19    0.29 
  -1  -6   0    0.31    0.17 
  -2  -6   0   -0.19    0.12 
  -2  -6   0    0.02    0.13 
  -3  -6   0    1.59    0.24 
  -3  -6   0    1.71    0.28 
  -4  -6   0   15.09    0.59 
  -4  -6   0   14.84    0.65 
  -5  -6   0    1.92    0.34 
  -6  -6   0    1.23    0.30 
  -7  -6   0    0.07    0.24 
  -8  -6   0    0.31    0.28 
  -9  -6   0   -0.12    0.21 
   5  -7   0    0.03    0.29 
   4  -7   0   -0.17    0.18 
   4  -7   0   -0.05    0.27 
   3  -7   0    0.18    0.26 
   3  -7   0    0.04    0.18 
   2  -7   0    0.30    0.18 
   2  -7   0    0.01    0.25 
   1  -7   0    0.27    0.18 
   1  -7   0    0.54    0.26 
   0  -7   0    0.00    0.13 
   0  -7   0   -0.10    0.19 
  -1  -7   0    0.80    0.25 
  -2  -7   0    2.00    0.30 
  -2  -7   0    1.70    0.30 
  -3  -7   0    0.32    0.21 
  -3  -7   0    0.36    0.18 
  -4  -7   0    0.50    0.22 
  -4  -7   0    0.52    0.17 
  -5  -7   0    0.45    0.23 
  -5  -7   0    0.11    0.18 
  -6  -7   0    0.83    0.29 
  -7  -7   0   -0.17    0.23 
  -8  -7   0    0.13    0.24 
  -9  -7   0    0.16    0.28 
   4  -8   0    0.24    0.33 
   3  -8   0    0.25    0.23 
   3  -8   0    0.34    0.31 
   2  -8   0    0.08    0.29 
   2  -8   0    0.31    0.20 
   1  -8   0    0.22    0.27 
   1  -8   0   -0.27    0.18 
   0  -8   0    4.00    0.45 
   0  -8   0    3.35    0.47 
  -1  -8   0    2.28    0.36 
  -2  -8   0    0.53    0.24 
  -2  -8   0    1.09    0.28 
  -3  -8   0    0.22    0.19 
  -4  -8   0    0.71    0.25 
  -5  -8   0    0.11    0.21 
  -6  -8   0   -0.40    0.21 
  -7  -8   0   -0.12    0.22 
  -8  -8   0    0.09    0.29 
  -9  -8   0    0.34    0.27 
   1  -9   0   -0.11    0.18 
   0  -9   0    0.26    0.25 
  -1  -9   0    0.52    0.27 
  -2  -9   0   -0.28    0.21 
  -3  -9   0    0.50    0.25 
  -4  -9   0    0.04    0.20 
  -5  -9   0    0.15    0.22 
  -6  -9   0    0.46    0.26 
  -7  -9   0    0.00    0.27 
  -8  -9   0   -0.41    0.25 
   0 -10   0    0.44    0.27 
  -1 -10   0    0.47    0.29 
  -2 -10   0    0.09    0.29 
  -3 -10   0    0.10    0.25 
  -4 -10   0    0.09    0.24 
  -5 -10   0   -0.14    0.23 
  -6 -10   0   -0.23    0.23 
  -7 -10   0    0.27    0.27 
  -3 -11   0    0.64    0.38 
  -4 -11   0    0.55    0.33 
  -4 -11   1    0.22    0.33 
  -3 -11   1    0.49    0.35 
  -2 -11   1    0.33    0.32 
  -6 -10   1    0.12    0.24 
  -5 -10   1    0.10    0.27 
  -4 -10   1   -0.08    0.26 
  -3 -10   1    0.29    0.27 
  -2 -10   1    0.14    0.27 
  -1 -10   1    0.22    0.27 
   0 -10   1    0.22    0.26 
   1 -10   1   -0.04    0.26 
  -8  -9   1    0.39    0.27 
  -7  -9   1    0.43    0.30 
  -6  -9   1    0.70    0.31 
  -5  -9   1   -0.12    0.21 
  -4  -9   1    0.09    0.23 
  -3  -9   1    0.21    0.23 
  -2  -9   1    0.03    0.24 
  -1  -9   1    0.38    0.27 
   0  -9   1    0.30    0.26 
   1  -9   1   -0.09    0.19 
   2  -9   1    0.82    0.32 
  -8  -8   1   -0.29    0.25 
  -7  -8   1    0.08    0.27 
  -6  -8   1    0.27    0.24 
  -5  -8   1    0.72    0.28 
  -4  -8   1    0.03    0.19 
  -3  -8   1    0.51    0.25 
  -2  -8   1    1.34    0.31 
  -1  -8   1    0.19    0.20 
   0  -8   1    1.78    0.35 
   1  -8   1   -0.06    0.21 
   1  -8   1    0.53    0.28 
   2  -8   1    0.06    0.20 
   2  -8   1    0.16    0.26 
   3  -8   1    0.79    0.38 
   3  -8   1    0.76    0.29 
   4  -8   1    0.94    0.38 
   4  -8   1    0.60    0.28 
  -9  -7   1    0.45    0.30 
  -8  -7   1    0.96    0.34 
  -7  -7   1    0.15    0.28 
  -6  -7   1    1.25    0.33 
  -5  -7   1    0.53    0.24 
  -4  -7   1    2.09    0.35 
  -3  -7   1    0.13    0.19 
  -2  -7   1    0.34    0.19 
  -2  -7   1    0.82    0.20 
  -1  -7   1   -0.10    0.15 
  -1  -7   1    0.31    0.13 
   0  -7   1    1.38    0.28 
   0  -7   1    1.60    0.27 
   1  -7   1    0.59    0.24 
   1  -7   1    0.64    0.21 
   2  -7   1    0.55    0.25 
   2  -7   1    0.20    0.19 
   3  -7   1    0.37    0.27 
   3  -7   1    0.31    0.21 
   4  -7   1    0.56    0.32 
   4  -7   1    0.78    0.27 
   5  -7   1    0.07    0.29 
   5  -7   1    0.23    0.24 
  -9  -6   1    0.26    0.28 
  -8  -6   1    0.27    0.28 
  -7  -6   1    0.38    0.24 
  -6  -6   1    2.17    0.38 
  -5  -6   1    1.19    0.31 
  -3  -6   1    2.37    0.25 
  -3  -6   1    1.86    0.30 
  -2  -6   1    0.84    0.21 
  -2  -6   1    0.76    0.18 
  -1  -6   1   -0.17    0.13 
  -1  -6   1    0.07    0.12 
   0  -6   1    9.35    0.45 
   0  -6   1    9.42    0.48 
   1  -6   1   18.52    0.65 
   1  -6   1   17.41    0.65 
   2  -6   1    0.33    0.18 
   2  -6   1    0.19    0.19 
   3  -6   1    3.68    0.38 
   3  -6   1    3.44    0.45 
   4  -6   1    0.07    0.16 
   4  -6   1   -0.07    0.23 
   5  -6   1    0.60    0.32 
   5  -6   1    0.50    0.23 
   6  -6   1    0.04    0.24 
   6  -6   1   -0.12    0.23 
  -9  -5   1    0.41    0.28 
  -8  -5   1    0.37    0.27 
  -7  -5   1    0.86    0.29 
  -6  -5   1    5.39    0.53 
  -5  -5   1    2.04    0.33 
  -4  -5   1    0.14    0.18 
  -3  -5   1    0.39    0.19 
  -3  -5   1    0.91    0.16 
  -2  -5   1    0.26    0.15 
  -2  -5   1    0.54    0.14 
  -1  -5   1   12.54    0.44 
  -1  -5   1   12.94    0.50 
   0  -5   1    7.47    0.38 
   0  -5   1    6.67    0.35 
   1  -5   1    0.02    0.10 
   1  -5   1    0.15    0.12 
   2  -5   1   14.81    0.60 
   2  -5   1   15.12    0.55 
   3  -5   1    0.65    0.18 
   3  -5   1    0.59    0.23 
   4  -5   1    0.09    0.21 
   4  -5   1    0.39    0.20 
   5  -5   1   -0.07    0.20 
   5  -5   1    0.07    0.18 
   6  -5   1    0.49    0.26 
   6  -5   1    0.50    0.30 
   7  -5   1    0.06    0.24 
   7  -5   1    0.07    0.27 
 -10  -4   1   -0.26    0.24 
  -9  -4   1    0.10    0.26 
  -8  -4   1    0.12    0.24 
  -7  -4   1    0.04    0.21 
  -6  -4   1    0.16    0.23 
  -5  -4   1    1.41    0.29 
  -4  -4   1   28.30    0.80 
  -3  -4   1   16.11    0.56 
  -2  -4   1   28.48    0.71 
  -2  -4   1   28.41    0.60 
  -1  -4   1    6.36    0.28 
  -1  -4   1    6.33    0.32 
   0  -4   1   54.43    0.93 
   0  -4   1   53.32    0.95 
   1  -4   1   10.85    0.41 
   1  -4   1   10.96    0.42 
   2  -4   1    1.73    0.23 
   2  -4   1    1.78    0.25 
   3  -4   1    8.36    0.40 
   3  -4   1    8.21    0.46 
   4  -4   1    0.02    0.17 
   4  -4   1    0.06    0.13 
   5  -4   1    0.11    0.17 
   5  -4   1    0.07    0.17 
   6  -4   1    0.25    0.24 
   6  -4   1   -0.05    0.17 
  -7   4  -1    0.34    0.21 
   7  -4   1    0.30    0.28 
   8  -4   1    0.15    0.28 
 -10  -3   1    0.12    0.28 
  -9  -3   1    0.08    0.25 
  -8  -3   1    1.34    0.34 
  -7  -3   1    3.40    0.43 
  -6  -3   1   45.89    1.16 
  -5  -3   1    0.37    0.22 
   4   3  -1    0.83    0.49 
  -4  -3   1    0.96    0.22 
   3   3  -1   30.78    1.19 
  -3  -3   1   29.34    0.72 
   2   3  -1    7.84    0.61 
  -2  -3   1    8.33    0.36 
  -1  -3   1   27.33    0.50 
  -1  -3   1   27.16    0.60 
   0  -3   1   23.01    0.48 
   0  -3   1   22.95    0.52 
   1  -3   1   73.81    1.13 
   1  -3   1   73.98    1.07 
   2  -3   1   11.50    0.39 
   2  -3   1   11.24    0.44 
   3  -3   1   42.51    0.99 
   3  -3   1   42.36    0.85 
   4  -3   1    1.86    0.32 
   5  -3   1    0.03    0.13 
   5  -3   1    0.19    0.19 
   6  -3   1    1.12    0.31 
   6  -3   1    1.26    0.27 
  -7   3  -1    2.12    0.35 
   7  -3   1    2.14    0.44 
  -8   3  -1    0.21    0.18 
   8  -3   1    0.13    0.27 
  10   2  -1   -0.40    0.40 
 -10  -2   1    0.88    0.31 
   9   2  -1    0.21    0.29 
  -9  -2   1    0.43    0.24 
   8   2  -1    1.35    0.37 
  -8  -2   1    2.33    0.38 
   7   2  -1    1.72    0.37 
  -7  -2   1    1.39    0.31 
   6   2  -1   11.20    0.61 
  -6  -2   1   10.50    0.56 
   5   2  -1    0.14    0.40 
   5   2  -1    0.30    0.15 
  -5  -2   1    0.37    0.20 
   4   2  -1    4.38    0.29 
  -4  -2   1    4.15    0.31 
   3   2  -1    0.36    0.40 
   3   2  -1    0.28    0.10 
  -3  -2   1    0.39    0.14 
   2   2  -1   24.64    0.90 
  -2  -2   1   24.87    0.55 
   1   2  -1   32.08    0.96 
  -1  -2   1   31.65    0.58 
   0   2  -1  261.11    3.96 
   0  -2   1  264.32    2.52 
   0  -2   1  263.58    2.73 
   1  -2   1   17.55    0.42 
   1  -2   1   17.62    0.40 
   2  -2   1   37.06    0.76 
   2  -2   1   39.57    0.69 
   3  -2   1   70.43    1.10 
   3  -2   1   69.52    1.28 
   4  -2   1    3.73    0.31 
   4  -2   1    3.67    0.26 
   5  -2   1    2.12    0.27 
   5  -2   1    2.61    0.36 
  -6   2  -1    0.16    0.16 
   6  -2   1   -0.02    0.18 
  -7   2  -1    0.29    0.18 
   7  -2   1    0.31    0.24 
  -8   2  -1    0.77    0.23 
   8  -2   1    0.10    0.24 
  -9   2  -1    0.57    0.23 
   9  -2   1    0.44    0.29 
   9   1  -1   -0.01    0.30 
  -9  -1   1    0.40    0.24 
  -8  -1   1    0.26    0.21 
   7   1  -1    6.13    0.60 
  -7  -1   1    6.30    0.45 
   6   1  -1   60.35    1.46 
  -6  -1   1   59.61    1.24 
   5   1  -1    0.29    0.14 
  -5  -1   1   -0.13    0.15 
   4   1  -1    0.32    0.20 
   4   1  -1    0.35    0.12 
  -4  -1   1    0.21    0.14 
   3   1  -1    3.91    0.24 
   3   1  -1    3.74    0.39 
  -3  -1   1    4.08    0.25 
   2   1  -1    1.43    0.14 
   2   1  -1    0.11    0.31 
  -2  -1   1    1.14    0.14 
   1   1  -1  267.11    3.89 
   1   1  -1  252.98    2.66 
  -1  -1   1  240.33    2.35 
   0   1  -1   -0.03    0.14 
   0   1  -1    0.00    0.02 
   0  -1   1    0.03    0.04 
   0  -1   1    0.00    0.02 
   1  -1   1  364.52    3.28 
   1  -1   1  360.49    3.67 
   2  -1   1    0.07    0.07 
   2  -1   1    0.09    0.07 
   3  -1   1  227.61    2.39 
   3  -1   1  224.75    2.75 
   4  -1   1    1.00    0.17 
   4  -1   1    0.95    0.20 
  -5   1  -1    0.53    0.19 
   5  -1   1    0.39    0.19 
  -6   1  -1   -0.02    0.15 
   6  -1   1   -0.14    0.15 
  -7   1  -1    2.60    0.35 
   7  -1   1    2.19    0.40 
  -8   1  -1    1.04    0.28 
   8  -1   1    0.69    0.31 
  -9   1  -1    0.07    0.21 
   9  -1   1   -0.09    0.28 
   9   0  -1    0.56    0.37 
  -9   0   1    0.81    0.26 
   8   0  -1    1.10    0.39 
  -8   0   1    0.58    0.22 
   7   0  -1    0.43    0.26 
  -7   0   1    0.28    0.19 
   6   0  -1    0.26    0.22 
  -6   0   1    0.32    0.20 
   5   0  -1    0.06    0.14 
  -5   0   1    0.32    0.17 
   4   0  -1    0.76    0.18 
  -4   0   1    0.69    0.18 
   3   0  -1    2.41    0.24 
  -3   0   1    2.65    0.21 
   2   0  -1    9.35    0.32 
  -2   0   1    7.89    0.26 
   1   0  -1    0.04    0.15 
   1   0  -1    0.10    0.06 
  -1   0   1    0.02    0.04 
   0   0  -1  266.38    2.98 
   0   0  -1  263.68    2.83 
   0   0   1  264.18    2.86 
   1   0   1  501.00    4.43 
   1   0   1  505.70    5.03 
   2   0   1   19.37    0.40 
   2   0   1   18.71    0.45 
  -3   0  -1  122.61    1.52 
   3   0   1  120.17    1.70 
  -4   0  -1    8.41    0.38 
   4   0   1    8.93    0.43 
  -5   0  -1    0.36    0.17 
   5   0   1    0.54    0.18 
  -6   0  -1    1.22    0.26 
   6   0   1    2.07    0.35 
  -7   0  -1    0.22    0.18 
   7   0   1    0.26    0.22 
  -8   0  -1    0.85    0.27 
   8   0   1    0.65    0.33 
  -9   0  -1   -0.02    0.18 
   9   0   1   -0.04    0.25 
 -10   0  -1   -0.03    0.21 
  10   0   1    0.08    0.34 
   9  -1  -1    0.12    0.32 
   8  -1  -1    0.20    0.36 
  -8   1   1   -0.04    0.16 
   7  -1  -1   -0.10    0.23 
  -7   1   1    0.10    0.18 
   6  -1  -1    1.88    0.36 
  -6   1   1    2.37    0.31 
   5  -1  -1    1.09    0.26 
  -5   1   1    1.25    0.23 
   4  -1  -1    0.16    0.12 
  -4   1   1    0.22    0.12 
  -3   1   1   12.53    0.38 
   2  -1  -1    0.98    0.11 
   2  -1  -1    1.12    0.17 
   1  -1  -1    1.34    0.16 
   1  -1  -1    1.35    0.09 
   0  -1  -1   20.64    0.41 
   0  -1  -1   20.12    0.28 
   0   1   1   19.95    0.28 
  -1  -1  -1   45.41    0.57 
  -2  -1  -1  103.58    1.23 
  -3  -1  -1   17.04    0.46 
   3   1   1   16.81    0.50 
  -4  -1  -1    2.26    0.25 
   4   1   1    2.05    0.26 
  -5  -1  -1    0.74    0.21 
   5   1   1    0.73    0.20 
  -6  -1  -1    0.64    0.22 
   6   1   1    0.45    0.21 
  -7  -1  -1    3.23    0.40 
   7   1   1    3.55    0.49 
  -8  -1  -1    0.09    0.20 
   8   1   1    0.04    0.23 
  -9  -1  -1    0.44    0.25 
   9   1   1    0.39    0.31 
 -10  -1  -1    1.29    0.34 
  10   1   1    0.07    0.41 
   8  -2  -1    0.07    0.31 
   7  -2  -1    1.49    0.41 
  -7   2   1    1.57    0.29 
   6  -2  -1    0.57    0.25 
  -6   2   1    1.06    0.22 
   5  -2  -1    0.10    0.18 
  -5   2   1   -0.13    0.13 
   4  -2  -1    2.03    0.31 
  -4   2   1    1.96    0.25 
   3  -2  -1   22.39    0.52 
   3  -2  -1   22.01    0.71 
   2  -2  -1   53.02    1.03 
   2  -2  -1   52.24    0.77 
   1  -2  -1    2.40    0.21 
   1  -2  -1    2.38    0.13 
   0  -2  -1 1000.00    8.53 
   0  -2  -1  995.69    9.63 
  -1  -2  -1  905.63    8.94 
  -1  -2  -1  955.57    8.03 
  -2  -2  -1   24.65    0.52 
  -3  -2  -1   21.18    0.54 
  -4  -2  -1    0.09    0.15 
  -5  -2  -1    4.06    0.35 
  -6  -2  -1   12.51    0.58 
  -7  -2  -1    1.53    0.32 
   7   2   1    0.36    0.23 
  -8  -2  -1    4.16    0.47 
  -9  -2  -1    1.23    0.34 
 -10  -2  -1    0.45    0.28 
   8  -3  -1    0.11    0.22 
   7  -3  -1    0.20    0.25 
   6  -3  -1   -0.15    0.19 
  -6   3   1   -0.15    0.11 
   5  -3  -1    2.23    0.39 
  -5   3   1    2.03    0.29 
   4  -3  -1    1.39    0.20 
   4  -3  -1    1.14    0.29 
   3  -3  -1    1.08    0.22 
   3  -3  -1    0.74    0.14 
   2  -3  -1   47.99    0.79 
   2  -3  -1   47.79    1.04 
   1  -3  -1    2.30    0.16 
   1  -3  -1    2.61    0.25 
   0  -3  -1    2.36    0.22 
   0  -3  -1    2.30    0.15 
  -1  -3  -1  257.54    2.58 
  -1  -3  -1  262.76    2.94 
  -2  -3  -1    1.18    0.17 
  -3  -3  -1   11.45    0.42 
  -4  -3  -1   10.83    0.46 
  -5  -3  -1    2.23    0.31 
  -6  -3  -1    1.55    0.30 
  -7  -3  -1    8.39    0.56 
  -8  -3  -1    0.50    0.26 
  -9  -3  -1    0.21    0.23 
 -10  -3  -1    1.14    0.34 
   7  -4  -1    0.12    0.28 
   6  -4  -1    0.80    0.31 
   5  -4  -1   -0.03    0.22 
   5  -4  -1    0.06    0.15 
   4  -4  -1    4.50    0.50 
   4  -4  -1    4.34    0.29 
   3  -4  -1   10.95    0.42 
   3  -4  -1   11.37    0.60 
   2  -4  -1    6.69    0.31 
   2  -4  -1    6.34    0.41 
   1  -4  -1    2.49    0.29 
   1  -4  -1    2.32    0.18 
   0  -4  -1    2.19    0.26 
   0  -4  -1    2.35    0.21 
  -1  -4  -1   33.66    0.68 
  -1  -4  -1   33.66    0.78 
  -2  -4  -1   11.84    0.44 
  -2  -4  -1   13.08    0.45 
  -3  -4  -1    3.34    0.29 
  -4  -4  -1   22.02    0.70 
  -5  -4  -1   -0.06    0.16 
  -6  -4  -1    0.57    0.27 
  -7  -4  -1    4.75    0.50 
  -8  -4  -1    0.23    0.25 
  -9  -4  -1    1.09    0.37 
 -10  -4  -1    0.41    0.32 
   7  -5  -1    0.43    0.29 
   6  -5  -1    1.38    0.40 
   5  -5  -1    0.77    0.32 
   4  -5  -1    1.37    0.36 
   4  -5  -1    1.59    0.26 
   3  -5  -1    2.39    0.39 
   2  -5  -1    2.19    0.35 
   2  -5  -1    2.24    0.24 
   1  -5  -1   -0.03    0.13 
   1  -5  -1    0.06    0.09 
   0  -5  -1   -0.06    0.09 
   0  -5  -1   -0.01    0.12 
  -1  -5  -1    0.14    0.12 
  -1  -5  -1    0.04    0.12 
  -2  -5  -1   29.49    0.78 
  -2  -5  -1   29.76    0.74 
  -3  -5  -1    7.86    0.42 
  -3  -5  -1    8.66    0.43 
  -4  -5  -1    0.24    0.19 
  -5  -5  -1    5.79    0.44 
  -6  -5  -1    8.77    0.56 
  -7  -5  -1   14.58    0.75 
  -8  -5  -1    0.51    0.31 
  -9  -5  -1   -0.14    0.25 
 -10  -5  -1   -0.09    0.30 
   6  -6  -1    0.18    0.28 
   5  -6  -1    0.03    0.26 
   4  -6  -1    0.11    0.25 
   3  -6  -1    0.78    0.19 
   3  -6  -1    0.43    0.25 
   2  -6  -1    1.72    0.35 
   2  -6  -1    1.47    0.23 
   1  -6  -1    0.00    0.11 
   1  -6  -1    0.01    0.20 
   0  -6  -1    2.66    0.29 
   0  -6  -1    2.21    0.32 
  -1  -6  -1    1.88    0.30 
  -1  -6  -1    1.56    0.25 
  -2  -6  -1    0.12    0.13 
  -2  -6  -1   -0.03    0.13 
  -3  -6  -1    0.78    0.22 
  -3  -6  -1    0.59    0.18 
  -4  -6  -1    3.78    0.40 
  -4  -6  -1    3.17    0.35 
  -5  -6  -1    0.10    0.18 
  -6  -6  -1   -0.01    0.19 
  -7  -6  -1    4.87    0.55 
  -8  -6  -1    2.44    0.47 
  -9  -6  -1    0.31    0.29 
 -10  -6  -1    0.10    0.25 
   5  -7  -1    0.14    0.30 
   4  -7  -1    0.45    0.32 
   3  -7  -1    0.46    0.30 
   2  -7  -1    0.39    0.28 
   2  -7  -1    0.24    0.18 
   1  -7  -1    0.92    0.30 
   1  -7  -1    0.61    0.20 
   0  -7  -1    0.12    0.16 
   0  -7  -1    0.41    0.23 
  -1  -7  -1    0.21    0.18 
  -1  -7  -1    0.02    0.22 
  -2  -7  -1    0.27    0.18 
  -2  -7  -1    0.22    0.18 
  -3  -7  -1    0.54    0.19 
  -3  -7  -1    0.25    0.17 
  -4  -7  -1    2.57    0.36 
  -4  -7  -1    2.93    0.39 
  -5  -7  -1    0.57    0.25 
  -5  -7  -1    0.71    0.27 
  -6  -7  -1   -0.23    0.16 
  -7  -7  -1    0.28    0.28 
  -8  -7  -1    0.07    0.27 
  -9  -7  -1    0.17    0.30 
   4  -8  -1   -0.01    0.35 
   3  -8  -1    0.15    0.29 
   2  -8  -1    0.19    0.32 
   1  -8  -1   -0.13    0.24 
   1  -8  -1    0.28    0.19 
   0  -8  -1    0.45    0.20 
   0  -8  -1    1.07    0.35 
  -1  -8  -1    0.34    0.19 
  -1  -8  -1    0.39    0.26 
  -2  -8  -1    0.11    0.18 
  -2  -8  -1    0.05    0.21 
  -3  -8  -1    0.40    0.24 
  -3  -8  -1    0.14    0.18 
  -4  -8  -1    1.33    0.32 
  -4  -8  -1    2.71    0.39 
  -5  -8  -1   -0.06    0.22 
  -5  -8  -1    0.17    0.20 
  -6  -8  -1    0.05    0.22 
  -7  -8  -1    0.02    0.26 
  -8  -8  -1    0.14    0.29 
  -9  -8  -1    0.67    0.30 
   3  -9  -1    0.03    0.28 
   2  -9  -1    0.09    0.33 
   1  -9  -1    0.48    0.35 
   0  -9  -1    0.16    0.22 
   0  -9  -1    0.18    0.34 
  -1  -9  -1    0.33    0.28 
  -1  -9  -1    0.44    0.26 
  -2  -9  -1   -0.06    0.21 
  -3  -9  -1    0.10    0.22 
  -4  -9  -1    0.04    0.19 
  -5  -9  -1    0.40    0.25 
  -6  -9  -1    0.30    0.25 
  -7  -9  -1    0.10    0.26 
  -8  -9  -1    0.36    0.31 
  -1 -10  -1    1.17    0.34 
  -2 -10  -1    0.48    0.27 
  -3 -10  -1    0.24    0.27 
  -4 -10  -1    0.14    0.24 
  -5 -10  -1    0.47    0.27 
  -6 -10  -1    0.33    0.28 
  -7 -10  -1    0.06    0.27 
  -2 -11  -1   -0.01    0.32 
  -3 -11  -1    0.27    0.32 
  -4 -11  -1    0.24    0.30 
  -6 -10   2   -0.09    0.26 
  -5 -10   2    0.25    0.28 
  -4 -10   2    0.48    0.35 
  -3 -10   2    1.20    0.40 
  -2 -10   2    0.40    0.31 
  -1 -10   2   -0.01    0.27 
   0 -10   2    0.34    0.28 
   1 -10   2    0.21    0.27 
  -7  -9   2    0.39    0.25 
  -6  -9   2    0.49    0.30 
  -5  -9   2    0.60    0.27 
  -4  -9   2   -0.04    0.24 
  -3  -9   2    0.23    0.25 
  -2  -9   2    0.35    0.25 
  -1  -9   2    0.11    0.24 
   0  -9   2    0.05    0.24 
   1  -9   2    0.05    0.25 
   2  -9   2    0.10    0.25 
   3  -9   2    0.33    0.28 
  -8  -8   2    0.37    0.30 
  -7  -8   2    0.03    0.26 
  -6  -8   2    0.32    0.26 
  -5  -8   2    0.10    0.21 
  -4  -8   2    0.75    0.27 
  -3  -8   2   -0.17    0.17 
  -2  -8   2    0.01    0.20 
  -1  -8   2    0.49    0.25 
   0  -8   2   -0.10    0.20 
   1  -8   2   -0.30    0.18 
   2  -8   2    0.56    0.29 
   3  -8   2    0.96    0.31 
   4  -8   2    0.67    0.27 
  -9  -7   2    0.42    0.26 
  -8  -7   2    0.36    0.32 
  -7  -7   2    0.10    0.23 
  -6  -7   2    2.29    0.43 
  -5  -7   2    2.61    0.40 
  -4  -7   2    0.76    0.24 
  -3  -7   2    2.73    0.38 
  -2  -7   2    0.32    0.18 
  -1  -7   2    0.01    0.17 
   0  -7   2    1.09    0.27 
   1  -7   2    0.29    0.12 
   1  -7   2    0.43    0.19 
   2  -7   2    0.39    0.23 
   2  -7   2    1.03    0.26 
   3  -7   2    1.88    0.33 
   3  -7   2    2.10    0.40 
   4  -7   2    1.73    0.41 
   4  -7   2    1.98    0.34 
   5  -7   2    0.33    0.28 
   5  -7   2    0.58    0.29 
   6  -7   2   -0.12    0.30 
   6  -7   2   -0.03    0.25 
  -9  -6   2    0.29    0.26 
  -8  -6   2   -0.10    0.23 
  -7  -6   2    0.23    0.23 
  -6  -6   2   -0.31    0.18 
  -5  -6   2    1.60    0.32 
  -4  -6   2    2.77    0.39 
  -3  -6   2    3.96    0.41 
  -3  -6   2    3.71    0.25 
  -2  -6   2    0.23    0.10 
  -2  -6   2    0.14    0.16 
  -1  -6   2    0.18    0.15 
  -1  -6   2    0.24    0.11 
   0  -6   2    4.26    0.41 
   0  -6   2    3.15    0.25 
   1  -6   2    0.27    0.13 
   1  -6   2    0.45    0.18 
   2  -6   2    1.40    0.24 
   2  -6   2    0.98    0.23 
   3  -6   2    4.05    0.41 
   3  -6   2    3.20    0.42 
   4  -6   2    2.10    0.40 
   4  -6   2    2.03    0.33 
   5  -6   2    0.00    0.21 
   5  -6   2    0.10    0.28 
   6  -6   2    0.21    0.25 
   6  -6   2    0.05    0.24 
   7  -6   2   -0.02    0.29 
  -9  -5   2    0.28    0.26 
  -8  -5   2    1.58    0.38 
  -7  -5   2    0.37    0.27 
  -6  -5   2    2.08    0.36 
  -5  -5   2    1.31    0.30 
  -4  -5   2    2.34    0.34 
  -3  -5   2    0.11    0.06 
  -3  -5   2    0.25    0.18 
  -2  -5   2    2.54    0.30 
  -2  -5   2    2.94    0.20 
  -1  -5   2    3.36    0.20 
  -1  -5   2    3.49    0.33 
   0  -5   2    1.02    0.16 
   0  -5   2    1.22    0.23 
   1  -5   2    9.25    0.41 
   1  -5   2    9.22    0.44 
   2  -5   2    4.25    0.31 
   2  -5   2    4.34    0.37 
   3  -5   2   11.44    0.52 
   3  -5   2   11.07    0.58 
   4  -5   2    1.70    0.28 
   4  -5   2    1.47    0.32 
   5  -5   2   -0.14    0.18 
   5  -5   2   -0.06    0.20 
   6  -5   2    0.28    0.27 
   6  -5   2    0.51    0.25 
   7  -5   2   -0.08    0.23 
   7  -5   2    0.32    0.27 
  -9  -4   2    0.24    0.23 
  -8  -4   2    0.41    0.25 
  -7  -4   2   -0.05    0.19 
  -6  -4   2    3.86    0.43 
   5   4  -2    4.21    0.99 
  -5  -4   2    4.57    0.44 
   4   4  -2   12.95    0.94 
  -4  -4   2   12.56    0.55 
   3   4  -2   33.78    1.39 
  -3  -4   2   33.10    0.83 
   2   4  -2   10.01    0.76 
  -2  -4   2   10.42    0.45 
  -2  -4   2   10.42    0.31 
   1   4  -2   28.93    1.18 
  -1  -4   2   29.64    0.72 
  -1  -4   2   29.95    0.53 
   0  -4   2    0.80    0.17 
   0  -4   2    0.73    0.12 
   1  -4   2   78.35    1.26 
   1  -4   2   77.45    1.21 
   2  -4   2   34.99    0.81 
   2  -4   2   35.08    0.83 
   3  -4   2    3.14    0.31 
   3  -4   2    3.09    0.33 
   4  -4   2    8.05    0.51 
   4  -4   2    7.98    0.44 
   5  -4   2    0.23    0.17 
   5  -4   2    0.02    0.17 
   6  -4   2    0.19    0.20 
   6  -4   2    0.13    0.22 
   7  -4   2   -0.08    0.24 
   7  -4   2   -0.23    0.21 
  -8   4  -2    0.20    0.18 
   8  -4   2   -0.05    0.22 
  -9  -3   2    0.28    0.27 
   8   3  -2   -0.15    0.28 
  -8  -3   2    0.39    0.26 
   7   3  -2    1.24    0.30 
  -7  -3   2    1.06    0.29 
   6   3  -2    1.31    0.68 
  -6  -3   2    5.67    0.49 
   5   3  -2    1.98    0.59 
  -5  -3   2    4.06    0.38 
   4   3  -2    2.66    0.66 
  -4  -3   2    3.12    0.32 
   3   3  -2   49.23    1.60 
  -3  -3   2   48.29    0.94 
   2   3  -2   12.22    0.77 
  -2  -3   2   11.93    0.44 
   1   3  -2    4.32    0.49 
  -1  -3   2    4.87    0.27 
  -1  -3   2    4.41    0.15 
   0   3  -2   83.46    1.85 
   0  -3   2   86.34    1.05 
   0  -3   2   84.30    1.19 
   1  -3   2    1.89    0.20 
   1  -3   2    1.51    0.16 
   2  -3   2   11.78    0.43 
   2  -3   2   12.24    0.43 
   3  -3   2    7.86    0.41 
   3  -3   2    7.81    0.37 
   4  -3   2    0.44    0.17 
   4  -3   2    0.42    0.15 
   5  -3   2    0.97    0.23 
   5  -3   2    0.99    0.27 
   6  -3   2    0.09    0.19 
   6  -3   2    0.22    0.21 
  -7   3  -2    0.26    0.20 
   7  -3   2    0.30    0.27 
  -8   3  -2   -0.24    0.15 
   8  -3   2    0.03    0.23 
  -9   3  -2    1.18    0.28 
   9   2  -2    0.05    0.31 
  -9  -2   2    0.37    0.28 
   8   2  -2    0.86    0.35 
  -8  -2   2    0.69    0.27 
   7   2  -2    2.54    0.44 
  -7  -2   2    1.78    0.34 
   6   2  -2    2.70    0.38 
  -6  -2   2    2.66    0.36 
   5   2  -2    5.59    0.38 
  -5  -2   2    5.63    0.39 
   4   2  -2    0.75    0.46 
   4   2  -2    0.59    0.15 
  -4  -2   2    0.66    0.20 
   3   2  -2   73.49    1.92 
   3   2  -2   74.52    1.17 
  -3  -2   2   75.15    1.18 
   2   2  -2   35.98    1.20 
   2   2  -2   36.02    0.62 
  -2  -2   2   36.35    0.69 
   1   2  -2   19.30    0.83 
  -1  -2   2   19.48    0.45 
   0  -2   2   37.08    0.63 
   0  -2   2   37.32    0.50 
   1  -2   2    0.04    0.06 
   1  -2   2    0.08    0.05 
   2  -2   2    3.87    0.22 
   2  -2   2    4.23    0.24 
   3  -2   2    0.72    0.15 
   3  -2   2    0.84    0.17 
   4  -2   2   10.55    0.51 
   4  -2   2   11.27    0.44 
   5  -2   2    0.04    0.11 
   5  -2   2    0.03    0.15 
   6  -2   2    0.04    0.19 
   6  -2   2    0.47    0.20 
  -7   2  -2    1.28    0.28 
   7  -2   2    1.47    0.35 
  -8   2  -2    0.46    0.19 
   8  -2   2    0.37    0.27 
  -9   2  -2    0.17    0.20 
   9  -2   2   -0.01    0.21 
   9   1  -2    0.09    0.32 
   8   1  -2    0.02    0.25 
  -8  -1   2    0.40    0.22 
   7   1  -2    0.02    0.21 
  -7  -1   2   -0.08    0.17 
   6   1  -2   30.16    1.04 
  -6  -1   2   30.14    0.87 
   5   1  -2   24.37    0.82 
  -5  -1   2   25.28    0.73 
   4   1  -2    1.05    0.20 
   4   1  -2    0.61    0.36 
  -4  -1   2    1.07    0.21 
   3   1  -2   17.70    0.81 
   3   1  -2   16.98    0.52 
  -3  -1   2   17.39    0.47 
   2   1  -2    0.83    0.12 
   2   1  -2    1.06    0.38 
  -2  -1   2    0.72    0.13 
   1   1  -2  105.43    2.01 
   1   1  -2  106.91    1.23 
  -1  -1   2  104.89    1.19 
   0   1  -2    8.63    0.48 
   0   1  -2    8.67    0.17 
   0  -1   2    8.97    0.24 
   1  -1   2   25.19    0.45 
   1  -1   2   24.97    0.46 
   2  -1   2   14.06    0.37 
   2  -1   2   14.44    0.41 
   3  -1   2    1.76    0.19 
   3  -1   2    1.53    0.21 
   4  -1   2   12.86    0.54 
   4  -1   2   12.95    0.46 
   5  -1   2    1.44    0.22 
   5  -1   2    1.72    0.29 
  -6   1  -2    1.32    0.26 
   6  -1   2    1.15    0.29 
  -7   1  -2    3.89    0.41 
   7  -1   2    3.11    0.48 
  -8   1  -2    1.36    0.29 
   8  -1   2    1.14    0.34 
  -9   1  -2   -0.08    0.18 
   9  -1   2    0.23    0.24 
   9   0  -2    0.24    0.36 
   8   0  -2    0.67    0.36 
  -8   0   2    0.83    0.24 
   7   0  -2    0.13    0.24 
  -7   0   2    0.35    0.19 
   6   0  -2    0.02    0.17 
  -6   0   2    0.31    0.18 
   5   0  -2    0.15    0.17 
  -5   0   2   -0.03    0.14 
   4   0  -2   13.13    0.56 
  -4   0   2   13.08    0.45 
   3   0  -2    1.59    0.22 
   3   0  -2    0.03    0.13 
   2   0  -2    6.95    0.30 
   2   0  -2    6.54    0.43 
  -2   0   2    6.61    0.23 
   1   0  -2    5.94    0.24 
   1   0  -2    6.01    0.41 
  -1   0   2    6.07    0.19 
   0   0  -2    0.48    0.08 
   0   0   2    0.41    0.05 
   1   0   2   62.46    0.74 
   2   0   2   12.87    0.37 
   2   0   2   12.66    0.33 
   3   0   2   64.04    1.12 
   3   0   2   63.54    0.95 
  -4   0  -2  105.95    1.54 
   4   0   2  108.62    1.74 
  -5   0  -2    4.02    0.31 
   5   0   2    4.24    0.34 
  -6   0  -2    0.12    0.16 
   6   0   2    0.16    0.17 
  -7   0  -2    0.77    0.23 
   7   0   2    0.54    0.24 
  -8   0  -2    0.42    0.25 
   8   0   2    0.42    0.28 
  -9   0  -2    0.54    0.26 
   9   0   2   -0.10    0.23 
 -10   0  -2    0.38    0.26 
  10   0   2   -0.05    0.33 
   9  -1  -2    0.42    0.38 
   8  -1  -2    0.06    0.30 
   7  -1  -2    0.00    0.23 
  -7   1   2   -0.15    0.14 
   6  -1  -2   15.43    0.79 
  -6   1   2   15.22    0.59 
   4  -1  -2    0.18    0.13 
  -4   1   2    0.10    0.13 
   3  -1  -2    3.44    0.29 
  -3   1   2    3.50    0.21 
   2  -1  -2   26.07    0.67 
  -2   1   2   26.54    0.45 
   1  -1  -2    0.89    0.15 
  -1   1   2    1.07    0.08 
   0  -1  -2  304.87    3.20 
  -1  -1  -2   16.25    0.30 
  -2  -1  -2    6.48    0.26 
  -3  -1  -2   23.89    0.54 
  -4  -1  -2    0.04    0.13 
   4   1   2   -0.11    0.09 
  -5  -1  -2    4.12    0.35 
   5   1   2    4.00    0.32 
  -6  -1  -2    2.59    0.34 
   6   1   2    2.73    0.37 
  -7  -1  -2    0.33    0.24 
   7   1   2    0.13    0.18 
  -8  -1  -2    2.51    0.40 
   8   1   2    2.20    0.44 
  -9  -1  -2    0.39    0.25 
   9   1   2   -0.16    0.28 
 -10  -1  -2    0.02    0.24 
   8  -2  -2    0.03    0.32 
   7  -2  -2   -0.12    0.25 
   6  -2  -2    1.16    0.33 
  -6   2   2    1.04    0.19 
   5  -2  -2    0.00    0.18 
  -5   2   2    0.00    0.14 
   4  -2  -2    8.68    0.53 
  -4   2   2    8.86    0.36 
   3  -2  -2    1.90    0.27 
  -3   2   2    2.25    0.20 
   2  -2  -2   11.68    0.30 
   2  -2  -2   11.48    0.47 
   1  -2  -2   16.78    0.52 
   0  -2  -2  851.34    8.37 
  -1  -2  -2  545.21    4.81 
  -1  -2  -2  542.33    5.49 
  -2  -2  -2   48.46    0.74 
  -3  -2  -2    0.20    0.12 
  -4  -2  -2  151.28    1.95 
  -5  -2  -2    0.47    0.20 
  -6  -2  -2    2.09    0.33 
  -7  -2  -2    1.39    0.30 
  -8  -2  -2    2.11    0.36 
  -9  -2  -2   -0.01    0.20 
 -10  -2  -2    0.45    0.28 
   8  -3  -2    0.10    0.34 
   7  -3  -2   -0.15    0.27 
   6  -3  -2    0.58    0.31 
   5  -3  -2    2.81    0.44 
  -5   3   2    3.29    0.30 
   4  -3  -2    4.52    0.48 
  -4   3   2    4.34    0.31 
   3  -3  -2    5.85    0.43 
   3  -3  -2    5.54    0.27 
   2  -3  -2    1.38    0.24 
   2  -3  -2    1.07    0.13 
   1  -3  -2   19.84    0.64 
   0  -3  -2   19.69    0.39 
   0  -3  -2   19.47    0.59 
  -1  -3  -2   22.47    0.46 
  -1  -3  -2   22.94    0.61 
  -3  -3  -2    0.79    0.17 
  -4  -3  -2    0.07    0.14 
  -5  -3  -2    3.18    0.34 
  -6  -3  -2    0.35    0.21 
  -7  -3  -2    0.42    0.25 
  -8  -3  -2    0.80    0.27 
  -9  -3  -2   -0.14    0.21 
 -10  -3  -2    1.28    0.39 
   7  -4  -2   -0.07    0.25 
   6  -4  -2    0.01    0.25 
   5  -4  -2    1.16    0.33 
   4  -4  -2    1.13    0.19 
   4  -4  -2    0.93    0.28 
   3  -4  -2    1.31    0.30 
   3  -4  -2    1.92    0.21 
   2  -4  -2    5.35    0.41 
   2  -4  -2    5.80    0.27 
   1  -4  -2    5.71    0.39 
   1  -4  -2    5.84    0.25 
   0  -4  -2   21.94    0.49 
   0  -4  -2   22.35    0.70 
  -1  -4  -2   70.24    1.28 
  -1  -4  -2   70.03    1.02 
  -2  -4  -2   37.99    0.87 
  -2  -4  -2   37.93    0.75 
  -3  -4  -2    2.57    0.27 
  -4  -4  -2   -0.06    0.15 
  -5  -4  -2    1.03    0.26 
  -6  -4  -2    0.71    0.25 
  -7  -4  -2    1.99    0.40 
  -8  -4  -2    0.33    0.27 
  -9  -4  -2    0.26    0.28 
 -10  -4  -2   -0.13    0.26 
   6  -5  -2    0.03    0.27 
   5  -5  -2   -0.08    0.23 
   4  -5  -2    0.48    0.27 
   3  -5  -2    2.54    0.42 
   3  -5  -2    2.51    0.25 
   2  -5  -2    4.00    0.45 
   2  -5  -2    4.15    0.26 
   1  -5  -2    1.53    0.19 
   1  -5  -2    1.43    0.29 
   0  -5  -2    1.11    0.24 
   0  -5  -2    1.51    0.19 
  -1  -5  -2   53.38    1.20 
  -1  -5  -2   55.44    0.96 
  -2  -5  -2    6.52    0.34 
  -2  -5  -2    6.11    0.39 
  -3  -5  -2   15.95    0.61 
  -3  -5  -2   15.59    0.55 
  -4  -5  -2   -0.15    0.13 
  -5  -5  -2    0.30    0.22 
  -6  -5  -2    5.75    0.52 
  -7  -5  -2   23.27    0.93 
  -8  -5  -2   -0.11    0.23 
  -9  -5  -2    0.51    0.32 
 -10  -5  -2    1.10    0.42 
   6  -6  -2    0.06    0.28 
   5  -6  -2    0.05    0.27 
   4  -6  -2    0.17    0.29 
   3  -6  -2    0.02    0.23 
   2  -6  -2    4.16    0.29 
   2  -6  -2    4.83    0.53 
   1  -6  -2    2.18    0.25 
   1  -6  -2    3.12    0.44 
   0  -6  -2    0.53    0.25 
   0  -6  -2    0.46    0.15 
  -1  -6  -2    2.06    0.26 
  -1  -6  -2    1.82    0.31 
  -2  -6  -2    4.24    0.39 
  -2  -6  -2    3.74    0.33 
  -3  -6  -2    2.92    0.34 
  -3  -6  -2    2.06    0.30 
  -4  -6  -2    0.16    0.16 
  -4  -6  -2    0.39    0.21 
  -5  -6  -2    2.38    0.37 
  -6  -6  -2   -0.03    0.18 
  -7  -6  -2    0.21    0.22 
  -8  -6  -2    1.61    0.41 
  -9  -6  -2   -0.13    0.28 
 -10  -6  -2   -0.04    0.29 
   5  -7  -2    0.19    0.28 
   4  -7  -2   -0.06    0.27 
   3  -7  -2    0.10    0.28 
   2  -7  -2    0.04    0.24 
   1  -7  -2    0.23    0.27 
   1  -7  -2    0.22    0.15 
   0  -7  -2    0.62    0.19 
   0  -7  -2    0.88    0.30 
  -1  -7  -2    0.30    0.26 
  -1  -7  -2    0.51    0.19 
  -2  -7  -2    2.31    0.39 
  -2  -7  -2    2.45    0.32 
  -3  -7  -2    2.11    0.32 
  -3  -7  -2    1.97    0.35 
  -4  -7  -2    0.29    0.23 
  -4  -7  -2    0.16    0.19 
  -5  -7  -2    0.53    0.26 
  -5  -7  -2    0.65    0.25 
  -6  -7  -2    2.07    0.37 
  -7  -7  -2    4.21    0.54 
  -8  -7  -2    0.14    0.27 
  -9  -7  -2   -0.07    0.24 
   4  -8  -2   -0.08    0.28 
   3  -8  -2   -0.01    0.28 
   2  -8  -2    0.26    0.31 
   1  -8  -2    1.37    0.41 
   0  -8  -2    0.41    0.20 
   0  -8  -2    0.21    0.29 
  -1  -8  -2    0.36    0.27 
  -1  -8  -2    0.11    0.16 
  -2  -8  -2    0.18    0.19 
  -2  -8  -2   -0.16    0.24 
  -3  -8  -2    0.40    0.26 
  -3  -8  -2    0.29    0.19 
  -4  -8  -2    5.25    0.49 
  -4  -8  -2    5.09    0.51 
  -5  -8  -2    0.83    0.31 
  -5  -8  -2    0.87    0.28 
  -6  -8  -2    1.38    0.40 
  -6  -8  -2    2.15    0.40 
  -7  -8  -2    0.63    0.31 
  -8  -8  -2    2.35    0.46 
  -9  -8  -2    0.15    0.27 
   2  -9  -2   -0.15    0.32 
   1  -9  -2    0.10    0.33 
   0  -9  -2    0.22    0.33 
  -1  -9  -2    0.12    0.22 
  -1  -9  -2   -0.20    0.25 
  -2  -9  -2    0.02    0.26 
  -2  -9  -2    0.26    0.23 
  -3  -9  -2    0.20    0.21 
  -3  -9  -2   -0.13    0.22 
  -4  -9  -2    0.33    0.27 
  -4  -9  -2    0.17    0.21 
  -5  -9  -2    0.35    0.24 
  -6  -9  -2   -0.06    0.22 
  -7  -9  -2   -0.01    0.25 
  -8  -9  -2    0.02    0.27 
   1 -10  -2    0.65    0.42 
  -2 -10  -2    0.61    0.30 
  -3 -10  -2    0.15    0.26 
  -4 -10  -2    0.42    0.26 
  -5 -10  -2   -0.01    0.22 
  -6 -10  -2    0.54    0.28 
  -7 -10  -2   -0.04    0.26 
  -4 -11  -2    0.28    0.29 
  -5 -10   3    0.44    0.29 
  -4 -10   3   -0.06    0.30 
  -3 -10   3    1.49    0.44 
  -2 -10   3    1.37    0.43 
  -1 -10   3    0.10    0.30 
   0 -10   3    0.00    0.28 
   1 -10   3   -0.09    0.26 
  -7  -9   3    0.27    0.27 
  -6  -9   3   -0.05    0.27 
  -5  -9   3   -0.15    0.23 
  -4  -9   3    0.58    0.28 
  -3  -9   3    0.32    0.27 
  -2  -9   3    0.56    0.32 
  -1  -9   3   -0.13    0.22 
   0  -9   3   -0.13    0.24 
   1  -9   3   -0.18    0.25 
   2  -9   3    0.34    0.30 
   3  -9   3    0.23    0.27 
  -8  -8   3    0.16    0.20 
  -7  -8   3   -0.14    0.23 
  -6  -8   3    0.02    0.22 
  -5  -8   3    0.33    0.26 
  -4  -8   3    0.09    0.23 
  -3  -8   3    2.31    0.40 
  -2  -8   3    2.20    0.39 
  -1  -8   3    0.64    0.28 
   0  -8   3    0.10    0.22 
   1  -8   3    0.46    0.21 
   2  -8   3    0.44    0.26 
   3  -8   3    0.31    0.25 
   4  -8   3    0.15    0.25 
  -8  -7   3    0.10    0.26 
  -7  -7   3    0.30    0.28 
  -6  -7   3    0.64    0.27 
  -5  -7   3    1.83    0.38 
  -4  -7   3    1.14    0.28 
  -3  -7   3    0.16    0.19 
  -2  -7   3    0.28    0.21 
  -1  -7   3    0.09    0.19 
   0  -7   3    0.14    0.17 
   1  -7   3   -0.12    0.13 
   2  -7   3    0.00    0.17 
   3  -7   3    0.58    0.24 
   4  -7   3    0.71    0.26 
   5  -7   3    0.19    0.24 
   5  -7   3   -0.22    0.21 
   6  -7   3   -0.18    0.24 
  -9  -6   3    0.28    0.25 
  -8  -6   3    0.07    0.24 
  -7  -6   3    0.09    0.23 
  -6  -6   3    0.14    0.21 
  -5  -6   3    0.23    0.22 
  -4  -6   3    1.32    0.30 
  -3  -6   3    2.80    0.37 
  -2  -6   3    0.97    0.25 
  -1  -6   3    0.26    0.16 
   0  -6   3   -0.01    0.13 
   1  -6   3    0.50    0.14 
   1  -6   3    0.90    0.23 
   2  -6   3    2.48    0.34 
   2  -6   3    3.30    0.27 
   3  -6   3    2.15    0.33 
   3  -6   3    2.03    0.34 
   4  -6   3    6.95    0.53 
   4  -6   3    6.37    0.47 
   5  -6   3    1.30    0.32 
   5  -6   3    1.38    0.38 
   6  -6   3    0.50    0.28 
   6  -6   3    0.34    0.29 
  -9  -5   3    0.82    0.28 
  -8  -5   3    0.40    0.25 
  -7  -5   3    0.80    0.26 
  -6  -5   3    3.80    0.46 
   5   5  -3    4.80    1.13 
  -5  -5   3    2.77    0.39 
   4   5  -3    0.19    0.67 
  -4  -5   3    0.11    0.20 
   3   5  -3    8.20    1.10 
  -3  -5   3    5.82    0.42 
   2   5  -3    6.71    0.96 
  -2  -5   3    5.12    0.20 
  -2  -5   3    4.70    0.36 
   1   5  -3   -0.12    0.43 
  -1  -5   3   -0.02    0.13 
  -1  -5   3    0.24    0.07 
   0  -5   3    8.64    0.45 
   0  -5   3    9.89    0.32 
   1  -5   3    1.64    0.19 
   1  -5   3    1.49    0.25 
   2  -5   3    5.92    0.35 
   2  -5   3    6.07    0.37 
   3  -5   3    1.32    0.24 
   3  -5   3    1.47    0.24 
   4  -5   3    5.68    0.46 
   4  -5   3    5.63    0.40 
   5  -5   3    1.57    0.32 
   5  -5   3    1.74    0.38 
   6  -5   3   -0.05    0.22 
   6  -5   3   -0.02    0.22 
   7  -5   3   -0.04    0.26 
   7  -5   3    0.03    0.26 
  -9  -4   3    0.18    0.26 
  -8  -4   3    0.69    0.26 
  -7  -4   3    0.13    0.21 
   6   4  -3    0.18    0.76 
  -6  -4   3    0.12    0.18 
   5   4  -3    0.79    0.85 
  -5  -4   3    0.98    0.26 
   4   4  -3    0.75    0.77 
  -4  -4   3    0.75    0.23 
   3   4  -3    0.29    0.52 
  -3  -4   3    0.37    0.18 
   2   4  -3    0.64    0.53 
  -2  -4   3    0.15    0.14 
  -2  -4   3    0.22    0.06 
   1   4  -3    2.27    0.60 
  -1  -4   3    1.39    0.21 
   0   4  -3    0.03    0.41 
   0  -4   3   -0.01    0.10 
   0  -4   3    0.13    0.05 
   1  -4   3   30.56    0.64 
   1  -4   3   30.70    0.76 
   2  -4   3    0.08    0.08 
   2  -4   3    0.12    0.11 
   3  -4   3    1.58    0.25 
   3  -4   3    1.74    0.25 
   4  -4   3    4.36    0.39 
   4  -4   3    3.93    0.41 
   5  -4   3    1.89    0.32 
   5  -4   3    1.90    0.34 
   6  -4   3   -0.07    0.16 
   6  -4   3    0.12    0.22 
   7  -4   3    0.07    0.22 
   7  -4   3    0.19    0.26 
  -8   4  -3    0.14    0.21 
   8  -4   3    0.13    0.23 
   9   3  -3   -0.19    0.37 
  -9  -3   3    0.95    0.29 
   8   3  -3    0.37    0.28 
  -8  -3   3    0.45    0.23 
   7   3  -3    0.05    0.21 
   7   3  -3   -0.04    0.63 
  -7  -3   3    0.38    0.22 
   6   3  -3    0.55    0.68 
   6   3  -3    1.22    0.29 
  -6  -3   3    1.53    0.30 
   5   3  -3    0.14    0.11 
   5   3  -3   -0.25    0.75 
  -5  -3   3    0.12    0.18 
   4   3  -3    3.30    0.26 
   4   3  -3    2.91    0.69 
  -4  -3   3    3.43    0.32 
   3   3  -3    6.53    0.68 
  -3  -3   3    5.86    0.36 
   2   3  -3   23.40    1.10 
  -2  -3   3   21.80    0.61 
   1   3  -3    6.93    0.63 
  -1  -3   3    7.33    0.33 
   0   3  -3    0.23    0.42 
   0  -3   3    0.06    0.03 
   0  -3   3   -0.01    0.09 
   1  -3   3   18.79    0.43 
   1  -3   3   17.86    0.52 
   2  -3   3    2.26    0.25 
   2  -3   3    2.16    0.18 
   3  -3   3   -0.02    0.07 
   3  -3   3   -0.08    0.08 
   4  -3   3    3.06    0.34 
   4  -3   3    3.51    0.35 
   5  -3   3    0.23    0.18 
   5  -3   3    0.39    0.17 
   6  -3   3    0.81    0.28 
   6  -3   3    0.70    0.23 
   7  -3   3   -0.12    0.20 
   7  -3   3   -0.03    0.20 
  -8   3  -3   -0.01    0.16 
   8  -3   3    0.13    0.23 
  -9   3  -3    0.09    0.16 
   9  -3   3    0.27    0.24 
   9   2  -3   -0.25    0.27 
   8   2  -3   -0.02    0.25 
  -8  -2   3    0.25    0.23 
   7   2  -3    0.13    0.55 
   7   2  -3   -0.16    0.19 
  -7  -2   3    0.02    0.19 
   6   2  -3    3.56    0.43 
  -6  -2   3    3.39    0.39 
   5   2  -3    7.43    0.44 
  -5  -2   3    6.54    0.42 
   4   2  -3    1.44    0.56 
   4   2  -3    3.38    0.28 
  -4  -2   3    4.08    0.31 
   3   2  -3   21.12    0.55 
   3   2  -3   16.69    0.96 
  -3  -2   3   21.51    0.57 
   2   2  -3   54.70    0.82 
   2   2  -3   55.01    1.59 
  -2  -2   3   56.90    0.93 
   1   2  -3   41.34    0.54 
   1   2  -3   41.94    1.27 
  -1  -2   3   40.58    0.72 
   0   2  -3    6.76    0.52 
   0  -2   3    7.41    0.28 
  -1   2  -3  121.64    2.22 
   1  -2   3  120.05    1.47 
   3  -2   3    2.94    0.26 
   3  -2   3    2.49    0.22 
   4  -2   3    0.17    0.11 
   4  -2   3    0.37    0.13 
   5  -2   3    0.34    0.15 
   5  -2   3    0.13    0.17 
   6  -2   3    0.17    0.20 
   6  -2   3    0.08    0.15 
  -7   2  -3    0.83    0.26 
   7  -2   3    0.66    0.28 
  -8   2  -3    0.12    0.18 
   8  -2   3   -0.05    0.22 
  -9   2  -3    0.18    0.20 
   9  -2   3    0.01    0.26 
   9   1  -3   -0.02    0.34 
   8   1  -3    0.10    0.29 
   7   1  -3    0.18    0.27 
  -7  -1   3    0.23    0.22 
   6   1  -3    1.62    0.34 
  -6  -1   3    1.48    0.29 
   5   1  -3    0.08    0.16 
  -5  -1   3    0.03    0.17 
   4   1  -3    3.40    0.63 
   4   1  -3    3.15    0.28 
  -4  -1   3    2.77    0.27 
   3   1  -3  113.06    1.66 
   3   1  -3  113.94    2.51 
   2   1  -3   94.30    1.32 
   2   1  -3   96.85    2.14 
   1   1  -3   94.51    1.99 
   1   1  -3   94.30    1.16 
   0   1  -3    0.62    0.36 
   0   1  -3    0.70    0.08 
   0  -1   3    0.75    0.10 
  -1   1  -3    0.01    0.27 
   1  -1   3   -0.02    0.06 
   2  -1   3   19.92    0.48 
   3  -1   3   27.53    0.70 
   3  -1   3   27.91    0.64 
   4  -1   3    1.93    0.27 
   4  -1   3    2.05    0.24 
   5  -1   3    6.10    0.43 
   5  -1   3    6.84    0.38 
  -6   1  -3    0.87    0.24 
   6  -1   3    0.89    0.26 
  -7   1  -3    0.39    0.19 
   7  -1   3    0.46    0.25 
  -8   1  -3    0.11    0.19 
   8  -1   3    0.41    0.25 
  -9   1  -3    0.10    0.20 
   9  -1   3    0.23    0.26 
   9   0  -3   -0.03    0.34 
   8   0  -3    0.33    0.34 
   7   0  -3    0.64    0.31 
   5   0  -3    9.98    0.58 
  -5   0   3    6.54    0.36 
   4   0  -3   10.76    0.52 
  -4   0   3   10.83    0.42 
   3   0  -3   24.63    1.00 
   3   0  -3   24.40    0.71 
  -3   0   3   24.87    0.55 
   2   0  -3  106.22    1.54 
   2   0  -3  106.88    2.25 
  -2   0   3  107.71    1.24 
   1   0  -3    0.56    0.32 
   1   0  -3    0.23    0.09 
  -1   0   3    0.36    0.07 
   0   0  -3   86.93    1.12 
   2   0   3   18.91    0.42 
   3   0   3   30.87    0.63 
   4   0   3    0.30    0.12 
   4   0   3    0.21    0.11 
  -5   0  -3    2.05    0.28 
   5   0   3    2.23    0.30 
  -6   0  -3    0.08    0.16 
   6   0   3   -0.02    0.12 
  -7   0  -3    0.30    0.20 
   7   0   3    0.19    0.19 
  -8   0  -3    1.69    0.33 
   8   0   3    1.63    0.38 
  -9   0  -3    0.12    0.23 
   9   0   3   -0.06    0.27 
 -10   0  -3    0.04    0.22 
   8  -1  -3    0.29    0.35 
   7  -1  -3   -0.02    0.25 
   6  -1  -3    4.43    0.54 
  -6   1   3    4.30    0.32 
   5  -1  -3   18.82    0.83 
  -5   1   3   18.61    0.58 
   4  -1  -3   11.72    0.60 
  -4   1   3   11.88    0.42 
   3  -1  -3    1.50    0.25 
  -3   1   3    2.09    0.18 
   2  -1  -3    0.19    0.12 
  -2   1   3    0.08    0.07 
   1  -1  -3    1.22    0.17 
  -1   1   3    0.93    0.07 
   0  -1  -3   15.36    0.44 
  -1  -1  -3   25.92    0.41 
  -1  -1  -3   25.98    0.56 
  -2  -1  -3   53.35    0.79 
  -3  -1  -3   16.51    0.46 
  -4  -1  -3    1.04    0.18 
  -5  -1  -3    1.89    0.27 
  -6  -1  -3    3.29    0.36 
  -7  -1  -3    1.46    0.31 
  -8  -1  -3    0.94    0.29 
  -9  -1  -3    0.24    0.22 
 -10  -1  -3    0.09    0.26 
   8  -2  -3   -0.03    0.32 
   7  -2  -3    0.01    0.26 
   6  -2  -3    0.41    0.26 
   5  -2  -3    4.91    0.53 
  -5   2   3    4.31    0.30 
   4  -2  -3    1.19    0.29 
  -4   2   3    1.25    0.20 
   3  -2  -3    2.78    0.35 
  -3   2   3    2.75    0.20 
   2  -2  -3    0.56    0.18 
  -2   2   3    0.72    0.10 
   1  -2  -3    1.60    0.22 
   1  -2  -3    1.04    0.07 
   0  -2  -3   27.49    0.34 
   0  -2  -3   28.07    0.69 
  -1  -2  -3   16.64    0.49 
  -1  -2  -3   17.54    0.33 
  -2  -2  -3  120.73    1.38 
  -3  -2  -3    8.57    0.35 
  -4  -2  -3  152.03    1.99 
  -5  -2  -3    6.23    0.39 
  -6  -2  -3    1.45    0.29 
  -7  -2  -3    2.71    0.40 
  -8  -2  -3    0.00    0.19 
  -9  -2  -3    0.40    0.26 
 -10  -2  -3    0.33    0.27 
   7  -3  -3    0.38    0.34 
   6  -3  -3    0.48    0.32 
   5  -3  -3    4.26    0.54 
   4  -3  -3    4.38    0.49 
   3  -3  -3    0.83    0.25 
  -3   3   3    0.72    0.15 
   2  -3  -3    0.15    0.13 
   2  -3  -3    0.02    0.05 
   1  -3  -3    0.36    0.16 
   1  -3  -3    0.36    0.07 
   0  -3  -3   43.36    0.58 
   0  -3  -3   44.48    0.99 
  -1  -3  -3   54.66    1.06 
  -1  -3  -3   52.27    0.74 
  -2  -3  -3   32.39    0.78 
  -2  -3  -3   32.04    0.61 
  -3  -3  -3    1.80    0.21 
  -4  -3  -3    0.74    0.19 
  -5  -3  -3    0.28    0.17 
  -6  -3  -3    0.03    0.18 
  -7  -3  -3    0.40    0.25 
  -8  -3  -3   -0.06    0.20 
  -9  -3  -3    0.20    0.25 
 -10  -3  -3    0.12    0.27 
   7  -4  -3    0.23    0.37 
   6  -4  -3    0.20    0.32 
   5  -4  -3    1.75    0.40 
   4  -4  -3    0.34    0.23 
   3  -4  -3    4.63    0.24 
   3  -4  -3    4.48    0.49 
   2  -4  -3    0.04    0.06 
   2  -4  -3    0.06    0.19 
   1  -4  -3    0.07    0.07 
   1  -4  -3    0.19    0.14 
   0  -4  -3   62.42    1.29 
   0  -4  -3   62.17    0.86 
  -1  -4  -3  236.99    2.41 
  -1  -4  -3  240.06    3.06 
  -2  -4  -3   -0.06    0.09 
  -2  -4  -3    0.06    0.13 
  -3  -4  -3    0.51    0.17 
  -4  -4  -3   16.66    0.57 
  -5  -4  -3    1.60    0.29 
  -6  -4  -3    0.80    0.25 
  -7  -4  -3   -0.19    0.17 
  -8  -4  -3    0.36    0.25 
  -9  -4  -3    0.16    0.28 
 -10  -4  -3    1.12    0.38 
   6  -5  -3    0.00    0.26 
   5  -5  -3    0.00    0.25 
   4  -5  -3    0.27    0.25 
   3  -5  -3    0.54    0.28 
   2  -5  -3    3.84    0.22 
   2  -5  -3    3.75    0.48 
   1  -5  -3    0.25    0.11 
   1  -5  -3    0.26    0.22 
   0  -5  -3    6.23    0.46 
   0  -5  -3    6.82    0.30 
  -1  -5  -3    4.97    0.40 
  -1  -5  -3    4.83    0.27 
  -2  -5  -3   51.72    0.95 
  -2  -5  -3   50.99    1.18 
  -3  -5  -3    0.18    0.14 
  -3  -5  -3   -0.02    0.13 
  -4  -5  -3    2.49    0.31 
  -5  -5  -3    0.46    0.23 
  -6  -5  -3    0.20    0.21 
  -7  -5  -3    3.57    0.46 
  -8  -5  -3    2.13    0.42 
  -9  -5  -3    1.27    0.37 
 -10  -5  -3    0.09    0.29 
   5  -6  -3    0.01    0.28 
   4  -6  -3    0.16    0.25 
   3  -6  -3    0.43    0.32 
   2  -6  -3    5.72    0.60 
   1  -6  -3    2.30    0.42 
   0  -6  -3    2.79    0.42 
   0  -6  -3    2.96    0.26 
  -1  -6  -3    1.90    0.24 
  -1  -6  -3    1.78    0.35 
  -2  -6  -3    6.56    0.48 
  -2  -6  -3    6.17    0.35 
  -3  -6  -3    3.92    0.42 
  -3  -6  -3    4.33    0.34 
  -4  -6  -3    3.71    0.43 
  -4  -6  -3    4.43    0.40 
  -5  -6  -3   -0.03    0.17 
  -6  -6  -3    1.68    0.35 
  -7  -6  -3    0.13    0.24 
  -8  -6  -3    0.35    0.31 
  -9  -6  -3    0.02    0.29 
 -10  -6  -3    0.20    0.32 
   4  -7  -3    0.11    0.31 
   3  -7  -3    0.57    0.34 
   2  -7  -3    1.37    0.42 
   1  -7  -3    0.76    0.33 
   0  -7  -3    1.35    0.37 
   0  -7  -3    1.41    0.21 
  -1  -7  -3    1.77    0.37 
  -1  -7  -3    1.94    0.26 
  -2  -7  -3    1.38    0.25 
  -2  -7  -3    1.73    0.36 
  -3  -7  -3    1.69    0.36 
  -3  -7  -3    1.48    0.26 
  -4  -7  -3   -0.02    0.21 
  -4  -7  -3    0.19    0.19 
  -5  -7  -3    1.83    0.34 
  -5  -7  -3    1.35    0.35 
  -6  -7  -3    2.66    0.41 
  -7  -7  -3   12.76    0.74 
  -8  -7  -3    2.64    0.46 
  -9  -7  -3    0.30    0.27 
 -10  -7  -3    0.28    0.26 
   3  -8  -3    0.32    0.33 
   2  -8  -3    0.14    0.31 
   1  -8  -3   -0.01    0.30 
   0  -8  -3    0.52    0.30 
  -1  -8  -3    0.28    0.28 
  -1  -8  -3    0.10    0.17 
  -2  -8  -3    0.02    0.16 
  -2  -8  -3   -0.11    0.22 
  -3  -8  -3   -0.04    0.14 
  -3  -8  -3    0.11    0.23 
  -4  -8  -3    0.19    0.27 
  -4  -8  -3    0.44    0.22 
  -5  -8  -3    1.36    0.32 
  -5  -8  -3    1.45    0.36 
  -6  -8  -3   -0.13    0.26 
  -6  -8  -3   -0.04    0.21 
  -7  -8  -3    0.19    0.24 
  -7  -8  -3   -0.22    0.31 
  -8  -8  -3    1.04    0.35 
  -9  -8  -3   -0.37    0.25 
   2  -9  -3    0.13    0.36 
   1  -9  -3    0.05    0.32 
   0  -9  -3    0.02    0.36 
  -1  -9  -3    0.19    0.30 
  -2  -9  -3   -0.25    0.20 
  -2  -9  -3    0.01    0.28 
  -3  -9  -3   -0.04    0.16 
  -3  -9  -3   -0.10    0.24 
  -4  -9  -3    0.93    0.33 
  -4  -9  -3    0.33    0.23 
  -5  -9  -3    0.38    0.32 
  -5  -9  -3   -0.06    0.19 
  -6  -9  -3    0.12    0.29 
  -6  -9  -3    0.21    0.28 
  -7  -9  -3    0.27    0.27 
  -7  -9  -3    0.43    0.36 
  -8  -9  -3    0.28    0.29 
   0 -10  -3    0.87    0.44 
  -1 -10  -3    0.67    0.35 
  -2 -10  -3   -0.03    0.30 
  -3 -10  -3    0.73    0.34 
  -4 -10  -3    0.95    0.29 
  -5 -10  -3    0.64    0.27 
  -6 -10  -3   -0.20    0.22 
  -7 -10  -3    0.59    0.31 
  -4 -10   4    0.17    0.30 
  -3 -10   4    0.23    0.31 
  -2 -10   4    0.13    0.30 
  -1 -10   4    0.15    0.31 
   0 -10   4    0.07    0.27 
   1 -10   4   -0.29    0.26 
  -6  -9   4    0.30    0.25 
  -5  -9   4    0.25    0.27 
  -4  -9   4    0.21    0.28 
  -3  -9   4    0.38    0.29 
  -2  -9   4    0.27    0.28 
  -1  -9   4    0.17    0.29 
   0  -9   4    0.30    0.31 
   1  -9   4    0.05    0.28 
   2  -9   4    0.12    0.28 
   3  -9   4    0.57    0.32 
  -7  -8   4    0.02    0.25 
  -6  -8   4    0.11    0.27 
  -5  -8   4    0.35    0.28 
  -4  -8   4    0.20    0.25 
  -3  -8   4    1.71    0.39 
  -2  -8   4    5.15    0.59 
  -1  -8   4    0.50    0.29 
   0  -8   4    0.06    0.21 
   1  -8   4   -0.21    0.21 
   2  -8   4    0.35    0.26 
   3  -8   4    0.28    0.26 
   4  -8   4    0.08    0.24 
  -8  -7   4    0.13    0.25 
  -7  -7   4    0.37    0.24 
  -6  -7   4    0.72    0.28 
  -5  -7   4    0.78    0.28 
  -4  -7   4    0.23    0.22 
  -3  -7   4    2.21    0.37 
  -2  -7   4    5.16    0.52 
  -1  -7   4    2.31    0.37 
   0  -7   4    0.64    0.24 
   1  -7   4   -0.01    0.17 
   2  -7   4   -0.09    0.16 
   3  -7   4    0.32    0.22 
   4  -7   4   -0.07    0.21 
   5  -7   4    0.26    0.26 
   6  -7   4    0.82    0.34 
  -8  -6   4    0.42    0.26 
  -7  -6   4    0.38    0.25 
  -6  -6   4    0.29    0.22 
  -5  -6   4   -0.03    0.18 
   4   6  -4    3.32    0.99 
  -4  -6   4    1.50    0.32 
   3   6  -4   -0.08    0.64 
  -3  -6   4    0.06    0.18 
   2   6  -4    7.45    1.20 
  -2  -6   4    5.10    0.48 
  -1  -6   4    5.05    0.46 
   0  -6   4    0.09    0.15 
   1  -6   4    3.24    0.39 
   2  -6   4    0.21    0.16 
   3  -6   4    0.16    0.18 
   3  -6   4   -0.09    0.15 
   4  -6   4    0.29    0.24 
   4  -6   4    0.30    0.22 
   5  -6   4   -0.27    0.21 
   5  -6   4   -0.06    0.21 
   6  -6   4    0.33    0.26 
   6  -6   4   -0.02    0.23 
   7  -6   4    0.78    0.35 
  -8  -5   4    0.26    0.26 
  -7  -5   4    0.27    0.23 
   6   5  -4   -0.09    0.87 
  -6  -5   4    0.37    0.21 
   5   5  -4    3.10    1.06 
  -5  -5   4    1.96    0.34 
   4   5  -4    0.61    0.80 
  -4  -5   4   -0.01    0.18 
   3   5  -4    8.20    1.23 
  -3  -5   4    4.88    0.43 
   2   5  -4    0.30    0.70 
  -2  -5   4    0.45    0.20 
   1   5  -4    1.96    0.68 
  -1  -5   4    1.17    0.24 
   0   5  -4    4.99    0.83 
   0  -5   4    4.43    0.34 
   1  -5   4   -0.04    0.12 
   1  -5   4    0.10    0.06 
   2  -5   4    1.36    0.20 
   2  -5   4    1.37    0.25 
   3  -5   4    2.09    0.27 
   3  -5   4    2.02    0.30 
   4  -5   4    2.43    0.37 
   4  -5   4    2.69    0.37 
   5  -5   4    0.17    0.19 
   5  -5   4    0.13    0.22 
   6  -5   4    0.16    0.23 
   6  -5   4   -0.07    0.21 
   7  -5   4    0.21    0.26 
   7  -5   4    0.53    0.29 
  -8  -4   4    0.13    0.20 
   7   4  -4    0.17    0.73 
  -7  -4   4    0.12    0.17 
   6   4  -4    0.37    0.83 
  -6  -4   4    0.11    0.17 
   5   4  -4    2.15    1.03 
  -5  -4   4    1.96    0.32 
   4   4  -4    1.06    0.86 
  -4  -4   4    0.58    0.21 
   3   4  -4    1.52    0.84 
  -3  -4   4    1.16    0.24 
   2   4  -4    8.48    0.83 
  -2  -4   4    9.25    0.45 
   1   4  -4    0.22    0.52 
  -1  -4   4    0.07    0.12 
   0   4  -4   -0.39    0.41 
   0  -4   4    0.03    0.11 
  -1   4  -4    1.13    0.46 
   1  -4   4    1.34    0.22 
   1  -4   4    1.38    0.14 
   2  -4   4   -0.09    0.10 
   2  -4   4    0.22    0.09 
   3  -4   4    2.68    0.32 
   4  -4   4   15.46    0.69 
   4  -4   4   16.55    0.65 
   5  -4   4    8.09    0.56 
   5  -4   4    7.92    0.49 
   6  -4   4   -0.03    0.19 
   6  -4   4   -0.04    0.19 
   7  -4   4    0.33    0.26 
   7  -4   4    0.26    0.23 
   8  -4   4    0.17    0.27 
   8  -4   4    0.33    0.30 
   8   3  -4    0.87    0.34 
  -8  -3   4    1.46    0.32 
   7   3  -4    0.15    0.23 
   7   3  -4    0.02    0.68 
  -7  -3   4    0.37    0.21 
   6   3  -4   -0.09    0.19 
   6   3  -4    0.24    0.76 
  -6  -3   4   -0.15    0.16 
   5   3  -4    0.79    0.19 
   5   3  -4    0.16    0.77 
  -5  -3   4    0.34    0.18 
   4   3  -4    0.99    0.84 
   4   3  -4    0.31    0.12 
  -4  -3   4    0.26    0.18 
   3   3  -4   12.88    0.41 
  -3  -3   4   13.35    0.52 
   2   3  -4    8.62    0.79 
  -2  -3   4    9.65    0.41 
   1   3  -4    8.25    0.72 
  -1  -3   4    8.53    0.38 
   0   3  -4   17.55    0.93 
   0  -3   4   16.99    0.52 
   1  -3   4    8.71    0.38 
   2  -3   4   14.47    0.44 
   2  -3   4   13.75    0.50 
   3  -3   4    0.42    0.14 
   3  -3   4    0.18    0.09 
   4  -3   4    0.58    0.16 
   4  -3   4    0.39    0.16 
   5  -3   4    1.17    0.28 
   5  -3   4    1.07    0.25 
   6  -3   4   -0.09    0.17 
   6  -3   4   -0.04    0.17 
   7  -3   4   -0.06    0.22 
  -8   3  -4    0.08    0.22 
   8  -3   4   -0.06    0.21 
  -9   3  -4   -0.04    0.18 
   9  -3   4    0.08    0.21 
   9   2  -4    0.15    0.40 
   8   2  -4   -0.07    0.30 
   7   2  -4   -0.34    0.67 
   7   2  -4    0.00    0.23 
  -7  -2   4    0.17    0.18 
   6   2  -4    1.19    0.30 
   6   2  -4    0.55    0.66 
  -6  -2   4    1.01    0.24 
   5   2  -4    0.32    0.71 
   5   2  -4    2.26    0.31 
  -5  -2   4    1.73    0.28 
   4   2  -4    1.32    0.22 
   4   2  -4    2.21    0.69 
  -4  -2   4    1.15    0.22 
   3   2  -4    2.16    0.19 
   3   2  -4    2.42    0.63 
  -3  -2   4    2.27    0.25 
   2   2  -4   42.80    0.73 
   2   2  -4   44.21    1.51 
  -2  -2   4   44.39    0.82 
   1   2  -4    0.42    0.46 
   1   2  -4    0.24    0.05 
  -1  -2   4    0.23    0.11 
   0   2  -4   25.03    1.02 
   0  -2   4   24.55    0.56 
  -1   2  -4   64.28    1.60 
   1  -2   4   66.64    1.02 
   2  -2   4   68.75    1.10 
   3  -2   4   12.50    0.47 
   3  -2   4   13.02    0.47 
   4  -2   4    0.02    0.10 
   4  -2   4    0.17    0.09 
   5  -2   4    3.55    0.36 
   5  -2   4    3.38    0.40 
   6  -2   4    2.25    0.34 
   6  -2   4    2.64    0.42 
   7  -2   4    0.40    0.23 
   7  -2   4    0.46    0.26 
  -8   2  -4    0.18    0.19 
   8  -2   4    0.14    0.23 
  -9   2  -4    0.30    0.19 
   9  -2   4   -0.02    0.24 
   8   1  -4    0.07    0.30 
   7   1  -4   -0.18    0.22 
   6   1  -4    2.45    0.42 
   6   1  -4    0.63    0.63 
  -6  -1   4    0.00    0.11 
   5   1  -4    0.37    0.68 
   5   1  -4    0.92    0.26 
  -5  -1   4    0.10    0.07 
   4   1  -4   15.13    0.60 
   4   1  -4   14.71    0.94 
  -4  -1   4   13.97    0.49 
   3   1  -4    4.38    0.29 
   3   1  -4    5.40    0.60 
  -3  -1   4    4.67    0.26 
   2   1  -4  130.36    1.73 
   2   1  -4  132.94    2.81 
  -2  -1   4  132.96    1.56 
   1   1  -4    1.70    0.15 
   1   1  -4    2.34    0.51 
  -1  -1   4    1.47    0.14 
   0   1  -4   40.19    0.61 
   0   1  -4   40.59    1.23 
   0  -1   4   39.70    0.65 
  -1   1  -4    2.99    0.48 
   1  -1   4    2.51    0.18 
   2  -1   4    3.22    0.22 
   3  -1   4    0.24    0.12 
   4  -1   4    7.77    0.41 
   4  -1   4    7.69    0.37 
   5  -1   4    5.08    0.38 
   5  -1   4    4.58    0.33 
   6  -1   4    1.94    0.29 
   6  -1   4    2.00    0.35 
  -7   1  -4    0.49    0.21 
   7  -1   4    0.70    0.25 
  -8   1  -4   -0.16    0.16 
   8  -1   4    0.12    0.22 
  -9   1  -4    0.10    0.19 
   9  -1   4   -0.05    0.28 
 -10   1  -4    0.32    0.23 
   8   0  -4   -0.03    0.32 
   7   0  -4    0.12    0.27 
   6   0  -4    4.04    0.52 
   5   0  -4    5.40    0.51 
   5   0  -4    2.70    0.58 
  -5   0   4    5.05    0.33 
   4   0  -4   17.40    0.67 
   4   0  -4   15.47    0.94 
  -4   0   4   17.60    0.53 
   3   0  -4    3.31    0.64 
   3   0  -4    2.69    0.30 
  -3   0   4    2.69    0.21 
   2   0  -4   18.54    0.56 
   2   0  -4   18.88    0.92 
  -2   0   4   17.94    0.40 
   1   0  -4   71.60    1.12 
   1   0  -4   72.79    1.81 
  -1   0   4   72.32    0.84 
   0   0  -4    0.07    0.09 
   0   0   4    0.11    0.05 
   1   0   4    0.11    0.04 
   2   0   4    3.12    0.19 
   3   0   4    6.19    0.29 
   4   0   4   12.96    0.46 
   5   0   4    0.19    0.12 
  -6   0  -4    0.94    0.24 
  -7   0  -4    0.02    0.16 
  -8   0  -4    0.27    0.21 
  -9   0  -4    0.15    0.19 
 -10   0  -4    0.73    0.30 
   8  -1  -4   -0.21    0.32 
   7  -1  -4    0.10    0.27 
   6  -1  -4    5.22    0.61 
   5  -1  -4    3.24    0.46 
   4  -1  -4    3.15    0.40 
  -4   1   4    3.14    0.25 
   3  -1  -4    4.00    0.34 
  -3   1   4    4.26    0.22 
   2  -1  -4   48.04    1.03 
  -2   1   4   48.36    0.65 
   1  -1  -4    6.99    0.35 
   0  -1  -4   23.49    0.60 
  -1  -1  -4   33.75    0.71 
   1   1   4   33.34    0.47 
   2   1   4   33.07    0.57 
  -3  -1  -4   14.04    0.44 
  -4  -1  -4    6.12    0.34 
  -5  -1  -4   13.46    0.53 
  -6  -1  -4    0.67    0.21 
  -7  -1  -4    1.73    0.32 
  -8  -1  -4    5.13    0.52 
  -9  -1  -4    0.28    0.23 
 -10  -1  -4    0.12    0.26 
   8  -2  -4    0.56    0.39 
   7  -2  -4   -0.01    0.29 
   6  -2  -4    2.26    0.47 
   5  -2  -4    2.97    0.46 
   4  -2  -4    3.50    0.44 
   3  -2  -4    2.14    0.34 
   3  -2  -4    0.91    0.46 
  -3   2   4    2.34    0.17 
   2  -2  -4    0.58    0.18 
  -2   2   4    0.76    0.09 
   1  -2  -4    0.19    0.13 
   0  -2  -4    0.01    0.09 
  -1  -2  -4   23.86    0.39 
  -1  -2  -4   24.70    0.65 
  -2  -2  -4    2.26    0.17 
  -3  -2  -4   59.20    0.96 
  -4  -2  -4    8.59    0.40 
  -5  -2  -4    5.43    0.37 
  -6  -2  -4    0.68    0.22 
  -7  -2  -4    0.53    0.24 
  -8  -2  -4    0.13    0.20 
  -9  -2  -4   -0.08    0.22 
 -10  -2  -4   -0.13    0.23 
   7  -3  -4   -0.06    0.32 
   6  -3  -4    1.65    0.44 
   5  -3  -4   10.37    0.70 
   4  -3  -4    1.77    0.38 
   3  -3  -4   -0.06    0.16 
   2  -3  -4    0.08    0.18 
  -2   3   4    0.13    0.07 
   1  -3  -4   14.68    0.25 
   1  -3  -4   15.23    0.61 
   0  -3  -4    0.17    0.04 
   0  -3  -4   -0.09    0.13 
  -1  -3  -4   29.93    0.81 
  -1  -3  -4   30.41    0.49 
  -2  -3  -4    5.93    0.37 
  -2  -3  -4    5.22    0.25 
  -3  -3  -4    0.89    0.17 
  -4  -3  -4    4.20    0.30 
  -5  -3  -4    0.40    0.18 
  -6  -3  -4    4.25    0.42 
  -7  -3  -4    1.74    0.33 
  -8  -3  -4    1.70    0.36 
  -9  -3  -4    0.14    0.22 
 -10  -3  -4   -0.24    0.21 
   6  -4  -4   -0.03    0.29 
   5  -4  -4    0.17    0.29 
   4  -4  -4    0.68    0.30 
   3  -4  -4    0.04    0.19 
   2  -4  -4    3.38    0.43 
   1  -4  -4    0.13    0.05 
   1  -4  -4    0.25    0.20 
   0  -4  -4   42.56    1.09 
   0  -4  -4   42.27    0.62 
  -1  -4  -4   97.47    1.18 
  -1  -4  -4   98.79    1.73 
  -2  -4  -4    0.34    0.16 
  -2  -4  -4    0.41    0.12 
  -3  -4  -4   31.37    0.72 
  -3  -4  -4   31.71    0.90 
  -4  -4  -4   41.27    0.93 
  -5  -4  -4    9.55    0.50 
  -6  -4  -4    0.10    0.18 
  -7  -4  -4    0.05    0.20 
  -8  -4  -4    2.07    0.38 
  -9  -4  -4    0.31    0.26 
 -10  -4  -4    0.99    0.36 
   6  -5  -4    0.25    0.31 
   5  -5  -4    0.41    0.33 
   4  -5  -4    0.08    0.25 
   3  -5  -4    0.35    0.25 
   2  -5  -4    0.07    0.24 
   1  -5  -4    5.07    0.52 
   0  -5  -4    2.13    0.37 
   0  -5  -4    2.06    0.17 
  -1  -5  -4   10.23    0.35 
  -1  -5  -4   10.22    0.58 
  -2  -5  -4    0.63    0.16 
  -2  -5  -4    0.57    0.20 
  -3  -5  -4    0.05    0.15 
  -3  -5  -4    0.10    0.14 
  -4  -5  -4    0.15    0.18 
  -4  -5  -4    0.27    0.18 
  -5  -5  -4    0.88    0.26 
  -6  -5  -4    0.58    0.25 
  -7  -5  -4    1.97    0.39 
  -8  -5  -4    0.16    0.25 
  -9  -5  -4   -0.28    0.21 
 -10  -5  -4   -0.11    0.25 
   5  -6  -4   -0.19    0.24 
   4  -6  -4    0.25    0.29 
   3  -6  -4    0.24    0.28 
   2  -6  -4    0.91    0.34 
   1  -6  -4    0.07    0.22 
   0  -6  -4    6.12    0.51 
  -1  -6  -4   43.83    1.27 
  -1  -6  -4   45.48    0.86 
  -2  -6  -4   15.34    0.52 
  -2  -6  -4   14.62    0.70 
  -3  -6  -4    3.15    0.41 
  -3  -6  -4    2.74    0.30 
  -4  -6  -4    0.69    0.21 
  -4  -6  -4    0.63    0.27 
  -5  -6  -4    0.01    0.17 
  -5  -6  -4    0.45    0.23 
  -6  -6  -4    0.53    0.24 
  -7  -6  -4    0.54    0.27 
  -8  -6  -4   -0.10    0.25 
  -9  -6  -4    0.28    0.29 
 -10  -6  -4    0.90    0.37 
   4  -7  -4   -0.07    0.28 
   3  -7  -4    0.36    0.32 
   2  -7  -4    0.27    0.28 
   1  -7  -4    2.39    0.48 
   0  -7  -4    0.00    0.24 
  -1  -7  -4    0.10    0.25 
  -1  -7  -4   -0.06    0.09 
  -2  -7  -4    2.52    0.28 
  -2  -7  -4    2.48    0.42 
  -3  -7  -4    0.67    0.30 
  -3  -7  -4    1.06    0.23 
  -4  -7  -4    0.35    0.18 
  -4  -7  -4    0.18    0.23 
  -5  -7  -4    1.05    0.26 
  -5  -7  -4    0.87    0.31 
  -6  -7  -4   -0.23    0.18 
  -6  -7  -4    0.07    0.27 
  -7  -7  -4    3.74    0.49 
  -8  -7  -4    1.82    0.38 
  -9  -7  -4    0.24    0.28 
 -10  -7  -4    0.16    0.27 
   3  -8  -4    0.15    0.33 
   2  -8  -4    0.80    0.38 
   1  -8  -4    0.78    0.41 
   0  -8  -4    0.58    0.32 
  -1  -8  -4    0.13    0.27 
  -2  -8  -4    0.25    0.18 
  -2  -8  -4    0.22    0.27 
  -3  -8  -4    0.61    0.30 
  -3  -8  -4    0.81    0.23 
  -4  -8  -4    0.13    0.17 
  -4  -8  -4    0.10    0.26 
  -5  -8  -4    0.16    0.22 
  -5  -8  -4    0.07    0.26 
  -6  -8  -4    0.99    0.31 
  -6  -8  -4    1.04    0.37 
  -7  -8  -4   -0.27    0.26 
  -7  -8  -4    0.11    0.25 
  -8  -8  -4    0.01    0.27 
  -9  -8  -4    0.25    0.30 
   2  -9  -4    0.26    0.34 
   1  -9  -4    0.61    0.39 
   0  -9  -4    0.98    0.43 
  -1  -9  -4    0.99    0.38 
  -2  -9  -4    0.23    0.29 
  -3  -9  -4   -0.15    0.27 
  -4  -9  -4   -0.01    0.18 
  -4  -9  -4    0.28    0.29 
  -5  -9  -4   -0.02    0.20 
  -5  -9  -4    0.05    0.29 
  -6  -9  -4    1.13    0.34 
  -6  -9  -4    0.29    0.33 
  -7  -9  -4    3.27    0.59 
  -7  -9  -4    2.59    0.48 
  -8  -9  -4    1.03    0.45 
  -8  -9  -4    1.95    0.45 
   0 -10  -4    0.45    0.40 
  -1 -10  -4    0.43    0.34 
  -2 -10  -4    0.42    0.34 
  -3 -10  -4    0.08    0.31 
  -4 -10  -4    0.78    0.36 
  -5 -10  -4    0.48    0.35 
  -5 -10  -4    0.50    0.27 
  -6 -10  -4   -0.17    0.31 
  -6 -10  -4    0.33    0.26 
  -7 -10  -4    0.24    0.28 
  -3 -10   5    0.13    0.27 
  -2 -10   5    0.13    0.31 
  -1 -10   5    0.44    0.36 
   0 -10   5    0.17    0.31 
  -5  -9   5   -0.15    0.22 
  -4  -9   5    0.14    0.28 
  -3  -9   5    0.18    0.27 
  -2  -9   5    0.33    0.29 
  -1  -9   5    0.28    0.31 
   0  -9   5    0.15    0.28 
   1  -9   5    0.02    0.29 
   2  -9   5    0.32    0.29 
   3  -9   5    0.56    0.32 
  -6  -8   5    0.25    0.25 
  -5  -8   5    0.15    0.24 
  -4  -8   5   -0.17    0.22 
  -3  -8   5    0.19    0.27 
  -2  -8   5    0.30    0.26 
  -1  -8   5    0.25    0.26 
   0  -8   5    0.09    0.25 
   1  -8   5    0.19    0.27 
   2  -8   5    0.06    0.23 
   3  -8   5    0.08    0.25 
   4  -8   5    0.09    0.27 
  -7  -7   5    0.26    0.24 
  -6  -7   5    0.04    0.22 
  -5  -7   5    0.02    0.21 
  -4  -7   5    0.17    0.21 
  -3  -7   5    0.52    0.28 
  -2  -7   5    0.48    0.26 
  -1  -7   5    1.16    0.32 
   0  -7   5    0.78    0.28 
   1  -7   5    0.38    0.23 
   2  -7   5    0.12    0.20 
   3  -7   5   -0.16    0.21 
   4  -7   5    0.05    0.23 
   5  -7   5    0.23    0.27 
  -8  -6   5    0.18    0.24 
  -7  -6   5    0.29    0.23 
   6   6  -5    1.01    1.09 
  -6  -6   5    0.26    0.22 
   5   6  -5   -0.08    0.82 
  -5  -6   5    0.13    0.21 
   4   6  -5    0.58    0.79 
  -4  -6   5    0.16    0.18 
   3   6  -5    0.44    0.82 
  -3  -6   5    0.55    0.24 
   2   6  -5    1.57    0.85 
  -2  -6   5    1.41    0.31 
   1   6  -5    4.14    0.98 
  -1  -6   5    1.86    0.34 
   0   6  -5    3.55    0.92 
   0  -6   5    2.63    0.39 
   1  -6   5    0.42    0.20 
   2  -6   5    0.39    0.20 
   3  -6   5    0.09    0.18 
   4  -6   5    0.33    0.24 
   5  -6   5    0.10    0.23 
   6  -6   5    0.07    0.27 
  -8  -5   5    0.02    0.21 
   7   5  -5    0.08    0.87 
  -7  -5   5    0.40    0.23 
   6   5  -5   -0.28    0.96 
  -6  -5   5   -0.07    0.18 
   5   5  -5    3.52    1.23 
  -5  -5   5    2.53    0.37 
   4   5  -5   -0.80    0.79 
  -4  -5   5    0.31    0.19 
   3   5  -5    3.83    1.09 
  -3  -5   5    3.08    0.38 
   2   5  -5   20.43    1.34 
  -2  -5   5   19.64    0.73 
   1   5  -5   16.69    1.19 
  -1  -5   5   17.71    0.68 
   0   5  -5   -0.12    0.59 
   0  -5   5    0.37    0.19 
  -1   5  -5    5.30    0.64 
   1  -5   5    4.72    0.42 
   2  -5   5    0.67    0.21 
   3  -5   5    0.48    0.19 
   3  -5   5    0.23    0.10 
   4  -5   5    3.97    0.45 
   5  -5   5    0.12    0.20 
   5  -5   5    0.01    0.19 
   6  -5   5    0.29    0.28 
   6  -5   5    0.28    0.24 
   7  -5   5    0.00    0.23 
   7  -5   5    0.07    0.27 
   8   4  -5    0.39    0.74 
   7   4  -5    0.70    0.80 
  -7  -4   5    0.24    0.21 
   6   4  -5   -0.37    0.89 
  -6  -4   5    0.25    0.19 
   5   4  -5    2.03    1.02 
  -5  -4   5    1.56    0.29 
   4   4  -5    0.19    0.89 
  -4  -4   5    0.27    0.18 
   3   4  -5    3.82    1.05 
   2   4  -5    2.15    0.81 
  -2  -4   5    1.49    0.25 
   1   4  -5   12.68    0.98 
  -1  -4   5   11.76    0.50 
   0   4  -5    1.59    0.62 
   0  -4   5    1.67    0.25 
  -1   4  -5    1.61    0.58 
   1  -4   5    1.56    0.26 
   2  -4   5    0.40    0.17 
   2  -4   5    0.62    0.11 
   3  -4   5    1.11    0.19 
   3  -4   5    1.19    0.24 
   4  -4   5    0.81    0.19 
   4  -4   5    0.78    0.22 
   5  -4   5    1.67    0.33 
   5  -4   5    1.85    0.33 
   6  -4   5   -0.05    0.21 
   6  -4   5   -0.09    0.18 
   7  -4   5    0.26    0.28 
   7  -4   5    0.08    0.23 
   8  -4   5    0.18    0.24 
   8  -4   5    0.19    0.29 
   7   3  -5    0.00    0.79 
  -7  -3   5    0.37    0.18 
   6   3  -5    0.39    0.79 
   6   3  -5    0.75    0.25 
  -6  -3   5    0.74    0.23 
   5   3  -5    1.72    0.25 
   5   3  -5    0.78    0.86 
  -5  -3   5    1.46    0.27 
   4   3  -5    1.17    0.19 
  -4  -3   5    0.69    0.21 
   3   3  -5    0.90    0.75 
   3   3  -5    0.79    0.13 
  -3  -3   5    0.60    0.17 
   2   3  -5    8.50    0.80 
   2   3  -5    8.05    0.24 
  -2  -3   5    8.51    0.40 
   1   3  -5    0.33    0.47 
  -1  -3   5    0.01    0.10 
   0   3  -5    2.09    0.60 
   0  -3   5    1.87    0.24 
  -1   3  -5   11.79    0.79 
   1  -3   5   12.48    0.47 
   2  -3   5    2.01    0.26 
   3  -3   5    0.10    0.08 
   3  -3   5    0.07    0.12 
   4  -3   5    8.85    0.47 
   4  -3   5    8.45    0.46 
   5  -3   5    0.72    0.24 
   5  -3   5    0.79    0.24 
   6  -3   5    0.00    0.17 
   6  -3   5   -0.06    0.18 
   7  -3   5   -0.11    0.21 
   7  -3   5    0.02    0.22 
   8  -3   5    0.04    0.25 
   8  -3   5    0.18    0.28 
  -9   3  -5    0.14    0.19 
   9  -3   5    0.14    0.27 
   8   2  -5    0.39    0.36 
   7   2  -5    0.30    0.70 
   7   2  -5    0.35    0.29 
   6   2  -5    0.48    0.76 
   6   2  -5    0.80    0.30 
  -6  -2   5    0.68    0.20 
   5   2  -5    0.15    0.19 
   5   2  -5    0.01    0.70 
  -5  -2   5   -0.02    0.13 
   4   2  -5    1.78    0.82 
   4   2  -5    1.90    0.26 
  -4  -2   5    1.30    0.23 
   3   2  -5    2.57    0.78 
   3   2  -5    2.14    0.23 
  -3  -2   5    1.48    0.21 
   2   2  -5   -0.26    0.39 
   2   2  -5    0.06    0.06 
  -2  -2   5   -0.04    0.09 
   1   2  -5   23.16    1.13 
   1   2  -5   22.79    0.44 
  -1  -2   5   22.87    0.57 
   0   2  -5    0.27    0.48 
   0   2  -5    0.12    0.06 
   0  -2   5    0.21    0.10 
  -1   2  -5   46.88    1.45 
   1  -2   5   47.07    0.87 
   2  -2   5   11.20    0.43 
   3  -2   5    9.00    0.41 
   4  -2   5    0.08    0.14 
   4  -2   5    0.09    0.10 
   5  -2   5   26.83    0.82 
   6  -2   5    2.55    0.40 
   6  -2   5    2.94    0.39 
   7  -2   5    0.24    0.21 
   7  -2   5    0.02    0.19 
  -8   2  -5   -0.03    0.17 
   8  -2   5    0.02    0.28 
  -9   2  -5    0.17    0.21 
   9  -2   5    0.12    0.30 
   8   1  -5    0.17    0.36 
   7   1  -5    1.58    0.42 
   6   1  -5    0.12    0.25 
   5   1  -5    0.62    0.66 
   5   1  -5    0.21    0.20 
  -5  -1   5    0.33    0.15 
   4   1  -5    0.88    0.75 
   4   1  -5    0.15    0.13 
  -4  -1   5    0.02    0.13 
   3   1  -5    3.45    0.71 
   3   1  -5    2.62    0.29 
  -3  -1   5    2.45    0.23 
   2   1  -5    2.41    0.23 
   2   1  -5    4.02    0.69 
  -2  -1   5    2.61    0.19 
   1   1  -5    1.01    0.48 
   1   1  -5    0.68    0.13 
  -1  -1   5    0.71    0.12 
   0   1  -5    0.72    0.12 
   0   1  -5    1.27    0.50 
  -1   1  -5   28.38    1.08 
   1  -1   5   29.40    0.61 
  -2   1  -5    0.52    0.42 
   2  -1   5    0.72    0.17 
   3  -1   5    1.30    0.20 
   4  -1   5    0.05    0.08 
   5  -1   5    1.67    0.27 
   6  -1   5    0.88    0.23 
  -7   1  -5    0.18    0.19 
  -8   1  -5   -0.12    0.15 
  -9   1  -5    0.10    0.21 
 -10   1  -5    0.97    0.30 
   8   0  -5    0.11    0.33 
   7   0  -5   -0.05    0.28 
   6   0  -5    0.39    0.27 
   5   0  -5    0.30    0.23 
   5   0  -5    0.97    0.67 
   4   0  -5    0.16    0.19 
   4   0  -5    0.16    0.63 
  -4   0   5    0.31    0.14 
   3   0  -5    7.23    0.69 
   3   0  -5    8.41    0.45 
  -3   0   5    7.89    0.31 
   2   0  -5   11.07    0.79 
   2   0  -5   12.02    0.48 
  -2   0   5   11.58    0.31 
   1   0  -5   11.51    0.77 
   1   0  -5   11.12    0.42 
  -1   0   5   11.43    0.28 
   0   0  -5    8.38    0.34 
   0   0   5    8.61    0.25 
  -1   0  -5   99.51    1.39 
   1   0   5   96.03    1.19 
   2   0   5   61.03    0.94 
   3   0   5    8.22    0.34 
   4   0   5   10.39    0.43 
   5   0   5    3.00    0.32 
  -6   0  -5    2.75    0.37 
  -7   0  -5    0.51    0.21 
  -8   0  -5    0.55    0.21 
  -9   0  -5    0.23    0.22 
 -10   0  -5   -0.15    0.24 
   7  -1  -5    0.28    0.32 
   6  -1  -5    0.01    0.25 
   5  -1  -5    3.52    0.48 
   4  -1  -5   -0.06    0.60 
   4  -1  -5    0.93    0.27 
   3  -1  -5    0.10    0.39 
   3  -1  -5    0.42    0.20 
  -3   1   5    0.53    0.11 
   2  -1  -5   16.64    0.96 
   2  -1  -5   16.59    0.62 
  -2   1   5   17.07    0.31 
   1  -1  -5    0.26    0.13 
   0  -1  -5   13.64    0.49 
   0   1   5   13.89    0.22 
  -1  -1  -5   10.01    0.40 
   1   1   5    9.95    0.25 
   2   1   5   10.81    0.31 
   3   1   5    3.49    0.22 
  -4  -1  -5   13.79    0.51 
  -5  -1  -5    0.07    0.14 
  -6  -1  -5    8.78    0.48 
  -7  -1  -5    0.01    0.15 
  -8  -1  -5    1.06    0.29 
  -9  -1  -5    0.01    0.23 
 -10  -1  -5    0.76    0.31 
   7  -2  -5    0.39    0.36 
   6  -2  -5    1.91    0.46 
   5  -2  -5    1.32    0.39 
   4  -2  -5    0.68    0.27 
   3  -2  -5    0.08    0.45 
   3  -2  -5    0.36    0.22 
   2  -2  -5   27.31    0.85 
   1  -2  -5   -0.01    0.11 
   0  -2  -5    6.27    0.38 
  -1  -2  -5   12.09    0.50 
  -1  -2  -5   12.11    0.26 
  -2  -2  -5   49.98    1.06 
  -2  -2  -5   50.20    0.76 
  -3  -2  -5    7.29    0.32 
  -4  -2  -5   11.62    0.45 
  -5  -2  -5    0.37    0.18 
  -6  -2  -5    0.17    0.19 
  -7  -2  -5   -0.16    0.16 
  -8  -2  -5    1.15    0.31 
  -9  -2  -5   -0.04    0.21 
 -10  -2  -5    0.40    0.26 
   7  -3  -5   -0.06    0.33 
   6  -3  -5    0.40    0.33 
   5  -3  -5    9.12    0.71 
   4  -3  -5    3.28    0.50 
   3  -3  -5    1.19    0.31 
   2  -3  -5    0.15    0.19 
   1  -3  -5    1.73    0.30 
   0  -3  -5   22.29    0.76 
  -1  -3  -5   17.72    0.33 
  -1  -3  -5   17.46    0.65 
  -2  -3  -5    9.22    0.46 
  -2  -3  -5    8.83    0.31 
  -3  -3  -5   10.35    0.39 
  -4  -3  -5   18.45    0.58 
  -5  -3  -5    2.27    0.30 
  -6  -3  -5   -0.10    0.16 
  -7  -3  -5    0.18    0.20 
  -8  -3  -5    7.90    0.57 
  -9  -3  -5    0.41    0.28 
 -10  -3  -5    0.17    0.24 
   6  -4  -5    0.05    0.31 
   5  -4  -5    0.19    0.32 
   4  -4  -5    1.47    0.38 
   3  -4  -5    0.24    0.24 
   2  -4  -5    0.89    0.28 
   1  -4  -5    3.71    0.44 
   0  -4  -5    0.51    0.24 
   0  -4  -5    0.32    0.06 
  -1  -4  -5    1.46    0.28 
  -1  -4  -5    0.86    0.11 
  -2  -4  -5    0.61    0.19 
  -2  -4  -5    1.10    0.16 
  -3  -4  -5    0.07    0.13 
  -3  -4  -5    0.18    0.14 
  -4  -4  -5    9.67    0.45 
  -5  -4  -5    4.31    0.39 
  -6  -4  -5    5.55    0.47 
  -7  -4  -5   -0.16    0.17 
  -8  -4  -5    0.03    0.22 
  -9  -4  -5    0.03    0.24 
 -10  -4  -5    0.02    0.27 
   5  -5  -5    2.54    0.55 
   4  -5  -5    1.34    0.43 
   3  -5  -5    0.54    0.28 
   2  -5  -5    0.06    0.23 
   1  -5  -5    0.22    0.26 
   0  -5  -5   -0.04    0.18 
  -1  -5  -5    5.07    0.24 
  -1  -5  -5    5.28    0.50 
  -2  -5  -5    2.93    0.24 
  -2  -5  -5    1.70    0.33 
  -3  -5  -5    0.78    0.19 
  -3  -5  -5    0.72    0.25 
  -4  -5  -5   16.64    0.62 
  -4  -5  -5   17.21    0.77 
  -5  -5  -5    1.77    0.32 
  -6  -5  -5    1.47    0.30 
  -7  -5  -5    0.82    0.28 
  -8  -5  -5    0.14    0.24 
  -9  -5  -5   -0.24    0.25 
 -10  -5  -5    0.16    0.25 
   5  -6  -5    0.19    0.28 
   4  -6  -5    0.22    0.31 
   3  -6  -5    0.57    0.35 
   2  -6  -5    0.19    0.29 
   1  -6  -5    0.55    0.28 
   0  -6  -5    0.47    0.29 
  -1  -6  -5   27.22    1.04 
  -2  -6  -5   30.80    0.71 
  -2  -6  -5   30.35    1.06 
  -3  -6  -5    0.43    0.26 
  -3  -6  -5    0.67    0.19 
  -4  -6  -5    0.18    0.24 
  -4  -6  -5    0.47    0.20 
  -5  -6  -5    0.80    0.30 
  -5  -6  -5    0.88    0.25 
  -6  -6  -5   -0.02    0.21 
  -7  -6  -5    0.43    0.24 
  -8  -6  -5    0.12    0.26 
  -9  -6  -5    0.14    0.28 
 -10  -6  -5    0.22    0.29 
   4  -7  -5    0.20    0.32 
   3  -7  -5   -0.10    0.27 
   2  -7  -5    0.43    0.32 
   1  -7  -5   -0.04    0.28 
   0  -7  -5    0.87    0.33 
  -1  -7  -5    0.50    0.31 
  -2  -7  -5    0.72    0.31 
  -3  -7  -5    2.15    0.27 
  -3  -7  -5    1.51    0.37 
  -4  -7  -5    1.04    0.34 
  -4  -7  -5    1.38    0.26 
  -5  -7  -5    1.12    0.35 
  -5  -7  -5    1.34    0.28 
  -6  -7  -5    1.39    0.34 
  -6  -7  -5    2.01    0.44 
  -7  -7  -5    0.04    0.21 
  -8  -7  -5    0.23    0.26 
  -9  -7  -5    0.08    0.28 
 -10  -7  -5   -0.14    0.23 
   2  -8  -5    0.52    0.37 
   1  -8  -5    0.09    0.34 
   0  -8  -5   -0.27    0.24 
  -1  -8  -5    5.01    0.63 
  -2  -8  -5   10.44    0.74 
  -3  -8  -5    0.35    0.28 
  -4  -8  -5    1.83    0.42 
  -4  -8  -5    3.34    0.38 
  -5  -8  -5    0.12    0.21 
  -5  -8  -5    0.29    0.29 
  -6  -8  -5    0.03    0.21 
  -6  -8  -5    0.24    0.33 
  -7  -8  -5    0.21    0.24 
  -7  -8  -5   -0.09    0.31 
  -8  -8  -5    0.09    0.26 
  -8  -8  -5    0.77    0.26 
  -9  -8  -5    0.32    0.26 
   1  -9  -5    0.32    0.36 
   0  -9  -5    0.18    0.40 
  -1  -9  -5    0.11    0.30 
  -2  -9  -5   -0.07    0.29 
  -3  -9  -5   -0.15    0.26 
  -4  -9  -5   -0.15    0.24 
  -5  -9  -5    0.59    0.36 
  -5  -9  -5    0.63    0.24 
  -6  -9  -5    0.07    0.30 
  -6  -9  -5    0.45    0.26 
  -7  -9  -5    1.50    0.46 
  -7  -9  -5    1.72    0.42 
  -8  -9  -5    1.35    0.49 
  -8  -9  -5    2.36    0.48 
  -1 -10  -5    0.62    0.37 
  -2 -10  -5    0.06    0.30 
  -3 -10  -5    0.06    0.32 
  -4 -10  -5    0.74    0.38 
  -5 -10  -5   -0.04    0.30 
  -6 -10  -5   -0.12    0.32 
  -6 -10  -5    0.96    0.30 
  -7 -10  -5    0.59    0.39 
  -7 -10  -5    0.19    0.26 
  -4  -9   6    0.51    0.30 
  -3  -9   6    0.16    0.28 
  -2  -9   6   -0.02    0.27 
  -1  -9   6   -0.13    0.25 
   0  -9   6    0.55    0.31 
   1  -9   6   -0.01    0.29 
   2  -9   6    0.47    0.32 
  -6  -8   6    0.00    0.21 
  -5  -8   6   -0.25    0.21 
  -4  -8   6    0.09    0.27 
  -3  -8   6    0.05    0.27 
  -2  -8   6   -0.13    0.23 
  -1  -8   6   -0.15    0.24 
   0  -8   6    0.07    0.25 
   1  -8   6    0.32    0.29 
   2  -8   6    0.23    0.28 
   3  -8   6    0.33    0.29 
   4  -8   6    0.21    0.30 
  -7  -7   6    0.32    0.23 
  -6  -7   6    0.32    0.25 
   5   7  -6   -0.01    0.85 
  -5  -7   6    0.35    0.25 
   4   7  -6   -0.50    0.82 
  -4  -7   6   -0.07    0.18 
   3   7  -6   -0.16    0.78 
  -3  -7   6    0.00    0.19 
   2   7  -6    0.38    0.78 
  -2  -7   6    0.35    0.27 
   1   7  -6   -0.21    0.73 
  -1  -7   6    0.16    0.24 
   0  -7   6    0.11    0.22 
   1  -7   6    0.49    0.26 
   2  -7   6   -0.13    0.20 
   3  -7   6   -0.03    0.24 
   4  -7   6    0.04    0.26 
   5  -7   6    0.30    0.25 
   7   6  -6    0.29    1.07 
  -7  -6   6    0.19    0.23 
   6   6  -6    0.63    1.09 
  -6  -6   6    0.21    0.22 
   5   6  -6   -0.10    0.95 
  -5  -6   6    0.15    0.21 
   4   6  -6    1.38    0.98 
  -4  -6   6    0.94    0.27 
   3   6  -6    3.66    1.14 
  -3  -6   6    2.52    0.40 
   2   6  -6   10.09    1.15 
  -2  -6   6   10.23    0.59 
   1   6  -6    0.09    0.75 
  -1  -6   6   -0.07    0.19 
   0   6  -6    3.18    0.99 
   0  -6   6    1.84    0.33 
  -1   6  -6    1.88    0.80 
   1  -6   6    0.93    0.26 
   2  -6   6    2.13    0.35 
   3  -6   6    0.07    0.19 
   4  -6   6    0.15    0.23 
   5  -6   6    0.19    0.24 
   6  -6   6    0.03    0.26 
   7   5  -6    0.35    0.98 
  -7  -5   6    0.31    0.22 
   6   5  -6    0.96    1.14 
  -6  -5   6    0.20    0.19 
   5   5  -6   -1.00    1.00 
  -5  -5   6   -0.08    0.17 
   4   5  -6    3.37    1.18 
  -4  -5   6    1.78    0.32 
   3   5  -6   -0.63    0.81 
  -3  -5   6   -0.17    0.15 
   2   5  -6    0.53    0.91 
  -2  -5   6    0.10    0.17 
   1   5  -6    5.86    1.16 
  -1  -5   6    5.70    0.43 
   0   5  -6    2.81    0.94 
   0  -5   6    2.68    0.36 
  -1   5  -6    0.64    0.70 
   1  -5   6    0.50    0.20 
   2  -5   6    0.29    0.18 
   3  -5   6    0.51    0.21 
   4  -5   6    0.05    0.18 
   5  -5   6    0.15    0.21 
   6  -5   6    0.19    0.23 
   7  -5   6    0.00    0.24 
   8   4  -6    0.30    0.69 
   7   4  -6    0.08    0.88 
   6   4  -6   -0.28    0.95 
  -6  -4   6   -0.07    0.14 
   5   4  -6    3.01    1.21 
  -5  -4   6    1.49    0.27 
   4   4  -6    0.60    0.97 
  -4  -4   6    0.12    0.17 
   3   4  -6    0.26    0.80 
  -3  -4   6    0.30    0.18 
   2   4  -6    0.46    0.76 
  -2  -4   6    0.77    0.22 
   1   4  -6    1.03    0.72 
  -1  -4   6    2.24    0.31 
   0   4  -6    2.06    0.79 
   0  -4   6    3.00    0.34 
   1  -4   6    0.48    0.18 
   2  -4   6    0.06    0.14 
   3  -4   6    0.43    0.19 
   4  -4   6    0.34    0.13 
   4  -4   6    0.62    0.21 
   5  -4   6    0.34    0.22 
   5  -4   6    0.77    0.27 
   6  -4   6    0.24    0.24 
   6  -4   6    0.45    0.25 
   7  -4   6   -0.14    0.22 
   7  -4   6   -0.10    0.24 
   8  -4   6   -0.09    0.29 
   8  -4   6    0.08    0.35 
   7   3  -6    0.07    0.84 
   6   3  -6    0.30    0.91 
  -6  -3   6    0.17    0.16 
   5   3  -6    1.89    1.01 
  -5  -3   6    2.43    0.32 
   4   3  -6    0.90    0.89 
  -4  -3   6    0.35    0.19 
   3   3  -6    0.99    0.78 
  -3  -3   6    1.32    0.23 
   2   3  -6    1.28    0.74 
  -2  -3   6    1.29    0.22 
   1   3  -6   12.75    1.01 
  -1  -3   6   12.47    0.49 
   0   3  -6    0.23    0.47 
   0  -3   6    0.41    0.13 
  -1   3  -6    0.39    0.51 
   1  -3   6    0.61    0.16 
   2  -3   6    1.60    0.25 
   3  -3   6    0.85    0.21 
   4  -3   6   18.91    0.71 
   5  -3   6    5.47    0.42 
   6  -3   6    0.08    0.25 
   6  -3   6    0.46    0.23 
   7  -3   6    0.14    0.28 
   7  -3   6    0.01    0.21 
   8  -3   6    0.25    0.29 
   6   2  -6    0.09    0.24 
   6   2  -6   -0.25    0.76 
   5   2  -6    0.70    0.86 
   5   2  -6    1.13    0.29 
  -5  -2   6    1.36    0.23 
   4   2  -6    1.60    0.88 
   4   2  -6    0.99    0.20 
  -4  -2   6    0.83    0.18 
   3   2  -6    0.72    0.74 
   3   2  -6    0.68    0.15 
  -3  -2   6    0.59    0.16 
   2   2  -6    0.70    0.66 
   1   2  -6    1.24    0.63 
   1   2  -6    1.35    0.14 
  -1  -2   6    1.16    0.18 
   0   2  -6    0.09    0.06 
   0   2  -6    0.41    0.50 
   0  -2   6    0.18    0.10 
  -1   2  -6    1.26    0.57 
  -1   2  -6    1.01    0.13 
   1  -2   6    1.24    0.19 
  -2   2  -6    6.69    0.63 
   2  -2   6    6.85    0.35 
   3  -2   6    0.34    0.12 
   4  -2   6    4.80    0.37 
   5  -2   6    5.29    0.41 
   6  -2   6    0.60    0.23 
   7  -2   6    0.27    0.23 
  -8   2  -6    0.38    0.27 
  -9   2  -6    0.05    0.22 
   7   1  -6   -0.32    0.26 
   6   1  -6    0.36    0.27 
   6   1  -6    0.28    0.78 
   5   1  -6    1.87    0.89 
   5   1  -6    2.76    0.42 
   4   1  -6    0.29    0.74 
   4   1  -6    0.19    0.17 
  -4  -1   6    0.26    0.13 
   3   1  -6   -0.03    0.11 
   3   1  -6   -0.08    0.65 
  -3  -1   6   -0.11    0.09 
   2   1  -6    6.96    0.97 
   2   1  -6    6.23    0.35 
  -2  -1   6    6.08    0.28 
   1   1  -6    0.82    0.15 
   1   1  -6    1.41    0.55 
  -1  -1   6    0.82    0.14 
   0   1  -6    0.90    0.14 
   0   1  -6    1.34    0.54 
   0  -1   6    0.96    0.15 
  -1   1  -6    2.24    0.58 
  -1   1  -6    1.63    0.18 
   1  -1   6    1.64    0.19 
  -2   1  -6    0.52    0.47 
   2  -1   6    0.46    0.13 
   3  -1   6    1.60    0.22 
   4  -1   6   12.36    0.51 
   4  -1   6   12.36    0.51 
   5  -1   6    4.69    0.41 
   6  -1   6   -0.01    0.15 
   7  -1   6   -0.03    0.19 
  -8   1  -6   -0.19    0.16 
  -9   1  -6   -0.05    0.17 
   7   0  -6    0.38    0.33 
   6   0  -6    0.20    0.26 
   5   0  -6    0.29    0.28 
   5   0  -6    0.41    0.69 
   4   0  -6   -0.51    0.55 
   4   0  -6    0.04    0.19 
   3   0  -6    0.44    0.16 
   3   0  -6   -0.03    0.58 
   2   0  -6    1.67    0.25 
   2   0  -6    1.03    0.56 
  -2   0   6    1.57    0.14 
   1   0  -6    0.05    0.11 
   1   0  -6   -0.09    0.42 
  -1   0   6    0.04    0.05 
   0   0  -6   -0.06    0.08 
   0   0   6    0.03    0.06 
  -1   0  -6   12.74    0.44 
   1   0   6   11.21    0.35 
   2   0   6  166.00    1.93 
   3   0   6    0.20    0.09 
   4   0   6    3.38    0.30 
   5   0   6    2.13    0.29 
  -6   0  -6    6.43    0.47 
  -7   0  -6   -0.02    0.16 
  -8   0  -6    0.16    0.18 
  -9   0  -6    0.27    0.23 
 -10   0  -6    0.17    0.23 
   7  -1  -6    0.06    0.31 
   6  -1  -6    0.92    0.36 
   5  -1  -6    0.52    0.30 
   5  -1  -6   -0.44    0.60 
   4  -1  -6    1.20    0.32 
   4  -1  -6    0.77    0.65 
   3  -1  -6    0.09    0.20 
   3  -1  -6    0.10    0.69 
   2  -1  -6    2.35    0.72 
   2  -1  -6    4.76    0.38 
   1  -1  -6    0.26    0.15 
   0  -1  -6   17.14    0.59 
  -1  -1  -6    0.94    0.20 
   1   1   6    1.04    0.10 
  -2  -1  -6    0.29    0.14 
   2   1   6    0.10    0.07 
   3   1   6    1.77    0.19 
  -4  -1  -6    4.82    0.32 
  -5  -1  -6    0.15    0.15 
  -6  -1  -6    0.82    0.24 
  -7  -1  -6   -0.08    0.17 
  -8  -1  -6   -0.06    0.16 
  -9  -1  -6   -0.02    0.23 
 -10  -1  -6   -0.03    0.24 
   7  -2  -6    0.05    0.35 
   6  -2  -6    0.27    0.32 
   5  -2  -6    0.31    0.27 
   4  -2  -6    0.13    0.61 
   4  -2  -6    2.78    0.45 
   3  -2  -6    1.18    0.74 
   3  -2  -6    1.71    0.35 
   2  -2  -6   20.94    0.79 
   1  -2  -6    6.71    0.44 
   0  -2  -6    0.66    0.19 
  -1  -2  -6    1.54    0.25 
  -1  -2  -6    1.77    0.12 
  -2  -2  -6   53.40    1.15 
  -2  -2  -6   51.89    0.79 
  -3  -2  -6    3.84    0.24 
  -4  -2  -6    0.52    0.17 
  -5  -2  -6    7.74    0.43 
  -6  -2  -6    0.07    0.19 
  -7  -2  -6    0.93    0.26 
  -8  -2  -6    0.22    0.22 
  -9  -2  -6    0.10    0.23 
 -10  -2  -6    0.01    0.24 
   6  -3  -6    0.00    0.31 
   5  -3  -6    1.14    0.39 
   4  -3  -6    3.07    0.49 
   3  -3  -6    0.03    0.21 
   2  -3  -6    1.52    0.33 
   1  -3  -6    0.36    0.21 
   0  -3  -6    0.03    0.16 
  -1  -3  -6    2.33    0.32 
  -1  -3  -6    2.20    0.12 
  -2  -3  -6    0.42    0.12 
  -2  -3  -6    0.50    0.18 
  -3  -3  -6    3.68    0.25 
  -3  -3  -6    4.26    0.40 
  -4  -3  -6    0.13    0.15 
  -5  -3  -6    0.04    0.17 
  -6  -3  -6    0.84    0.26 
  -7  -3  -6    0.04    0.18 
  -8  -3  -6    3.61    0.46 
  -9  -3  -6    0.92    0.33 
 -10  -3  -6    0.01    0.24 
   6  -4  -6    0.00    0.35 
   5  -4  -6    0.58    0.39 
   4  -4  -6   -0.01    0.28 
   3  -4  -6    2.15    0.45 
   2  -4  -6    2.36    0.41 
   1  -4  -6    0.21    0.22 
   0  -4  -6    1.58    0.34 
  -1  -4  -6    0.05    0.17 
  -2  -4  -6    1.64    0.32 
  -2  -4  -6    1.51    0.17 
  -3  -4  -6    0.34    0.15 
  -3  -4  -6   -0.07    0.16 
  -4  -4  -6    2.04    0.27 
  -4  -4  -6    0.39    0.19 
  -5  -4  -6    5.47    0.39 
  -6  -4  -6    0.80    0.25 
  -7  -4  -6    3.72    0.43 
  -8  -4  -6    0.62    0.25 
  -9  -4  -6    0.44    0.26 
 -10  -4  -6    0.10    0.24 
   5  -5  -6    3.63    0.66 
   4  -5  -6    7.84    0.80 
   3  -5  -6    0.17    0.28 
   2  -5  -6    2.13    0.44 
   1  -5  -6    1.19    0.34 
   0  -5  -6    1.44    0.35 
  -1  -5  -6   -0.01    0.21 
  -2  -5  -6    0.16    0.10 
  -2  -5  -6    0.21    0.21 
  -3  -5  -6   13.45    0.69 
  -3  -5  -6   14.23    0.50 
  -4  -5  -6    1.60    0.28 
  -4  -5  -6    2.09    0.39 
  -5  -5  -6   12.62    0.57 
  -6  -5  -6    4.45    0.46 
  -7  -5  -6    0.57    0.25 
  -9  -5  -6    0.65    0.33 
 -10  -5  -6   -0.08    0.28 
   4  -6  -6    1.09    0.47 
   3  -6  -6    0.95    0.39 
   2  -6  -6    1.58    0.43 
   1  -6  -6    0.24    0.24 
   0  -6  -6    0.44    0.28 
  -1  -6  -6    0.69    0.29 
  -2  -6  -6    0.40    0.24 
  -3  -6  -6   -0.03    0.21 
  -3  -6  -6    0.31    0.15 
  -4  -6  -6   10.63    0.49 
  -4  -6  -6   11.19    0.70 
  -5  -6  -6    4.86    0.56 
  -5  -6  -6    4.33    0.41 
  -6  -6  -6    1.31    0.31 
  -6  -6  -6    0.01    0.12 
  -7  -6  -6    0.03    0.23 
  -8  -6  -6    0.36    0.27 
  -9  -6  -6    0.08    0.26 
 -10  -6  -6   -0.23    0.23 
   3  -7  -6    0.44    0.33 
   2  -7  -6    0.20    0.33 
   1  -7  -6    0.24    0.31 
   0  -7  -6    0.54    0.31 
  -1  -7  -6    0.76    0.34 
  -2  -7  -6    0.78    0.32 
  -3  -7  -6    1.31    0.36 
  -4  -7  -6    5.79    0.39 
  -4  -7  -6    4.56    0.56 
  -5  -7  -6    1.96    0.32 
  -5  -7  -6    1.85    0.42 
  -6  -7  -6    0.44    0.32 
  -6  -7  -6    0.15    0.19 
  -7  -7  -6    0.53    0.25 
  -7  -7  -6    0.41    0.25 
  -8  -7  -6    0.15    0.25 
  -9  -7  -6    0.68    0.34 
   2  -8  -6    0.10    0.30 
   1  -8  -6    0.13    0.35 
   0  -8  -6   -0.06    0.28 
  -1  -8  -6    2.50    0.51 
  -2  -8  -6   12.82    0.83 
  -3  -8  -6    3.78    0.57 
  -4  -8  -6    0.29    0.30 
  -5  -8  -6    0.13    0.31 
  -5  -8  -6    0.09    0.18 
  -6  -8  -6    0.23    0.31 
  -6  -8  -6    0.70    0.24 
  -7  -8  -6    0.41    0.24 
  -7  -8  -6    0.13    0.35 
  -8  -8  -6    0.04    0.34 
  -8  -8  -6    0.12    0.25 
  -9  -8  -6    0.30    0.27 
   0  -9  -6    0.03    0.37 
  -1  -9  -6    0.78    0.38 
  -2  -9  -6    0.60    0.34 
  -3  -9  -6   -0.05    0.28 
  -4  -9  -6    0.55    0.32 
  -5  -9  -6   -0.02    0.30 
  -6  -9  -6    0.57    0.26 
  -6  -9  -6   -0.01    0.32 
  -7  -9  -6   -0.26    0.32 
  -7  -9  -6    0.24    0.27 
  -8  -9  -6    0.69    0.31 
  -8  -9  -6   -0.16    0.33 
  -2 -10  -6    1.89    0.48 
  -3 -10  -6    0.55    0.36 
  -4 -10  -6    0.06    0.30 
  -5 -10  -6   -0.15    0.29 
  -6 -10  -6    0.02    0.32 
  -3  -9   7    0.39    0.28 
  -2  -9   7    0.08    0.25 
  -1  -9   7    0.12    0.28 
   0  -9   7    0.32    0.27 
   1  -9   7   -0.22    0.22 
  -5  -8   7    0.09    0.25 
  -4  -8   7   -0.19    0.25 
  -3  -8   7    0.01    0.26 
  -2  -8   7    0.02    0.25 
  -1  -8   7   -0.10    0.23 
   0  -8   7    0.19    0.27 
   1  -8   7   -0.02    0.27 
   2  -8   7    0.13    0.26 
   3  -8   7    0.21    0.29 
   6   7  -7    1.57    1.08 
   5   7  -7    0.28    0.91 
  -5  -7   7   -0.13    0.22 
   4   7  -7    0.07    0.88 
  -4  -7   7    0.08    0.22 
   3   7  -7   -0.08    0.87 
  -3  -7   7    0.26    0.25 
   2   7  -7   -0.04    0.80 
  -2  -7   7    0.08    0.23 
   1   7  -7    0.76    0.84 
  -1  -7   7    0.43    0.27 
   0   7  -7    0.03    0.81 
   0  -7   7    0.09    0.23 
   1  -7   7    0.17    0.26 
   2  -7   7   -0.11    0.24 
   3  -7   7   -0.01    0.24 
   4  -7   7   -0.08    0.24 
   5  -7   7    0.44    0.30 
   6   6  -7    1.12    1.23 
  -6  -6   7    0.15    0.23 
   5   6  -7   -0.02    1.04 
  -5  -6   7    0.09    0.20 
   4   6  -7   -0.49    0.97 
  -4  -6   7    0.06    0.21 
   3   6  -7    0.31    1.03 
  -3  -6   7    0.42    0.23 
   2   6  -7    1.83    1.04 
  -2  -6   7    1.20    0.31 
   1   6  -7   -0.45    0.90 
  -1  -6   7    0.23    0.22 
   0   6  -7   -0.14    0.86 
   0  -6   7    0.04    0.18 
  -1   6  -7   -0.40    0.74 
   1  -6   7   -0.12    0.16 
   2  -6   7    0.55    0.27 
   3  -6   7    0.36    0.24 
   4  -6   7   -0.06    0.22 
   5  -6   7    0.16    0.21 
   6  -6   7   -0.30    0.25 
   7   5  -7    0.31    0.95 
   6   5  -7   -1.18    1.10 
  -6  -5   7    0.41    0.21 
   5   5  -7   -0.34    1.07 
  -5  -5   7    0.09    0.19 
   4   5  -7    0.21    0.99 
  -4  -5   7   -0.04    0.17 
   3   5  -7   -0.20    0.90 
  -3  -5   7    0.13    0.19 
   2   5  -7    0.36    0.90 
  -2  -5   7   -0.05    0.18 
   1   5  -7   -0.64    0.76 
  -1  -5   7    0.10    0.19 
   0   5  -7   -0.18    0.77 
   0  -5   7    0.18    0.17 
  -1   5  -7   -0.25    0.75 
   1  -5   7   -0.13    0.17 
   2  -5   7    0.73    0.24 
   3  -5   7   -0.01    0.19 
   4  -5   7    0.62    0.25 
   5  -5   7    0.02    0.21 
   6  -5   7    0.10    0.24 
   7  -5   7   -0.07    0.25 
   7   4  -7   -0.50    0.95 
   6   4  -7    0.24    0.93 
   5   4  -7    0.01    1.14 
  -5  -4   7    0.36    0.20 
   4   4  -7    0.35    0.98 
  -4  -4   7    0.07    0.16 
   3   4  -7    0.15    0.79 
  -3  -4   7   -0.12    0.13 
   2   4  -7   16.48    1.37 
  -2  -4   7   17.84    0.67 
   1   4  -7    5.90    1.12 
  -1  -4   7    6.62    0.43 
   0   4  -7   -0.10    0.73 
   0  -4   7    0.04    0.15 
  -1   4  -7   -0.15    0.72 
   1  -4   7   -0.15    0.13 
   2  -4   7    0.59    0.21 
   3  -4   7    0.04    0.15 
   4  -4   7    0.75    0.24 
   5  -4   7    0.40    0.24 
   6  -4   7    0.13    0.22 
   7  -4   7    0.02    0.23 
   8  -4   7   -0.02    0.26 
   7   3  -7   -0.16    0.77 
   6   3  -7    0.12    0.89 
   4   3  -7    1.84    0.98 
   3   3  -7    0.54    0.80 
  -3  -3   7   -0.05    0.14 
   2   3  -7    1.18    0.83 
  -2  -3   7    1.81    0.26 
   1   3  -7    9.92    1.04 
  -1  -3   7   11.19    0.48 
   0   3  -7    4.20    0.96 
   0  -3   7    3.06    0.30 
  -1   3  -7    1.15    0.64 
   1  -3   7    0.84    0.21 
  -2   3  -7    0.20    0.49 
   2  -3   7    0.01    0.14 
   3  -3   7    1.32    0.25 
   4  -3   7    0.19    0.18 
   5  -3   7    1.82    0.32 
   6  -3   7   -0.05    0.17 
   7  -3   7    0.09    0.24 
   8  -3   7    0.42    0.30 
   5   2  -7    1.09    0.97 
   4   2  -7    1.14    0.92 
   3   2  -7    3.34    0.27 
   3   2  -7    2.22    0.93 
   2   2  -7    2.38    0.23 
   2   2  -7    2.92    0.97 
  -2  -2   7    2.45    0.25 
   1   2  -7    4.97    0.25 
   1   2  -7    5.95    1.01 
   0   2  -7    3.14    0.19 
   0   2  -7    4.48    0.87 
   0  -2   7    3.31    0.24 
  -1   2  -7    5.73    0.69 
  -1   2  -7    5.31    0.26 
   1  -2   7    5.94    0.33 
  -2   2  -7    2.88    0.70 
   2  -2   7    3.89    0.29 
   3  -2   7    1.83    0.27 
   4  -2   7    1.75    0.29 
   5  -2   7    3.36    0.40 
   6  -2   7    0.17    0.19 
   7  -2   7    0.30    0.23 
   8  -2   7    0.18    0.28 
  -9   2  -7   -0.10    0.17 
   6   1  -7    0.38    0.30 
   6   1  -7    0.24    0.80 
   5   1  -7   -0.11    0.75 
   5   1  -7    0.66    0.30 
   4   1  -7    3.02    0.40 
   4   1  -7    1.73    0.87 
   3   1  -7    0.07    0.12 
   3   1  -7    0.06    0.71 
   2   1  -7    1.60    0.79 
   2   1  -7    1.25    0.22 
  -2  -1   7    1.20    0.17 
   1   1  -7    2.26    0.78 
   1   1  -7    1.53    0.21 
  -1  -1   7    1.57    0.18 
   0   1  -7    0.12    0.11 
   0   1  -7    0.68    0.55 
   0  -1   7    0.48    0.11 
  -1   1  -7    0.49    0.50 
  -1   1  -7    0.01    0.10 
   1  -1   7   -0.09    0.06 
  -2   1  -7    1.29    0.60 
   2  -1   7    1.83    0.23 
  -3   1  -7    3.41    0.71 
   3  -1   7    3.56    0.27 
   4  -1   7    3.32    0.34 
   5  -1   7   18.25    0.69 
   6  -1   7    1.59    0.30 
   7  -1   7   -0.01    0.20 
  -8   1  -7   -0.05    0.16 
  -9   1  -7    0.08    0.20 
   7   0  -7    0.11    0.33 
   6   0  -7    0.22    0.31 
   5   0  -7    0.21    0.69 
   5   0  -7   -0.11    0.23 
   4   0  -7    0.22    0.23 
   4   0  -7    0.28    0.69 
   3   0  -7    0.47    0.24 
   3   0  -7   -0.08    0.63 
   2   0  -7    3.30    0.88 
   2   0  -7    5.62    0.39 
   1   0  -7    1.82    0.26 
   1   0  -7    1.58    0.71 
  -1   0   7    1.77    0.14 
   0   0  -7    5.59    0.87 
   0   0  -7    4.65    0.31 
   0   0   7    4.17    0.21 
  -1   0  -7    0.69    0.18 
   1   0   7    1.22    0.15 
   3   0   7    0.23    0.10 
   4   0   7   -0.10    0.09 
   5   0   7   43.61    1.03 
   6   0   7    5.19    0.40 
  -7   0  -7    1.42    0.30 
  -8   0  -7    0.57    0.25 
  -9   0  -7    0.71    0.27 
 -10   0  -7    0.09    0.22 
   6  -1  -7    0.05    0.30 
   5  -1  -7    0.14    0.28 
   5  -1  -7   -0.37    0.71 
   4  -1  -7    1.66    0.77 
   4  -1  -7    4.55    0.52 
   3  -1  -7   -0.42    0.68 
   3  -1  -7    0.43    0.25 
   2  -1  -7    3.42    0.40 
   2  -1  -7    2.47    0.83 
   1  -1  -7    8.35    0.46 
   0  -1  -7    8.87    0.46 
   0   1   7    9.36    0.21 
  -1  -1  -7    1.14    0.23 
   1   1   7    1.34    0.12 
  -2  -1  -7    9.59    0.48 
   2   1   7    9.95    0.33 
   3   1   7    9.64    0.37 
   4   1   7    1.35    0.21 
  -5  -1  -7    7.82    0.46 
  -6  -1  -7    4.82    0.44 
  -7  -1  -7    0.33    0.20 
  -8  -1  -7    0.76    0.26 
  -9  -1  -7   -0.04    0.22 
 -10  -1  -7   -0.05    0.23 
   6  -2  -7    0.12    0.32 
   5  -2  -7    0.14    0.27 
   4  -2  -7   -0.57    0.67 
   4  -2  -7    1.34    0.36 
   3  -2  -7    1.49    0.35 
   3  -2  -7    0.50    0.69 
   2  -2  -7    5.23    0.49 
   1  -2  -7    3.81    0.41 
   0  -2  -7    0.01    0.14 
  -1  -2  -7    9.09    0.49 
  -1  -2  -7    9.06    0.24 
  -2  -2  -7   22.77    0.75 
  -2  -2  -7   21.63    0.48 
  -3  -2  -7    9.55    0.38 
  -3  -2  -7    9.97    0.53 
  -4  -2  -7   -0.08    0.12 
  -5  -2  -7    3.03    0.32 
  -6  -2  -7    0.00    0.18 
  -7  -2  -7    0.12    0.19 
  -8  -2  -7    0.19    0.22 
  -9  -2  -7    0.39    0.29 
 -10  -2  -7   -0.44    0.18 
   6  -3  -7   -0.05    0.35 
   5  -3  -7    0.12    0.31 
   4  -3  -7    0.45    0.31 
   4  -3  -7   -0.17    0.78 
   3  -3  -7    0.38    0.78 
   3  -3  -7    2.27    0.43 
   2  -3  -7    2.69    0.42 
   1  -3  -7    0.77    0.27 
   0  -3  -7    9.62    0.59 
  -1  -3  -7    0.34    0.22 
  -2  -3  -7    0.08    0.18 
  -2  -3  -7    0.04    0.10 
  -3  -3  -7    6.08    0.47 
  -3  -3  -7    6.41    0.32 
  -4  -3  -7    2.45    0.29 
  -5  -3  -7    4.91    0.41 
  -6  -3  -7    1.63    0.31 
  -7  -3  -7    0.92    0.26 
  -8  -3  -7   -0.03    0.19 
  -9  -3  -7    0.08    0.21 
 -10  -3  -7    0.11    0.27 
   5  -4  -7    0.02    0.33 
   4  -4  -7    1.33    0.44 
   3  -4  -7    0.78    0.36 
   2  -4  -7   11.26    0.72 
   1  -4  -7    8.48    0.60 
   0  -4  -7    0.01    0.22 
  -1  -4  -7    0.98    0.30 
  -2  -4  -7    0.05    0.20 
  -3  -4  -7    5.36    0.31 
  -3  -4  -7    4.71    0.48 
  -4  -4  -7    3.78    0.33 
  -4  -4  -7    4.19    0.48 
  -5  -4  -7    0.63    0.22 
  -6  -4  -7    5.07    0.44 
  -7  -4  -7    0.16    0.19 
  -8  -4  -7    0.48    0.24 
  -9  -4  -7    0.37    0.27 
 -10  -4  -7    0.02    0.23 
   4  -5  -7    2.10    0.54 
   3  -5  -7    2.54    0.52 
   2  -5  -7    0.37    0.32 
   1  -5  -7    0.28    0.24 
   0  -5  -7    0.36    0.27 
  -1  -5  -7    1.03    0.33 
  -2  -5  -7    0.07    0.21 
  -3  -5  -7    0.03    0.22 
  -4  -5  -7    1.66    0.38 
  -4  -5  -7    1.81    0.28 
  -5  -5  -7    0.25    0.19 
  -5  -5  -7    0.11    0.23 
  -6  -5  -7   -0.08    0.19 
  -7  -5  -7    0.15    0.23 
  -8  -5  -7    1.77    0.38 
  -9  -5  -7    1.20    0.37 
 -10  -5  -7   -0.02    0.27 
   3  -6  -7    0.05    0.33 
   2  -6  -7    1.60    0.47 
   1  -6  -7   -0.03    0.26 
   0  -6  -7    0.07    0.25 
  -1  -6  -7    0.29    0.26 
  -2  -6  -7    0.49    0.27 
  -3  -6  -7    1.58    0.37 
  -4  -6  -7    1.27    0.22 
  -4  -6  -7    1.39    0.36 
  -5  -6  -7    6.12    0.42 
  -5  -6  -7    5.84    0.62 
  -6  -6  -7   -0.07    0.29 
  -6  -6  -7    0.18    0.20 
  -7  -6  -7    0.89    0.30 
  -8  -6  -7    0.03    0.21 
  -9  -6  -7    0.41    0.30 
 -10  -6  -7    0.32    0.27 
   2  -7  -7    0.13    0.34 
   1  -7  -7   -0.01    0.32 
   0  -7  -7    0.17    0.29 
  -1  -7  -7    0.84    0.35 
  -2  -7  -7   -0.20    0.24 
  -3  -7  -7    1.60    0.39 
  -4  -7  -7   -0.12    0.24 
  -5  -7  -7    3.54    0.54 
  -5  -7  -7    4.65    0.42 
  -6  -7  -7    1.48    0.29 
  -6  -7  -7    0.94    0.39 
  -7  -7  -7   -0.31    0.24 
  -7  -7  -7    0.32    0.26 
  -8  -7  -7    0.27    0.27 
  -9  -7  -7    0.24    0.30 
   1  -8  -7    0.06    0.33 
   0  -8  -7   -0.10    0.26 
  -1  -8  -7    0.23    0.33 
  -2  -8  -7    0.90    0.38 
  -3  -8  -7    0.46    0.33 
  -4  -8  -7    0.45    0.33 
  -5  -8  -7    1.19    0.40 
  -6  -8  -7    0.35    0.31 
  -7  -8  -7    0.05    0.32 
  -7  -8  -7    0.23    0.23 
  -8  -8  -7    0.09    0.34 
  -8  -8  -7    0.19    0.23 
   0  -9  -7   -0.30    0.31 
  -1  -9  -7   -0.31    0.27 
  -2  -9  -7    0.06    0.32 
  -3  -9  -7    0.22    0.29 
  -4  -9  -7    0.28    0.33 
  -5  -9  -7    0.20    0.35 
  -6  -9  -7    0.04    0.32 
  -7  -9  -7    0.01    0.31 
  -4 -10  -7   -0.24    0.27 
  -5 -10  -7   -0.11    0.31 
   4   8  -8    0.80    1.14 
  -4  -8   8    0.25    0.28 
   3   8  -8   -0.18    0.96 
  -3  -8   8    0.07    0.26 
   2   8  -8    0.06    0.97 
  -2  -8   8    0.07    0.27 
  -1  -8   8    0.02    0.24 
   0  -8   8    0.11    0.26 
   1  -8   8   -0.11    0.25 
   2  -8   8   -0.10    0.24 
   3  -8   8    0.38    0.29 
   5   7  -8   -0.22    0.88 
  -5  -7   8    0.30    0.26 
   4   7  -8    0.52    1.09 
  -4  -7   8    0.25    0.27 
   3   7  -8    0.76    1.08 
  -3  -7   8    0.11    0.25 
   2   7  -8    0.24    0.97 
  -2  -7   8    0.32    0.25 
   1   7  -8   -0.08    0.93 
  -1  -7   8   -0.05    0.22 
   0   7  -8    0.10    0.92 
   0  -7   8    0.10    0.25 
   1  -7   8    0.08    0.26 
   2  -7   8    0.12    0.26 
   3  -7   8   -0.09    0.24 
   4  -7   8   -0.19    0.25 
   6   6  -8   -0.02    1.10 
   5   6  -8   -0.56    1.16 
  -5  -6   8   -0.06    0.19 
   4   6  -8    0.24    1.17 
  -4  -6   8    0.14    0.23 
   3   6  -8   -0.32    1.08 
  -3  -6   8    0.03    0.20 
   2   6  -8    0.04    1.01 
  -2  -6   8    0.05    0.21 
   1   6  -8   -0.03    0.92 
  -1  -6   8    0.17    0.23 
   0   6  -8   -0.24    0.93 
   0  -6   8    0.10    0.21 
  -1   6  -8    1.71    1.06 
   1  -6   8    0.79    0.29 
   2  -6   8    0.04    0.21 
   3  -6   8   -0.05    0.21 
   4  -6   8   -0.08    0.24 
   5  -6   8    0.16    0.25 
   6  -6   8    0.28    0.31 
   6   5  -8   -0.96    1.23 
   5   5  -8   -0.18    1.19 
  -5  -5   8    0.29    0.19 
   4   5  -8    0.63    1.19 
  -4  -5   8    0.45    0.24 
   3   5  -8    0.12    1.04 
  -3  -5   8    0.13    0.20 
   2   5  -8    0.22    0.96 
  -2  -5   8    0.74    0.25 
   1   5  -8    0.66    0.91 
  -1  -5   8    0.69    0.24 
   0   5  -8   -0.12    0.83 
   0  -5   8    0.18    0.20 
  -1   5  -8    0.76    0.89 
   1  -5   8    0.10    0.20 
  -2   5  -8   -0.21    0.79 
   2  -5   8    0.17    0.20 
   3  -5   8    0.18    0.22 
   4  -5   8    0.08    0.22 
   5  -5   8    0.00    0.22 
   6  -5   8    0.13    0.26 
   7  -5   8   -0.04    0.27 
   6   4  -8   -0.31    1.00 
   5   4  -8    0.03    1.17 
   4   4  -8   -0.05    0.92 
  -4  -4   8    0.00    0.15 
   3   4  -8    0.02    0.88 
  -3  -4   8    0.07    0.16 
   2   4  -8    0.80    0.81 
  -2  -4   8    1.36    0.28 
   1   4  -8    3.17    0.98 
  -1  -4   8    5.06    0.44 
   0   4  -8    0.13    0.73 
   0  -4   8    0.09    0.18 
  -1   4  -8    0.23    0.77 
   1  -4   8   -0.03    0.16 
  -2   4  -8    0.32    0.77 
   2  -4   8    0.87    0.24 
   3  -4   8    0.91    0.24 
   4  -4   8    0.09    0.20 
   5  -4   8   -0.05    0.21 
   6  -4   8    0.19    0.23 
   7  -4   8    0.27    0.29 
   6   3  -8    0.22    0.90 
   5   3  -8    0.60    1.07 
   4   3  -8    0.95    1.02 
   3   3  -8   -0.03    0.82 
  -3  -3   8    0.07    0.10 
   2   3  -8    0.13    0.80 
  -2  -3   8    0.18    0.15 
   1   3  -8    3.17    1.01 
  -1  -3   8    3.19    0.34 
   0   3  -8    0.51    0.78 
   0  -3   8    0.03    0.15 
  -1   3  -8    0.91    0.82 
   1  -3   8    0.48    0.19 
  -2   3  -8    0.11    0.75 
   2  -3   8    0.04    0.15 
   3  -3   8    0.87    0.24 
   4  -3   8    0.07    0.17 
   5  -3   8    0.51    0.24 
   6  -3   8    0.06    0.21 
   7  -3   8    0.05    0.23 
   8  -3   8    0.21    0.29 
   6   2  -8    0.80    0.96 
   5   2  -8   -0.02    0.88 
   4   2  -8   -0.12    0.89 
   3   2  -8    0.44    0.81 
   2   2  -8    2.13    0.94 
  -2  -2   8    1.78    0.23 
   1   2  -8   28.70    1.63 
  -1  -2   8   28.52    0.72 
   0   2  -8    6.50    1.07 
   0  -2   8    5.21    0.31 
  -1   2  -8    0.65    0.68 
  -1   2  -8    0.17    0.11 
   1  -2   8    0.05    0.11 
  -2   2  -8    1.19    0.20 
  -2   2  -8    1.38    0.76 
   2  -2   8    1.38    0.24 
  -3   2  -8    0.26    0.57 
   3  -2   8    0.44    0.17 
   4  -2   8    0.07    0.18 
   5  -2   8    0.94    0.26 
   6  -2   8    0.66    0.25 
   7  -2   8    0.15    0.23 
   8  -2   8   -0.02    0.22 
  -9   2  -8    0.48    0.21 
   6   1  -8   -0.05    0.76 
   5   1  -8   -0.10    0.85 
   4   1  -8    1.28    0.88 
   3   1  -8    0.76    0.19 
   3   1  -8    0.36    0.78 
   2   1  -8    2.14    0.88 
   2   1  -8    2.34    0.29 
   1   1  -8   14.06    1.16 
   1   1  -8   13.79    0.53 
   0   1  -8    0.07    0.65 
   0   1  -8    0.04    0.11 
   0  -1   8    0.13    0.10 
  -1   1  -8    0.37    0.68 
  -1   1  -8   -0.07    0.11 
   1  -1   8    0.09    0.11 
  -2   1  -8    0.34    0.63 
  -2   1  -8    0.59    0.18 
   2  -1   8    0.47    0.13 
  -3   1  -8    2.14    0.69 
   3  -1   8    2.26    0.29 
   4  -1   8    1.65    0.27 
   5  -1   8    2.13    0.32 
   6  -1   8   -0.07    0.17 
   7  -1   8   -0.10    0.18 
  -8   1  -8    1.37    0.36 
  -9   1  -8    0.06    0.22 
   6   0  -8    0.10    0.35 
   5   0  -8    0.55    0.32 
   5   0  -8    0.76    0.84 
   4   0  -8    0.21    0.24 
   4   0  -8    0.15    0.72 
   3   0  -8    0.40    0.76 
   3   0  -8    1.03    0.29 
   2   0  -8    1.03    0.23 
   2   0  -8    0.25    0.75 
   1   0  -8   12.14    1.06 
   1   0  -8   12.04    0.54 
   0   0  -8    0.01    0.12 
   0   0  -8   -0.34    0.61 
   0   0   8   -0.10    0.06 
  -1   0  -8    7.19    0.40 
   1   0   8    6.97    0.29 
  -2   0  -8    1.19    0.23 
   2   0   8    0.96    0.16 
   3   0   8    1.23    0.19 
   4   0   8   -0.01    0.12 
   5   0   8    2.92    0.36 
   6   0   8    6.71    0.46 
  -7   0  -8    0.42    0.23 
  -8   0  -8   -0.10    0.21 
  -9   0  -8    0.12    0.21 
   6  -1  -8    0.20    0.36 
   5  -1  -8    0.18    0.32 
   5  -1  -8   -0.19    0.70 
   4  -1  -8    1.68    0.40 
   4  -1  -8    0.36    0.79 
   3  -1  -8    1.27    0.87 
   3  -1  -8    6.12    0.57 
   2  -1  -8    0.03    0.22 
   2  -1  -8   -0.38    0.67 
   1  -1  -8    4.28    0.42 
   1  -1  -8    2.71    0.93 
   0  -1  -8    7.15    0.44 
  -1  -1  -8    2.67    0.31 
   1   1   8    2.73    0.15 
  -2  -1  -8    0.59    0.19 
   2   1   8    0.51    0.11 
  -3  -1  -8    1.25    0.26 
   3   1   8    0.67    0.14 
   4   1   8    0.01    0.09 
  -5  -1  -8    4.03    0.40 
  -6  -1  -8    3.67    0.41 
  -7  -1  -8    1.74    0.31 
  -8  -1  -8    0.07    0.20 
  -9  -1  -8   -0.11    0.20 
 -10  -1  -8    0.42    0.28 
   5  -2  -8    0.20    0.31 
   4  -2  -8    1.42    0.41 
   4  -2  -8   -0.29    0.79 
   3  -2  -8   -0.16    0.78 
   3  -2  -8    0.42    0.28 
   2  -2  -8    2.38    0.87 
   2  -2  -8    5.89    0.50 
   1  -2  -8    0.49    0.24 
   0  -2  -8    3.56    0.41 
  -1  -2  -8    0.30    0.20 
  -2  -2  -8   16.26    0.42 
  -2  -2  -8   14.92    0.67 
  -3  -2  -8    1.29    0.29 
  -3  -2  -8    1.03    0.18 
  -4  -2  -8    1.49    0.23 
  -5  -2  -8   11.27    0.52 
  -6  -2  -8   23.65    0.80 
  -7  -2  -8   -0.23    0.16 
  -8  -2  -8    0.77    0.29 
  -9  -2  -8   -0.08    0.26 
 -10  -2  -8    0.71    0.30 
   5  -3  -8    0.15    0.35 
   4  -3  -8    1.06    0.38 
   3  -3  -8    0.73    0.85 
   3  -3  -8    1.94    0.43 
   2  -3  -8    1.80    0.40 
   1  -3  -8    4.13    0.49 
   0  -3  -8    0.02    0.22 
  -1  -3  -8    1.72    0.34 
  -2  -3  -8    1.38    0.32 
  -3  -3  -8    2.41    0.23 
  -3  -3  -8    2.13    0.36 
  -4  -3  -8    3.72    0.33 
  -4  -3  -8    3.24    0.43 
  -5  -3  -8    1.70    0.29 
  -6  -3  -8    2.81    0.39 
  -7  -3  -8    0.09    0.20 
  -8  -3  -8    0.86    0.28 
  -9  -3  -8   -0.05    0.21 
 -10  -3  -8   -0.26    0.21 
   4  -4  -8    0.02    0.30 
   3  -4  -8    0.27    0.92 
   3  -4  -8    0.81    0.37 
   2  -4  -8    0.10    0.28 
   1  -4  -8    2.45    0.45 
   0  -4  -8    0.61    0.29 
  -1  -4  -8    0.36    0.25 
  -2  -4  -8    4.27    0.49 
  -3  -4  -8    7.23    0.56 
  -4  -4  -8    3.35    0.46 
  -4  -4  -8    3.78    0.33 
  -5  -4  -8   -0.16    0.15 
  -5  -4  -8    0.22    0.16 
  -6  -4  -8   -0.05    0.18 
  -7  -4  -8    0.18    0.21 
  -8  -4  -8   -0.26    0.19 
  -9  -4  -8    0.05    0.22 
 -10  -4  -8    0.12    0.27 
   4  -5  -8    0.17    0.39 
   3  -5  -8    0.29    0.35 
   2  -5  -8    1.00    0.39 
   1  -5  -8    2.54    0.46 
   0  -5  -8    0.46    0.29 
  -1  -5  -8    1.06    0.34 
  -2  -5  -8    1.11    0.34 
  -3  -5  -8    1.60    0.38 
  -4  -5  -8   -0.01    0.21 
  -5  -5  -8    2.13    0.31 
  -5  -5  -8    2.24    0.44 
  -6  -5  -8    0.36    0.22 
  -6  -5  -8    0.10    0.11 
  -7  -5  -8   -0.03    0.21 
  -8  -5  -8    0.29    0.26 
  -9  -5  -8    0.28    0.24 
 -10  -5  -8    0.25    0.27 
   3  -6  -8    0.50    0.41 
   2  -6  -8   -0.01    0.34 
   1  -6  -8    3.02    0.57 
   0  -6  -8    1.38    0.41 
  -1  -6  -8    0.44    0.31 
  -2  -6  -8    1.05    0.37 
  -3  -6  -8    0.97    0.34 
  -4  -6  -8    1.35    0.36 
  -5  -6  -8    0.22    0.28 
  -6  -6  -8    0.89    0.27 
  -6  -6  -8    0.52    0.33 
  -7  -6  -8    0.22    0.23 
  -7  -6  -8    0.47    0.17 
  -9  -6  -8   -0.22    0.22 
   2  -7  -8    0.52    0.42 
   1  -7  -8    0.95    0.44 
   0  -7  -8    0.10    0.29 
  -1  -7  -8    0.08    0.29 
  -2  -7  -8    0.25    0.29 
  -3  -7  -8    0.37    0.30 
  -4  -7  -8    0.16    0.30 
  -5  -7  -8   -0.10    0.26 
  -6  -7  -8    0.52    0.34 
  -7  -7  -8   -0.06    0.19 
  -7  -7  -8    0.16    0.34 
  -8  -7  -8    0.36    0.37 
  -8  -7  -8    0.48    0.30 
  -9  -7  -8    0.87    0.34 
   0  -8  -8    0.38    0.36 
  -1  -8  -8    0.42    0.35 
  -2  -8  -8    0.14    0.29 
  -3  -8  -8    0.38    0.34 
  -4  -8  -8    0.07    0.28 
  -5  -8  -8    0.97    0.41 
  -6  -8  -8    0.45    0.36 
  -7  -8  -8    0.06    0.33 
  -8  -8  -8   -0.11    0.34 
  -8  -8  -8    0.51    0.26 
  -2  -9  -8    0.03    0.30 
  -3  -9  -8    0.33    0.33 
  -4  -9  -8    0.10    0.29 
  -5  -9  -8    0.15    0.33 
  -6  -9  -8    0.31    0.35 
  -7  -9  -8    0.08    0.31 
   2   8  -9   -0.40    1.08 
  -2  -8   9    0.07    0.27 
   1   8  -9    0.04    1.04 
  -1  -8   9   -0.02    0.24 
   0  -8   9    0.03    0.26 
   1  -8   9   -0.19    0.18 
   2  -8   9   -0.02    0.22 
   4   7  -9   -0.18    1.18 
  -4  -7   9    0.13    0.25 
   3   7  -9   -1.17    1.09 
  -3  -7   9    0.00    0.25 
   2   7  -9   -0.80    1.05 
  -2  -7   9    0.08    0.24 
   1   7  -9   -1.20    0.98 
  -1  -7   9    0.09    0.22 
   0   7  -9   -0.25    1.01 
   0  -7   9   -0.04    0.24 
   1  -7   9   -0.03    0.23 
   2  -7   9    0.14    0.25 
   3  -7   9    0.22    0.24 
   4  -7   9    0.18    0.22 
   5   6  -9   -0.23    1.22 
   4   6  -9   -0.66    1.15 
  -4  -6   9    0.16    0.22 
   3   6  -9    0.04    1.18 
  -3  -6   9    0.08    0.25 
   2   6  -9    0.14    1.05 
  -2  -6   9    0.15    0.23 
   1   6  -9    0.30    1.04 
  -1  -6   9    0.14    0.22 
   0   6  -9   -0.10    1.03 
   0  -6   9    0.18    0.22 
  -1   6  -9   -0.10    1.03 
   1  -6   9    0.25    0.23 
   2  -6   9    0.18    0.26 
   3  -6   9    0.20    0.24 
   4  -6   9   -0.28    0.21 
   5  -6   9    0.06    0.22 
   5   5  -9   -0.57    1.20 
   4   5  -9   -0.22    1.16 
   3   5  -9    1.54    1.27 
  -3  -5   9    0.73    0.28 
   2   5  -9    0.05    0.92 
  -2  -5   9    0.03    0.20 
  -1  -5   9   -0.05    0.19 
   0   5  -9    0.67    0.90 
   0  -5   9    0.55    0.23 
   1  -5   9    0.18    0.22 
  -2   5  -9   -0.17    0.95 
   2  -5   9    0.23    0.23 
   3  -5   9    0.23    0.24 
   4  -5   9    0.03    0.20 
   5  -5   9    0.06    0.21 
   6  -5   9   -0.10    0.19 
   6   4  -9    0.45    1.12 
   5   4  -9    0.14    1.19 
   4   4  -9    0.44    1.06 
   3   4  -9    0.04    0.88 
  -3  -4   9    0.11    0.19 
   2   4  -9   -0.40    0.83 
  -2  -4   9    0.02    0.18 
   1   4  -9    0.22    0.82 
  -1  -4   9    1.16    0.27 
   0   4  -9    0.17    0.83 
   0  -4   9    0.47    0.21 
  -1   4  -9    0.63    0.86 
   1  -4   9    1.37    0.28 
  -2   4  -9    2.45    1.01 
   2  -4   9    2.49    0.38 
   3  -4   9   -0.02    0.18 
   4  -4   9   -0.04    0.18 
   5  -4   9   -0.05    0.22 
   6  -4   9    0.19    0.23 
   7  -4   9    0.37    0.23 
   6   3  -9    0.23    0.92 
   5   3  -9    0.54    1.11 
   4   3  -9    0.29    1.01 
   3   3  -9    0.99    0.95 
   2   3  -9    0.88    0.91 
  -2  -3   9    0.53    0.18 
   1   3  -9    0.74    0.85 
  -1  -3   9    0.46    0.19 
   0   3  -9    3.54    1.07 
   0  -3   9    3.65    0.37 
  -1   3  -9   -0.02    0.80 
   1  -3   9    0.34    0.19 
  -2   3  -9    0.65    0.93 
   2  -3   9    0.96    0.24 
  -3   3  -9   -0.26    0.72 
   3  -3   9   -0.08    0.18 
   4  -3   9    0.18    0.19 
   5  -3   9    0.27    0.21 
   6  -3   9   -0.17    0.19 
   7  -3   9    0.10    0.24 
   8  -3   9    0.28    0.25 
   6   2  -9    0.01    0.89 
   5   2  -9    0.60    0.96 
   4   2  -9    0.67    1.01 
   3   2  -9    0.01    0.89 
   2   2  -9   -0.23    0.77 
   1   2  -9    3.97    1.06 
  -1  -2   9    5.30    0.31 
   0   2  -9    3.79    1.03 
   0  -2   9    3.53    0.31 
  -1   2  -9    0.45    0.79 
   1  -2   9    0.61    0.20 
  -2   2  -9    0.28    0.84 
   2  -2   9    0.85    0.22 
  -3   2  -9    0.51    0.79 
   3  -2   9   -0.12    0.13 
   4  -2   9   -0.07    0.16 
   5  -2   9    0.21    0.20 
   6  -2   9   -0.05    0.20 
   7  -2   9    0.13    0.22 
   8  -2   9    0.12    0.23 
   6   1  -9    0.32    0.77 
   5   1  -9    0.05    0.87 
   4   1  -9   -0.05    0.86 
   3   1  -9   -0.24    0.78 
   2   1  -9   -0.19    0.74 
   1   1  -9   10.96    1.14 
   0   1  -9   10.97    0.46 
   0   1  -9   11.06    1.11 
   0  -1   9   11.09    0.43 
  -1   1  -9    2.76    0.95 
  -1   1  -9    1.99    0.25 
   1  -1   9    2.09    0.25 
  -2   1  -9    3.66    0.96 
  -2   1  -9    1.65    0.25 
   2  -1   9    1.80    0.24 
  -3   1  -9    0.11    0.76 
   3  -1   9    0.02    0.14 
  -4   1  -9    2.03    0.85 
   4  -1   9    1.48    0.27 
   5  -1   9    0.16    0.18 
   6  -1   9    0.74    0.25 
   7  -1   9    0.09    0.22 
  -8   1  -9    0.07    0.24 
  -9   1  -9    0.35    0.27 
   5   0  -9    0.58    0.86 
   4   0  -9    0.21    0.78 
   3   0  -9    0.96    0.86 
   3   0  -9    2.77    0.42 
   2   0  -9    1.26    0.31 
   2   0  -9    0.72    0.83 
   1   0  -9    3.79    1.04 
   1   0  -9    5.48    0.40 
   0   0  -9   26.70    1.56 
   0   0  -9   26.65    0.81 
  -1   0  -9    1.80    0.27 
  -1   0  -9    1.68    0.90 
   1   0   9    1.83    0.19 
  -2   0  -9    4.15    0.35 
   2   0   9    4.29    0.26 
  -3   0  -9    0.50    0.21 
   3   0   9    0.66    0.14 
   4   0   9    0.10    0.15 
   5   0   9    0.64    0.21 
   6   0   9    0.04    0.19 
  -7   0  -9    0.27    0.24 
  -8   0  -9    0.21    0.23 
  -9   0  -9    0.18    0.22 
   5  -1  -9   -0.06    0.32 
   5  -1  -9   -0.05    0.72 
   4  -1  -9    0.32    0.78 
   4  -1  -9    0.12    0.31 
   3  -1  -9   -0.33    0.81 
   3  -1  -9    0.17    0.29 
   2  -1  -9    1.79    0.36 
   2  -1  -9    0.57    0.79 
   1  -1  -9    8.41    1.02 
   1  -1  -9    7.65    0.53 
   0  -1  -9    3.14    0.39 
  -1  -1  -9    2.69    0.34 
  -2  -1  -9    0.28    0.18 
   2   1   9    0.29    0.09 
  -3  -1  -9    0.39    0.21 
   3   1   9    0.33    0.11 
   4   1   9    0.36    0.15 
  -5  -1  -9    7.05    0.48 
  -6  -1  -9    0.75    0.25 
  -7  -1  -9   -0.11    0.19 
  -8  -1  -9    0.36    0.26 
  -9  -1  -9    0.90    0.32 
   5  -2  -9    0.23    0.39 
   4  -2  -9   -0.52    0.87 
   4  -2  -9    0.21    0.31 
   3  -2  -9    1.50    0.39 
   3  -2  -9   -0.47    0.80 
   2  -2  -9    0.23    0.26 
   2  -2  -9    0.12    0.78 
   1  -2  -9    1.39    0.33 
   0  -2  -9    1.94    0.37 
  -1  -2  -9    0.00    0.19 
  -2  -2  -9    0.44    0.24 
  -3  -2  -9    0.13    0.13 
  -3  -2  -9    0.24    0.21 
  -4  -2  -9    1.12    0.29 
  -4  -2  -9    1.07    0.20 
  -5  -2  -9    3.60    0.36 
  -6  -2  -9   10.45    0.55 
  -7  -2  -9    0.81    0.25 
  -8  -2  -9    0.15    0.21 
  -9  -2  -9   -0.19    0.23 
 -10  -2  -9    0.00    0.25 
   4  -3  -9    0.92    0.40 
   3  -3  -9    0.07    0.91 
   3  -3  -9    0.97    0.38 
   2  -3  -9    0.30    0.29 
   1  -3  -9    0.19    0.23 
   0  -3  -9    0.01    0.21 
  -1  -3  -9    3.31    0.45 
  -2  -3  -9    4.21    0.48 
  -3  -3  -9   -0.02    0.18 
  -4  -3  -9    7.04    0.39 
  -4  -3  -9    6.44    0.55 
  -5  -3  -9    0.48    0.20 
  -5  -3  -9    0.11    0.11 
  -6  -3  -9    3.67    0.42 
  -7  -3  -9    1.22    0.32 
  -8  -3  -9    0.08    0.20 
  -9  -3  -9    0.08    0.23 
 -10  -3  -9   -0.09    0.24 
   4  -4  -9    0.06    0.35 
   3  -4  -9    0.06    0.95 
   3  -4  -9    0.20    0.34 
   2  -4  -9    0.04    0.28 
   1  -4  -9    0.74    0.27 
   0  -4  -9    1.55    0.39 
  -1  -4  -9    0.45    0.28 
  -2  -4  -9    0.17    0.24 
  -3  -4  -9    1.22    0.35 
  -4  -4  -9    0.04    0.23 
  -5  -4  -9    2.97    0.33 
  -5  -4  -9    2.49    0.45 
  -6  -4  -9    6.59    0.45 
  -7  -4  -9    1.70    0.33 
  -8  -4  -9    0.04    0.21 
  -9  -4  -9    0.37    0.24 
 -10  -4  -9    0.04    0.24 
   3  -5  -9   -0.07    0.34 
   2  -5  -9    0.19    0.35 
   1  -5  -9    0.01    0.23 
   0  -5  -9    0.13    0.27 
  -1  -5  -9    1.00    0.37 
  -2  -5  -9    0.27    0.28 
  -3  -5  -9    1.75    0.40 
  -4  -5  -9    0.99    0.34 
  -5  -5  -9    0.19    0.28 
  -6  -5  -9    0.15    0.27 
  -6  -5  -9    0.42    0.21 
  -7  -5  -9    0.32    0.23 
  -8  -5  -9    0.21    0.21 
  -9  -5  -9   -0.09    0.25 
   2  -6  -9    0.25    0.38 
   1  -6  -9    0.25    0.36 
   0  -6  -9    0.21    0.32 
  -1  -6  -9    0.56    0.37 
  -2  -6  -9    0.17    0.31 
  -3  -6  -9    2.13    0.46 
  -4  -6  -9    1.03    0.39 
  -5  -6  -9    0.04    0.26 
  -6  -6  -9   -0.05    0.28 
  -7  -6  -9    0.24    0.22 
  -7  -6  -9   -0.13    0.22 
  -8  -6  -9    0.12    0.22 
  -9  -6  -9    0.14    0.27 
   1  -7  -9    0.69    0.46 
   0  -7  -9    0.75    0.39 
  -1  -7  -9    0.18    0.34 
  -2  -7  -9   -0.01    0.29 
  -3  -7  -9    0.01    0.27 
  -4  -7  -9   -0.15    0.24 
  -5  -7  -9    0.10    0.28 
  -6  -7  -9    0.11    0.31 
  -7  -7  -9    0.24    0.35 
  -8  -7  -9    0.53    0.38 
  -1  -8  -9   -0.18    0.26 
  -2  -8  -9    0.21    0.32 
  -3  -8  -9    0.30    0.35 
  -4  -8  -9    0.00    0.28 
  -5  -8  -9   -0.12    0.29 
  -6  -8  -9    0.21    0.33 
  -7  -8  -9   -0.02    0.32 
  -3  -9  -9   -0.32    0.23 
  -4  -9  -9   -0.29    0.24 
  -5  -9  -9    0.51    0.34 
   2   7 -10    1.44    1.40 
  -2  -7  10   -0.09    0.25 
   1   7 -10   -0.41    1.27 
  -1  -7  10    0.28    0.28 
   0   7 -10   -0.60    1.14 
   0  -7  10   -0.02    0.25 
   1  -7  10   -0.35    0.20 
   2  -7  10    0.15    0.24 
   3  -7  10    0.16    0.22 
   4   6 -10   -0.69    1.29 
   3   6 -10   -0.56    1.25 
  -3  -6  10    0.02    0.21 
   2   6 -10   -0.03    1.21 
  -2  -6  10    0.40    0.28 
   1   6 -10   -0.66    1.03 
  -1  -6  10    0.08    0.25 
   0   6 -10   -0.14    1.13 
   0  -6  10    0.25    0.27 
  -1   6 -10    0.70    1.19 
   1  -6  10    0.28    0.23 
   2  -6  10    0.15    0.25 
   3  -6  10    0.08    0.23 
   4  -6  10    0.06    0.23 
   4   5 -10   -0.12    1.21 
   3   5 -10   -0.91    1.12 
  -2  -5  10    0.32    0.27 
   1   5 -10    0.11    0.98 
  -1  -5  10    0.18    0.24 
   0  -5  10   -0.04    0.23 
   1  -5  10   -0.10    0.18 
   2  -5  10    0.45    0.25 
   3  -5  10    0.09    0.23 
   4  -5  10    0.18    0.23 
   5  -5  10   -0.10    0.21 
   6  -5  10    0.01    0.18 
   5   4 -10    0.62    1.29 
   4   4 -10   -0.37    1.03 
   3   4 -10    0.68    1.04 
   2   4 -10   -0.05    0.94 
   1   4 -10   -0.16    0.91 
  -1  -4  10    0.04    0.20 
   0   4 -10    0.29    0.87 
   0  -4  10    1.01    0.28 
  -1   4 -10   -0.01    0.85 
   1  -4  10    0.36    0.22 
  -2   4 -10    0.14    0.94 
   2  -4  10    0.44    0.24 
   3  -4  10    0.63    0.27 
   4  -4  10   -0.02    0.20 
   5  -4  10    0.07    0.19 
   6  -4  10    0.38    0.27 
   7  -4  10   -0.19    0.17 
   5   3 -10    0.60    1.19 
   4   3 -10   -0.09    1.03 
   3   3 -10    0.46    1.01 
   2   3 -10    0.42    0.98 
   1   3 -10    0.93    0.95 
   0   3 -10    0.76    0.89 
   0  -3  10    0.52    0.23 
  -1   3 -10    1.55    0.93 
   1  -3  10    1.52    0.29 
  -2   3 -10    0.51    0.95 
   2  -3  10    0.17    0.19 
  -3   3 -10    0.58    0.95 
   3  -3  10    0.59    0.24 
   4  -3  10    0.85    0.27 
   5  -3  10   -0.06    0.19 
   6  -3  10    0.21    0.23 
   7  -3  10    0.03    0.23 
   5   2 -10    0.64    1.02 
   4   2 -10    0.31    1.01 
   3   2 -10    0.44    0.97 
   2   2 -10   -0.24    0.75 
   1   2 -10    0.27    0.86 
   0   2 -10    2.61    1.00 
  -1   2 -10    0.05    0.79 
   1  -2  10    0.05    0.15 
  -2   2 -10    3.12    1.04 
   2  -2  10    3.66    0.40 
  -3   2 -10    2.35    1.05 
   3  -2  10    2.81    0.37 
  -4   2 -10    0.30    0.85 
   4  -2  10   -0.02    0.17 
   5  -2  10    0.10    0.19 
   6  -2  10   -0.04    0.20 
   7  -2  10   -0.09    0.21 
   8  -2  10   -0.06    0.22 
   5   1 -10   -0.01    0.88 
   4   1 -10    0.46    0.91 
   3   1 -10   -0.01    0.88 
   2   1 -10    0.09    0.82 
   1   1 -10    0.22    0.82 
   0   1 -10    2.74    1.03 
  -1   1 -10    2.21    0.94 
  -2   1 -10   -0.19    0.70 
   2  -1  10    0.07    0.11 
  -3   1 -10    0.57    0.85 
  -3   1 -10   -0.07    0.12 
   3  -1  10   -0.10    0.15 
  -4   1 -10    1.38    0.91 
   5  -1  10    0.22    0.19 
   6  -1  10   -0.03    0.18 
   7  -1  10    0.42    0.26 
  -8   1 -10    0.15    0.28 
   5   0 -10    0.41    0.80 
   4   0 -10    0.55    0.88 
   3   0 -10   -0.09    0.82 
   2   0 -10    0.02    0.78 
   1   0 -10    6.38    0.48 
   1   0 -10    3.47    1.04 
   0   0 -10    1.61    0.28 
   0   0 -10    2.23    0.94 
  -1   0 -10    0.21    0.14 
  -1   0 -10    0.16    0.79 
  -2   0 -10    1.01    0.89 
  -2   0 -10    1.34    0.26 
  -3   0 -10    3.04    0.38 
   4   0  10    0.07    0.16 
   5   0  10    1.81    0.31 
   6   0  10    0.04    0.19 
  -7   0 -10    0.20    0.24 
  -8   0 -10   -0.18    0.20 
  -9   0 -10    0.31    0.23 
   4  -1 -10    0.29    0.78 
   3  -1 -10   -0.34    0.78 
   3  -1 -10   -0.12    0.29 
   2  -1 -10    0.06    0.94 
   2  -1 -10    0.23    0.27 
   1  -1 -10    0.57    0.83 
   1  -1 -10    1.03    0.31 
   0  -1 -10    8.34    0.55 
   0  -1 -10    6.36    1.24 
  -1  -1 -10    4.83    0.43 
  -2  -1 -10    0.05    0.21 
  -3  -1 -10    0.37    0.22 
  -4  -1 -10    0.60    0.25 
   4   1  10    0.21    0.13 
  -5  -1 -10    0.16    0.18 
  -6  -1 -10   -0.23    0.14 
  -7  -1 -10    1.17    0.30 
  -8  -1 -10   -0.30    0.17 
  -9  -1 -10    0.52    0.30 
   4  -2 -10    0.03    0.82 
   4  -2 -10   -0.16    0.30 
   3  -2 -10   -0.21    0.30 
   3  -2 -10   -0.49    0.85 
   2  -2 -10    0.19    0.87 
   2  -2 -10    0.69    0.32 
   1  -2 -10    0.33    0.90 
   1  -2 -10    0.71    0.29 
   0  -2 -10    0.68    0.27 
  -1  -2 -10    2.25    0.38 
  -2  -2 -10    0.39    0.26 
  -3  -2 -10   -0.03    0.18 
  -4  -2 -10    0.12    0.13 
  -4  -2 -10    0.12    0.21 
  -5  -2 -10    0.34    0.18 
  -5  -2 -10    0.16    0.11 
  -6  -2 -10   -0.09    0.15 
  -7  -2 -10   -0.10    0.17 
  -8  -2 -10    0.24    0.22 
  -9  -2 -10   -0.38    0.24 
   3  -3 -10    0.05    0.94 
   3  -3 -10    0.99    0.41 
   2  -3 -10    0.16    0.97 
   2  -3 -10    0.05    0.32 
   1  -3 -10    0.21    0.26 
   0  -3 -10    1.40    0.35 
  -1  -3 -10    1.87    0.40 
  -2  -3 -10    0.92    0.31 
  -3  -3 -10    0.99    0.31 
  -4  -3 -10    0.06    0.22 
  -5  -3 -10    0.61    0.30 
  -5  -3 -10    0.84    0.22 
  -6  -3 -10    3.20    0.40 
  -7  -3 -10    0.32    0.22 
  -8  -3 -10    0.17    0.22 
  -9  -3 -10    0.32    0.27 
   3  -4 -10    0.08    0.33 
   3  -4 -10    1.04    0.97 
   2  -4 -10    0.11    0.31 
   1  -4 -10   -0.12    0.25 
   0  -4 -10   -0.13    0.22 
  -1  -4 -10    1.20    0.38 
  -2  -4 -10    1.95    0.42 
  -3  -4 -10    0.14    0.27 
  -4  -4 -10    0.76    0.31 
  -5  -4 -10    0.15    0.27 
  -6  -4 -10    8.16    0.49 
  -6  -4 -10    8.64    0.72 
  -7  -4 -10    3.08    0.41 
  -8  -4 -10    0.14    0.20 
  -9  -4 -10   -0.13    0.22 
   2  -5 -10    0.27    0.36 
   1  -5 -10    0.11    0.33 
   0  -5 -10    0.27    0.32 
  -1  -5 -10    0.13    0.29 
  -2  -5 -10    2.57    0.51 
  -3  -5 -10    0.05    0.26 
  -4  -5 -10    0.89    0.37 
  -5  -5 -10    0.09    0.27 
  -6  -5 -10    0.59    0.34 
  -7  -5 -10    0.15    0.31 
  -8  -5 -10    0.05    0.20 
  -9  -5 -10    0.30    0.27 
   1  -6 -10    0.55    0.44 
   0  -6 -10    0.26    0.33 
  -1  -6 -10    0.21    0.34 
  -2  -6 -10    0.24    0.33 
  -3  -6 -10    0.71    0.37 
  -4  -6 -10    0.88    0.39 
  -5  -6 -10   -0.08    0.29 
  -6  -6 -10    0.13    0.31 
  -7  -6 -10    0.95    0.40 
  -8  -6 -10   -0.11    0.33 
   0  -7 -10    0.34    0.39 
  -1  -7 -10   -0.01    0.34 
  -2  -7 -10    0.25    0.36 
  -3  -7 -10    0.19    0.35 
  -4  -7 -10    0.03    0.30 
  -5  -7 -10   -0.06    0.30 
  -6  -7 -10    0.01    0.33 
  -7  -7 -10   -0.24    0.26 
  -8  -7 -10    0.22    0.33 
  -2  -8 -10   -0.15    0.31 
  -3  -8 -10    0.56    0.35 
  -4  -8 -10    0.13    0.31 
  -5  -8 -10   -0.18    0.28 
  -6  -8 -10    0.05    0.32 
   2   6 -11   -0.46    1.31 
   1   6 -11   -0.19    1.29 
  -1  -6  11   -0.13    0.26 
   0   6 -11   -0.52    1.24 
   0  -6  11   -0.04    0.25 
  -1   6 -11   -0.33    1.23 
   1  -6  11    0.08    0.26 
   2  -6  11   -0.01    0.26 
   3  -6  11    0.16    0.24 
   3   5 -11    0.29    1.28 
   1   5 -11    0.25    1.10 
  -1  -5  11   -0.07    0.20 
   0   5 -11    0.47    1.04 
   0  -5  11    0.01    0.23 
   1  -5  11    0.12    0.24 
   2  -5  11    0.38    0.26 
   3  -5  11    0.47    0.28 
   4  -5  11    0.21    0.23 
   5  -5  11    0.05    0.21 
   4   4 -11    0.85    1.08 
   3   4 -11    0.05    0.97 
   2   4 -11   -0.16    1.01 
   1   4 -11   -0.30    0.95 
   0   4 -11    0.12    1.01 
   0  -4  11   -0.16    0.20 
  -1   4 -11   -0.30    0.95 
   1  -4  11   -0.01    0.23 
  -2   4 -11    0.23    1.09 
   2  -4  11    0.68    0.27 
   3  -4  11    0.00    0.23 
   4  -4  11    0.11    0.22 
   5  -4  11   -0.14    0.21 
   6  -4  11    0.20    0.22 
   4   3 -11   -0.24    0.93 
   3   3 -11    0.73    1.11 
   2   3 -11    0.56    1.04 
   1   3 -11   -0.66    0.99 
   0   3 -11    0.27    0.96 
  -1   3 -11    0.25    0.96 
   1  -3  11    0.07    0.18 
  -2   3 -11    0.16    0.97 
   2  -3  11    0.15    0.21 
  -3   3 -11    1.48    1.12 
   3  -3  11    0.80    0.26 
   4  -3  11    0.18    0.22 
   5  -3  11   -0.10    0.20 
   6  -3  11    0.24    0.24 
   7  -3  11   -0.14    0.18 
   4   2 -11   -0.02    1.00 
   3   2 -11    0.69    1.01 
   2   2 -11    0.07    0.93 
   1   2 -11    0.17    1.03 
   0   2 -11    0.64    0.95 
  -1   2 -11    0.62    0.92 
  -2   2 -11    0.28    0.90 
   2  -2  11    0.07    0.18 
  -3   2 -11   -0.11    0.93 
   3  -2  11    0.01    0.19 
  -4   2 -11    0.21    1.00 
   4  -2  11    0.38    0.22 
   5  -2  11    0.00    0.20 
   6  -2  11   -0.17    0.18 
   7  -2  11    0.19    0.25 
   4   1 -11    0.94    1.05 
   3   1 -11    0.36    0.96 
   2   1 -11   -0.05    0.82 
   1   1 -11    0.33    0.87 
   0   1 -11    0.45    0.96 
  -1   1 -11    0.32    0.87 
  -2   1 -11    0.31    0.88 
  -3   1 -11    0.85    1.00 
   3  -1  11    0.62    0.23 
  -4   1 -11    0.20    0.95 
   4  -1  11   -0.08    0.17 
   5  -1  11    0.67    0.25 
   6  -1  11    0.06    0.22 
   7  -1  11    0.02    0.24 
  -8   1 -11    0.76    0.32 
   4   0 -11    0.37    0.85 
   3   0 -11    0.62    0.97 
   2   0 -11   -0.09    0.87 
   1   0 -11   -0.44    0.89 
   0   0 -11    1.62    1.07 
  -1   0 -11    2.00    1.00 
  -2   0 -11    0.39    0.90 
  -3   0 -11    1.90    1.08 
  -3   0 -11    1.45    0.33 
  -4   0 -11    2.76    0.43 
   4   0  11    2.61    0.34 
   5   0  11   -0.04    0.19 
   6   0  11   -0.02    0.20 
  -7   0 -11   -0.14    0.19 
  -8   0 -11    0.30    0.27 
   3  -1 -11   -0.49    0.86 
   2  -1 -11   -0.60    0.90 
   1  -1 -11   -0.38    0.86 
   1  -1 -11    0.30    0.28 
   0  -1 -11    0.90    0.94 
   0  -1 -11    0.52    0.26 
  -1  -1 -11    0.03    0.93 
  -1  -1 -11    0.07    0.21 
  -2  -1 -11    0.36    0.23 
  -3  -1 -11    0.70    0.29 
  -4  -1 -11    0.08    0.22 
  -5  -1 -11   -0.10    0.23 
  -5  -1 -11    0.17    0.16 
  -6  -1 -11   -0.21    0.17 
  -7  -1 -11    0.11    0.20 
  -8  -1 -11    0.23    0.23 
  -9  -1 -11    0.13    0.24 
   3  -2 -11   -0.07    0.97 
   3  -2 -11   -0.12    0.35 
   2  -2 -11    0.42    0.33 
   2  -2 -11   -0.68    0.82 
   1  -2 -11    0.79    0.97 
   1  -2 -11    1.19    0.40 
   0  -2 -11    6.68    0.58 
  -1  -2 -11    0.09    0.25 
  -2  -2 -11    0.03    0.23 
  -3  -2 -11    0.47    0.27 
  -4  -2 -11    0.81    0.31 
  -5  -2 -11    0.45    0.29 
  -6  -2 -11   -0.04    0.14 
  -7  -2 -11    0.14    0.18 
  -8  -2 -11    0.11    0.21 
  -9  -2 -11    0.14    0.26 
   3  -3 -11    0.19    0.41 
   3  -3 -11   -0.40    0.91 
   2  -3 -11   -0.11    0.98 
   2  -3 -11    0.28    0.34 
   1  -3 -11   -0.06    0.30 
   0  -3 -11    1.27    0.38 
  -1  -3 -11    1.79    0.41 
  -2  -3 -11    0.89    0.33 
  -3  -3 -11   -0.06    0.23 
  -4  -3 -11   -0.11    0.21 
  -5  -3 -11    0.51    0.31 
  -6  -3 -11    0.90    0.34 
  -7  -3 -11   -0.10    0.19 
  -8  -3 -11    0.36    0.21 
  -9  -3 -11    0.00    0.25 
   2  -4 -11    0.08    0.35 
   2  -4 -11   -0.13    0.96 
   1  -4 -11    0.00    0.34 
   0  -4 -11    0.23    0.29 
  -1  -4 -11    0.31    0.30 
  -2  -4 -11    0.22    0.28 
  -3  -4 -11    0.06    0.25 
  -4  -4 -11   -0.04    0.25 
  -5  -4 -11    0.27    0.28 
  -6  -4 -11    1.05    0.39 
  -7  -4 -11    0.13    0.31 
  -8  -4 -11    0.31    0.23 
  -9  -4 -11    0.35    0.29 
   1  -5 -11    0.19    0.37 
   0  -5 -11    0.05    0.31 
  -1  -5 -11    0.25    0.32 
  -2  -5 -11    0.12    0.28 
  -3  -5 -11    0.74    0.38 
  -4  -5 -11    0.38    0.31 
  -5  -5 -11   -0.05    0.27 
  -6  -5 -11    3.18    0.56 
  -7  -5 -11    0.77    0.38 
  -8  -5 -11    0.22    0.38 
   0  -6 -11    0.15    0.38 
  -1  -6 -11    0.13    0.35 
  -2  -6 -11    0.58    0.43 
  -3  -6 -11    0.26    0.32 
  -4  -6 -11    0.16    0.32 
  -5  -6 -11    0.42    0.35 
  -6  -6 -11    1.14    0.43 
  -7  -6 -11    0.63    0.38 
  -8  -6 -11   -0.28    0.31 
  -2  -7 -11    0.02    0.38 
  -3  -7 -11    0.09    0.36 
  -4  -7 -11    0.34    0.36 
  -5  -7 -11   -0.06    0.33 
  -6  -7 -11    0.46    0.39 
  -7  -7 -11   -0.09    0.29 
   1   5 -12    0.09    1.20 
   0   5 -12   -0.09    1.13 
   1  -5  12    0.18    0.25 
   2  -5  12    0.39    0.28 
   3  -5  12    0.08    0.25 
   2   4 -12    0.03    1.18 
   1   4 -12   -0.49    1.10 
   0   4 -12    0.00    1.10 
  -1   4 -12   -0.38    0.99 
  -2   4 -12    0.37    1.09 
   2  -4  12    0.15    0.24 
   3  -4  12    0.25    0.24 
   4  -4  12    0.08    0.23 
   5  -4  12   -0.19    0.20 
   3   3 -12    0.60    0.97 
   2   3 -12   -0.03    1.12 
   1   3 -12   -0.42    1.05 
   0   3 -12    0.32    1.10 
  -1   3 -12    0.67    1.07 
  -2   3 -12    0.03    1.10 
   2  -3  12   -0.10    0.21 
  -3   3 -12    0.18    1.24 
   3  -3  12   -0.29    0.18 
   4  -3  12   -0.14    0.22 
   5  -3  12    0.17    0.21 
   6  -3  12   -0.08    0.20 
   3   2 -12    1.68    1.08 
   2   2 -12    1.09    1.08 
   1   2 -12   -0.31    1.02 
   0   2 -12   -0.53    0.95 
  -1   2 -12    0.30    0.95 
  -2   2 -12    0.34    1.00 
  -3   2 -12    0.06    1.03 
   3  -2  12   -0.20    0.19 
  -4   2 -12    0.39    1.12 
   4  -2  12    0.25    0.23 
   5  -2  12   -0.03    0.23 
   6  -2  12    0.06    0.22 
   7  -2  12   -0.03    0.23 
   3   1 -12    0.58    0.93 
   2   1 -12   -0.13    0.92 
   1   1 -12    0.74    0.94 
   0   1 -12    0.08    1.00 
  -1   1 -12   -0.59    1.01 
  -2   1 -12   -0.30    0.98 
  -3   1 -12    0.30    1.09 
  -4   1 -12   -0.64    1.04 
   4  -1  12   -0.06    0.19 
   5  -1  12   -0.16    0.18 
   6  -1  12    0.32    0.26 
   7  -1  12   -0.04    0.23 
   3   0 -12   -0.64    0.83 
   2   0 -12   -0.05    0.94 
   1   0 -12   -0.69    0.88 
   0   0 -12    0.67    1.10 
  -1   0 -12    0.09    0.94 
  -2   0 -12    0.26    0.97 
  -3   0 -12    0.78    1.03 
  -4   0 -12    0.20    1.06 
  -5   0 -12   -0.30    1.11 
   5   0  12    0.23    0.20 
   6   0  12    0.22    0.25 
  -7   0 -12    0.51    0.25 
  -8   0 -12    0.33    0.27 
   2  -1 -12   -0.53    0.88 
   1  -1 -12   -0.08    0.93 
   0  -1 -12   -0.40    0.93 
  -1  -1 -12   -0.34    1.02 
  -3  -1 -12   -0.16    0.20 
  -4  -1 -12   -0.02    0.24 
  -5  -1 -12   -0.11    0.25 
  -6  -1 -12    0.13    0.17 
  -6  -1 -12    0.65    0.22 
  -7  -1 -12    0.31    0.20 
  -8  -1 -12   -0.17    0.20 
   2  -2 -12    0.57    1.13 
   1  -2 -12    0.49    1.03 
   0  -2 -12    1.40    1.09 
   0  -2 -12    2.51    0.47 
  -1  -2 -12    0.40    0.31 
  -2  -2 -12    0.20    0.27 
  -3  -2 -12    0.95    0.34 
  -4  -2 -12    1.19    0.37 
  -5  -2 -12   -0.19    0.26 
  -6  -2 -12   -0.18    0.28 
  -7  -2 -12    0.15    0.16 
  -8  -2 -12    0.20    0.23 
   1  -3 -12    0.18    1.02 
   1  -3 -12   -0.05    0.32 
   0  -3 -12    0.43    0.31 
  -1  -3 -12    0.59    0.33 
  -2  -3 -12    0.24    0.28 
  -3  -3 -12    0.69    0.33 
  -4  -3 -12   -0.01    0.25 
  -5  -3 -12   -0.17    0.27 
  -6  -3 -12   -0.32    0.26 
  -7  -3 -12   -0.18    0.29 
   1  -4 -12    0.25    0.39 
   1  -4 -12    0.50    1.10 
   0  -4 -12    0.98    0.39 
  -1  -4 -12    0.81    0.38 
  -2  -4 -12    0.08    0.28 
  -3  -4 -12    0.14    0.30 
  -4  -4 -12    0.20    0.28 
  -5  -4 -12   -0.06    0.26 
  -6  -4 -12    0.10    0.28 
  -7  -4 -12    0.14    0.35 
  -8  -4 -12   -0.58    0.28 
   0  -5 -12    0.07    0.34 
  -1  -5 -12    0.83    0.41 
  -2  -5 -12    0.63    0.43 
  -3  -5 -12   -0.08    0.33 
  -4  -5 -12   -0.06    0.29 
  -5  -5 -12    0.19    0.33 
  -6  -5 -12    0.42    0.33 
  -7  -5 -12    0.13    0.34 
  -2  -6 -12    0.35    0.36 
  -3  -6 -12   -0.11    0.35 
  -4  -6 -12    0.06    0.33 
  -5  -6 -12    0.16    0.38 
  -6  -6 -12    1.50    0.50 
   0   4 -13    0.25    1.21 
  -1   4 -13   -0.02    1.19 
  -2   4 -13   -0.26    1.26 
   3  -4  13    0.03    0.20 
   1   3 -13   -0.29    1.30 
   0   3 -13   -0.09    1.20 
  -1   3 -13   -0.10    1.19 
  -2   3 -13   -0.60    1.14 
  -3   3 -13    0.26    1.26 
   4  -3  13    0.16    0.21 
   5  -3  13   -0.04    0.18 
   1   2 -13    0.46    1.24 
   0   2 -13    0.12    1.21 
  -1   2 -13    0.52    1.06 
  -2   2 -13   -0.13    1.01 
  -3   2 -13    0.05    1.06 
   5  -2  13   -0.18    0.15 
   6  -2  13    0.10    0.21 
   1   1 -13    0.78    1.16 
   0   1 -13    0.23    1.12 
  -1   1 -13   -0.08    1.04 
  -2   1 -13   -0.70    1.06 
  -3   1 -13    0.27    1.11 
  -4   1 -13   -0.74    1.15 
   6  -1  13   -0.13    0.18 
   1   0 -13   -0.17    0.90 
   0   0 -13   -0.09    1.11 
  -1   0 -13   -0.16    1.12 
  -2   0 -13    0.22    1.10 
  -3   0 -13    0.37    1.02 
  -4   0 -13    0.69    1.14 
  -5   0 -13    0.02    1.15 
  -7   0 -13    0.25    0.25 
   1  -1 -13   -0.10    0.96 
   0  -1 -13   -0.29    0.92 
  -1  -1 -13    0.89    1.15 
  -2  -1 -13    0.22    1.19 
  -3  -1 -13   -0.14    1.09 
   1  -2 -13   -0.31    0.86 
   0  -2 -13    0.51    0.99 
  -1  -2 -13    0.24    1.16 
  -3  -2 -13    0.02    0.28 
  -4  -2 -13    0.33    0.30 
  -5  -2 -13   -0.03    0.24 
  -6  -2 -13   -0.23    0.27 
  -7  -2 -13    0.01    0.36 
   0  -3 -13    0.18    1.00 
   0  -3 -13    0.19    0.39 
  -1  -3 -13   -0.22    0.28 
  -2  -3 -13    0.12    0.32 
  -3  -3 -13   -0.02    0.28 
  -4  -3 -13    0.24    0.31 
  -5  -3 -13    0.26    0.33 
  -6  -3 -13   -0.13    0.29 
  -7  -3 -13   -0.14    0.33 
  -1  -4 -13    1.26    0.43 
  -2  -4 -13    0.23    0.38 
  -3  -4 -13    0.03    0.34 
  -4  -4 -13    0.29    0.34 
  -5  -4 -13    0.05    0.32 
  -6  -4 -13    0.14    0.31 
  -7  -4 -13    0.00    0.36 
  -2  -5 -13    0.39    0.40 
  -3  -5 -13    0.44    0.40 
  -4  -5 -13   -0.03    0.33 
  -5  -5 -13   -0.01    0.35 
  -6  -5 -13   -0.02    0.34 
  -1   2 -14    0.34    1.28 
  -2   2 -14    0.09    1.28 
  -3   2 -14    0.67    1.30 
  -1   1 -14   -0.06    1.25 
  -2   1 -14   -0.23    1.19 
  -3   1 -14   -0.31    1.28 
  -4   1 -14   -1.09    1.24 
  -1   0 -14    0.17    1.30 
  -2   0 -14   -0.10    1.22 
  -3   0 -14   -0.63    1.22 
  -4   0 -14   -0.47    1.24 
  -1  -1 -14    0.70    1.31 
  -2  -1 -14    0.46    1.30 
  -3  -1 -14    1.72    1.44 
  -4  -1 -14   -0.49    1.26 
  -5  -1 -14   -0.71    1.34 
  -1  -2 -14    0.22    1.28 
  -2  -2 -14    0.02    1.33 
  -3  -3 -14   -0.08    0.34 
  -4  -3 -14    0.36    0.36 
  -5  -3 -14   -0.07    0.37 
   0   0   0    0.00    0.00 
;
_shelx_hkl_checksum              44115
#END Tags that were not found in dictionaries
loop_
_space_group_symop_operation_xyz
'x, y, z'
'-x, -y, -z'
loop_
_atom_site_label
_atom_site_type_symbol
_atom_site_fract_x
_atom_site_fract_y
_atom_site_fract_z
_atom_site_U_iso_or_equiv
_atom_site_adp_type
_atom_site_occupancy
_atom_site_site_symmetry_order
_atom_site_calc_flag
_atom_site_refinement_flags_posn
_atom_site_refinement_flags_adp
O1 O -0.3892(2) 0.6853(3) 1.21325(18) 0.1142(7) Uani 1 1 d . .
O2 O -0.29522(18) 0.7917(2) 1.02913(16) 0.0753(5) Uani 1 1 d . .
O3 O 0.2567(2) 0.8959(2) 0.84896(15) 0.0866(5) Uani 1 1 d . .
O4 O 0.14581(17) 0.78871(17) 0.71767(13) 0.0649(4) Uani 1 1 d . .
C1 C -0.2621(3) 0.7104(3) 1.1342(2) 0.0762(7) Uani 1 1 d . .
C2 C -0.0783(3) 0.6635(3) 1.1415(2) 0.0642(6) Uani 1 1 d . .
C3 C -0.0399(4) 0.5780(3) 1.2470(2) 0.0775(7) Uani 1 1 d . .
H3 H -0.1309 0.5511 1.3107 0.093 Uiso 1 1 calc R U
C4 C 0.1300(4) 0.5335(3) 1.2575(3) 0.0858(8) Uani 1 1 d . .
H4 H 0.1548 0.4760 1.3280 0.103 Uiso 1 1 calc R U
C5 C 0.2642(3) 0.5733(3) 1.1646(3) 0.0870(8) Uani 1 1 d . .
H5 H 0.3797 0.5433 1.1727 0.104 Uiso 1 1 calc R U
C6 C 0.2301(3) 0.6571(3) 1.0597(2) 0.0760(7) Uani 1 1 d . .
H6 H 0.3231 0.6834 0.9976 0.091 Uiso 1 1 calc R U
C7 C 0.0558(3) 0.7044(3) 1.0440(2) 0.0594(6) Uani 1 1 d . .
C8 C 0.0073(3) 0.7895(3) 0.9363(2) 0.0599(6) Uani 1 1 d . .
C9 C -0.1632(3) 0.8301(3) 0.9322(2) 0.0668(6) Uani 1 1 d . .
C10 C -0.2460(3) 0.9254(3) 0.8355(2) 0.0880(8) Uani 1 1 d . .
H10A H -0.1636 0.9776 0.7797 0.132 Uiso 1 1 calc R U
H10B H -0.3543 1.0087 0.8782 0.132 Uiso 1 1 calc R U
H10C H -0.2733 0.8512 0.7864 0.132 Uiso 1 1 calc R U
C11 C 0.1493(3) 0.8339(3) 0.8317(2) 0.0658(6) Uani 1 1 d . .
C12 C 0.2770(3) 0.8169(3) 0.5994(2) 0.0664(6) Uani 1 1 d . .
C13 C 0.4651(3) 0.7125(3) 0.5995(2) 0.0791(7) Uani 1 1 d . .
H13A H 0.5047 0.7620 0.6579 0.119 Uiso 1 1 calc R U
H13B H 0.5461 0.7074 0.5151 0.119 Uiso 1 1 calc R U
H13C H 0.4627 0.6023 0.6254 0.119 Uiso 1 1 calc R U
C14 C 0.2588(3) 1.0017(3) 0.5870(3) 0.0962(9) Uani 1 1 d . .
H14A H 0.1340 1.0634 0.6096 0.144 Uiso 1 1 calc R U
H14B H 0.3162 1.0233 0.5004 0.144 Uiso 1 1 calc R U
H14C H 0.3145 1.0348 0.6431 0.144 Uiso 1 1 calc R U
C15 C 0.2194(3) 0.7519(3) 0.4967(2) 0.0928(8) Uani 1 1 d . .
H15A H 0.2240 0.6375 0.5109 0.139 Uiso 1 1 calc R U
H15B H 0.2988 0.7615 0.4142 0.139 Uiso 1 1 calc R U
H15C H 0.0991 0.8157 0.5003 0.139 Uiso 1 1 calc R U
loop_
_atom_site_aniso_label
_atom_site_aniso_U_11
_atom_site_aniso_U_22
_atom_site_aniso_U_33
_atom_site_aniso_U_23
_atom_site_aniso_U_13
_atom_site_aniso_U_12
O1 0.0753(12) 0.166(2) 0.1045(14) 0.0081(14) -0.0050(11) -0.0621(13)
O2 0.0536(9) 0.0915(12) 0.0793(11) -0.0106(10) -0.0136(9) -0.0221(8)
O3 0.0808(11) 0.1013(13) 0.0855(12) -0.0228(10) -0.0095(9) -0.0481(10)
O4 0.0615(9) 0.0714(10) 0.0577(9) -0.0128(8) -0.0083(7) -0.0197(7)
C1 0.0646(16) 0.0866(17) 0.0790(19) -0.0143(15) -0.0097(15) -0.0321(13)
C2 0.0602(14) 0.0639(14) 0.0691(15) -0.0174(12) -0.0131(13) -0.0208(11)
C3 0.0903(19) 0.0732(16) 0.0725(17) -0.0072(14) -0.0162(15) -0.0346(14)
C4 0.101(2) 0.0794(17) 0.0849(19) -0.0025(15) -0.0402(18) -0.0237(16)
C5 0.0766(18) 0.0953(19) 0.094(2) -0.0075(17) -0.0381(17) -0.0166(15)
C6 0.0579(14) 0.0866(17) 0.0805(17) -0.0166(14) -0.0136(13) -0.0193(12)
C7 0.0521(13) 0.0597(13) 0.0640(14) -0.0192(12) -0.0097(12) -0.0161(10)
C8 0.0513(13) 0.0645(14) 0.0579(14) -0.0204(11) -0.0040(11) -0.0156(10)
C9 0.0585(14) 0.0678(14) 0.0683(15) -0.0169(12) -0.0075(13) -0.0172(12)
C10 0.0764(16) 0.0944(19) 0.0899(18) -0.0048(16) -0.0312(15) -0.0116(14)
C11 0.0600(14) 0.0619(14) 0.0696(16) -0.0196(12) -0.0089(13) -0.0148(11)
C12 0.0651(14) 0.0623(14) 0.0608(14) 0.0014(12) -0.0051(12) -0.0155(11)
C13 0.0660(15) 0.0772(16) 0.0755(16) -0.0037(13) -0.0056(13) -0.0071(12)
C14 0.0934(19) 0.0669(17) 0.113(2) 0.0161(15) -0.0167(16) -0.0163(14)
C15 0.104(2) 0.107(2) 0.0644(16) -0.0019(15) -0.0239(15) -0.0261(16)
loop_
_atom_type_symbol
_atom_type_description
_atom_type_scat_dispersion_real
_atom_type_scat_dispersion_imag
_atom_type_scat_source
C C 0.0033 0.0016 'International Tables Vol C Tables 4.2.6.8 and 6.1.1.4'
H H 0.0000 0.0000 'International Tables Vol C Tables 4.2.6.8 and 6.1.1.4'
O O 0.0106 0.0060 'International Tables Vol C Tables 4.2.6.8 and 6.1.1.4'
loop_
_geom_angle_atom_site_label_1
_geom_angle_atom_site_label_2
_geom_angle_atom_site_label_3
_geom_angle
C1 O2 C9 122.50(19)
C11 O4 C12 120.58(18)
O1 C1 O2 116.3(2)
O1 C1 C2 126.1(3)
O2 C1 C2 117.6(2)
C3 C2 C7 121.1(2)
C3 C2 C1 118.8(2)
C7 C2 C1 120.1(2)
C4 C3 C2 120.4(2)
C4 C3 H3 119.8
C2 C3 H3 119.8
C3 C4 C5 120.2(3)
C3 C4 H4 119.9
C5 C4 H4 119.9
C4 C5 C6 120.6(2)
C4 C5 H5 119.7
C6 C5 H5 119.7
C5 C6 C7 121.2(2)
C5 C6 H6 119.4
C7 C6 H6 119.4
C2 C7 C6 116.5(2)
C2 C7 C8 118.0(2)
C6 C7 C8 125.4(2)
C9 C8 C7 120.3(2)
C9 C8 C11 121.2(2)
C7 C8 C11 118.5(2)
C8 C9 O2 121.5(2)
C8 C9 C10 129.7(2)
O2 C9 C10 108.7(2)
C9 C10 H10A 109.5
C9 C10 H10B 109.5
H10A C10 H10B 109.5
C9 C10 H10C 109.5
H10A C10 H10C 109.5
H10B C10 H10C 109.5
O3 C11 O4 125.1(2)
O3 C11 C8 124.1(2)
O4 C11 C8 110.7(2)
O4 C12 C14 109.91(18)
O4 C12 C15 102.06(19)
C14 C12 C15 111.5(2)
O4 C12 C13 109.19(18)
C14 C12 C13 113.1(2)
C15 C12 C13 110.5(2)
C12 C13 H13A 109.5
C12 C13 H13B 109.5
H13A C13 H13B 109.5
C12 C13 H13C 109.5
H13A C13 H13C 109.5
H13B C13 H13C 109.5
C12 C14 H14A 109.5
C12 C14 H14B 109.5
H14A C14 H14B 109.5
C12 C14 H14C 109.5
H14A C14 H14C 109.5
H14B C14 H14C 109.5
C12 C15 H15A 109.5
C12 C15 H15B 109.5
H15A C15 H15B 109.5
C12 C15 H15C 109.5
H15A C15 H15C 109.5
H15B C15 H15C 109.5
loop_
_geom_bond_atom_site_label_1
_geom_bond_atom_site_label_2
_geom_bond_distance
O1 C1 1.204(3)
O2 C1 1.361(3)
O2 C9 1.373(3)
O3 C11 1.206(3)
O4 C11 1.338(3)
O4 C12 1.477(3)
C1 C2 1.459(3)
C2 C3 1.392(3)
C2 C7 1.396(3)
C3 C4 1.362(3)
C3 H3 0.9300
C4 C5 1.367(3)
C4 H4 0.9300
C5 C6 1.370(3)
C5 H5 0.9300
C6 C7 1.417(3)
C6 H6 0.9300
C7 C8 1.441(3)
C8 C9 1.345(3)
C8 C11 1.490(3)
C9 C10 1.492(3)
C10 H10A 0.9600
C10 H10B 0.9600
C10 H10C 0.9600
C12 C14 1.524(4)
C12 C15 1.524(3)
C12 C13 1.527(3)
C13 H13A 0.9600
C13 H13B 0.9600
C13 H13C 0.9600
C14 H14A 0.9600
C14 H14B 0.9600
C14 H14C 0.9600
C15 H15A 0.9600
C15 H15B 0.9600
C15 H15C 0.9600
loop_
_geom_hbond_atom_site_label_D
_geom_hbond_atom_site_label_H
_geom_hbond_atom_site_label_A
_geom_hbond_distance_DH
_geom_hbond_distance_HA
_geom_hbond_distance_DA
_geom_hbond_angle_DHA
C14 H14C O3 0.96 2.47 2.954(4) 111.3
C13 H13A O3 0.96 2.49 2.993(3) 112.9
C10 H10A O4 0.96 2.47 2.962(4) 111.5
C10 H10A O4 0.96 2.47 2.962(4) 111.5
C13 H13A O3 0.96 2.49 2.993(3) 112.9
C14 H14C O3 0.96 2.47 2.954(4) 111.3
C10 H10A O4 0.96 2.47 2.962(4) 111.5
C13 H13A O3 0.96 2.49 2.993(3) 112.9
C14 H14C O3 0.96 2.47 2.954(4) 111.3
loop_
_geom_torsion_atom_site_label_1
_geom_torsion_atom_site_label_2
_geom_torsion_atom_site_label_3
_geom_torsion_atom_site_label_4
_geom_torsion
C9 O2 C1 O1 179.3(2)
C9 O2 C1 C2 -0.1(3)
O1 C1 C2 C3 1.7(4)
O2 C1 C2 C3 -179.0(2)
O1 C1 C2 C7 -178.3(2)
O2 C1 C2 C7 1.0(3)
C7 C2 C3 C4 0.5(3)
C1 C2 C3 C4 -179.4(2)
C2 C3 C4 C5 0.3(4)
C3 C4 C5 C6 -0.5(4)
C4 C5 C6 C7 -0.2(4)
C3 C2 C7 C6 -1.1(3)
C1 C2 C7 C6 178.84(18)
C3 C2 C7 C8 178.57(19)
C1 C2 C7 C8 -1.5(3)
C5 C6 C7 C2 1.0(3)
C5 C6 C7 C8 -178.7(2)
C2 C7 C8 C9 1.1(3)
C6 C7 C8 C9 -179.3(2)
C2 C7 C8 C11 179.95(18)
C6 C7 C8 C11 -0.4(3)
C7 C8 C9 O2 -0.2(3)
C11 C8 C9 O2 -179.03(18)
C7 C8 C9 C10 176.2(2)
C11 C8 C9 C10 -2.7(3)
C1 O2 C9 C8 -0.3(3)
C1 O2 C9 C10 -177.4(2)
C12 O4 C11 O3 -1.6(3)
C12 O4 C11 C8 -178.73(16)
C9 C8 C11 O3 133.4(2)
C7 C8 C11 O3 -45.4(3)
C9 C8 C11 O4 -49.4(3)
C7 C8 C11 O4 131.7(2)
C11 O4 C12 C14 -60.1(3)
C11 O4 C12 C15 -178.58(18)
C11 O4 C12 C13 64.5(2)
