#------------------------------------------------------------------------------
#$Date: 2015-08-31 11:59:54 +0300 (Mon, 31 Aug 2015) $
#$Revision: 153828 $
#$URL: svn://www.crystallography.net/cod/cif/7/11/77/7117715.cif $
#------------------------------------------------------------------------------
#
# This file is available in the Crystallography Open Database (COD),
# http://www.crystallography.net/
#
# All data on this site have been placed in the public domain by the
# contributors.
#
data_7117715
loop_
_publ_author_name
'Isai Ramakrishna'
'Gowri Sankar Grandhi'
'Harekrishna Sahoo'
'Mahiuddin Baidya'
_publ_section_title
;
 The Mukaiyama aldol reaction of in situ generated nitrosocarbonyl
 compounds: selective C-N bond formation and N-O bond cleavage in one-pot
 for alpha-amination of ketones
;
_journal_name_full               Chem.Commun.
_journal_page_first              13976
_journal_paper_doi               10.1039/C5cc05459A
_journal_volume                  51
_journal_year                    2015
_chemical_formula_sum            'C15 H16 Cl3 N O3'
_chemical_formula_weight         364.64
_chemical_name_systematic
;
 ?
;
_space_group_crystal_system      triclinic
_space_group_IT_number           2
_space_group_name_Hall           '-P 1'
_space_group_name_H-M_alt        'P -1'
_symmetry_space_group_name_Hall  '-P 1'
_symmetry_space_group_name_H-M   'P -1'
_atom_sites_solution_hydrogens   mixed
_audit_creation_method           SHELXL-2012
_audit_update_record
;
2015-06-22 deposited with the CCDC.
2015-07-28 downloaded from the CCDC.
;
_cell_angle_alpha                67.611(2)
_cell_angle_beta                 89.839(2)
_cell_angle_gamma                85.877(2)
_cell_formula_units_Z            2
_cell_length_a                   6.0347(2)
_cell_length_b                   11.3911(4)
_cell_length_c                   13.0283(4)
_cell_measurement_reflns_used    2871
_cell_measurement_temperature    296(2)
_cell_measurement_theta_max      27.2
_cell_measurement_theta_min      1.691
_cell_volume                     825.64(5)
_computing_cell_refinement       'APEXII/SAINT (Bruker, 2012)'
_computing_data_collection       'APEXII (Bruker, 2012)'
_computing_data_reduction        'SAINT/XPREP (Bruker, 2012)'
_computing_molecular_graphics    'ORTEP3 (Farrugia, 1997) '
_computing_publication_material  'SHELXL-97 (Sheldrick, 2013)'
_computing_structure_refinement  'SHELXL-97 (Sheldrick, 2013)'
_computing_structure_solution    'SHELXS-97 (Sheldrick, 2013)'
_diffrn_ambient_temperature      296(2)
_diffrn_measured_fraction_theta_full 0.959
_diffrn_measured_fraction_theta_max 0.987
_diffrn_measurement_device_type  'Bruker kappa apex2 CCD Diffractometer'
_diffrn_measurement_method       '\w and \f scan'
_diffrn_radiation_type           MoK\a
_diffrn_radiation_wavelength     0.71073
_diffrn_reflns_av_R_equivalents  0.0155
_diffrn_reflns_av_unetI/netI     0.0141
_diffrn_reflns_laue_measured_fraction_full 0.959
_diffrn_reflns_laue_measured_fraction_max 0.987
_diffrn_reflns_limit_h_max       7
_diffrn_reflns_limit_h_min       -7
_diffrn_reflns_limit_k_max       13
_diffrn_reflns_limit_k_min       -13
_diffrn_reflns_limit_l_max       15
_diffrn_reflns_limit_l_min       -15
_diffrn_reflns_number            11909
_diffrn_reflns_point_group_measured_fraction_full 0.959
_diffrn_reflns_point_group_measured_fraction_max 0.987
_diffrn_reflns_theta_full        25.242
_diffrn_reflns_theta_max         24.991
_diffrn_reflns_theta_min         1.691
_exptl_absorpt_coefficient_mu    0.565
_exptl_absorpt_correction_T_max  0.8823
_exptl_absorpt_correction_T_min  0.8012
_exptl_absorpt_correction_type   multi-scan
_exptl_absorpt_process_details   'SADABS (Bruker, 2012)'
_exptl_crystal_colour            colourless
_exptl_crystal_density_diffrn    1.467
_exptl_crystal_description       block
_exptl_crystal_F_000             376
_exptl_crystal_size_max          0.250
_exptl_crystal_size_mid          0.220
_exptl_crystal_size_min          0.100
_refine_diff_density_max         0.516
_refine_diff_density_min         -0.441
_refine_diff_density_rms         0.039
_refine_ls_extinction_coef       .
_refine_ls_extinction_method     none
_refine_ls_goodness_of_fit_ref   1.042
_refine_ls_hydrogen_treatment    mixed
_refine_ls_matrix_type           full
_refine_ls_number_parameters     203
_refine_ls_number_reflns         2871
_refine_ls_number_restraints     0
_refine_ls_restrained_S_all      1.042
_refine_ls_R_factor_all          0.0417
_refine_ls_R_factor_gt           0.0368
_refine_ls_shift/su_max          0.000
_refine_ls_shift/su_mean         0.000
_refine_ls_structure_factor_coef Fsqd
_refine_ls_weighting_details
;
 w=1/[\s^2^(Fo^2^)+(0.0317P)^2^+0.5977P]
 where P=(Fo^2^+2Fc^2^)/3
;
_refine_ls_weighting_scheme      calc
_refine_ls_wR_factor_gt          0.0859
_refine_ls_wR_factor_ref         0.0901
_reflns_Friedel_coverage         0.000
_reflns_friedel_fraction_full    .
_reflns_friedel_fraction_max     .
_reflns_number_gt                2550
_reflns_number_total             2871
_reflns_threshold_expression     'I > 2\s(I)'
_cod_data_source_file            c5cc05459a2.cif
_cod_data_source_block           ram139
_cod_database_code               7117715
_shelx_space_group_comment
;
The symmetry employed for this shelxl refinement is uniquely defined
by the following loop, which should always be used as a source of
symmetry information in preference to the above space-group names.
They are only intended as comments.
;
_shelx_estimated_absorpt_t_min   0.872
_shelx_estimated_absorpt_t_max   0.946
_shelxl_version_number           2012-9
_shelx_res_file
;
TITL 139 in P-1
CELL  0.71073   6.0347  11.3911  13.0283   67.611   89.839   85.877
ZERR     2.00   0.0002   0.0004   0.0004    0.002    0.002    0.002
LATT   1
SFAC  C    H    N    O    CL
UNIT  30   32   2    6    6
MERG   2
OMIT    -3.00  50.00
EQIV $1 x-1, y, z
HTAB C12 O1_$1
EQIV $2 -x, -y, -z+1
HTAB C14 O3_$2
HTAB N1 O1_$1
FMAP   2
PLAN    5
SIZE     0.10   0.22   0.25
ACTA
BOND   $H
CONF
L.S.   8
TEMP    23.00
WGHT    0.031700    0.597700
FVAR       0.33090
MOLE    1
C1    1    0.302164    0.477224    0.152999    11.00000    0.04311    0.05050 =
         0.05204   -0.01791   -0.00480   -0.00208
AFIX  43
H1    2    0.192306    0.457614    0.113506    11.00000   -1.20000
AFIX   0
C2    1    0.267257    0.581318    0.182139    11.00000    0.06352    0.04861 =
         0.06487   -0.01797   -0.00217    0.00639
AFIX  43
H2    2    0.135162    0.632646    0.160865    11.00000   -1.20000
AFIX   0
C3    1    0.426759    0.609630    0.242496    11.00000    0.08475    0.04753 =
         0.05475   -0.01986    0.01085   -0.01472
AFIX  43
H3    2    0.402079    0.679417    0.262654    11.00000   -1.20000
AFIX   0
C4    1    0.622476    0.534525    0.272869    11.00000    0.06944    0.06247 =
         0.05504   -0.02528   -0.00534   -0.01662
AFIX  43
H4    2    0.729780    0.552999    0.314414    11.00000   -1.20000
AFIX   0
C5    1    0.660557    0.432589    0.242339    11.00000    0.04263    0.05955 =
         0.05018   -0.02004   -0.00411   -0.00928
AFIX  43
H5    2    0.795132    0.383462    0.261967    11.00000   -1.20000
AFIX   0
C6    1    0.500630    0.401602    0.182383    11.00000    0.03376    0.04645 =
         0.03325   -0.01078    0.00370   -0.00931
C7    1    0.552929    0.288060    0.153374    11.00000    0.02549    0.05750 =
         0.03474   -0.01689   -0.00065   -0.00092
C8    1    0.367591    0.206534    0.144414    11.00000    0.02566    0.04797 =
         0.03126   -0.01702    0.00105    0.00161
C9    1    0.455388    0.074832    0.148889    11.00000    0.05179    0.05642 =
         0.04979   -0.02646   -0.00223    0.00991
AFIX  23
H9A   2    0.592721    0.079780    0.109092    11.00000   -1.20000
H9B   2    0.481083    0.015329    0.225023    11.00000   -1.20000
AFIX   0
C10   1    0.271211    0.035491    0.092946    11.00000    0.06813    0.06610 =
         0.06880   -0.04103    0.01135   -0.01413
AFIX  23
H10A  2    0.326616   -0.030015    0.066851    11.00000   -1.20000
H10B  2    0.151333    0.003837    0.143487    11.00000   -1.20000
AFIX   0
C11   1    0.194192    0.155829   -0.002675    11.00000    0.07744    0.08265 =
         0.06882   -0.04255   -0.02354    0.00008
AFIX  23
H11A  2    0.035962    0.157820   -0.016813    11.00000   -1.20000
H11B  2    0.271954    0.160926   -0.069329    11.00000   -1.20000
AFIX   0
C12   1    0.244657    0.266033    0.029527    11.00000    0.03243    0.06102 =
         0.03054   -0.01640    0.00042   -0.00430
AFIX  23
H12A  2    0.108192    0.313931    0.034330    11.00000   -1.20000
H12B  2    0.337775    0.322915   -0.025097    11.00000   -1.20000
AFIX   0
C13   1    0.284373    0.154924    0.337975    11.00000    0.04183    0.03427 =
         0.03344   -0.01321    0.00316   -0.00739
C14   1    0.170040    0.118260    0.520955    11.00000    0.06883    0.04284 =
         0.02988   -0.01228    0.00524   -0.01391
AFIX  23
H14A  2    0.330455    0.110952    0.530569    11.00000   -1.20000
H14B  2    0.113963    0.038439    0.568770    11.00000   -1.20000
AFIX   0
C15   1    0.070028    0.225737    0.551188    11.00000    0.04040    0.05261 =
         0.03176   -0.01675    0.00040   -0.00842
CL1   5   -0.220044    0.242840    0.534868    11.00000    0.03785    0.19365 =
         0.06821   -0.06260    0.00318   -0.00639
CL2   5    0.140278    0.188603    0.692965    11.00000    0.07749    0.07265 =
         0.03478   -0.02504   -0.00651   -0.00229
CL3   5    0.181846    0.369412    0.468651    11.00000    0.09427    0.04105 =
         0.06109   -0.01344    0.00593   -0.01264
N1    3    0.209747    0.193283    0.232608    11.00000    0.02515    0.05000 =
         0.03147   -0.01576    0.00011   -0.00259
O1    4    0.743461    0.260126    0.135306    11.00000    0.02291    0.10056 =
         0.07450   -0.04930    0.00503   -0.00200
O2    4    0.476957    0.132462    0.368299    11.00000    0.04296    0.05952 =
         0.03904   -0.01309   -0.00945    0.00411
O3    4    0.110920    0.144916    0.407563    11.00000    0.05019    0.06097 =
         0.03282   -0.02306    0.00841   -0.01896
H1N   2    0.084490    0.207394    0.218991    11.00000    0.03934
HKLF    4

REM  139 in P-1
REM R1 =  0.0368 for    2550 Fo > 4sig(Fo)  and  0.0417 for all    2871 data
REM    203 parameters refined using      0 restraints

END

WGHT      0.0317      0.5977

REM Highest difference peak  0.516,  deepest hole -0.441,  1-sigma level  0.039
Q1    1   0.0484  0.3646  0.5017  11.00000  0.05    0.52
Q2    1   0.0965  0.1108  0.6941  11.00000  0.05    0.29
Q3    1  -0.2367  0.1847  0.5880  11.00000  0.05    0.22
Q4    1  -0.2058  0.2081  0.5001  11.00000  0.05    0.22
Q5    1  -0.1466  0.3064  0.5293  11.00000  0.05    0.21
;
_shelx_res_checksum              95751
_shelx_hkl_file
;
  -1   0   0   12.16    0.29
  -1   0   0   12.11    0.27
  -1   0   0   11.56    0.28
   1   0   0   12.22    0.30
  -2   0   0  502.47    8.66
  -2   0   0  518.04    8.65
  -2   0   0  491.22    8.84
   2   0   0  489.31    8.87
  -3   0   0  250.54    4.53
  -3   0   0  251.52    4.43
  -4   0   0   19.64    0.52
  -5   0   0    0.58    0.07
  -5   0   0    0.59    0.13
  -6   0   0    0.95    0.17
  -7   0   0    3.30    0.31
  -7   1   0    0.57    0.17
  -6   1   0    3.04    0.26
  -5   1   0   31.17    0.81
  -4   1   0    0.00    0.08
  -3   1   0   10.68    0.34
  -3   1   0   10.39    0.38
  -2   1   0  344.32    6.04
   0  -1   0   -0.09    0.03
   0  -1   0    0.05    0.04
   0  -1   0    0.03    0.03
   0  -1   0   -0.14    0.04
   0  -1   0    0.00    0.05
   0   1   0    0.04    0.04
   0   1   0    0.06    0.03
   0   1   0   -0.01    0.04
   0   1   0    0.05    0.05
   0   1   0    0.02    0.04
  -1  -1   0  119.63    2.04
  -1  -1   0  114.79    2.05
  -1  -1   0  119.79    2.06
  -1  -1   0  120.01    2.09
   1   1   0  120.37    2.05
   1   1   0  115.07    2.06
   1   1   0  115.80    2.10
   1   1   0  120.33    2.09
   1   1   0  117.20    2.05
  -2  -1   0  151.96    2.65
  -2  -1   0  155.38    2.72
  -2  -1   0  153.29    2.76
  -2  -1   0  157.16    2.69
  -2  -1   0  153.42    2.66
   2   1   0  153.78    2.69
   2   1   0  149.94    2.77
   2   1   0  152.43    2.73
   2   1   0  151.73    2.73
  -3  -1   0  170.96    2.96
  -3  -1   0  170.36    2.98
  -3  -1   0  173.09    3.04
  -3  -1   0  171.61    3.08
   3   1   0  168.65    3.09
   3   1   0  170.69    3.16
   3   1   0  169.82    3.07
  -4  -1   0    0.08    0.07
  -4  -1   0    0.17    0.04
  -4  -1   0    0.09    0.04
   4   1   0    0.16    0.07
   4   1   0    0.06    0.10
  -5  -1   0   18.72    0.41
  -5  -1   0   18.05    0.43
  -5  -1   0   17.82    0.51
   5   1   0   17.44    0.49
  -6  -1   0    0.20    0.12
  -7   2   0    3.50    0.32
  -6   2   0    0.01    0.12
  -5   2   0    4.58    0.29
  -4   2   0    9.56    0.37
   1  -2   0   17.58    0.34
   1  -2   0   17.87    0.40
  -1   2   0   17.94    0.35
  -1   2   0   18.45    0.39
  -1   2   0   18.40    0.36
  -1   2   0   18.32    0.40
  -1   2   0   17.90    0.35
   0  -2   0  464.24    8.29
   0  -2   0  505.45    8.28
   0  -2   0  468.88    8.37
   0  -2   0  485.68    8.31
   0  -2   0  482.68    8.43
   0  -2   0  472.13    8.51
   0   2   0  477.30    8.30
   0   2   0  486.43    8.30
   0   2   0  460.35    8.37
   0   2   0  482.79    8.38
   0   2   0  483.95    8.37
  -1  -2   0  924.82   17.01
  -1  -2   0  949.73   16.80
  -1  -2   0 1000.00   17.15
  -1  -2   0  973.47   16.76
  -1  -2   0  996.72   16.85
   1   2   0  962.25   16.95
   1   2   0  969.22   16.80
   1   2   0  958.33   16.76
   1   2   0  954.82   16.96
  -2  -2   0   81.18    1.54
  -2  -2   0   80.54    1.50
  -2  -2   0   82.54    1.47
  -2  -2   0   83.35    1.50
   2   2   0   80.96    1.51
   2   2   0   81.86    1.59
   2   2   0   84.80    1.47
   2   2   0   84.47    1.57
   2   2   0   83.72    1.49
   2   2   0   82.98    1.48
  -3  -2   0   10.25    0.27
  -3  -2   0   10.79    0.27
  -3  -2   0   10.43    0.28
  -3  -2   0   10.15    0.34
   3   2   0   10.24    0.28
   3   2   0    9.68    0.34
   3   2   0   10.69    0.37
   3   2   0   10.14    0.23
   3   2   0   10.28    0.32
  -4  -2   0    6.30    0.22
  -4  -2   0    6.75    0.22
  -4  -2   0    6.96    0.24
   4   2   0    6.27    0.29
   4   2   0    7.31    0.35
   4   2   0    6.66    0.30
  -5  -2   0   17.02    0.47
  -5  -2   0   17.41    0.44
  -5  -2   0   17.63    0.51
  -5  -2   0   17.63    0.46
   5   2   0   17.60    0.54
   5   2   0   17.83    0.65
  -6  -2   0   30.49    0.74
   6   2   0   29.23    0.78
   7   2   0    2.18    0.23
  -7   3   0    0.83    0.21
  -6   3   0    1.50    0.24
  -5   3   0   17.20    0.59
  -3   3   0   12.50    0.27
   2  -3   0   28.17    0.62
  -2   3   0   29.36    0.63
  -2   3   0   29.32    0.53
  -2   3   0   28.91    0.54
  -2   3   0   28.73    0.56
   1  -3   0   14.91    0.33
   1  -3   0   14.51    0.30
   1  -3   0   15.55    0.40
  -1   3   0   15.58    0.35
  -1   3   0   15.28    0.34
  -1   3   0   15.62    0.38
  -1   3   0   15.33    0.33
  -1   3   0   15.03    0.38
   0  -3   0  304.18    5.29
   0  -3   0  301.90    5.34
   0  -3   0  303.57    5.39
   0  -3   0  303.42    5.30
   0  -3   0  304.90    5.32
   0   3   0  310.32    5.30
   0   3   0  306.51    5.33
   0   3   0  311.86    5.38
   0   3   0  296.87    5.34
   0   3   0  312.79    5.31
   0   3   0  307.41    5.30
  -1  -3   0  208.85    3.69
  -1  -3   0  208.47    3.70
  -1  -3   0  204.58    3.66
  -1  -3   0  213.16    3.67
  -1  -3   0  211.79    3.77
   1   3   0  208.50    3.76
   1   3   0  203.87    3.69
   1   3   0  207.04    3.66
   1   3   0  203.64    3.66
   1   3   0  213.96    3.71
  -2  -3   0    0.83    0.11
  -2  -3   0    0.85    0.09
  -2  -3   0    0.72    0.08
  -2  -3   0    0.91    0.11
   2   3   0    0.55    0.07
   2   3   0    0.82    0.10
   2   3   0    0.81    0.07
   2   3   0    0.77    0.13
   2   3   0    0.78    0.08
  -3  -3   0   35.08    0.67
  -3  -3   0   33.16    0.71
  -3  -3   0   34.03    0.76
  -3  -3   0   34.19    0.72
   3   3   0   33.72    0.69
   3   3   0   33.85    0.83
   3   3   0   33.41    0.80
   3   3   0   34.10    0.74
   3   3   0   32.64    0.68
  -4  -3   0   84.77    1.63
  -4  -3   0   85.98    1.69
  -4  -3   0   86.68    1.60
  -4  -3   0   85.75    1.63
   4   3   0   85.92    1.78
   4   3   0   87.21    1.81
   4   3   0   85.35    1.69
  -5  -3   0    1.13    0.16
  -5  -3   0    1.11    0.14
  -5  -3   0    1.10    0.13
   5   3   0    0.94    0.20
   5   3   0    1.25    0.20
  -6  -3   0    0.56    0.14
   6   3   0    0.45    0.19
   6   3   0    0.61    0.17
   7   3   0    0.06    0.12
  -7   4   0    0.22    0.18
  -6   4   0    7.75    0.44
  -5   4   0    8.58    0.33
  -5   4   0    7.95    0.41
  -4   4   0   10.39    0.35
  -4   4   0   10.66    0.27
   3  -4   0   12.23    0.37
  -3   4   0   12.83    0.31
  -3   4   0   12.42    0.27
  -3   4   0   12.87    0.38
  -3   4   0   12.60    0.28
   2  -4   0  128.70    2.39
  -2   4   0  129.43    2.29
  -2   4   0  128.44    2.36
  -2   4   0  125.20    2.26
  -2   4   0  127.21    2.27
   1  -4   0   55.45    1.07
   1  -4   0   55.56    1.13
   1  -4   0   58.48    1.05
   1  -4   0   57.73    1.19
  -1   4   0   56.42    1.18
  -1   4   0   56.84    1.14
  -1   4   0   56.35    1.10
  -1   4   0   56.76    1.08
  -1   4   0   56.28    1.09
  -1   4   0   60.46    1.24
   0  -4   0   35.08    0.83
   0  -4   0   35.01    0.71
   0  -4   0   34.73    0.72
   0  -4   0   34.89    0.75
   0  -4   0   35.22    0.78
   0   4   0   33.93    0.77
   0   4   0   34.84    0.73
   0   4   0   35.03    0.73
   0   4   0   35.25    0.77
   0   4   0   35.30    0.81
  -1  -4   0   67.41    1.33
  -1  -4   0   68.22    1.34
  -1  -4   0   68.06    1.30
   1   4   0   66.61    1.29
   1   4   0   66.57    1.34
   1   4   0   67.26    1.34
   1   4   0   67.66    1.30
  -2  -4   0    0.59    0.13
  -2  -4   0    0.58    0.09
  -2  -4   0    0.95    0.11
  -2  -4   0    0.88    0.12
  -2  -4   0    0.78    0.12
   2   4   0    0.64    0.09
   2   4   0    0.93    0.07
   2   4   0    0.76    0.10
   2   4   0    0.46    0.11
  -3  -4   0  154.32    2.85
  -3  -4   0  153.68    2.93
  -3  -4   0  155.69    2.89
  -3  -4   0  160.24    2.86
   3   4   0  153.54    2.77
   3   4   0  158.06    2.83
   3   4   0  157.72    2.93
   3   4   0  158.54    2.80
   3   4   0  153.64    3.01
   3   4   0  158.34    2.82
  -4  -4   0    3.85    0.25
  -4  -4   0    4.15    0.22
  -4  -4   0    4.19    0.23
  -4  -4   0    4.03    0.26
   4   4   0    4.09    0.18
   4   4   0    3.98    0.30
   4   4   0    3.83    0.18
   4   4   0    3.54    0.23
   4   4   0    4.41    0.29
   5   4   0    1.20    0.19
   5   4   0    1.72    0.23
   6   4   0   13.10    0.56
   6   4   0   14.01    0.63
   7   4   0    1.00    0.20
  -6   5   0    0.83    0.21
  -5   5   0    1.47    0.17
   4  -5   0    1.49    0.17
  -4   5   0    1.50    0.13
  -4   5   0    1.62    0.18
  -4   5   0    1.53    0.10
   3  -5   0    0.02    0.07
  -3   5   0   -0.03    0.06
  -3   5   0   -0.03    0.05
  -3   5   0   -0.02    0.07
  -3   5   0    0.03    0.04
   2  -5   0  116.56    2.24
   2  -5   0  113.42    2.03
  -2   5   0  111.55    2.09
  -2   5   0  118.34    2.28
  -2   5   0  115.47    2.11
  -2   5   0  114.92    2.19
  -2   5   0  114.88    2.10
   1  -5   0   42.43    0.90
   1  -5   0   40.92    0.97
   1  -5   0   41.02    0.84
  -1   5   0   41.73    0.92
  -1   5   0   41.31    0.86
  -1   5   0   40.76    0.86
  -1   5   0   41.95    0.96
  -1   5   0   40.91    0.85
   0  -5   0  138.69    2.54
   0  -5   0  135.42    2.58
   0  -5   0  141.99    2.52
   0  -5   0  139.63    2.62
   0  -5   0  139.76    2.70
   0   5   0  137.97    2.62
   0   5   0  142.20    2.67
   0   5   0  138.57    2.60
   0   5   0  143.01    2.55
   0   5   0  137.55    2.55
  -1  -5   0  322.44    5.70
  -1  -5   0  322.12    5.64
  -1  -5   0  326.26    5.81
  -1  -5   0  322.52    5.65
   1   5   0  310.47    5.69
   1   5   0  325.82    5.64
   1   5   0  317.15    5.64
   1   5   0  316.95    5.70
  -2  -5   0   14.79    0.53
  -2  -5   0   14.16    0.42
  -2  -5   0   14.54    0.45
  -2  -5   0   13.94    0.45
   2   5   0   14.07    0.41
   2   5   0   14.60    0.53
   2   5   0   13.77    0.46
   2   5   0   15.08    0.41
  -3  -5   0   46.10    1.07
  -3  -5   0   48.03    1.06
   3   5   0   47.95    1.00
   3   5   0   46.85    0.98
   3   5   0   46.33    0.91
   3   5   0   47.33    1.07
   3   5   0   47.86    1.18
  -4  -5   0   25.28    0.73
   4   5   0   26.50    0.63
   4   5   0   26.46    0.66
   4   5   0   25.99    0.82
   4   5   0   26.59    0.58
   4   5   0   27.46    0.76
   5   5   0    0.50    0.12
   5   5   0    0.27    0.16
   5   5   0    0.31    0.14
   6   5   0    0.77    0.22
   6   5   0    0.96    0.22
   7   5   0    1.87    0.32
   7   5   0    1.74    0.26
  -6   6   0    3.30    0.20
  -6   6   0    3.26    0.36
  -5   6   0    1.51    0.14
  -5   6   0    1.75    0.20
   4  -6   0   20.51    0.62
  -4   6   0   20.62    0.61
  -4   6   0   20.70    0.51
  -4   6   0   21.01    0.52
   3  -6   0    0.67    0.16
  -3   6   0    0.96    0.10
  -3   6   0    0.69    0.13
  -3   6   0    0.53    0.18
  -3   6   0    0.43    0.10
  -3   6   0    0.50    0.10
   2  -6   0    8.22    0.39
   2  -6   0    8.51    0.25
  -2   6   0    8.69    0.29
  -2   6   0    8.65    0.40
  -2   6   0    8.65    0.31
  -2   6   0    8.84    0.36
  -2   6   0    9.16    0.31
   1  -6   0   81.35    1.58
   1  -6   0   83.62    1.77
   1  -6   0   82.33    1.65
  -1   6   0   83.25    1.72
  -1   6   0   82.72    1.60
  -1   6   0   83.87    1.68
  -1   6   0   81.59    1.61
  -1   6   0   84.04    1.62
   0  -6   0    0.11    0.08
   0  -6   0    0.11    0.09
   0  -6   0    0.08    0.06
   0  -6   0   -0.11    0.09
   0   6   0    0.11    0.10
   0   6   0   -0.01    0.11
   0   6   0    0.06    0.08
   0   6   0    0.08    0.09
   0   6   0    0.00    0.08
  -1  -6   0   -0.04    0.07
  -1  -6   0   -0.06    0.08
  -1  -6   0    0.07    0.11
  -1  -6   0    0.07    0.08
   1   6   0    0.02    0.09
   1   6   0    0.04    0.07
   1   6   0   -0.02    0.10
   1   6   0    0.02    0.09
   1   6   0   -0.04    0.09
  -2  -6   0   27.41    0.74
  -2  -6   0   28.71    0.71
  -2  -6   0   28.46    0.85
   2   6   0   27.56    0.75
   2   6   0   29.20    0.78
   2   6   0   28.73    0.69
   2   6   0   28.46    0.70
   2   6   0   28.19    0.84
  -3  -6   0    0.91    0.16
   3   6   0    0.69    0.14
   3   6   0    1.14    0.11
   3   6   0    1.01    0.14
   3   6   0    0.83    0.15
   3   6   0    0.92    0.13
   4   6   0    4.01    0.17
   4   6   0    4.02    0.23
   4   6   0    3.88    0.34
   4   6   0    4.08    0.28
   4   6   0    4.45    0.24
   5   6   0    0.04    0.13
   5   6   0    0.06    0.12
   5   6   0    0.21    0.11
   5   6   0   -0.07    0.11
   6   6   0   -0.04    0.14
   6   6   0   -0.10    0.14
   7   6   0    0.49    0.22
   7   6   0    0.44    0.19
  -6   7   0    0.46    0.20
  -6   7   0    0.32    0.12
  -6   7   0    0.18    0.23
  -5   7   0    3.71    0.41
  -5   7   0    2.93    0.22
   4  -7   0    5.44    0.34
  -4   7   0    4.95    0.40
  -4   7   0    5.69    0.32
  -4   7   0    5.30    0.27
  -4   7   0    5.16    0.27
   3  -7   0    0.02    0.11
  -3   7   0    0.01    0.09
  -3   7   0    0.10    0.11
  -3   7   0    0.02    0.09
  -3   7   0   -0.20    0.15
   2  -7   0    0.27    0.07
   2  -7   0    0.32    0.14
  -2   7   0    0.15    0.15
  -2   7   0    0.31    0.10
  -2   7   0    0.25    0.11
  -2   7   0    0.16    0.10
  -2   7   0    0.16    0.12
   1  -7   0    4.68    0.34
  -1   7   0    4.85    0.26
  -1   7   0    4.78    0.27
  -1   7   0    4.66    0.29
  -1   7   0    4.32    0.32
   0  -7   0    0.04    0.12
   0  -7   0    0.32    0.08
   0   7   0    0.13    0.12
   0   7   0    0.29    0.11
   0   7   0    0.22    0.10
   0   7   0    0.26    0.13
   0   7   0    0.16    0.11
  -1  -7   0   85.28    1.91
  -1  -7   0   85.87    1.69
   1   7   0   85.12    1.87
   1   7   0   82.01    1.77
   1   7   0   82.97    1.69
   1   7   0   85.80    1.70
   1   7   0   84.06    1.78
  -2  -7   0    5.77    0.30
  -2  -7   0    5.71    0.39
   2   7   0    6.23    0.35
   2   7   0    5.70    0.33
   2   7   0    7.26    0.48
   2   7   0    5.98    0.31
   2   7   0    5.36    0.29
  -3  -7   0    6.43    0.35
   3   7   0    6.92    0.32
   3   7   0    6.40    0.43
   3   7   0    6.03    0.30
   3   7   0    6.46    0.23
   4   7   0    2.07    0.24
   4   7   0    1.17    0.20
   4   7   0    1.93    0.19
   4   7   0    1.91    0.19
   5   7   0    8.13    0.50
   5   7   0    8.60    0.46
   5   7   0    8.16    0.37
   5   7   0    7.77    0.51
   6   7   0   -0.16    0.16
   6   7   0   -0.15    0.12
  -5   8   0   -0.12    0.20
  -5   8   0   -0.01    0.11
   4  -8   0    3.85    0.33
  -4   8   0    3.56    0.38
  -4   8   0    3.67    0.26
  -4   8   0    3.88    0.31
  -4   8   0    3.59    0.26
   3  -8   0    9.74    0.50
  -3   8   0    9.36    0.44
  -3   8   0    9.60    0.52
  -3   8   0    9.66    0.39
  -3   8   0    9.72    0.39
   2  -8   0    1.19    0.23
  -2   8   0    0.75    0.14
  -2   8   0    0.63    0.21
  -2   8   0    1.29    0.20
  -2   8   0    0.95    0.16
   1  -8   0    1.87    0.27
  -1   8   0    1.62    0.19
  -1   8   0    2.86    0.27
  -1   8   0    1.58    0.23
  -1   8   0    1.87    0.20
   0  -8   0    5.78    0.27
   0  -8   0    5.87    0.42
   0   8   0    6.34    0.34
   0   8   0    6.03    0.46
   0   8   0    6.35    0.38
   0   8   0    6.32    0.37
   0   8   0    6.20    0.33
  -1  -8   0    5.73    0.42
  -1  -8   0    6.16    0.30
   1   8   0    6.32    0.33
   1   8   0    5.60    0.35
   1   8   0    5.93    0.32
   1   8   0    6.70    0.46
   1   8   0    5.67    0.35
  -2  -8   0    8.11    0.38
   2   8   0    8.64    0.45
   2   8   0    7.10    0.40
   2   8   0    8.12    0.37
   2   8   0    8.22    0.49
   2   8   0    7.58    0.36
  -3  -8   0    0.72    0.18
   3   8   0    0.46    0.19
   3   8   0    0.62    0.10
   3   8   0    0.54    0.14
   3   8   0    0.50    0.13
  -4  -8   0    1.18    0.20
   4   8   0    0.86    0.25
   4   8   0    0.91    0.14
   4   8   0    0.77    0.16
   4   8   0    0.79    0.17
  -5  -8   0    0.21    0.16
   5   8   0    0.15    0.15
   5   8   0   -0.15    0.14
  -6  -8   0    0.31    0.18
   6   8   0    0.02    0.16
  -5   9   0    0.72    0.17
  -4   9   0    0.22    0.15
  -4   9   0    0.37    0.24
  -4   9   0    0.22    0.13
  -4   9   0    0.24    0.13
   3  -9   0    0.29    0.15
  -3   9   0    0.27    0.15
  -3   9   0    0.21    0.14
  -3   9   0    0.20    0.21
  -3   9   0    0.36    0.14
   2  -9   0    0.17    0.15
  -2   9   0    0.09    0.13
  -2   9   0    0.37    0.17
  -2   9   0   -0.01    0.17
  -2   9   0    0.21    0.13
   1  -9   0   11.48    0.59
  -1   9   0   11.85    0.53
  -1   9   0   12.35    0.56
  -1   9   0   12.01    0.48
  -1   9   0   11.35    0.47
   0  -9   0    9.87    0.57
   0  -9   0   11.55    0.39
   0   9   0   10.23    0.51
   0   9   0    9.54    0.43
   0   9   0    9.81    0.49
   0   9   0    9.78    0.44
  -1  -9   0    8.49    0.38
   1   9   0    8.42    0.46
   1   9   0    8.72    0.41
   1   9   0    8.76    0.46
   1   9   0    8.71    0.42
  -2  -9   0    1.41    0.21
   2   9   0    1.22    0.20
   2   9   0    1.47    0.26
   2   9   0    1.02    0.19
   2   9   0    1.12    0.23
  -3  -9   0    8.95    0.45
   3   9   0    8.15    0.41
   3   9   0    8.29    0.53
  -4  -9   0    2.86    0.31
   4   9   0    2.30    0.25
   4   9   0    2.61    0.29
  -5  -9   0    0.29    0.18
   5   9   0   -0.15    0.13
  -6  -9   0    1.17    0.24
   6   9   0    1.18    0.26
  -4  10   0    0.23    0.16
  -4  10   0    0.03    0.14
  -4  10   0    0.18    0.15
   3 -10   0    0.68    0.21
  -3  10   0    0.48    0.18
  -3  10   0    0.35    0.23
  -3  10   0    0.19    0.14
  -3  10   0    0.00    0.13
   2 -10   0   -0.05    0.14
  -2  10   0    0.20    0.16
  -2  10   0    0.05    0.13
  -2  10   0    0.01    0.13
  -2  10   0   -0.13    0.17
  -1  10   0   13.88    0.55
  -1  10   0   13.86    0.61
  -1  10   0   14.80    0.56
  -1  10   0   14.26    0.64
   0  10   0    0.13    0.17
   0  10   0   -0.18    0.12
   0  10   0    0.05    0.14
   0  10   0    0.21    0.15
  -1 -10   0    7.21    0.37
   1  10   0    6.97    0.41
   1  10   0    7.17    0.46
   1  10   0    7.70    0.42
   1  10   0    6.53    0.45
  -2 -10   0    7.08    0.39
   2  10   0    6.93    0.46
   2  10   0    6.84    0.40
   2  10   0    6.86    0.41
   2  10   0    6.85    0.46
  -3 -10   0    7.60    0.44
   3  10   0    7.33    0.42
  -4 -10   0    1.97    0.29
   4  10   0    1.84    0.25
   4  10   0    1.83    0.26
  -5 -10   0    0.12    0.19
   5  10   0    0.32    0.16
  -4  11   0   -0.14    0.15
  -4  11   0    0.00    0.17
  -4  11   0   -0.19    0.15
  -3  11   0    2.73    0.30
  -3  11   0    2.64    0.30
  -3  11   0    2.74    0.34
  -2  11   0    1.25    0.29
  -2  11   0    0.78    0.23
  -2  11   0    0.87    0.21
  -2  11   0    0.56    0.18
  -1  11   0   10.12    0.50
  -1  11   0    9.94    0.58
  -1  11   0   10.03    0.51
  -1  11   0    9.81    0.55
   0  11   0    2.22    0.28
   0  11   0    2.48    0.34
   0  11   0    2.02    0.27
   0  11   0    2.54    0.35
   1  11   0    1.03    0.27
   1  11   0    0.85    0.21
   1  11   0    0.95    0.24
   1  11   0    0.86    0.21
  -2 -11   0    8.65    0.45
   2  11   0    7.64    0.46
   2  11   0    9.18    0.56
   2  11   0    9.02    0.50
   2  11   0    8.40    0.55
  -3 -11   0    0.76    0.20
   3  11   0    0.69    0.21
  -4 -11   0    0.19    0.20
   4  11   0    0.24    0.16
   4  11   0    0.34    0.18
  -5 -11   0   10.97    0.60
  -3  12   0    0.50    0.21
  -3  12   0    0.27    0.19
  -2  12   0    2.10    0.34
  -2  12   0    2.83    0.33
  -2  12   0    2.11    0.30
  -1  12   0    0.19    0.18
  -1  12   0    0.11    0.18
  -1  12   0    0.19    0.17
   0  12   0    6.08    0.45
   0  12   0    5.38    0.43
   0  12   0    5.46    0.49
   0  12   0    5.99    0.48
   1  12   0    1.54    0.31
   1  12   0    1.68    0.29
   1  12   0    1.75    0.28
   1  12   0    1.80    0.33
   2  12   0    0.39    0.20
   2  12   0    0.64    0.25
   2  12   0    0.60    0.25
   2  12   0    0.67    0.26
  -3 -12   0    3.69    0.37
   3  12   0    3.18    0.35
  -4 -12   0    7.12    0.50
   4  12   0    6.70    0.48
  -1  13   0    1.79    0.30
   0  13   0   -0.11    0.18
   1  13   0    0.35    0.26
   1  13   0    0.00    0.20
   2  13   0    4.79    0.57
   1  13  -1    0.96    0.28
   0  13  -1    1.45    0.30
   3  12  -1    1.79    0.29
   2  12  -1    0.37    0.25
   2  12  -1    0.39    0.22
   1  12  -1    0.93    0.32
   1  12  -1    0.98    0.25
   1  12  -1    1.09    0.28
   1  12  -1    0.84    0.25
   0  12  -1    1.25    0.27
   0  12  -1    1.33    0.29
   0  12  -1    1.82    0.30
  -1  12  -1    0.06    0.18
  -1  12  -1    0.31    0.20
  -1  12  -1    0.04    0.19
  -2  12  -1    0.64    0.22
  -2  12  -1    0.58    0.25
  -2  12  -1    0.37    0.20
   4  11  -1    0.55    0.20
   4  11  -1    0.42    0.20
  -4 -11   1    1.06    0.26
   3  11  -1    0.57    0.20
  -3 -11   1   -0.04    0.16
   2  11  -1    6.97    0.45
   2  11  -1    6.13    0.49
   2  11  -1    6.35    0.45
  -2 -11   1    7.14    0.43
   1  11  -1    0.62    0.21
   1  11  -1    0.68    0.21
   1  11  -1    1.27    0.28
   1  11  -1    0.69    0.25
   0  11  -1    1.77    0.30
   0  11  -1    1.16    0.23
   0  11  -1    1.24    0.23
   0  11  -1    2.07    0.33
  -1  11  -1    0.03    0.20
  -1  11  -1    0.05    0.16
  -1  11  -1   -0.04    0.16
  -1  11  -1    0.10    0.17
  -2  11  -1    0.33    0.20
  -2  11  -1    0.07    0.16
  -2  11  -1    0.14    0.17
  -3  11  -1    0.18    0.19
  -3  11  -1    0.46    0.20
  -3  11  -1    0.34    0.17
   5  10  -1   -0.03    0.15
  -5 -10   1    0.09    0.19
   4  10  -1   -0.15    0.15
   4  10  -1    0.09    0.16
  -4 -10   1   -0.13    0.17
   3  10  -1    0.13    0.15
  -3 -10   1   -0.03    0.15
   2  10  -1    1.23    0.27
   2  10  -1    1.47    0.25
   2  10  -1    1.33    0.23
  -2 -10   1    1.10    0.20
   1  10  -1    4.89    0.41
   1  10  -1    3.83    0.35
   1  10  -1    5.03    0.37
   1  10  -1    4.13    0.39
  -1 -10   1    4.51    0.32
   0  10  -1    1.68    0.28
   0  10  -1    1.49    0.23
   0  10  -1    1.60    0.26
   0  10  -1    1.41    0.23
  -1  10  -1    0.17    0.15
  -1  10  -1    0.19    0.20
  -1  10  -1    0.28    0.16
  -1  10  -1    0.14    0.16
  -2  10  -1    9.63    0.52
  -2  10  -1   10.66    0.59
  -2  10  -1   10.41    0.49
  -2  10  -1   10.21    0.48
  -3  10  -1   -0.07    0.13
  -3  10  -1    0.06    0.21
  -3  10  -1   -0.12    0.14
  -3  10  -1   -0.29    0.13
  -4  10  -1    3.21    0.30
  -4  10  -1    3.62    0.44
  -4  10  -1    2.61    0.29
   6   9  -1    0.01    0.18
  -6  -9   1    0.40    0.22
   5   9  -1    2.59    0.32
  -5  -9   1    3.07    0.34
   4   9  -1    6.65    0.40
   4   9  -1    7.02    0.43
  -4  -9   1    6.93    0.44
   3   9  -1   -0.17    0.13
  -3  -9   1   -0.02    0.14
   2   9  -1   -0.01    0.13
   2   9  -1    0.02    0.14
   2   9  -1   -0.01    0.16
  -2  -9   1    0.16    0.14
   1   9  -1   10.72    0.52
   1   9  -1   11.72    0.49
   1   9  -1   11.70    0.55
   1   9  -1   11.91    0.50
  -1  -9   1   12.77    0.47
   0   9  -1    1.30    0.24
   0   9  -1    1.88    0.27
   0   9  -1    1.00    0.18
   0   9  -1    1.26    0.20
   0  -9   1    1.66    0.18
  -1   9  -1    2.45    0.30
  -1   9  -1    2.27    0.30
  -1   9  -1    2.18    0.25
  -1   9  -1    1.87    0.22
  -2   9  -1   11.92    0.54
  -2   9  -1   12.24    0.49
  -2   9  -1   12.73    0.50
  -2   9  -1   12.66    0.61
  -3   9  -1    1.68    0.25
  -3   9  -1    1.47    0.21
  -3   9  -1    1.55    0.22
  -3   9  -1    2.03    0.32
  -4   9  -1    0.21    0.15
  -4   9  -1    0.43    0.18
  -4   9  -1    0.42    0.23
  -4   9  -1    0.21    0.15
  -5   9  -1   -0.01    0.13
   6   8  -1    5.90    0.45
   5   8  -1   10.74    0.54
   4   8  -1    1.18    0.22
   4   8  -1    1.19    0.16
   4   8  -1    0.93    0.17
   3   8  -1   24.92    0.70
   3   8  -1   23.93    0.71
   3   8  -1   22.89    0.88
  -3  -8   1   24.59    0.74
   2   8  -1    2.12    0.28
   2   8  -1    1.39    0.20
   2   8  -1    2.02    0.23
   2   8  -1    1.72    0.29
  -2  -8   1    1.73    0.23
   1   8  -1   -0.07    0.11
   1   8  -1    0.13    0.12
   1   8  -1   -0.04    0.12
   1   8  -1   -0.13    0.14
   1   8  -1   -0.12    0.10
  -1  -8   1   -0.14    0.09
   0   8  -1   11.01    0.49
   0   8  -1   10.63    0.44
   0   8  -1   10.82    0.48
   0   8  -1   10.30    0.43
   0  -8   1   10.54    0.56
   0  -8   1   10.96    0.38
  -1   8  -1    4.11    0.29
  -1   8  -1    4.26    0.29
  -1   8  -1    4.61    0.33
  -1   8  -1    3.93    0.34
   1  -8   1    4.35    0.38
  -2   8  -1    3.11    0.26
  -2   8  -1    3.06    0.33
  -2   8  -1    2.95    0.26
  -2   8  -1    2.87    0.28
   2  -8   1    2.78    0.36
  -3   8  -1    0.23    0.13
  -3   8  -1    0.21    0.13
  -3   8  -1    0.66    0.17
  -3   8  -1    0.29    0.20
  -4   8  -1    0.28    0.21
  -4   8  -1    0.33    0.14
  -4   8  -1    0.41    0.16
  -4   8  -1    0.19    0.12
  -5   8  -1    0.27    0.26
  -5   8  -1    0.14    0.12
   6   7  -1    4.21    0.43
   6   7  -1    3.79    0.37
   5   7  -1    7.87    0.45
   5   7  -1    7.07    0.50
   5   7  -1    7.45    0.52
   4   7  -1   11.59    0.38
   4   7  -1   11.73    0.43
   4   7  -1   11.99    0.50
   4   7  -1   11.94    0.60
   3   7  -1    0.37    0.09
   3   7  -1    0.23    0.12
   3   7  -1    0.23    0.11
   3   7  -1    0.32    0.12
   2   7  -1    7.36    0.45
   2   7  -1    7.27    0.33
   2   7  -1    7.37    0.35
   2   7  -1    7.10    0.38
  -2  -7   1    7.16    0.35
   1   7  -1    1.01    0.15
   1   7  -1    0.78    0.17
   1   7  -1    0.95    0.15
   1   7  -1    1.01    0.19
   1   7  -1    1.41    0.21
  -1  -7   1    1.26    0.16
   0   7  -1    2.76    0.23
   0   7  -1    2.98    0.24
   0   7  -1    3.16    0.25
   0   7  -1    2.75    0.30
   0   7  -1    3.01    0.26
   0  -7   1    3.00    0.20
   0  -7   1    2.93    0.34
  -1   7  -1   21.18    0.59
  -1   7  -1   20.56    0.68
  -1   7  -1   20.45    0.59
  -1   7  -1   20.80    0.65
   1  -7   1   21.74    0.74
  -2   7  -1   31.99    0.92
  -2   7  -1   31.70    0.85
  -2   7  -1   31.90    0.78
  -2   7  -1   32.93    0.78
   2  -7   1   31.28    0.69
   2  -7   1   32.45    0.95
  -3   7  -1    0.21    0.18
  -3   7  -1    0.62    0.13
  -3   7  -1    0.28    0.13
  -3   7  -1    0.20    0.11
  -4   7  -1   -0.20    0.17
  -4   7  -1    0.03    0.11
  -4   7  -1    0.14    0.10
  -4   7  -1    0.06    0.10
  -5   7  -1    1.32    0.16
  -5   7  -1    2.01    0.34
  -6   7  -1    0.05    0.11
   7   6  -1    3.15    0.40
   7   6  -1    3.01    0.41
   6   6  -1    1.39    0.25
   6   6  -1    2.25    0.33
   5   6  -1    8.83    0.35
   5   6  -1    8.72    0.47
   5   6  -1    9.32    0.53
   5   6  -1    9.01    0.41
   4   6  -1    2.11    0.19
   4   6  -1    2.38    0.26
   4   6  -1    2.42    0.31
   4   6  -1    2.14    0.15
   4   6  -1    2.35    0.18
   3   6  -1    1.14    0.15
   3   6  -1    1.98    0.29
   3   6  -1    1.30    0.12
   3   6  -1    1.07    0.14
  -3  -6   1    1.02    0.16
   2   6  -1    0.61    0.12
   2   6  -1    0.52    0.12
   2   6  -1    0.22    0.10
   2   6  -1    0.53    0.14
  -2  -6   1    0.51    0.12
   1   6  -1   14.02    0.44
   1   6  -1   13.39    0.54
   1   6  -1   13.51    0.43
   1   6  -1   13.48    0.47
   1   6  -1   13.36    0.48
  -1  -6   1   13.11    0.43
  -1  -6   1   13.16    0.46
   0   6  -1   36.01    0.94
   0   6  -1   33.44    0.86
   0   6  -1   34.16    0.87
   0   6  -1   34.33    0.80
   0   6  -1   34.82    0.81
   0  -6   1   34.96    0.96
   0  -6   1   34.15    0.76
  -1   6  -1    3.85    0.28
  -1   6  -1    3.30    0.21
  -1   6  -1    3.04    0.23
  -1   6  -1    3.65    0.22
   1  -6   1    3.60    0.29
   1  -6   1    3.69    0.19
  -2   6  -1   17.76    0.54
  -2   6  -1   17.24    0.48
  -2   6  -1   17.53    0.47
  -2   6  -1   17.07    0.48
  -2   6  -1   17.80    0.61
   2  -6   1   17.37    0.41
   2  -6   1   17.91    0.61
  -3   6  -1   18.42    0.49
  -3   6  -1   18.30    0.49
  -3   6  -1   17.88    0.55
  -3   6  -1   18.65    0.50
   3  -6   1   18.73    0.61
  -4   6  -1    1.38    0.15
  -4   6  -1    1.28    0.14
  -4   6  -1    1.65    0.19
  -5   6  -1    9.26    0.32
  -6   6  -1    0.02    0.15
  -6   6  -1   -0.11    0.08
   7   5  -1   -0.21    0.14
   7   5  -1   -0.01    0.15
   6   5  -1    4.85    0.42
   6   5  -1    4.86    0.42
   5   5  -1    1.14    0.16
   5   5  -1    1.18    0.22
   5   5  -1    1.01    0.14
   5   5  -1    0.57    0.16
   4   5  -1    1.18    0.12
   4   5  -1    1.10    0.14
   4   5  -1    1.39    0.20
   4   5  -1    0.99    0.13
   4   5  -1    0.74    0.19
  -4  -5   1    1.03    0.16
   3   5  -1   10.67    0.31
   3   5  -1   10.68    0.41
   3   5  -1   10.57    0.36
   3   5  -1   10.68    0.34
   3   5  -1   10.14    0.48
  -3  -5   1   10.35    0.39
   2   5  -1   48.56    1.03
   2   5  -1   50.26    1.03
   2   5  -1   50.21    1.11
   2   5  -1   48.22    1.19
  -2  -5   1   47.71    1.06
  -2  -5   1   49.12    1.09
   1   5  -1  140.49    2.58
   1   5  -1  142.09    2.63
   1   5  -1  137.41    2.82
   1   5  -1  141.61    2.58
   1   5  -1  132.37    2.63
  -1  -5   1  140.64    2.62
  -1  -5   1  138.27    2.62
  -1  -5   1  142.25    2.59
   0   5  -1   14.62    0.41
   0   5  -1   14.08    0.45
   0   5  -1   13.66    0.40
   0   5  -1   13.72    0.45
   0   5  -1   14.39    0.50
   0  -5   1   14.12    0.39
   0  -5   1   14.36    0.52
   0  -5   1   13.44    0.38
  -1   5  -1    9.82    0.39
  -1   5  -1    9.73    0.32
  -1   5  -1    9.55    0.35
  -1   5  -1    9.46    0.31
   1  -5   1    9.57    0.34
   1  -5   1    9.43    0.29
   1  -5   1    9.71    0.41
  -2   5  -1   62.38    1.23
  -2   5  -1   63.54    1.24
  -2   5  -1   64.95    1.25
  -2   5  -1   63.29    1.31
   2  -5   1   63.98    1.38
   2  -5   1   62.97    1.16
  -3   5  -1    5.73    0.22
  -3   5  -1    5.99    0.24
  -3   5  -1    5.76    0.20
  -3   5  -1    6.15    0.28
   3  -5   1    5.84    0.30
  -4   5  -1    4.21    0.19
  -4   5  -1    4.46    0.17
  -4   5  -1    4.81    0.25
  -4   5  -1    4.09    0.21
  -5   5  -1    2.37    0.29
  -5   5  -1    2.40    0.15
  -6   5  -1    0.71    0.21
   7   4  -1   13.51    0.68
   7   4  -1   13.10    0.59
   6   4  -1    4.38    0.40
   6   4  -1    4.61    0.37
   5   4  -1    8.23    0.44
   5   4  -1    8.04    0.44
  -5  -4   1    7.54    0.36
   4   4  -1    7.77    0.27
   4   4  -1    7.75    0.42
   4   4  -1    7.27    0.26
   4   4  -1    7.92    0.38
   4   4  -1    7.58    0.29
  -4  -4   1    8.15    0.32
  -4  -4   1    7.48    0.33
   3   4  -1  104.94    2.17
   3   4  -1  105.08    1.97
   3   4  -1  106.24    2.09
   3   4  -1  105.44    1.94
   3   4  -1  105.74    1.94
  -3  -4   1  106.18    2.01
  -3  -4   1  107.99    2.01
  -3  -4   1  103.72    2.03
  -3  -4   1  106.22    2.07
   2   4  -1   16.01    0.43
   2   4  -1   16.83    0.39
   2   4  -1   16.76    0.56
   2   4  -1   16.73    0.43
  -2  -4   1   16.73    0.45
  -2  -4   1   16.42    0.48
  -2  -4   1   16.53    0.46
   1   4  -1    5.15    0.23
   1   4  -1    5.24    0.22
   1   4  -1    5.54    0.26
   1   4  -1    5.17    0.24
  -1  -4   1    4.98    0.22
  -1  -4   1    4.95    0.24
  -1  -4   1    5.02    0.23
   0   4  -1  236.56    4.25
   0   4  -1  240.34    4.32
   0   4  -1  237.82    4.20
   0   4  -1  236.63    4.20
   0   4  -1  231.37    4.24
   0  -4   1  240.17    4.34
   0  -4   1  234.69    4.19
   0  -4   1  240.31    4.18
   0  -4   1  239.32    4.23
  -1   4  -1   33.67    0.71
  -1   4  -1   32.85    0.74
  -1   4  -1   33.09    0.80
  -1   4  -1   33.20    0.69
  -1   4  -1   33.26    0.70
   1  -4   1   33.18    0.73
   1  -4   1   33.50    0.81
   1  -4   1   33.33    0.68
   1  -4   1   34.45    0.65
  -2   4  -1    0.34    0.09
  -2   4  -1    0.59    0.07
  -2   4  -1    0.52    0.08
  -2   4  -1    0.54    0.07
   2  -4   1    0.42    0.11
  -3   4  -1    4.51    0.14
  -3   4  -1    4.27    0.17
  -3   4  -1    4.04    0.21
  -3   4  -1    4.20    0.15
   3  -4   1    4.47    0.23
  -4   4  -1    1.50    0.12
  -4   4  -1    1.94    0.16
  -5   4  -1    0.68    0.11
  -6   4  -1    7.62    0.44
  -7   4  -1    5.32    0.41
   7   3  -1    0.29    0.15
   6   3  -1   10.74    0.48
   6   3  -1    9.27    0.53
  -6  -3   1   10.74    0.39
   5   3  -1   65.75    1.54
   5   3  -1   63.15    1.48
  -5  -3   1   65.33    1.36
  -5  -3   1   66.23    1.31
   4   3  -1   28.17    0.58
   4   3  -1   27.40    0.67
   4   3  -1   27.61    0.79
   4   3  -1   28.41    0.65
   4   3  -1   27.72    0.79
   4   3  -1   27.36    0.57
  -4  -3   1   27.57    0.65
  -4  -3   1   28.59    0.63
  -4  -3   1   28.29    0.66
  -4  -3   1   28.82    0.73
   3   3  -1   28.87    0.62
   3   3  -1   29.62    0.74
   3   3  -1   28.38    0.61
   3   3  -1   29.46    0.62
   3   3  -1   29.01    0.59
   3   3  -1   29.03    0.77
  -3  -3   1   27.74    0.68
  -3  -3   1   28.59    0.65
  -3  -3   1   28.95    0.65
  -3  -3   1   28.27    0.70
   2   3  -1  246.88    4.29
   2   3  -1  243.17    4.33
   2   3  -1  246.25    4.48
   2   3  -1  246.34    4.32
  -2  -3   1  244.96    4.35
  -2  -3   1  250.59    4.40
  -2  -3   1  242.42    4.36
  -2  -3   1  252.01    4.35
   1   3  -1  126.55    2.39
   1   3  -1  122.77    2.26
   1   3  -1  122.97    2.27
   1   3  -1  130.07    2.30
  -1  -3   1  126.18    2.31
  -1  -3   1  126.19    2.28
  -1  -3   1  124.56    2.28
   0   3  -1   79.41    1.47
   0   3  -1   81.42    1.56
   0   3  -1   77.83    1.51
   0   3  -1   78.44    1.50
   0   3  -1   79.09    1.47
   0  -3   1   79.16    1.46
   0  -3   1   79.65    1.47
   0  -3   1   78.59    1.49
   0  -3   1   79.83    1.57
  -1   3  -1  147.72    2.64
  -1   3  -1  136.77    2.56
  -1   3  -1  144.98    2.61
  -1   3  -1  138.17    2.56
  -1   3  -1  147.43    2.56
   1  -3   1  140.44    2.54
   1  -3   1  159.77    2.52
   1  -3   1  146.19    2.59
   1  -3   1  141.57    2.66
  -2   3  -1    0.04    0.03
  -2   3  -1   -0.02    0.04
  -2   3  -1    0.03    0.03
  -2   3  -1    0.06    0.06
   2  -3   1    0.04    0.06
  -3   3  -1    9.60    0.29
  -3   3  -1    9.53    0.23
   3  -3   1    9.56    0.29
  -4   3  -1   17.31    0.44
  -5   3  -1    2.11    0.16
  -6   3  -1    1.70    0.24
  -7   3  -1    0.01    0.15
   7   2  -1    2.44    0.26
   6   2  -1   44.81    1.11
   6   2  -1   47.43    1.29
  -6  -2   1   46.46    1.04
   5   2  -1    3.34    0.31
   5   2  -1    2.98    0.25
  -5  -2   1    3.26    0.20
  -5  -2   1    2.94    0.21
   4   2  -1   46.92    0.98
   4   2  -1   45.65    1.07
   4   2  -1   46.59    1.13
  -4  -2   1   47.16    0.96
  -4  -2   1   47.95    0.96
  -4  -2   1   46.85    0.94
   3   2  -1   13.92    0.45
   3   2  -1   14.07    0.37
   3   2  -1   14.34    0.38
   3   2  -1   14.72    0.46
   3   2  -1   15.08    0.33
  -3  -2   1   14.56    0.37
  -3  -2   1   14.47    0.36
  -3  -2   1   14.82    0.36
   2   2  -1    6.36    0.20
   2   2  -1    6.45    0.27
   2   2  -1    6.65    0.25
   2   2  -1    6.32    0.18
   2   2  -1    6.50    0.20
  -2  -2   1    6.64    0.22
  -2  -2   1    6.74    0.21
  -2  -2   1    6.22    0.21
  -2  -2   1    6.27    0.19
   1   2  -1   20.12    0.44
   1   2  -1   20.66    0.45
   1   2  -1   20.27    0.52
   1   2  -1   20.08    0.43
  -1  -2   1   20.09    0.44
  -1  -2   1   20.53    0.44
  -1  -2   1   20.07    0.47
  -1  -2   1   20.64    0.44
   0   2  -1  255.18    4.50
   0   2  -1  262.96    4.55
   0   2  -1  254.71    4.47
   0   2  -1  256.74    4.47
   0   2  -1  258.33    4.50
   0  -2   1  260.36    4.49
   0  -2   1  256.00    4.47
   0  -2   1  258.34    4.46
  -1   2  -1    1.09    0.07
  -1   2  -1    1.14    0.06
  -1   2  -1    1.04    0.06
  -1   2  -1    1.13    0.09
  -1   2  -1    1.43    0.09
   1  -2   1    1.12    0.08
   1  -2   1    1.10    0.10
   1  -2   1    1.02    0.05
  -2   2  -1   37.65    0.69
  -2   2  -1   37.58    0.74
   2  -2   1   38.37    0.75
  -3   2  -1   26.58    0.56
  -4   2  -1   -0.04    0.05
  -5   2  -1    0.46    0.14
  -5   2  -1    0.52    0.09
  -6   2  -1   10.18    0.45
  -7   2  -1    0.72    0.20
   6   1  -1   10.84    0.41
  -6  -1   1   11.09    0.42
   5   1  -1    1.41    0.17
   5   1  -1    0.86    0.18
  -5  -1   1    1.25    0.12
  -5  -1   1    1.23    0.11
  -5  -1   1    1.28    0.16
   4   1  -1   43.71    1.05
   4   1  -1   40.92    0.93
  -4  -1   1   41.72    0.82
  -4  -1   1   41.76    0.83
  -4  -1   1   41.87    0.90
   3   1  -1   95.17    1.76
   3   1  -1   94.03    1.87
  -3  -1   1   97.08    1.75
  -3  -1   1   91.23    1.74
  -3  -1   1   94.20    1.69
  -3  -1   1   94.07    1.70
  -3  -1   1   93.67    1.84
   2   1  -1   10.90    0.28
   2   1  -1   11.81    0.34
   2   1  -1   11.17    0.25
   2   1  -1   11.43    0.29
  -2  -1   1   11.30    0.26
  -2  -1   1   11.60    0.33
  -2  -1   1   10.94    0.27
  -2  -1   1   11.54    0.28
  -2  -1   1   11.41    0.27
   1   1  -1   44.61    0.80
   1   1  -1   45.78    0.84
   1   1  -1   45.83    0.84
   1   1  -1   45.45    0.84
  -1  -1   1   46.28    0.84
  -1  -1   1   45.12    0.85
  -1  -1   1   47.19    0.84
  -1  -1   1   45.30    0.84
   0   1  -1   80.89    1.47
   0   1  -1   83.38    1.49
   0   1  -1   82.77    1.47
   0  -1   1   84.74    1.47
   0  -1   1   84.08    1.49
   0  -1   1   83.86    1.47
  -1   1  -1  206.36    3.62
  -1   1  -1  207.09    3.61
  -1   1  -1  215.96    3.63
   1  -1   1  209.61    3.65
  -2   1  -1   18.97    0.49
  -3   1  -1   68.44    1.43
  -5   1  -1    6.28    0.32
  -6   1  -1    7.34    0.37
  -7   1  -1    3.26    0.32
  -7   0   1    3.75    0.31
  -6   0   1    0.07    0.11
   5   0  -1    0.10    0.08
  -5   0   1    0.15    0.07
  -5   0   1    0.13    0.10
  -5   0   1    0.13    0.05
   4   0  -1    1.93    0.22
  -4   0   1    1.80    0.10
  -4   0   1    2.16    0.17
   3   0  -1   48.42    1.07
  -3   0   1   47.98    0.99
  -3   0   1   48.50    0.89
  -3   0   1   47.49    0.98
  -2   0   1    3.52    0.11
  -2   0   1    3.50    0.15
   1   0  -1  116.34    1.98
   1   0  -1  112.99    1.99
   1   0  -1  113.83    2.02
   1   0  -1  112.03    2.05
   1   0  -1  114.78    1.99
   1   0  -1  120.32    1.98
  -1   0   1  114.71    2.00
  -1   0   1  116.25    2.02
  -1   0   1  113.65    2.00
  -1   0   1  112.32    1.99
  -1   0   1  113.92    2.05
  -1   0   1  116.20    1.99
   0   0   1  158.09    2.75
  -1   0  -1  627.00   10.91
   1   0   1  621.25   10.88
   1   0   1  628.97   10.81
  -2   0  -1   39.00    0.80
  -2   0  -1   38.18    0.81
   2   0   1   37.45    0.80
  -3   0  -1  234.46    4.25
  -4   0  -1   14.24    0.42
  -5   0  -1   26.14    0.69
  -6   0  -1    2.38    0.24
  -7   1   1   -0.18    0.11
  -6   1   1   17.07    0.58
  -5   1   1   25.42    0.71
  -5   1   1   25.85    0.62
  -4   1   1   43.75    0.98
  -3   1   1   49.46    1.10
  -3   1   1   51.03    1.04
   2  -1  -1  224.62    4.11
  -2   1   1  234.17    4.07
  -2   1   1  233.72    4.12
   1  -1  -1  164.58    2.89
   1  -1  -1  166.78    2.93
  -1   1   1  168.22    2.92
  -1   1   1  162.89    2.93
  -1   1   1  167.15    2.90
  -1   1   1  169.32    2.86
   0  -1  -1  151.16    2.69
   0  -1  -1  152.35    2.64
   0  -1  -1  153.05    2.69
   0  -1  -1  159.70    2.68
   0  -1  -1  150.42    2.73
   0   1   1  157.50    2.64
   0   1   1  153.63    2.65
   0   1   1  156.94    2.69
   0   1   1  154.54    2.71
   0   1   1  137.06    2.66
   0   1   1  153.83    2.69
   0   1   1  152.43    2.75
  -1  -1  -1  134.57    2.30
  -1  -1  -1  132.45    2.34
  -1  -1  -1  132.05    2.30
  -1  -1  -1  130.61    2.34
  -1  -1  -1  133.96    2.31
   1   1   1  130.88    2.34
   1   1   1  131.49    2.30
   1   1   1  134.45    2.35
   1   1   1  131.23    2.34
   1   1   1  137.07    2.31
  -2  -1  -1   95.82    1.75
  -2  -1  -1   95.95    1.69
  -2  -1  -1   92.59    1.76
  -2  -1  -1   92.33    1.66
   2   1   1   95.51    1.71
   2   1   1   95.38    1.77
   2   1   1   95.78    1.76
  -3  -1  -1   31.30    0.60
  -3  -1  -1   31.71    0.75
  -3  -1  -1   31.07    0.65
   3   1   1   30.61    0.65
   3   1   1   31.13    0.73
  -4  -1  -1   11.05    0.34
   4   1   1   10.86    0.32
  -5  -1  -1    1.47    0.17
  -5  -1  -1    1.54    0.12
  -6  -1  -1   13.53    0.47
  -7   2   1    0.10    0.15
  -6   2   1    0.22    0.13
  -5   2   1    3.54    0.27
  -4   2   1   18.09    0.54
  -3   2   1   83.31    1.63
   2  -2  -1    0.36    0.05
  -2   2   1    0.53    0.09
  -2   2   1    0.38    0.03
   1  -2  -1  434.69    7.77
   1  -2  -1  429.51    7.46
   1  -2  -1  430.71    7.51
  -1   2   1  433.95    7.56
  -1   2   1  427.63    7.66
  -1   2   1  437.57    7.52
  -1   2   1  433.92    7.46
  -1   2   1  433.55    7.49
   0  -2  -1   30.67    0.57
   0  -2  -1   29.52    0.59
   0  -2  -1   28.66    0.56
   0  -2  -1   29.53    0.61
   0  -2  -1   29.10    0.56
   0   2   1   29.40    0.58
   0   2   1   29.77    0.56
   0   2   1   29.28    0.56
   0   2   1   28.85    0.56
   0   2   1   29.58    0.60
   0   2   1   29.82    0.59
  -1  -2  -1   30.44    0.59
  -1  -2  -1   30.49    0.60
  -1  -2  -1   31.43    0.65
  -1  -2  -1   30.52    0.60
  -1  -2  -1   30.66    0.60
   1   2   1   30.48    0.60
   1   2   1   30.79    0.60
   1   2   1   30.05    0.64
   1   2   1   30.87    0.60
   1   2   1   30.38    0.59
  -2  -2  -1   70.73    1.24
  -2  -2  -1   71.34    1.34
  -2  -2  -1   69.75    1.28
  -2  -2  -1   71.07    1.30
  -2  -2  -1   69.35    1.28
   2   2   1   70.54    1.33
   2   2   1   69.40    1.35
   2   2   1   70.06    1.27
   2   2   1   71.16    1.35
  -3  -2  -1    1.37    0.09
  -3  -2  -1    1.68    0.09
  -3  -2  -1    1.47    0.11
  -3  -2  -1    1.41    0.13
  -3  -2  -1    1.30    0.09
   3   2   1    1.22    0.13
   3   2   1    1.78    0.16
   3   2   1    1.53    0.13
  -4  -2  -1    5.83    0.23
  -4  -2  -1    5.89    0.20
  -4  -2  -1    5.68    0.19
  -4  -2  -1    6.02    0.22
   4   2   1    6.13    0.30
   4   2   1    5.69    0.26
   4   2   1    6.41    0.33
  -5  -2  -1    4.02    0.22
  -5  -2  -1    3.80    0.21
  -5  -2  -1    4.29    0.18
  -5  -2  -1    4.17    0.20
   5   2   1    4.28    0.24
  -6  -2  -1    9.74    0.36
   6   2   1    9.08    0.36
  -7   3   1    0.68    0.20
  -6   3   1   30.18    0.88
  -5   3   1    5.81    0.34
  -4   3   1   20.09    0.59
   3  -3  -1  108.97    1.96
  -3   3   1  106.00    1.89
   2  -3  -1    0.56    0.08
  -2   3   1    0.51    0.05
  -2   3   1    0.38    0.04
  -2   3   1    0.42    0.04
   1  -3  -1  179.87    3.07
   1  -3  -1  177.03    3.18
   1  -3  -1  179.22    3.10
  -1   3   1  179.03    3.19
  -1   3   1  180.23    3.11
  -1   3   1  178.31    3.17
  -1   3   1  171.98    3.10
  -1   3   1  180.09    3.11
   0  -3  -1    7.87    0.23
   0  -3  -1    7.67    0.26
   0  -3  -1    7.78    0.21
   0  -3  -1    8.00    0.25
   0  -3  -1    8.13    0.22
   0   3   1    7.94    0.22
   0   3   1    8.13    0.24
   0   3   1    8.13    0.26
   0   3   1    7.92    0.22
   0   3   1    8.14    0.22
  -1  -3  -1   99.11    1.78
  -1  -3  -1   97.28    1.85
  -1  -3  -1   96.97    1.83
  -1  -3  -1  101.70    1.78
  -1  -3  -1   96.69    1.77
  -1  -3  -1   96.04    1.77
   1   3   1   95.36    1.78
   1   3   1   98.60    1.85
   1   3   1   98.57    1.77
   1   3   1   96.88    1.77
  -2  -3  -1    0.94    0.09
  -2  -3  -1    0.68    0.08
  -2  -3  -1    0.70    0.12
  -2  -3  -1    0.69    0.09
   2   3   1    0.43    0.09
   2   3   1    0.55    0.08
   2   3   1    0.35    0.08
   2   3   1    0.58    0.07
   2   3   1    0.65    0.05
  -3  -3  -1   23.93    0.56
  -3  -3  -1   24.38    0.60
  -3  -3  -1   24.50    0.55
  -3  -3  -1   24.70    0.48
  -3  -3  -1   24.28    0.54
   3   3   1   24.08    0.63
   3   3   1   24.12    0.51
   3   3   1   24.45    0.62
   3   3   1   24.04    0.59
  -4  -3  -1    7.84    0.23
  -4  -3  -1    7.80    0.28
  -4  -3  -1    7.55    0.26
  -4  -3  -1    7.35    0.26
   4   3   1    7.19    0.33
   4   3   1    7.35    0.35
   4   3   1    7.74    0.33
  -5  -3  -1    2.48    0.19
  -5  -3  -1    2.62    0.16
  -5  -3  -1    2.25    0.19
   5   3   1    2.45    0.27
   5   3   1    2.45    0.22
   5   3   1    2.61    0.24
   6   3   1    0.47    0.15
   7   3   1    1.07    0.19
  -7   4   1    0.01    0.15
  -6   4   1    2.53    0.30
  -5   4   1    5.27    0.34
  -5   4   1    4.41    0.17
  -4   4   1    9.28    0.39
  -4   4   1    9.38    0.24
  -3   4   1    0.42    0.06
  -3   4   1    0.32    0.05
   2  -4  -1    6.92    0.26
  -2   4   1    6.85    0.29
  -2   4   1    6.42    0.25
  -2   4   1    7.06    0.19
  -2   4   1    6.33    0.20
  -2   4   1    6.43    0.21
   1  -4  -1   24.51    0.61
   1  -4  -1   22.87    0.50
   1  -4  -1   25.22    0.53
  -1   4   1   25.14    0.54
  -1   4   1   25.81    0.55
  -1   4   1   26.03    0.60
  -1   4   1   25.98    0.62
  -1   4   1   25.48    0.53
  -1   4   1   26.06    0.59
   0  -4  -1   64.72    1.27
   0  -4  -1   62.50    1.21
   0  -4  -1   63.32    1.24
   0  -4  -1   63.21    1.19
   0   4   1   64.00    1.22
   0   4   1   63.28    1.25
   0   4   1   64.35    1.27
   0   4   1   64.72    1.21
   0   4   1   63.76    1.29
   0   4   1   63.10    1.21
  -1  -4  -1    1.19    0.11
  -1  -4  -1    1.29    0.12
  -1  -4  -1    1.24    0.12
  -1  -4  -1    0.82    0.09
  -1  -4  -1    1.44    0.17
   1   4   1    1.06    0.13
   1   4   1    1.09    0.14
   1   4   1    1.34    0.13
   1   4   1    1.15    0.11
   1   4   1    0.99    0.10
  -2  -4  -1   77.11    1.48
  -2  -4  -1   77.57    1.58
  -2  -4  -1   77.36    1.47
  -2  -4  -1   76.32    1.54
  -2  -4  -1   77.37    1.46
   2   4   1   75.69    1.50
   2   4   1   76.34    1.45
   2   4   1   75.69    1.36
   2   4   1   74.61    1.56
   2   4   1   76.92    1.47
   2   4   1   77.40    1.45
  -3  -4  -1    5.91    0.24
  -3  -4  -1    5.72    0.23
  -3  -4  -1    5.54    0.24
   3   4   1    6.39    0.17
   3   4   1    7.12    0.20
   3   4   1    5.61    0.24
   3   4   1    5.89    0.22
   3   4   1    5.07    0.30
   3   4   1    6.84    0.28
  -4  -4  -1    7.18    0.28
  -4  -4  -1    7.16    0.30
  -4  -4  -1    6.66    0.27
   4   4   1    6.97    0.37
   4   4   1    6.89    0.34
   4   4   1    7.06    0.22
   4   4   1    6.95    0.32
  -5  -4  -1    0.00    0.08
  -5  -4  -1   -0.11    0.08
   5   4   1    0.00    0.10
   5   4   1   -0.15    0.09
   5   4   1   -0.05    0.09
   6   4   1    2.98    0.29
   6   4   1    2.88    0.33
   7   4   1    0.02    0.12
  -7   5   1    1.48    0.27
  -6   5   1    5.74    0.40
  -5   5   1    2.01    0.17
  -5   5   1    2.17    0.13
  -5   5   1    2.04    0.21
  -5   5   1    2.45    0.27
   4  -5  -1   10.35    0.36
  -4   5   1   10.84    0.27
  -4   5   1   10.53    0.28
  -4   5   1   10.40    0.39
  -4   5   1   10.38    0.29
   3  -5  -1    8.12    0.32
  -3   5   1    8.64    0.26
  -3   5   1    8.86    0.27
  -3   5   1    8.23    0.38
  -3   5   1    8.64    0.33
  -3   5   1    8.33    0.24
   2  -5  -1    2.92    0.12
   2  -5  -1    3.11    0.22
  -2   5   1    3.87    0.21
  -2   5   1    3.40    0.17
  -2   5   1    3.08    0.17
  -2   5   1    3.38    0.15
  -2   5   1    3.66    0.23
   1  -5  -1   90.24    1.67
   1  -5  -1   91.93    1.82
  -1   5   1   89.61    1.69
  -1   5   1   90.88    1.76
  -1   5   1   90.13    1.78
  -1   5   1   90.68    1.68
  -1   5   1   89.86    1.69
   0  -5  -1   23.83    0.51
   0  -5  -1   21.37    0.55
   0  -5  -1   21.92    0.63
   0  -5  -1   22.35    0.52
   0   5   1   22.18    0.53
   0   5   1   21.04    0.60
   0   5   1   21.48    0.53
   0   5   1   21.72    0.58
  -1  -5  -1  215.81    3.84
  -1  -5  -1  215.48    3.98
  -1  -5  -1  214.53    3.91
  -1  -5  -1  214.61    3.86
  -1  -5  -1  213.22    3.83
   1   5   1  210.13    3.88
   1   5   1  217.61    3.84
   1   5   1  212.85    3.84
   1   5   1  222.06    3.93
  -2  -5  -1    6.45    0.29
  -2  -5  -1    6.54    0.25
  -2  -5  -1    6.76    0.27
  -2  -5  -1    6.25    0.26
  -2  -5  -1    6.59    0.34
   2   5   1    6.23    0.25
   2   5   1    6.33    0.33
   2   5   1    6.51    0.25
   2   5   1    6.18    0.28
  -3  -5  -1   25.35    0.64
  -3  -5  -1   25.82    0.66
  -3  -5  -1   27.17    0.66
  -3  -5  -1   24.35    0.69
   3   5   1   25.16    0.51
   3   5   1   25.19    0.65
   3   5   1   24.96    0.60
   3   5   1   25.71    0.75
  -4  -5  -1   21.24    0.75
  -4  -5  -1   23.30    0.63
   4   5   1   23.32    0.56
   4   5   1   23.31    0.74
   4   5   1   24.01    0.63
   4   5   1   23.52    0.68
   5   5   1    6.02    0.32
   5   5   1    5.42    0.34
   5   5   1    5.44    0.36
   6   5   1    0.97    0.20
   6   5   1    1.10    0.23
   6   5   1    1.37    0.22
   7   5   1    0.10    0.15
  -6   6   1    0.08    0.16
  -6   6   1   -0.03    0.08
  -6   6   1    0.05    0.20
  -5   6   1    0.46    0.19
  -5   6   1    0.37    0.09
  -5   6   1    0.66    0.19
  -5   6   1    0.39    0.13
   4  -6  -1    1.35    0.19
  -4   6   1    1.07    0.12
  -4   6   1    1.36    0.13
  -4   6   1    1.44    0.23
  -4   6   1    1.42    0.19
   3  -6  -1    2.17    0.21
  -3   6   1    2.30    0.16
  -3   6   1    2.15    0.14
  -3   6   1    2.11    0.16
  -3   6   1    2.05    0.25
  -3   6   1    2.32    0.21
   2  -6  -1   23.59    0.69
   2  -6  -1   23.01    0.51
  -2   6   1   24.26    0.70
  -2   6   1   23.37    0.64
  -2   6   1   23.64    0.57
  -2   6   1   23.91    0.57
  -2   6   1   23.25    0.55
   1  -6  -1    2.00    0.22
   1  -6  -1    2.03    0.15
  -1   6   1    2.16    0.19
  -1   6   1    1.79    0.17
  -1   6   1    2.14    0.17
  -1   6   1    2.44    0.21
  -1   6   1    2.11    0.15
  -1  -6  -1    6.68    0.29
  -1  -6  -1    6.70    0.27
  -1  -6  -1    6.35    0.30
  -1  -6  -1    6.66    0.36
   1   6   1    6.11    0.30
   1   6   1    6.62    0.28
   1   6   1    6.67    0.32
   1   6   1    6.45    0.27
  -2  -6  -1   53.39    1.29
  -2  -6  -1   53.38    1.15
  -2  -6  -1   54.69    1.17
  -2  -6  -1   51.56    1.20
   2   6   1   55.91    1.31
   2   6   1   54.45    1.20
   2   6   1   54.16    1.13
   2   6   1   54.28    1.13
  -3  -6  -1    0.52    0.12
  -3  -6  -1    0.26    0.12
   3   6   1    0.50    0.12
   3   6   1    0.38    0.16
   3   6   1    0.42    0.09
   3   6   1    0.52    0.07
   3   6   1    0.40    0.11
   4   6   1   12.48    0.40
   4   6   1   12.36    0.30
   4   6   1   12.94    0.56
   4   6   1   12.92    0.44
   4   6   1   12.77    0.47
   5   6   1    3.08    0.28
   5   6   1    3.04    0.26
   5   6   1    3.39    0.32
   6   6   1    0.46    0.16
   6   6   1    0.27    0.16
   6   6   1    0.22    0.18
   7   6   1    0.55    0.21
   7   6   1    0.90    0.22
  -6   7   1    0.53    0.25
  -6   7   1    0.15    0.18
  -6   7   1    0.36    0.11
   5  -7  -1    0.03    0.10
  -5   7   1    0.01    0.09
  -5   7   1   -0.10    0.15
  -5   7   1    0.20    0.13
  -5   7   1   -0.02    0.17
   4  -7  -1    0.75    0.18
  -4   7   1    0.75    0.21
  -4   7   1    0.87    0.16
  -4   7   1    0.83    0.12
  -4   7   1    0.44    0.11
   3  -7  -1   22.70    0.71
  -3   7   1   22.17    0.58
  -3   7   1   21.09    0.65
  -3   7   1   21.91    0.73
  -3   7   1   21.92    0.58
   2  -7  -1    2.72    0.15
   2  -7  -1    2.59    0.26
  -2   7   1    2.91    0.21
  -2   7   1    2.49    0.20
  -2   7   1    2.40    0.26
  -2   7   1    2.33    0.23
  -2   7   1    2.66    0.18
   1  -7  -1   27.62    0.68
   1  -7  -1   33.15    0.92
  -1   7   1   32.39    0.77
  -1   7   1   33.24    0.84
  -1   7   1   33.70    0.87
  -1   7   1   33.66    0.77
   0  -7  -1   23.49    0.75
   0  -7  -1   23.63    0.58
   0   7   1   24.94    0.64
   0   7   1   24.40    0.63
   0   7   1   22.95    0.67
   0   7   1   24.15    0.70
   0   7   1   25.16    0.74
  -1  -7  -1    2.35    0.20
  -1  -7  -1    2.77    0.30
   1   7   1    2.60    0.25
   1   7   1    2.77    0.22
   1   7   1    2.60    0.26
   1   7   1    2.45    0.22
   1   7   1    2.75    0.29
  -2  -7  -1   27.52    0.86
  -2  -7  -1   27.31    0.71
   2   7   1   27.92    0.85
   2   7   1   26.84    0.76
   2   7   1   27.43    0.70
   2   7   1   27.04    0.69
  -3  -7  -1   23.10    0.66
   3   7   1   23.58    0.80
   3   7   1   23.84    0.65
   3   7   1   22.82    0.63
   3   7   1   22.53    0.50
   3   7   1   23.01    0.62
  -4  -7  -1    0.52    0.15
   4   7   1    0.88    0.18
   4   7   1    0.74    0.13
   4   7   1    0.86    0.14
   4   7   1    0.72    0.15
  -5  -7  -1    2.27    0.25
   5   7   1    1.93    0.32
   5   7   1    2.48    0.25
   5   7   1    2.51    0.28
  -6  -7  -1    2.70    0.30
   6   7   1    2.69    0.33
   6   7   1    2.99    0.38
  -7  -7  -1    0.02    0.16
   7   7   1   -0.06    0.16
   7   7   1    0.37    0.19
  -6   8   1    0.74    0.15
   5  -8  -1    1.12    0.21
  -5   8   1    1.48    0.29
  -5   8   1    1.22    0.17
  -5   8   1    1.19    0.26
  -5   8   1    1.57    0.29
   4  -8  -1    0.70    0.18
  -4   8   1    0.69    0.14
  -4   8   1    0.79    0.18
  -4   8   1    0.93    0.15
  -4   8   1    0.99    0.25
   3  -8  -1   17.42    0.66
  -3   8   1   18.23    0.55
  -3   8   1   18.09    0.54
  -3   8   1   17.84    0.62
  -3   8   1   18.43    0.70
   2  -8  -1    8.35    0.46
  -2   8   1    8.30    0.42
  -2   8   1    8.97    0.37
  -2   8   1    8.23    0.36
  -2   8   1    8.97    0.48
   1  -8  -1    3.30    0.32
   1  -8  -1    2.90    0.17
  -1   8   1    3.27    0.29
  -1   8   1    3.50    0.25
  -1   8   1    3.04    0.26
  -1   8   1    3.33    0.25
   0  -8  -1   53.84    1.12
   0  -8  -1   52.89    1.37
   0   8   1   52.43    1.27
   0   8   1   50.87    1.24
   0   8   1   54.62    1.19
   0   8   1   53.79    1.19
   0   8   1   53.95    1.32
  -1  -8  -1    6.76    0.43
  -1  -8  -1    6.69    0.31
   1   8   1    6.81    0.34
   1   8   1    6.71    0.41
   1   8   1    7.43    0.34
   1   8   1    7.59    0.40
   1   8   1    6.51    0.38
  -2  -8  -1    8.17    0.37
  -2  -8  -1    9.23    0.51
   2   8   1    8.77    0.37
   2   8   1    8.79    0.49
   2   8   1    9.02    0.46
   2   8   1    8.97    0.39
   2   8   1    8.29    0.43
  -3  -8  -1    5.52    0.33
   3   8   1    5.31    0.20
   3   8   1    5.58    0.31
   3   8   1    5.56    0.43
   3   8   1    5.19    0.29
   3   8   1    5.53    0.30
  -4  -8  -1    0.41    0.15
   4   8   1    0.59    0.13
   4   8   1    0.52    0.14
   4   8   1    0.57    0.15
   4   8   1    0.40    0.20
  -5  -8  -1    1.83    0.25
   5   8   1    1.47    0.26
   5   8   1    1.59    0.22
   5   8   1    2.02    0.26
  -6  -8  -1    0.40    0.17
   6   8   1    0.15    0.15
   6   8   1    0.18    0.16
  -5   9   1    2.45    0.39
  -5   9   1    2.01    0.23
   4  -9  -1    0.40    0.17
  -4   9   1    0.84    0.20
  -4   9   1    0.73    0.25
  -4   9   1    0.56    0.15
  -4   9   1    0.51    0.15
   3  -9  -1    0.26    0.18
  -3   9   1    0.40    0.16
  -3   9   1    0.52    0.15
  -3   9   1    0.27    0.13
  -3   9   1    0.17    0.20
   2  -9  -1    0.92    0.23
  -2   9   1    0.65    0.16
  -2   9   1    0.39    0.18
  -2   9   1    0.91    0.23
  -2   9   1    0.65    0.16
   1  -9  -1   14.60    0.66
  -1   9   1   14.60    0.53
  -1   9   1   15.80    0.62
  -1   9   1   14.88    0.59
  -1   9   1   15.74    0.53
   0  -9  -1   12.14    0.60
   0  -9  -1   11.88    0.40
   0   9   1   11.56    0.53
   0   9   1   11.43    0.46
   0   9   1   11.99    0.52
   0   9   1   12.08    0.48
  -1  -9  -1    1.97    0.21
   1   9   1    1.87    0.21
   1   9   1    2.16    0.23
   1   9   1    2.16    0.28
   1   9   1    2.15    0.28
   1   9   1    2.40    0.49
  -2  -9  -1    4.24    0.31
   2   9   1    5.25    0.34
   2   9   1    4.77    0.37
   2   9   1    5.26    0.32
   2   9   1    4.42    0.35
  -3  -9  -1    3.93    0.32
   3   9   1    4.03    0.31
   3   9   1    4.21    0.32
   3   9   1    3.97    0.34
  -4  -9  -1    3.03    0.30
   4   9   1    3.43    0.29
   4   9   1    3.07    0.29
  -5  -9  -1    1.09    0.24
   5   9   1    1.05    0.21
  -6  -9  -1    1.01    0.25
   6   9   1    1.29    0.26
   4 -10  -1    0.00    0.15
  -4  10   1   -0.05    0.20
  -4  10   1    0.14    0.16
  -4  10   1    0.00    0.13
  -4  10   1    0.11    0.14
   3 -10  -1    0.18    0.17
  -3  10   1    0.29    0.15
  -3  10   1    0.46    0.16
  -3  10   1    0.27    0.21
  -3  10   1    0.34    0.17
   2 -10  -1    0.80    0.22
  -2  10   1    0.85    0.19
  -2  10   1    1.14    0.23
  -2  10   1    0.89    0.25
  -2  10   1    0.64    0.17
   1 -10  -1    0.10    0.17
  -1  10   1    0.48    0.17
  -1  10   1    0.14    0.17
  -1  10   1    0.00    0.13
  -1  10   1   -0.08    0.13
   0  10   1    1.54    0.27
   0  10   1    1.20    0.20
   0  10   1    1.74    0.23
   0  10   1    1.71    0.27
  -1 -10  -1    1.20    0.18
   1  10   1    1.36    0.25
   1  10   1    1.23    0.21
   1  10   1    1.34    0.22
   1  10   1    1.69    0.28
  -2 -10  -1    0.06    0.13
   2  10   1    0.29    0.16
   2  10   1    0.21    0.18
   2  10   1    0.25    0.16
   2  10   1    0.21    0.14
  -3 -10  -1    0.24    0.15
   3  10   1    0.45    0.16
  -4 -10  -1    7.47    0.45
   4  10   1    7.01    0.40
   4  10   1    6.12    0.40
  -5 -10  -1    0.42    0.19
   5  10   1    0.22    0.15
   4 -11  -1    1.44    0.31
  -4  11   1    0.86    0.20
  -4  11   1    0.93    0.24
  -4  11   1    1.35    0.23
   3 -11  -1   -0.16    0.17
  -3  11   1   -0.06    0.25
  -3  11   1   -0.17    0.13
  -3  11   1   -0.19    0.14
  -3  11   1    0.11    0.16
  -2  11   1    0.46    0.17
  -2  11   1    0.05    0.16
  -2  11   1    0.48    0.18
  -2  11   1    0.19    0.20
  -1  11   1    2.49    0.28
  -1  11   1    2.98    0.29
  -1  11   1    3.72    0.41
  -1  11   1    2.92    0.34
   0  11   1    0.62    0.19
   0  11   1    0.09    0.15
   0  11   1    0.08    0.16
   0  11   1    0.49    0.21
  -1 -11  -1    0.82    0.23
   1  11   1    1.28    0.26
   1  11   1    1.23    0.27
   1  11   1    1.14    0.22
   1  11   1    1.39    0.24
  -2 -11  -1    7.78    0.42
   2  11   1    7.58    0.50
   2  11   1    8.55    0.46
   2  11   1    7.40    0.50
   2  11   1    7.52    0.44
  -3 -11  -1    6.13    0.41
   3  11   1    5.60    0.41
  -4 -11  -1    3.69    0.36
   4  11   1    4.40    0.39
   4  11   1    3.96    0.35
  -5 -11  -1    2.20    0.32
  -3  12   1    3.04    0.34
  -3  12   1    3.37    0.40
  -3  12   1    3.10    0.33
  -2  12   1    0.66    0.24
  -2  12   1    0.42    0.20
  -2  12   1    0.50    0.20
  -1  12   1    0.16    0.17
  -1  12   1   -0.04    0.16
  -1  12   1    0.20    0.22
  -1  12   1    0.00    0.17
   0  12   1    7.28    0.46
   0  12   1    7.18    0.50
   0  12   1    6.75    0.52
   0  12   1    7.79    0.48
   1  12   1    3.78    0.36
   1  12   1    3.36    0.40
   1  12   1    4.27    0.39
   1  12   1    3.82    0.43
   2  12   1    0.03    0.18
   2  12   1    0.17    0.20
   2  12   1    0.18    0.17
   2  12   1    0.27    0.21
  -3 -12  -1   10.06    0.52
   3  12   1   10.83    0.55
  -4 -12  -1    1.18    0.26
   4  12   1    1.40    0.27
  -2  13   1    2.20    0.32
  -1  13   1    1.30    0.27
  -1  13   1    1.27    0.28
   0  13   1    0.10    0.18
   0  13   1   -0.03    0.18
   1  13   1    5.41    0.46
   1  13   1    4.92    0.46
   2  13   1    1.12    0.26
   3  13   1    1.22    0.27
   3  12  -2    2.53    0.33
   2  12  -2    1.43    0.29
   1  12  -2    0.72    0.24
   1  12  -2    0.49    0.24
   0  12  -2    0.78    0.24
   0  12  -2    1.02    0.25
  -1  12  -2    0.22    0.21
  -1  12  -2   -0.25    0.17
   4  11  -2    1.73    0.29
   4  11  -2    1.85    0.30
  -4 -11   2    2.58    0.35
   3  11  -2    0.15    0.19
  -3 -11   2   -0.28    0.17
   2  11  -2    2.73    0.32
   2  11  -2    3.15    0.41
   2  11  -2    2.50    0.32
   1  11  -2    0.29    0.23
   1  11  -2    0.45    0.21
   1  11  -2    0.23    0.20
   0  11  -2    4.47    0.47
   0  11  -2    4.51    0.41
   0  11  -2    4.68    0.43
   0  11  -2    4.63    0.40
  -1  11  -2    0.22    0.18
  -1  11  -2    0.20    0.23
  -1  11  -2    0.10    0.17
  -1  11  -2    0.08    0.17
  -2  11  -2    1.17    0.24
  -2  11  -2    1.39    0.24
  -2  11  -2    1.39    0.28
  -3  11  -2    0.24    0.18
  -3  11  -2   -0.20    0.16
  -3  11  -2    0.13    0.19
   5  10  -2    0.09    0.17
  -5 -10   2    0.19    0.21
   4  10  -2    2.52    0.32
   4  10  -2    2.55    0.30
  -4 -10   2    2.66    0.33
   3  10  -2    1.61    0.25
  -3 -10   2    1.52    0.26
   2  10  -2    1.46    0.28
   2  10  -2    1.39    0.25
   2  10  -2    1.43    0.24
  -2 -10   2    1.71    0.25
   1  10  -2    5.78    0.43
   1  10  -2    6.28    0.46
   1  10  -2    6.45    0.42
   1  10  -2    6.20    0.42
   0  10  -2   10.81    0.52
   0  10  -2   10.79    0.57
   0  10  -2   10.46    0.51
   0  10  -2   11.36    0.60
  -1  10  -2    1.30    0.30
  -1  10  -2    1.04    0.24
  -1  10  -2    1.16    0.21
  -1  10  -2    1.28    0.23
  -2  10  -2    1.31    0.23
  -2  10  -2    1.44    0.22
  -2  10  -2    1.07    0.24
  -2  10  -2    0.95    0.28
  -3  10  -2    4.40    0.37
  -3  10  -2    4.52    0.37
  -3  10  -2    4.64    0.39
  -4  10  -2   -0.11    0.14
  -4  10  -2    0.17    0.16
   5   9  -2   -0.12    0.14
  -5  -9   2    0.13    0.19
   4   9  -2   11.35    0.50
   4   9  -2   10.07    0.53
  -4  -9   2   11.19    0.57
   3   9  -2    8.27    0.44
  -3  -9   2    7.26    0.43
   2   9  -2   13.86    0.55
   2   9  -2   12.66    0.53
   2   9  -2   13.84    0.61
  -2  -9   2   13.59    0.54
   1   9  -2    5.66    0.37
   1   9  -2    5.42    0.41
   1   9  -2    6.06    0.39
   1   9  -2    5.99    0.42
  -1  -9   2    5.75    0.34
   0   9  -2    7.70    0.41
   0   9  -2    7.16    0.45
   0   9  -2    7.72    0.45
   0   9  -2    7.95    0.43
  -1   9  -2    2.94    0.34
  -1   9  -2    2.91    0.33
  -1   9  -2    3.21    0.30
  -1   9  -2    3.70    0.31
  -2   9  -2    9.47    0.45
  -2   9  -2    9.07    0.44
  -2   9  -2    9.20    0.49
  -2   9  -2    9.58    0.57
  -3   9  -2    2.13    0.25
  -3   9  -2    2.07    0.25
  -3   9  -2    2.44    0.36
  -3   9  -2    2.79    0.32
  -4   9  -2    1.15    0.20
  -4   9  -2    1.09    0.20
   6   8  -2    0.85    0.25
   5   8  -2    3.95    0.39
   4   8  -2    4.03    0.35
   4   8  -2    4.03    0.31
   3   8  -2   24.18    0.71
   3   8  -2   23.04    0.71
   2   8  -2   10.80    0.51
   2   8  -2   10.73    0.45
   2   8  -2   11.41    0.48
  -2  -8   2   10.85    0.48
   1   8  -2    4.33    0.33
   1   8  -2    4.30    0.32
   1   8  -2    4.55    0.33
   1   8  -2    4.62    0.35
  -1  -8   2    4.47    0.30
   0   8  -2   21.25    0.71
   0   8  -2   20.74    0.65
   0   8  -2   21.10    0.66
   0   8  -2   21.44    0.72
   0  -8   2   21.45    0.59
  -1   8  -2   43.35    1.06
  -1   8  -2   45.49    1.20
  -1   8  -2   44.37    1.08
  -1   8  -2   44.11    1.14
  -2   8  -2    4.46    0.34
  -2   8  -2    5.10    0.40
  -2   8  -2    4.48    0.31
  -2   8  -2    4.59    0.31
  -3   8  -2   10.52    0.44
  -3   8  -2   12.02    0.61
  -3   8  -2   10.73    0.45
  -3   8  -2   10.73    0.49
  -4   8  -2    2.57    0.37
  -4   8  -2    2.01    0.22
  -4   8  -2    2.26    0.23
  -4   8  -2    2.70    0.29
  -5   8  -2    1.84    0.22
   6   7  -2    2.77    0.37
   5   7  -2    0.85    0.25
   5   7  -2    1.23    0.25
   5   7  -2    0.94    0.26
   4   7  -2   18.82    0.68
   4   7  -2   19.02    0.52
   4   7  -2   19.41    0.80
   4   7  -2   19.80    0.60
   3   7  -2    5.62    0.31
   3   7  -2    5.49    0.44
   3   7  -2    5.86    0.33
   2   7  -2    8.47    0.38
   2   7  -2    8.42    0.50
   2   7  -2    9.24    0.43
   2   7  -2    8.50    0.39
   1   7  -2   16.77    0.54
   1   7  -2   16.26    0.66
   1   7  -2   16.15    0.57
   1   7  -2   16.45    0.54
   1   7  -2   16.57    0.60
  -1  -7   2   16.58    0.52
   0   7  -2    0.35    0.14
   0   7  -2    0.25    0.14
   0   7  -2    0.02    0.11
   0   7  -2    0.07    0.13
   0   7  -2    0.12    0.12
   0  -7   2    0.15    0.10
  -1   7  -2    3.63    0.29
  -1   7  -2    3.25    0.25
  -1   7  -2    3.38    0.26
  -1   7  -2    3.80    0.32
  -2   7  -2   10.39    0.40
  -2   7  -2   10.09    0.44
  -2   7  -2   10.04    0.40
  -2   7  -2   10.43    0.51
  -3   7  -2    1.18    0.19
  -3   7  -2    1.16    0.26
  -3   7  -2    0.91    0.16
  -3   7  -2    0.88    0.16
  -4   7  -2    0.39    0.13
  -4   7  -2    0.22    0.13
  -4   7  -2    0.34    0.12
  -5   7  -2    1.50    0.18
   6   6  -2    1.65    0.32
   6   6  -2    1.51    0.28
   5   6  -2   11.19    0.45
   5   6  -2   11.55    0.55
   5   6  -2   10.94    0.60
   4   6  -2    2.24    0.21
   4   6  -2    1.70    0.26
   4   6  -2    2.14    0.26
   4   6  -2    1.89    0.15
  -4  -6   2    1.63    0.22
   3   6  -2    1.87    0.18
   3   6  -2    1.95    0.19
   3   6  -2    1.94    0.20
   3   6  -2    1.30    0.25
  -3  -6   2    1.86    0.20
   2   6  -2   29.89    0.79
   2   6  -2   29.20    0.74
   2   6  -2   28.03    0.89
   2   6  -2   29.19    0.73
  -2  -6   2   28.69    0.76
   1   6  -2    4.19    0.33
   1   6  -2    4.20    0.28
   1   6  -2    3.76    0.25
   1   6  -2    4.47    0.27
   1   6  -2    4.25    0.25
  -1  -6   2    3.47    0.25
   0   6  -2    6.79    0.34
   0   6  -2    6.42    0.33
   0   6  -2    7.19    0.40
   0   6  -2    6.47    0.31
   0   6  -2    6.68    0.31
   0  -6   2    6.58    0.27
  -1   6  -2   10.11    0.41
  -1   6  -2   10.30    0.37
  -1   6  -2    9.83    0.37
  -1   6  -2   10.33    0.45
  -2   6  -2    3.36    0.24
  -2   6  -2    3.21    0.30
  -2   6  -2    3.62    0.23
  -2   6  -2    2.80    0.21
   2  -6   2    3.11    0.15
  -3   6  -2    0.76    0.15
  -3   6  -2    0.63    0.12
  -3   6  -2    0.72    0.13
  -4   6  -2    0.05    0.10
  -4   6  -2    0.08    0.09
  -4   6  -2    0.13    0.11
  -5   6  -2    0.20    0.10
  -6   6  -2    0.01    0.10
   7   5  -2   -0.11    0.17
   7   5  -2   -0.08    0.15
   6   5  -2    0.63    0.23
   6   5  -2    0.42    0.20
   5   5  -2    2.26    0.23
   5   5  -2    1.90    0.30
   5   5  -2    2.28    0.29
   4   5  -2    2.18    0.32
   4   5  -2    1.66    0.15
   4   5  -2    2.36    0.19
   4   5  -2    2.21    0.25
   4   5  -2    2.14    0.16
  -4  -5   2    2.16    0.19
   3   5  -2    6.14    0.41
   3   5  -2    6.13    0.25
   3   5  -2    6.50    0.28
   3   5  -2    6.51    0.29
  -3  -5   2    6.51    0.29
   2   5  -2    4.75    0.24
   2   5  -2    5.58    0.28
   2   5  -2    4.96    0.34
   2   5  -2    4.81    0.25
  -2  -5   2    4.41    0.24
   1   5  -2   35.56    0.82
   1   5  -2   37.66    1.00
   1   5  -2   36.60    0.86
  -1  -5   2   35.97    0.88
   0   5  -2   57.14    1.29
   0   5  -2   55.06    1.15
   0   5  -2   55.20    1.21
   0   5  -2   54.15    1.15
   0   5  -2   54.11    1.20
   0  -5   2   57.71    1.22
   0  -5   2   55.37    1.19
   0  -5   2   53.96    1.12
  -1   5  -2   71.60    1.47
  -1   5  -2   71.43    1.52
  -1   5  -2   71.00    1.41
  -1   5  -2   70.20    1.41
   1  -5   2   69.96    1.36
   1  -5   2   71.16    1.44
  -2   5  -2   14.61    0.41
  -2   5  -2   14.76    0.46
  -2   5  -2   14.37    0.41
   2  -5   2   14.11    0.33
   2  -5   2   14.31    0.43
  -3   5  -2    2.79    0.19
  -3   5  -2    3.88    0.23
  -3   5  -2    3.60    0.17
  -3   5  -2    2.91    0.18
  -4   5  -2   33.56    0.73
  -4   5  -2   34.45    0.75
  -4   5  -2   33.46    0.81
  -5   5  -2    0.03    0.07
   7   4  -2    1.00    0.27
   7   4  -2    0.74    0.22
   6   4  -2   18.23    0.72
   6   4  -2   17.37    0.73
   5   4  -2    6.34    0.41
   5   4  -2    6.68    0.41
   4   4  -2  108.92    2.09
   4   4  -2  110.80    2.28
   4   4  -2  110.59    2.04
   4   4  -2  111.09    2.07
   4   4  -2  113.10    2.35
  -4  -4   2  110.17    2.13
   3   4  -2   41.71    1.10
   3   4  -2   42.15    0.91
   3   4  -2   42.45    1.01
   3   4  -2   42.07    0.88
   3   4  -2   44.16    0.90
   3   4  -2   41.73    0.83
  -3  -4   2   42.83    0.93
   2   4  -2   -0.11    0.09
   2   4  -2    0.05    0.06
   2   4  -2    0.01    0.06
   2   4  -2    0.10    0.08
  -2  -4   2   -0.04    0.08
  -2  -4   2    0.00    0.05
  -2  -4   2    0.04    0.06
   1   4  -2   81.29    1.57
   1   4  -2   80.29    1.55
   1   4  -2   81.24    1.55
  -1  -4   2   76.89    1.56
  -1  -4   2   80.13    1.60
  -1  -4   2   79.00    1.54
   0   4  -2    5.53    0.23
   0   4  -2    5.21    0.25
   0   4  -2    5.26    0.22
   0   4  -2    5.50    0.30
   0   4  -2    5.32    0.25
   0  -4   2    5.23    0.21
   0  -4   2    5.14    0.24
   0  -4   2    4.87    0.21
  -1   4  -2   25.96    0.59
  -1   4  -2   27.15    0.64
  -1   4  -2   26.07    0.60
   1  -4   2   22.57    0.52
   1  -4   2   26.93    0.62
   1  -4   2   26.12    0.56
  -2   4  -2   21.06    0.49
  -2   4  -2   21.18    0.50
  -2   4  -2   20.79    0.54
   2  -4   2   21.68    0.53
   2  -4   2   20.31    0.41
  -3   4  -2    0.10    0.05
  -3   4  -2   -0.09    0.07
  -3   4  -2    0.19    0.08
  -4   4  -2    7.87    0.29
  -4   4  -2    7.89    0.25
  -4   4  -2    7.66    0.22
  -4   4  -2    7.59    0.21
  -7   4  -2    0.29    0.18
   7   3  -2    0.61    0.19
   7   3  -2    0.51    0.22
   6   3  -2    0.10    0.13
   6   3  -2   -0.18    0.15
  -6  -3   2   -0.09    0.11
   5   3  -2    8.36    0.44
   5   3  -2    9.18    0.47
  -5  -3   2    8.49    0.33
  -5  -3   2    8.55    0.37
   4   3  -2   15.67    0.56
   4   3  -2   16.14    0.46
   4   3  -2   15.70    0.39
   4   3  -2   16.26    0.40
   4   3  -2   16.08    0.59
  -4  -3   2   15.70    0.47
  -4  -3   2   16.90    0.48
  -4  -3   2   16.35    0.47
   3   3  -2    9.13    0.26
   3   3  -2    8.28    0.24
   3   3  -2    8.85    0.28
   3   3  -2    9.17    0.37
   3   3  -2    9.09    0.28
   3   3  -2    7.62    0.40
  -3  -3   2    8.85    0.36
  -3  -3   2    8.75    0.30
  -3  -3   2    8.97    0.29
  -3  -3   2    8.78    0.31
   2   3  -2   66.48    1.25
   2   3  -2   64.51    1.29
   2   3  -2   63.21    1.27
   2   3  -2   66.10    1.43
   2   3  -2   65.47    1.26
  -2  -3   2   65.45    1.35
  -2  -3   2   69.90    1.32
  -2  -3   2   63.27    1.26
  -2  -3   2   65.93    1.29
   1   3  -2  303.43    5.28
   1   3  -2  304.16    5.28
   1   3  -2  301.63    5.27
  -1  -3   2  299.65    5.28
  -1  -3   2  292.76    5.28
  -1  -3   2  304.69    5.33
   0   3  -2    5.59    0.21
   0   3  -2    5.25    0.27
   0   3  -2    5.67    0.24
   0   3  -2    5.28    0.23
   0   3  -2    5.58    0.21
   0  -3   2    5.50    0.23
   0  -3   2    5.31    0.20
  -1   3  -2  221.07    3.96
  -1   3  -2  229.22    4.19
  -1   3  -2  222.12    4.00
  -1   3  -2  225.59    3.95
   1  -3   2  227.99    3.90
   1  -3   2  223.03    3.92
   1  -3   2  225.40    3.98
  -2   3  -2   23.19    0.50
  -2   3  -2   22.14    0.47
  -2   3  -2   22.87    0.53
  -2   3  -2   22.43    0.47
  -3   3  -2    2.40    0.15
  -3   3  -2    2.35    0.12
  -4   3  -2   46.11    0.86
  -4   3  -2   45.19    0.93
  -6   3  -2   15.32    0.59
  -7   3  -2    1.22    0.23
   7   2  -2    3.79    0.33
   6   2  -2    0.12    0.12
   6   2  -2    0.01    0.15
  -6  -2   2   -0.03    0.10
   5   2  -2   31.97    0.95
   5   2  -2   31.36    0.88
  -5  -2   2   31.67    0.80
  -5  -2   2   32.51    0.76
   4   2  -2   82.53    1.78
   4   2  -2   84.02    1.66
   4   2  -2   85.83    1.82
   4   2  -2   86.67    1.52
   4   2  -2   82.13    1.51
  -4  -2   2   85.73    1.62
  -4  -2   2   87.62    1.64
  -4  -2   2   86.32    1.64
   3   2  -2   74.05    1.45
   3   2  -2   74.18    1.40
   3   2  -2   76.77    1.57
   3   2  -2   78.96    1.37
  -3  -2   2   73.85    1.44
  -3  -2   2   76.43    1.44
  -3  -2   2   75.81    1.44
  -3  -2   2   75.88    1.45
   2   2  -2   25.24    0.60
   2   2  -2   23.51    0.53
   2   2  -2   24.15    0.52
   2   2  -2   24.51    0.53
   2   2  -2   23.37    0.46
  -2  -2   2   24.72    0.54
  -2  -2   2   23.88    0.52
  -2  -2   2   23.73    0.54
   1   2  -2  893.25   15.53
   1   2  -2  879.35   15.61
   1   2  -2  889.02   15.51
  -1  -2   2  895.48   15.39
  -1  -2   2  901.95   15.42
  -1  -2   2  874.12   15.56
   0   2  -2   89.93    1.67
   0   2  -2   92.69    1.67
   0  -2   2   92.42    1.69
   0  -2   2   90.57    1.66
  -1   2  -2  145.54    2.61
  -1   2  -2  144.01    2.57
  -1   2  -2  142.14    2.58
  -1   2  -2  150.98    2.66
   1  -2   2  142.46    2.55
   1  -2   2  146.13    2.60
   1  -2   2  152.24    2.53
  -2   2  -2    1.06    0.05
  -2   2  -2    1.01    0.05
  -2   2  -2    1.03    0.09
  -2   2  -2    1.17    0.08
  -3   2  -2   21.17    0.41
  -3   2  -2   21.26    0.46
  -4   2  -2    4.55    0.17
  -5   2  -2    3.81    0.17
  -6   2  -2    5.53    0.34
  -7   2  -2    1.64    0.25
   7   1  -2    1.52    0.22
   6   1  -2    1.04    0.24
   6   1  -2    0.65    0.17
  -6  -1   2    0.80    0.16
   5   1  -2    0.01    0.10
   5   1  -2   -0.10    0.12
  -5  -1   2    0.10    0.08
  -5  -1   2   -0.04    0.09
  -5  -1   2   -0.10    0.08
   4   1  -2   11.67    0.38
   4   1  -2   12.55    0.49
  -4  -1   2   11.51    0.36
  -4  -1   2   11.39    0.32
  -4  -1   2   12.04    0.37
  -4  -1   2   11.60    0.34
   3   1  -2    0.30    0.04
   3   1  -2    0.29    0.04
   3   1  -2    0.30    0.07
   3   1  -2    0.38    0.10
  -3  -1   2    0.25    0.08
  -3  -1   2    0.38    0.06
  -3  -1   2    0.47    0.07
  -3  -1   2    0.41    0.08
  -3  -1   2    0.36    0.07
   2   1  -2    0.05    0.04
   2   1  -2   -0.04    0.03
   2   1  -2    0.05    0.06
   2   1  -2   -0.05    0.04
  -2  -1   2   -0.05    0.04
  -2  -1   2   -0.03    0.03
  -2  -1   2    0.09    0.04
  -2  -1   2    0.00    0.04
  -2  -1   2   -0.04    0.02
   1   1  -2   99.61    1.77
   1   1  -2   96.60    1.77
   1   1  -2  103.27    1.74
   1   1  -2   97.52    1.77
  -1  -1   2  100.17    1.78
  -1  -1   2   95.93    1.77
  -1  -1   2   97.05    1.74
   0   1  -2  582.48   10.15
   0   1  -2  587.71   10.28
   0  -1   2  584.12   10.05
   0  -1   2  592.12   10.22
  -1   1  -2   46.85    0.94
  -1   1  -2   46.10    0.86
  -1   1  -2   48.12    0.85
  -1   1  -2   46.79    0.88
   1  -1   2   47.17    0.84
   1  -1   2   47.94    0.87
  -2   1  -2   56.81    1.03
  -3   1  -2   28.55    0.55
  -4   1  -2   22.60    0.46
  -5   1  -2    2.04    0.22
  -6   1  -2    9.00    0.41
  -7   1  -2    0.81    0.21
  -7   0   2    2.21    0.26
   6   0  -2    1.14    0.17
  -6   0   2    1.54    0.20
   5   0  -2    0.19    0.14
  -5   0   2   -0.01    0.06
  -5   0   2   -0.02    0.09
  -5   0   2    0.03    0.10
   4   0  -2   41.05    1.04
  -4   0   2   40.73    0.91
  -4   0   2   40.50    0.82
  -4   0   2   41.39    0.80
   3   0  -2    7.39    0.32
   3   0  -2    7.39    0.27
  -3   0   2    7.91    0.27
  -3   0   2    7.15    0.21
  -3   0   2    7.77    0.31
  -3   0   2    7.74    0.20
  -3   0   2    7.29    0.25
   2   0  -2  157.30    2.74
   2   0  -2  156.56    2.74
   2   0  -2  159.57    2.87
   2   0  -2  157.33    2.82
  -2   0   2  161.30    2.76
  -2   0   2  154.42    2.77
  -2   0   2  158.79    2.86
  -2   0   2  156.49    2.77
  -2   0   2  158.12    2.81
   1   0  -2  432.74    7.69
   1   0  -2  441.23    7.65
   1   0  -2  435.38    7.68
   1   0  -2  432.71    7.54
   1   0  -2  446.90    7.57
   1   0  -2  435.79    7.89
  -1   0   2  434.69    7.70
  -1   0   2  440.92    7.52
  -1   0   2  439.42    7.54
   0   0  -2    2.79    0.09
   0   0  -2    2.72    0.09
   0   0  -2    2.67    0.09
   0   0   2    2.73    0.09
   0   0   2    2.73    0.09
   0   0   2    2.78    0.09
  -1   0  -2  238.33    4.18
  -1   0  -2  235.20    4.19
  -1   0  -2  240.56    4.18
   1   0   2  243.04    4.10
   1   0   2  238.63    4.15
   1   0   2  238.51    4.19
  -2   0  -2   96.80    1.85
   2   0   2   99.12    1.87
   2   0   2   98.39    1.75
  -3   0  -2   64.78    1.35
  -5   0  -2   49.15    1.10
  -6   0  -2    4.00    0.28
  -7   1   2    1.51    0.24
  -6   1   2    0.14    0.12
  -5   1   2   10.88    0.27
  -5   1   2   10.51    0.27
  -5   1   2   10.25    0.42
   4  -1  -2    3.43    0.26
  -4   1   2    3.05    0.13
  -4   1   2    2.94    0.13
  -4   1   2    2.64    0.20
   3  -1  -2  108.18    2.11
  -3   1   2  107.77    2.02
  -3   1   2  104.30    1.88
  -3   1   2  109.79    1.91
  -3   1   2  106.24    1.90
  -3   1   2  110.21    1.87
  -3   1   2  103.91    2.09
   2  -1  -2   36.55    0.77
   2  -1  -2   38.23    0.82
  -2   1   2   36.34    0.69
  -2   1   2   36.87    0.77
  -2   1   2   37.45    0.68
  -2   1   2   37.52    0.70
  -2   1   2   36.74    0.70
   1  -1  -2   37.07    0.74
   1  -1  -2   36.39    0.73
   1  -1  -2   37.05    0.73
   1  -1  -2   36.96    0.69
   1  -1  -2   36.09    0.69
   1  -1  -2   38.03    0.68
  -1   1   2   36.95    0.69
  -1   1   2   36.90    0.69
  -1   1   2   36.44    0.73
  -1   1   2   36.71    0.67
  -1   1   2   36.92    0.73
  -1   1   2   36.55    0.69
  -1   1   2   37.44    0.69
   0  -1  -2   52.58    0.92
   0  -1  -2   48.55    0.91
   0  -1  -2   50.54    0.91
   0  -1  -2   50.22    0.94
   0  -1  -2   49.72    0.91
   0  -1  -2   49.99    0.90
   0   1   2   51.18    0.91
   0   1   2   49.38    0.91
   0   1   2   50.19    0.91
   0   1   2   50.48    0.92
  -1  -1  -2   68.25    1.28
  -1  -1  -2   68.81    1.24
  -1  -1  -2   69.65    1.29
  -1  -1  -2   69.76    1.23
   1   1   2   72.40    1.22
   1   1   2   69.81    1.29
   1   1   2   70.11    1.29
   1   1   2   69.64    1.24
  -2  -1  -2   18.77    0.38
  -2  -1  -2   18.93    0.46
  -2  -1  -2   19.62    0.47
   2   1   2   19.81    0.43
   2   1   2   19.09    0.48
  -3  -1  -2    2.73    0.10
  -3  -1  -2    2.78    0.18
   3   1   2    2.88    0.21
   3   1   2    2.83    0.14
  -4  -1  -2    0.70    0.07
  -4  -1  -2    0.63    0.07
  -4  -1  -2    0.74    0.11
   4   1   2    0.94    0.10
  -5  -1  -2    5.34    0.27
  -6  -1  -2    3.91    0.26
  -7   2   2    1.58    0.24
  -6   2   2   -0.04    0.11
  -5   2   2   -0.15    0.10
  -5   2   2    0.05    0.05
  -4   2   2    3.11    0.13
  -4   2   2    3.19    0.22
  -4   2   2    3.37    0.13
   3  -2  -2   42.87    0.85
  -3   2   2   41.93    0.81
  -3   2   2   43.54    0.80
  -3   2   2   43.96    0.95
   2  -2  -2   23.94    0.51
   2  -2  -2   23.68    0.58
  -2   2   2   23.57    0.56
  -2   2   2   23.70    0.48
  -2   2   2   23.97    0.45
  -2   2   2   23.62    0.45
  -2   2   2   23.93    0.46
  -2   2   2   23.14    0.58
   1  -2  -2   37.02    0.68
   1  -2  -2   36.66    0.71
   1  -2  -2   36.41    0.73
   1  -2  -2   36.39    0.67
   1  -2  -2   37.18    0.73
   1  -2  -2   32.87    0.66
  -1   2   2   36.58    0.72
  -1   2   2   36.43    0.70
  -1   2   2   36.07    0.73
  -1   2   2   37.12    0.71
  -1   2   2   36.62    0.73
  -1   2   2   37.17    0.67
  -1   2   2   36.83    0.69
   0  -2  -2  190.27    3.42
   0  -2  -2  192.86    3.38
   0  -2  -2  195.82    3.39
   0  -2  -2  200.11    3.40
   0  -2  -2  192.13    3.37
   0  -2  -2  199.73    3.45
   0   2   2  193.79    3.38
   0   2   2  192.78    3.36
   0   2   2  196.20    3.39
   0   2   2  192.98    3.37
   0   2   2  193.63    3.40
  -1  -2  -2    3.41    0.12
  -1  -2  -2    3.34    0.15
  -1  -2  -2    3.45    0.12
  -1  -2  -2    3.19    0.11
  -1  -2  -2    3.19    0.10
   1   2   2    3.21    0.11
   1   2   2    3.41    0.10
   1   2   2    3.21    0.11
   1   2   2    3.19    0.12
  -2  -2  -2  306.82    5.41
  -2  -2  -2  315.64    5.36
  -2  -2  -2  313.24    5.34
  -2  -2  -2  302.67    5.37
   2   2   2  311.36    5.42
   2   2   2  311.11    5.36
   2   2   2  310.89    5.44
   2   2   2  310.08    5.43
  -3  -2  -2   19.02    0.51
  -3  -2  -2   18.89    0.41
  -3  -2  -2   18.75    0.40
  -3  -2  -2   19.64    0.41
  -3  -2  -2   18.55    0.42
   3   2   2   19.49    0.53
   3   2   2   18.84    0.48
  -4  -2  -2    8.83    0.26
  -4  -2  -2    9.22    0.26
  -4  -2  -2    9.20    0.28
  -4  -2  -2    9.54    0.25
   4   2   2    9.56    0.32
   4   2   2    9.41    0.39
  -5  -2  -2   79.76    1.54
  -5  -2  -2   78.62    1.48
  -5  -2  -2   79.17    1.47
   5   2   2   78.68    1.57
  -6  -2  -2    6.99    0.30
   6   2   2    6.70    0.30
  -7   3   2    0.10    0.15
  -6   3   2   -0.07    0.12
  -5   3   2    3.76    0.29
  -5   3   2    4.08    0.16
   4  -3  -2    9.04    0.28
  -4   3   2    9.07    0.38
  -4   3   2    8.94    0.24
  -4   3   2    9.10    0.23
   3  -3  -2   64.08    1.27
  -3   3   2   65.36    1.20
  -3   3   2   68.04    1.36
  -3   3   2   64.95    1.19
   2  -3  -2   68.59    1.33
  -2   3   2   68.60    1.23
  -2   3   2   68.36    1.22
  -2   3   2   66.64    1.37
  -2   3   2   68.19    1.25
  -2   3   2   68.53    1.35
  -2   3   2   69.83    1.33
   1  -3  -2  371.48    6.42
   1  -3  -2  366.47    6.39
   1  -3  -2  361.13    6.35
  -1   3   2  373.25    6.38
  -1   3   2  371.50    6.34
  -1   3   2  368.96    6.38
  -1   3   2  360.32    6.39
  -1   3   2  365.87    6.38
   0  -3  -2  709.85   12.45
   0  -3  -2  687.55   12.43
   0  -3  -2  679.65   12.11
   0  -3  -2  677.22   11.96
   0   3   2  694.60   12.02
   0   3   2  694.54   12.45
   0   3   2  707.35   12.23
   0   3   2  704.95   12.13
   0   3   2  697.52   12.24
  -1  -3  -2   29.38    0.59
  -1  -3  -2   28.52    0.66
  -1  -3  -2   28.00    0.65
  -1  -3  -2   29.19    0.60
  -1  -3  -2   29.12    0.59
  -1  -3  -2   29.24    0.60
   1   3   2   28.35    0.65
   1   3   2   28.74    0.60
   1   3   2   28.41    0.55
   1   3   2   28.11    0.60
   1   3   2   29.46    0.60
   1   3   2   28.80    0.52
  -2  -3  -2  413.70    7.08
  -2  -3  -2  400.83    7.06
  -2  -3  -2  410.40    7.05
  -2  -3  -2  412.39    7.07
  -2  -3  -2  415.17    7.06
   2   3   2  404.38    7.06
   2   3   2  418.23    7.07
   2   3   2  402.85    7.08
   2   3   2  405.16    7.10
   2   3   2  393.80    7.10
   2   3   2  414.53    7.16
  -3  -3  -2    1.74    0.08
  -3  -3  -2    1.94    0.12
  -3  -3  -2    1.68    0.12
  -3  -3  -2    1.66    0.12
  -3  -3  -2    1.72    0.14
   3   3   2    1.53    0.14
   3   3   2    1.99    0.16
   3   3   2    1.79    0.09
   3   3   2    1.79    0.16
  -4  -3  -2    8.62    0.28
  -4  -3  -2    8.67    0.27
  -4  -3  -2    8.45    0.27
  -4  -3  -2    8.63    0.24
   4   3   2    8.47    0.34
   4   3   2    8.47    0.37
   4   3   2    8.41    0.36
  -5  -3  -2    0.94    0.11
  -5  -3  -2    0.78    0.17
  -5  -3  -2    0.79    0.11
   5   3   2    0.57    0.15
   5   3   2    0.70    0.13
   6   3   2    3.30    0.26
   7   3   2    0.20    0.11
  -7   4   2    3.19    0.35
  -6   4   2    0.21    0.17
  -5   4   2    2.62    0.15
  -5   4   2    2.97    0.29
   4  -4  -2    0.29    0.08
  -4   4   2    0.17    0.11
  -4   4   2    0.11    0.04
   3  -4  -2   14.01    0.41
  -3   4   2   13.81    0.45
  -3   4   2   13.44    0.33
  -3   4   2   14.03    0.31
  -3   4   2   13.44    0.32
   2  -4  -2   27.69    0.65
   2  -4  -2   27.49    0.51
   2  -4  -2   26.69    0.51
  -2   4   2   26.64    0.54
  -2   4   2   25.27    0.65
  -2   4   2   27.84    0.66
  -2   4   2   27.45    0.56
  -2   4   2   26.76    0.57
   1  -4  -2  124.39    2.34
   1  -4  -2  129.23    2.38
   1  -4  -2  128.05    2.26
  -1   4   2  124.57    2.26
  -1   4   2  126.49    2.35
  -1   4   2  125.29    2.34
  -1   4   2  127.74    2.28
  -1   4   2  127.92    2.28
   0  -4  -2    3.00    0.19
   0  -4  -2    3.19    0.17
   0  -4  -2    2.94    0.13
   0  -4  -2    3.13    0.14
   0   4   2    3.28    0.17
   0   4   2    2.80    0.15
   0   4   2    3.13    0.14
   0   4   2    2.97    0.15
   0   4   2    2.92    0.18
   0   4   2    3.36    0.17
  -1  -4  -2  179.26    3.15
  -1  -4  -2  175.90    3.22
  -1  -4  -2  174.31    3.15
  -1  -4  -2  177.63    3.14
   1   4   2  173.19    3.16
   1   4   2  181.16    3.16
   1   4   2  175.51    3.14
  -2  -4  -2   26.25    0.60
  -2  -4  -2   28.18    0.61
  -2  -4  -2   27.08    0.61
  -2  -4  -2   26.46    0.61
  -2  -4  -2   26.49    0.68
  -2  -4  -2   28.52    0.70
   2   4   2   26.00    0.68
   2   4   2   27.59    0.59
   2   4   2   25.83    0.62
   2   4   2   27.51    0.59
   2   4   2   27.74    0.61
  -3  -4  -2    0.00    0.04
  -3  -4  -2    0.16    0.07
  -3  -4  -2   -0.03    0.05
   3   4   2    0.19    0.07
   3   4   2    0.04    0.05
   3   4   2   -0.03    0.08
   3   4   2    0.17    0.07
   3   4   2    0.04    0.03
  -4  -4  -2    4.43    0.22
  -4  -4  -2    4.13    0.21
  -4  -4  -2    4.13    0.22
   4   4   2    4.21    0.15
   4   4   2    4.55    0.29
   4   4   2    4.70    0.28
   4   4   2    4.16    0.27
  -5  -4  -2    4.70    0.25
  -5  -4  -2    4.80    0.18
   5   4   2    4.94    0.31
   5   4   2    4.89    0.31
   5   4   2    5.22    0.32
   6   4   2   -0.22    0.09
   7   4   2    5.74    0.36
  -7   5   2    0.16    0.18
  -6   5   2    1.30    0.25
  -6   5   2    1.43    0.13
  -5   5   2    3.47    0.33
  -5   5   2    3.19    0.16
  -5   5   2    3.14    0.17
   4  -5  -2    1.72    0.16
  -4   5   2    1.51    0.10
  -4   5   2    1.55    0.13
  -4   5   2    1.69    0.22
  -4   5   2    1.63    0.22
  -4   5   2    1.60    0.13
   3  -5  -2   37.15    0.87
  -3   5   2   36.00    0.74
  -3   5   2   37.75    0.76
  -3   5   2   38.32    0.92
  -3   5   2   37.19    0.77
   2  -5  -2    2.36    0.10
   2  -5  -2    2.13    0.17
   2  -5  -2    1.92    0.10
  -2   5   2    2.05    0.14
  -2   5   2    1.98    0.18
  -2   5   2    1.95    0.13
   1  -5  -2    2.39    0.19
   1  -5  -2    2.17    0.18
   1  -5  -2    2.31    0.14
  -1   5   2    2.94    0.23
  -1   5   2    2.11    0.18
  -1   5   2    2.16    0.15
  -1   5   2    2.29    0.15
   0  -5  -2  647.77   11.02
   0  -5  -2  627.32   11.09
   0  -5  -2  630.36   11.15
   0  -5  -2  628.67   10.99
   0   5   2  632.78   11.07
   0   5   2  643.28   11.03
   0   5   2  641.79   11.12
   0   5   2  649.05   11.02
   0   5   2  645.08   11.10
  -1  -5  -2   20.51    0.55
  -1  -5  -2   19.45    0.48
  -1  -5  -2   20.19    0.50
  -1  -5  -2   19.89    0.60
  -1  -5  -2   20.47    0.51
   1   5   2   16.43    0.55
   1   5   2   19.77    0.51
   1   5   2   20.07    0.50
   1   5   2   20.42    0.57
   1   5   2   19.75    0.50
  -2  -5  -2   51.80    1.07
  -2  -5  -2   51.74    1.16
  -2  -5  -2   52.45    1.07
  -2  -5  -2   52.28    1.08
  -2  -5  -2   52.87    1.20
   2   5   2   52.34    1.10
   2   5   2   53.34    1.07
   2   5   2   52.56    1.04
   2   5   2   52.69    1.07
   2   5   2   51.83    1.18
  -3  -5  -2    0.47    0.10
  -3  -5  -2    0.41    0.10
  -3  -5  -2    0.64    0.11
  -3  -5  -2    0.40    0.09
  -3  -5  -2    0.62    0.13
   3   5   2    0.49    0.10
   3   5   2    0.35    0.09
   3   5   2    0.40    0.15
   3   5   2    0.59    0.08
   3   5   2    0.46    0.10
  -4  -5  -2   40.89    1.00
  -4  -5  -2   41.06    0.91
   4   5   2   40.81    0.98
   4   5   2   41.26    0.97
   4   5   2   38.29    0.83
   4   5   2   41.15    1.04
  -5  -5  -2    1.20    0.23
   5   5   2    1.31    0.19
   5   5   2    1.29    0.20
   5   5   2    1.61    0.22
   6   5   2    6.56    0.41
   6   5   2    7.54    0.43
   7   5   2    0.64    0.18
  -6   6   2    0.20    0.20
  -6   6   2    0.46    0.11
  -6   6   2    0.56    0.19
   5  -6  -2    0.02    0.08
  -5   6   2   -0.07    0.13
  -5   6   2    0.07    0.11
  -5   6   2    0.03    0.08
  -5   6   2    0.01    0.15
  -5   6   2    0.06    0.08
   4  -6  -2    0.27    0.11
  -4   6   2    0.27    0.14
  -4   6   2    0.35    0.09
  -4   6   2    0.37    0.09
  -4   6   2    0.09    0.15
  -4   6   2    0.28    0.12
   3  -6  -2    1.67    0.19
  -3   6   2    1.47    0.12
  -3   6   2    1.31    0.20
  -3   6   2    1.75    0.16
  -3   6   2    1.38    0.18
  -3   6   2    1.30    0.13
   2  -6  -2    0.31    0.06
   2  -6  -2    0.27    0.09
  -2   6   2    0.15    0.09
  -2   6   2    0.08    0.07
  -2   6   2    0.41    0.13
  -2   6   2    0.23    0.08
  -2   6   2    0.29    0.07
   1  -6  -2   12.56    0.46
   1  -6  -2   11.04    0.34
   1  -6  -2   14.20    0.33
  -1   6   2   10.95    0.36
  -1   6   2   11.03    0.36
  -1   6   2   10.94    0.41
  -1   6   2   14.28    0.37
   0  -6  -2   36.99    0.88
   0  -6  -2   35.61    0.79
   0  -6  -2   36.98    0.93
   0  -6  -2   35.99    0.77
   0   6   2   35.13    0.80
   0   6   2   35.08    0.80
   0   6   2   35.56    0.85
   0   6   2   36.59    0.90
  -1  -6  -2   12.53    0.44
  -1  -6  -2   12.68    0.38
  -1  -6  -2   13.11    0.41
  -1  -6  -2   13.10    0.50
   1   6   2   12.84    0.40
   1   6   2   12.93    0.42
   1   6   2   12.82    0.40
   1   6   2   12.51    0.45
  -2  -6  -2    2.60    0.19
  -2  -6  -2    2.59    0.21
  -2  -6  -2    2.64    0.25
  -2  -6  -2    2.72    0.19
   2   6   2    2.36    0.19
   2   6   2    2.91    0.21
   2   6   2    2.38    0.17
   2   6   2    2.90    0.25
  -3  -6  -2   11.02    0.39
  -3  -6  -2   11.75    0.40
   3   6   2   10.79    0.41
   3   6   2   11.06    0.38
   3   6   2   10.75    0.35
   3   6   2   11.06    0.38
   3   6   2   10.96    0.49
  -4  -6  -2    0.20    0.11
   4   6   2    0.42    0.10
   4   6   2    0.55    0.14
   4   6   2    0.23    0.14
   4   6   2    0.47    0.13
  -5  -6  -2    0.51    0.14
   5   6   2    0.86    0.17
   5   6   2    0.75    0.17
   5   6   2    1.06    0.18
  -6  -6  -2   -0.08    0.12
   6   6   2    0.01    0.12
   6   6   2    0.06    0.14
   6   6   2   -0.15    0.12
  -7  -6  -2    1.28    0.23
   7   6   2    1.42    0.27
  -6   7   2    0.07    0.20
  -6   7   2   -0.01    0.16
  -6   7   2    0.45    0.12
   5  -7  -2    0.07    0.11
  -5   7   2   -0.15    0.16
  -5   7   2    0.13    0.12
  -5   7   2   -0.02    0.15
  -5   7   2    0.02    0.09
   4  -7  -2    4.02    0.29
  -4   7   2    4.38    0.30
  -4   7   2    4.56    0.24
  -4   7   2    4.48    0.36
  -4   7   2    4.25    0.23
   3  -7  -2   11.36    0.47
  -3   7   2   10.87    0.38
  -3   7   2   10.98    0.44
  -3   7   2   11.43    0.50
  -3   7   2   11.09    0.38
   2  -7  -2    0.14    0.10
   2  -7  -2   -0.03    0.05
  -2   7   2    0.12    0.13
  -2   7   2   -0.07    0.08
  -2   7   2    0.15    0.11
  -2   7   2    0.17    0.09
  -2   7   2    0.07    0.06
   1  -7  -2   77.15    1.45
   1  -7  -2   75.39    1.69
  -1   7   2   76.79    1.53
  -1   7   2   75.98    1.62
  -1   7   2   74.67    1.59
  -1   7   2   76.83    1.52
   0  -7  -2   27.97    0.64
   0  -7  -2   27.89    0.83
   0  -7  -2   27.30    0.76
   0   7   2   26.12    0.68
   0   7   2   26.97    0.78
   0   7   2   26.32    0.67
   0   7   2   27.13    0.76
   0   7   2   27.31    0.73
  -1  -7  -2   90.66    1.99
  -1  -7  -2   92.77    1.79
  -1  -7  -2   91.57    2.00
   1   7   2   93.61    1.82
   1   7   2   91.39    1.87
   1   7   2   94.93    1.94
   1   7   2   90.93    1.96
   1   7   2   92.98    1.82
  -2  -7  -2    7.10    0.31
  -2  -7  -2    7.09    0.41
   2   7   2    7.51    0.40
   2   7   2    7.09    0.35
   2   7   2    7.38    0.32
   2   7   2    7.28    0.31
  -3  -7  -2   22.38    0.63
   3   7   2   22.29    0.60
   3   7   2   20.85    0.44
   3   7   2   20.93    0.58
   3   7   2   22.75    0.76
   3   7   2   22.99    0.68
   3   7   2   21.91    0.61
  -4  -7  -2    0.04    0.11
   4   7   2    0.19    0.10
   4   7   2    0.15    0.15
   4   7   2    0.20    0.09
   4   7   2    0.07    0.10
  -5  -7  -2    0.21    0.13
   5   7   2    0.17    0.17
   5   7   2    0.25    0.14
   5   7   2    0.28    0.14
  -6  -7  -2    6.67    0.40
   6   7   2    6.78    0.42
   6   7   2    7.02    0.42
   6   7   2    6.28    0.46
  -7  -7  -2   -0.22    0.13
   7   7   2    0.04    0.17
  -6   8   2    0.59    0.14
  -6   8   2    0.88    0.27
   5  -8  -2    0.88    0.18
  -5   8   2    0.72    0.21
  -5   8   2    0.88    0.15
  -5   8   2    0.74    0.19
  -5   8   2    0.64    0.24
   4  -8  -2    0.23    0.14
  -4   8   2    0.27    0.11
  -4   8   2    0.29    0.12
  -4   8   2    0.75    0.22
  -4   8   2    0.54    0.16
   3  -8  -2    6.84    0.41
  -3   8   2    6.28    0.32
  -3   8   2    6.40    0.32
  -3   8   2    6.62    0.42
  -3   8   2    6.45    0.37
   2  -8  -2   57.76    1.44
  -2   8   2   57.46    1.26
  -2   8   2   57.92    1.35
  -2   8   2   59.57    1.26
  -2   8   2   61.45    1.41
   1  -8  -2    2.85    0.30
   1  -8  -2    3.02    0.18
  -1   8   2    3.26    0.23
  -1   8   2    2.72    0.23
  -1   8   2    2.79    0.27
  -1   8   2    2.84    0.25
   0  -8  -2  143.18    2.70
   0  -8  -2  147.32    3.00
   0   8   2  148.84    2.77
   0   8   2  150.17    2.79
   0   8   2  143.87    2.85
   0   8   2  146.09    2.88
   0   8   2  145.03    2.91
  -1  -8  -2   48.69    1.30
  -1  -8  -2   40.51    0.94
   1   8   2   39.77    1.10
   1   8   2   42.36    1.09
   1   8   2   40.41    0.98
   1   8   2   40.23    0.97
   1   8   2   38.39    1.02
  -2  -8  -2    2.93    0.23
  -2  -8  -2    2.56    0.30
   2   8   2    3.20    0.31
   2   8   2    2.91    0.28
   2   8   2    2.82    0.23
   2   8   2    1.84    0.20
  -3  -8  -2    6.05    0.34
   3   8   2    5.70    0.32
   3   8   2    5.50    0.41
   3   8   2    5.37    0.28
   3   8   2    5.43    0.18
   3   8   2    5.64    0.36
   3   8   2    5.14    0.29
  -4  -8  -2   10.88    0.46
   4   8   2    9.81    0.53
   4   8   2   10.07    0.40
   4   8   2    9.68    0.41
   4   8   2   10.37    0.42
  -5  -8  -2    0.02    0.14
   5   8   2    0.21    0.14
   5   8   2    0.11    0.19
   5   8   2   -0.01    0.13
  -6  -8  -2   -0.22    0.13
   6   8   2    0.14    0.18
   6   8   2    0.01    0.14
   5  -9  -2    0.61    0.20
  -5   9   2    0.61    0.20
  -5   9   2    0.84    0.23
  -5   9   2    0.79    0.27
  -5   9   2    0.65    0.16
   4  -9  -2    6.79    0.44
  -4   9   2    7.18    0.35
  -4   9   2    7.04    0.42
  -4   9   2    6.55    0.35
  -4   9   2    7.69    0.50
   3  -9  -2    8.91    0.51
  -3   9   2    9.55    0.51
  -3   9   2    9.35    0.41
  -3   9   2   10.20    0.48
  -3   9   2    9.16    0.40
   2  -9  -2   59.68    1.53
  -2   9   2   59.46    1.33
  -2   9   2   62.39    1.49
  -2   9   2   60.75    1.33
  -2   9   2   58.99    1.43
   1  -9  -2   17.42    0.72
  -1   9   2   17.87    0.66
  -1   9   2   17.69    0.57
  -1   9   2   17.50    0.57
  -1   9   2   17.73    0.64
   0  -9  -2   15.45    0.47
   0  -9  -2   15.74    0.68
   0   9   2   16.34    0.55
   0   9   2   16.46    0.63
   0   9   2   16.59    0.61
   0   9   2   17.30    0.80
   0   9   2   16.84    0.56
  -1  -9  -2   33.67    0.83
  -1  -9  -2   34.70    1.09
   1   9   2   34.66    0.89
   1   9   2   33.79    0.96
   1   9   2   34.42    0.99
   1   9   2   35.26    0.89
  -2  -9  -2    1.92    0.22
   2   9   2    2.20    0.32
   2   9   2    2.35    0.25
   2   9   2    2.31    0.30
   2   9   2    1.65    0.21
  -3  -9  -2   14.89    0.53
   3   9   2   13.95    0.66
   3   9   2   13.80    0.51
   3   9   2   14.27    0.48
   3   9   2   14.54    0.52
   3   9   2   14.20    0.59
   4   9   2    1.15    0.18
   4   9   2    1.35    0.37
   4   9   2    0.88    0.17
  -5  -9  -2    0.33    0.18
   5   9   2    0.27    0.15
   5   9   2    0.22    0.15
  -6  -9  -2    0.07    0.16
   5 -10  -2    3.04    0.38
  -5  10   2    2.28    0.26
   4 -10  -2    3.37    0.37
  -4  10   2    3.06    0.29
  -4  10   2    3.59    0.31
  -4  10   2    3.58    0.42
  -4  10   2    3.65    0.38
   3 -10  -2    2.75    0.35
  -3  10   2    2.96    0.36
  -3  10   2    2.28    0.24
  -3  10   2    2.64    0.33
  -3  10   2    2.48    0.26
   2 -10  -2    2.79    0.37
  -2  10   2    2.64    0.26
  -2  10   2    2.57    0.31
  -2  10   2    2.84    0.35
  -2  10   2    2.08    0.24
   1 -10  -2    0.01    0.15
  -1  10   2    0.02    0.12
  -1  10   2    0.04    0.13
  -1  10   2    0.06    0.17
  -1  10   2    0.27    0.16
   0 -10  -2    5.19    0.28
   0  10   2    6.08    0.41
   0  10   2    5.65    0.35
   0  10   2    5.92    0.40
   0  10   2    5.88    0.36
  -1 -10  -2   22.04    0.64
   1  10   2   21.71    0.70
   1  10   2   22.01    0.78
   1  10   2   22.79    0.70
   1  10   2   21.97    0.80
  -2 -10  -2    1.31    0.20
   2  10   2    1.17    0.21
   2  10   2    1.08    0.19
   2  10   2    1.12    0.23
  -3 -10  -2    1.34    0.22
   3  10   2    1.17    0.17
   3  10   2    1.13    0.20
   3  10   2    1.22    0.24
  -4 -10  -2    4.68    0.38
   4  10   2    3.89    0.34
   4  10   2    3.76    0.29
  -5 -10  -2   -0.04    0.15
   5  10   2   -0.03    0.18
   4 -11  -2    0.04    0.17
  -4  11   2   -0.01    0.14
  -4  11   2    0.05    0.15
  -4  11   2    0.21    0.17
   3 -11  -2   -0.06    0.18
  -3  11   2    0.25    0.21
  -3  11   2    0.01    0.13
  -3  11   2   -0.15    0.14
  -3  11   2   -0.14    0.13
  -2  11   2    0.36    0.16
  -2  11   2    0.33    0.19
  -2  11   2    0.47    0.23
  -2  11   2    0.15    0.16
  -1  11   2    0.84    0.20
  -1  11   2    0.59    0.18
  -1  11   2    0.87    0.25
  -1  11   2    0.82    0.22
   0  11   2    1.96    0.25
   0  11   2    2.22    0.32
   0  11   2    2.52    0.34
   0  11   2    2.16    0.26
  -1 -11  -2   -0.06    0.11
   1  11   2   -0.08    0.14
   1  11   2    0.08    0.19
   1  11   2    0.04    0.17
   1  11   2    0.27    0.16
  -2 -11  -2    0.43    0.15
   2  11   2    0.47    0.20
   2  11   2    0.31    0.16
   2  11   2    0.68    0.19
  -3 -11  -2    5.83    0.40
   3  11   2    5.10    0.39
   3  11   2    5.46    0.44
  -4 -11  -2    4.61    0.40
   4  11   2    4.93    0.39
  -5 -11  -2    1.09    0.25
  -3  12   2    0.46    0.20
  -3  12   2    0.16    0.18
  -3  12   2   -0.09    0.15
  -2  12   2    1.05    0.26
  -2  12   2    0.76    0.21
  -2  12   2    1.09    0.23
  -1  12   2    0.92    0.21
  -1  12   2    1.12    0.28
  -1  12   2    0.90    0.23
  -1  12   2    1.07    0.26
   0  12   2    5.63    0.48
   0  12   2    5.85    0.43
   0  12   2    5.40    0.41
   0  12   2    5.56    0.46
   1  12   2    2.77    0.32
   1  12   2    3.25    0.42
   1  12   2    2.70    0.36
   1  12   2    3.64    0.37
  -2 -12  -2    4.19    0.34
   2  12   2    4.41    0.44
   2  12   2    4.06    0.38
   2  12   2    4.73    0.41
  -3 -12  -2    5.00    0.41
   3  12   2    5.59    0.46
   3  12   2    5.42    0.43
  -4 -12  -2    0.47    0.21
   4  12   2    0.66    0.20
  -2  13   2    2.06    0.32
  -2  13   2    1.79    0.28
  -1  13   2    2.42    0.31
  -1  13   2    1.46    0.28
   0  13   2   -0.21    0.16
   0  13   2    0.14    0.20
   0  13   2   -0.07    0.18
   1  13   2   11.81    0.73
   1  13   2   11.86    0.60
   1  13   2   12.42    0.61
   2  13   2    2.50    0.33
  -3 -13  -2    0.32    0.21
   3  13   2    0.05    0.20
   0  14   2    4.66    0.46
   1  14   2   -0.11    0.19
   1  12  -3    0.66    0.26
   0  12  -3    1.27    0.29
  -1  12  -3    2.47    0.34
   3  11  -3   -0.09    0.18
  -3 -11   3   -0.21    0.20
   2  11  -3    1.40    0.31
   2  11  -3    1.18    0.26
   1  11  -3    3.03    0.34
   1  11  -3    3.33    0.41
   1  11  -3    3.76    0.37
   0  11  -3    0.14    0.19
   0  11  -3    0.27    0.23
   0  11  -3   -0.01    0.19
  -1  11  -3    7.44    0.51
  -1  11  -3    6.81    0.48
  -1  11  -3    6.56    0.47
  -2  11  -3    0.34    0.21
  -2  11  -3    0.17    0.19
  -2  11  -3    0.45    0.22
   4  10  -3    0.44    0.20
   4  10  -3    0.58    0.21
  -4 -10   3    0.70    0.24
   3  10  -3    0.29    0.18
   3  10  -3    0.75    0.24
  -3 -10   3    0.30    0.19
   2  10  -3   -0.18    0.15
   2  10  -3   -0.37    0.14
   2  10  -3   -0.09    0.16
  -2 -10   3   -0.18    0.13
   1  10  -3    0.35    0.19
   1  10  -3   -0.10    0.16
   1  10  -3    0.12    0.18
   0  10  -3    8.65    0.48
   0  10  -3    9.44    0.51
   0  10  -3    8.82    0.54
  -1  10  -3    6.06    0.44
  -1  10  -3    6.07    0.43
  -1  10  -3    6.49    0.49
  -1  10  -3    6.22    0.42
  -2  10  -3    0.04    0.15
  -2  10  -3   -0.08    0.24
  -2  10  -3   -0.09    0.13
  -2  10  -3    0.07    0.16
  -3  10  -3    0.66    0.20
  -3  10  -3    0.50    0.20
  -3  10  -3    0.47    0.20
   5   9  -3    0.47    0.20
   4   9  -3   -0.09    0.15
   4   9  -3    0.13    0.17
   3   9  -3    2.04    0.30
   3   9  -3    1.86    0.25
  -3  -9   3    2.15    0.28
   2   9  -3    0.11    0.15
   2   9  -3    0.02    0.16
   2   9  -3    0.24    0.18
  -2  -9   3    0.15    0.15
   1   9  -3    0.13    0.14
   1   9  -3   -0.02    0.15
   1   9  -3    0.09    0.16
  -1  -9   3    0.02    0.12
   0   9  -3    4.46    0.40
   0   9  -3    4.88    0.35
   0   9  -3    4.83    0.36
   0   9  -3    4.72    0.39
  -1   9  -3    6.27    0.43
  -1   9  -3    5.94    0.46
  -1   9  -3    7.10    0.40
  -1   9  -3    6.46    0.39
  -2   9  -3    0.03    0.14
  -2   9  -3    0.17    0.15
  -2   9  -3    0.12    0.21
  -2   9  -3   -0.08    0.13
  -3   9  -3    1.49    0.31
  -3   9  -3    1.77    0.25
  -3   9  -3    1.67    0.24
  -3   9  -3    1.73    0.26
  -4   9  -3    1.17    0.22
  -4   9  -3    1.55    0.23
   6   8  -3    0.27    0.21
   5   8  -3    2.29    0.34
   4   8  -3    0.13    0.16
   4   8  -3    0.20    0.14
   3   8  -3    2.31    0.28
   3   8  -3    2.12    0.25
   2   8  -3   18.02    0.66
   2   8  -3   18.14    0.63
   2   8  -3   16.43    0.60
  -2  -8   3   18.78    0.64
   1   8  -3   25.79    0.81
   1   8  -3   26.03    0.76
   1   8  -3   25.22    0.75
  -1  -8   3   24.62    0.72
   0   8  -3    3.41    0.33
   0   8  -3    4.13    0.32
   0   8  -3    3.47    0.33
   0   8  -3    3.66    0.30
   0  -8   3    3.33    0.25
  -1   8  -3    0.31    0.15
  -1   8  -3    0.11    0.13
  -1   8  -3    0.47    0.21
  -1   8  -3    0.29    0.16
  -2   8  -3    0.18    0.14
  -2   8  -3    0.04    0.13
  -2   8  -3   -0.13    0.18
  -2   8  -3    0.22    0.16
  -3   8  -3    4.40    0.35
  -3   8  -3    3.46    0.31
  -3   8  -3    3.67    0.31
  -3   8  -3    4.07    0.42
  -4   8  -3    5.48    0.35
  -4   8  -3    5.77    0.35
  -4   8  -3    5.71    0.51
  -5   8  -3   -0.02    0.13
   6   7  -3   -0.02    0.14
   5   7  -3    2.98    0.37
   4   7  -3    5.28    0.33
   4   7  -3    4.33    0.36
   3   7  -3    0.18    0.12
   3   7  -3    0.10    0.17
   3   7  -3    0.02    0.11
   2   7  -3   23.48    0.69
   2   7  -3   22.77    0.71
   2   7  -3   22.72    0.67
   2   7  -3   20.66    0.82
   1   7  -3    1.37    0.21
   1   7  -3    1.78    0.21
   1   7  -3    1.48    0.24
   1   7  -3    1.49    0.20
  -1  -7   3    1.63    0.19
   0   7  -3   16.62    0.61
   0   7  -3   16.87    0.56
   0   7  -3   16.81    0.56
   0   7  -3   16.93    0.61
   0  -7   3   16.88    0.51
  -1   7  -3    6.32    0.34
  -1   7  -3    6.17    0.37
  -1   7  -3    6.65    0.41
  -1   7  -3    6.84    0.36
  -2   7  -3    5.38    0.33
  -2   7  -3    4.96    0.34
  -2   7  -3    5.95    0.34
  -2   7  -3    5.75    0.42
  -3   7  -3    1.19    0.20
  -3   7  -3    0.81    0.17
  -3   7  -3    1.02    0.26
  -3   7  -3    0.77    0.17
  -4   7  -3    5.44    0.34
  -4   7  -3    5.10    0.31
  -4   7  -3    5.51    0.32
  -5   7  -3    4.29    0.29
   6   6  -3    0.07    0.17
   6   6  -3    0.12    0.18
   5   6  -3    1.02    0.21
   5   6  -3    0.77    0.26
   5   6  -3    0.91    0.23
   4   6  -3    0.61    0.21
   4   6  -3    0.74    0.19
   4   6  -3    0.75    0.15
   3   6  -3    0.06    0.11
   3   6  -3    0.25    0.12
   3   6  -3    0.17    0.20
  -3  -6   3    0.21    0.10
   2   6  -3    2.39    0.29
   2   6  -3    1.96    0.20
   2   6  -3    2.35    0.22
   2   6  -3    2.29    0.23
   1   6  -3   15.80    0.52
   1   6  -3   16.02    0.65
   1   6  -3   17.83    0.56
   1   6  -3   16.77    0.53
   0   6  -3   43.56    1.02
   0   6  -3   44.86    1.08
   0   6  -3   43.96    1.08
   0   6  -3   44.29    1.02
   0   6  -3   43.96    1.17
   0  -6   3   44.25    0.97
  -1   6  -3   14.90    0.56
  -1   6  -3   14.85    0.48
  -1   6  -3   14.11    0.47
  -1   6  -3   15.81    0.54
  -2   6  -3    3.05    0.25
  -2   6  -3    2.75    0.22
  -2   6  -3    2.97    0.23
   2  -6   3    2.66    0.14
  -3   6  -3   13.31    0.45
  -3   6  -3   13.31    0.45
  -3   6  -3   13.65    0.49
  -4   6  -3    0.05    0.11
  -4   6  -3    0.00    0.10
  -4   6  -3    0.02    0.10
  -5   6  -3    1.04    0.15
  -6   6  -3    1.01    0.16
   7   5  -3    8.76    0.57
   7   5  -3    8.26    0.67
   6   5  -3    6.72    0.50
   6   5  -3    6.75    0.48
   5   5  -3    6.51    0.47
   5   5  -3    6.41    0.37
   5   5  -3    6.65    0.44
   4   5  -3    5.45    0.36
   4   5  -3    5.15    0.40
   4   5  -3    5.01    0.26
  -4  -5   3    5.50    0.27
   3   5  -3   24.03    0.84
   3   5  -3   24.71    0.63
   3   5  -3   24.98    0.66
   3   5  -3   23.83    0.50
  -3  -5   3   24.09    0.64
   2   5  -3    2.26    0.20
   2   5  -3    2.01    0.19
   2   5  -3    2.41    0.31
   2   5  -3    1.88    0.18
  -2  -5   3    2.14    0.18
   1   5  -3    5.73    0.29
   1   5  -3    5.60    0.28
   1   5  -3    6.55    0.39
   1   5  -3    6.61    0.30
   0   5  -3   29.06    0.72
   0   5  -3   28.82    0.77
   0   5  -3   30.18    0.86
   0   5  -3   29.50    0.72
   0   5  -3   28.36    0.76
   0  -5   3   29.37    0.69
  -1   5  -3    0.57    0.11
  -1   5  -3    0.77    0.14
  -1   5  -3    0.58    0.11
  -1   5  -3    0.64    0.15
   1  -5   3    0.66    0.11
  -3   5  -3    0.83    0.12
  -3   5  -3    0.86    0.15
  -3   5  -3    1.12    0.15
  -4   5  -3    3.52    0.21
  -4   5  -3    2.96    0.23
  -4   5  -3    3.24    0.20
  -5   5  -3    3.08    0.19
  -6   5  -3    0.92    0.13
   7   4  -3    1.49    0.30
   7   4  -3    1.60    0.29
   6   4  -3    1.36    0.29
   6   4  -3    1.20    0.28
   5   4  -3    1.80    0.27
   5   4  -3    0.99    0.20
   4   4  -3    0.11    0.13
   4   4  -3    0.17    0.08
   4   4  -3    0.13    0.15
  -4  -4   3    0.06    0.08
   3   4  -3   24.45    0.60
   3   4  -3   24.89    0.71
   3   4  -3   24.94    0.60
   3   4  -3   24.36    0.62
   3   4  -3   24.78    0.81
  -3  -4   3   24.58    0.61
   2   4  -3    7.99    0.28
   2   4  -3    8.28    0.31
   2   4  -3    8.23    0.42
   2   4  -3    8.25    0.30
   2   4  -3    9.00    0.32
  -2  -4   3    8.15    0.30
   1   4  -3   29.96    0.90
   1   4  -3   34.95    0.79
   1   4  -3   35.07    0.79
   1   4  -3   34.31    0.78
  -1  -4   3   35.35    0.84
   0   4  -3    0.40    0.09
   0   4  -3    0.73    0.11
   0   4  -3    0.48    0.14
   0   4  -3    0.52    0.12
   0  -4   3    0.52    0.09
   0  -4   3    0.51    0.12
  -1   4  -3    7.86    0.29
  -1   4  -3    8.61    0.33
  -1   4  -3    8.03    0.30
   1  -4   3    8.49    0.31
   1  -4   3    8.24    0.26
  -2   4  -3    2.45    0.16
  -2   4  -3    2.37    0.18
  -2   4  -3    2.57    0.17
   2  -4   3    2.76    0.11
   2  -4   3    2.51    0.17
  -3   4  -3    0.07    0.07
  -3   4  -3    0.41    0.10
  -3   4  -3    0.07    0.07
  -4   4  -3    3.16    0.19
  -4   4  -3    3.30    0.21
  -4   4  -3    3.16    0.17
   7   3  -3    2.10    0.35
   7   3  -3    2.00    0.31
   6   3  -3   -0.01    0.13
   6   3  -3   -0.03    0.15
   5   3  -3   21.63    0.76
   5   3  -3   21.35    0.75
   4   3  -3   18.85    0.69
   4   3  -3   19.43    0.48
   4   3  -3   19.46    0.65
   4   3  -3   18.81    0.48
  -4  -3   3   19.12    0.49
   3   3  -3   27.65    0.74
   3   3  -3   26.93    0.63
   3   3  -3   27.02    0.63
  -3  -3   3   26.28    0.75
  -3  -3   3   27.65    0.82
  -3  -3   3   26.59    0.61
   2   3  -3   46.68    0.97
   2   3  -3   46.94    0.95
   2   3  -3   47.50    0.97
   2   3  -3   46.29    0.98
  -2  -3   3   47.64    1.06
  -2  -3   3   47.00    0.99
  -2  -3   3   45.49    0.94
   1   3  -3   73.78    1.44
   1   3  -3   74.48    1.45
   1   3  -3   75.44    1.45
  -1  -3   3   74.00    1.50
  -1  -3   3   74.93    1.45
   0   3  -3   23.41    0.67
   0   3  -3   23.94    0.56
   0   3  -3   23.67    0.56
   0  -3   3   24.47    0.60
   0  -3   3   23.91    0.55
  -1   3  -3   72.45    1.40
  -1   3  -3   73.21    1.41
  -1   3  -3   74.42    1.45
   1  -3   3   76.37    1.44
   1  -3   3   72.79    1.37
  -2   3  -3   44.13    0.93
  -2   3  -3   44.36    0.88
  -2   3  -3   45.28    0.90
   2  -3   3   44.84    0.91
  -3   3  -3  122.62    2.17
  -3   3  -3  120.04    2.21
  -3   3  -3  116.87    2.13
  -4   3  -3   34.28    0.74
  -4   3  -3   34.28    0.70
  -7   3  -3    3.44    0.36
   7   2  -3    1.62    0.33
   7   2  -3    1.37    0.24
   6   2  -3    0.60    0.22
   6   2  -3    0.49    0.18
  -6  -2   3    0.96    0.17
   5   2  -3    3.15    0.29
   5   2  -3    3.10    0.31
  -5  -2   3    3.09    0.23
   4   2  -3   16.27    0.40
   4   2  -3   17.30    0.60
   4   2  -3   17.53    0.41
  -4  -2   3   17.44    0.48
  -4  -2   3   16.78    0.48
  -4  -2   3   17.69    0.49
  -4  -2   3   17.37    0.44
   3   2  -3    8.70    0.28
   3   2  -3    8.83    0.37
   3   2  -3    9.19    0.30
   3   2  -3    9.25    0.26
  -3  -2   3    9.05    0.30
  -3  -2   3    9.61    0.31
  -3  -2   3    9.18    0.31
  -3  -2   3    8.94    0.26
   2   2  -3   70.70    1.34
   2   2  -3   71.97    1.35
   2   2  -3   71.20    1.36
  -2  -2   3   70.90    1.36
  -2  -2   3   68.56    1.36
  -2  -2   3   69.71    1.30
   1   2  -3   45.72    0.90
   1   2  -3   46.22    0.94
   1   2  -3   47.03    0.93
  -1  -2   3   45.69    0.93
   0   2  -3    2.83    0.15
   0   2  -3    2.91    0.16
   0  -2   3    3.24    0.18
   0  -2   3    2.94    0.15
  -1   2  -3    3.36    0.14
  -1   2  -3    3.21    0.18
  -1   2  -3    3.12    0.15
   1  -2   3    3.51    0.16
   1  -2   3    2.97    0.13
   1  -2   3    3.49    0.13
  -2   2  -3  229.66    3.99
  -2   2  -3  229.28    4.02
  -2   2  -3  225.90    3.96
   2  -2   3  229.00    4.00
  -3   2  -3    0.00    0.05
  -3   2  -3   -0.03    0.04
  -4   2  -3   11.36    0.27
  -4   2  -3   11.67    0.30
  -6   2  -3    1.23    0.21
  -7   2  -3    2.62    0.30
   7   1  -3    7.64    0.42
  -7  -1   3    7.98    0.44
   6   1  -3    0.40    0.16
   6   1  -3    0.71    0.22
  -6  -1   3    0.66    0.16
   5   1  -3   37.95    1.07
  -5  -1   3   37.86    0.90
   4   1  -3    1.59    0.21
  -4  -1   3    1.84    0.16
  -4  -1   3    1.52    0.13
  -4  -1   3    1.96    0.18
  -4  -1   3    1.69    0.15
   3   1  -3    2.13    0.18
   3   1  -3    2.34    0.15
   3   1  -3    1.72    0.11
   3   1  -3    1.98    0.11
  -3  -1   3    2.16    0.15
  -3  -1   3    2.00    0.10
  -3  -1   3    2.01    0.14
  -3  -1   3    2.09    0.10
  -3  -1   3    1.84    0.13
   2   1  -3    7.14    0.22
   2   1  -3    7.82    0.29
   2   1  -3    7.28    0.24
   2   1  -3    7.01    0.23
  -2  -1   3    7.56    0.24
  -2  -1   3    7.32    0.24
  -2  -1   3    7.20    0.18
  -2  -1   3    7.31    0.24
   1   1  -3  299.51    5.21
   1   1  -3  300.90    5.17
   1   1  -3  296.29    5.22
   1   1  -3  296.69    5.21
  -1  -1   3  297.84    5.22
  -1  -1   3  306.04    5.22
   0   1  -3  441.13    7.60
   0   1  -3  435.96    7.59
   0   1  -3  437.34    7.60
   0  -1   3  447.83    7.59
  -1   1  -3  165.68    3.07
  -1   1  -3  168.32    2.99
  -1   1  -3  172.08    2.99
   1  -1   3  173.84    2.98
   1  -1   3  174.58    3.01
  -2   1  -3    2.75    0.11
  -2   1  -3    2.95    0.10
   2  -1   3    2.83    0.10
  -6   1  -3    1.84    0.23
   7   0  -3    3.16    0.28
  -7   0   3    3.35    0.32
   6   0  -3    0.23    0.15
   6   0  -3    0.92    0.24
  -6   0   3    0.53    0.15
   5   0  -3   27.90    0.88
  -5   0   3   28.46    0.75
   4   0  -3   40.62    1.04
  -4   0   3   41.11    0.93
  -4   0   3   41.25    0.85
  -4   0   3   40.54    0.84
  -4   0   3   41.38    0.91
   3   0  -3    4.84    0.26
   3   0  -3    4.36    0.13
   3   0  -3    4.58    0.21
   3   0  -3    4.22    0.14
  -3   0   3    4.14    0.18
  -3   0   3    4.22    0.17
  -3   0   3    4.82    0.21
  -3   0   3    4.07    0.17
   2   0  -3  109.84    2.03
   2   0  -3  112.24    1.95
   2   0  -3  112.96    2.08
   2   0  -3  108.55    1.97
   2   0  -3  106.43    1.96
  -2   0   3  108.43    1.99
  -2   0   3  109.82    2.02
  -2   0   3  112.11    1.99
   1   0  -3  428.57    7.34
   1   0  -3  427.96    7.35
   1   0  -3  429.61    7.35
   1   0  -3  421.07    7.35
  -1   0   3  430.15    7.46
  -1   0   3  419.85    7.35
  -1   0   3  425.95    7.34
   0   0  -3  407.43    6.99
   0   0  -3  391.86    6.98
   0   0  -3  398.12    7.01
   0   0   3  410.10    7.03
   0   0   3  416.36    6.97
   0   0   3  408.73    6.98
  -1   0  -3   87.85    1.62
  -1   0  -3   87.35    1.58
  -1   0  -3   89.33    1.65
  -1   0  -3   89.95    1.57
   1   0   3   88.00    1.66
  -2   0  -3   10.24    0.22
   2   0   3   10.29    0.28
   3   0   3    2.37    0.21
   3   0   3    2.65    0.13
  -4   0  -3   10.40    0.24
  -6   0  -3    1.17    0.18
  -7   1   3   10.92    0.50
   6  -1  -3    4.97    0.27
  -6   1   3    5.00    0.32
   5  -1  -3   32.87    0.97
  -5   1   3   32.33    0.85
  -5   1   3   33.37    0.70
   4  -1  -3    6.63    0.36
  -4   1   3    6.38    0.21
  -4   1   3    6.30    0.21
  -4   1   3    6.04    0.22
  -4   1   3    6.36    0.30
   3  -1  -3   30.13    0.71
   3  -1  -3   30.42    0.77
  -3   1   3   28.97    0.70
  -3   1   3   29.95    0.61
  -3   1   3   30.24    0.61
  -3   1   3   29.65    0.62
  -3   1   3   30.20    0.62
   2  -1  -3    9.14    0.23
   2  -1  -3    9.50    0.32
   2  -1  -3    9.75    0.29
   2  -1  -3    9.63    0.23
  -2   1   3    9.33    0.29
  -2   1   3    9.35    0.30
  -2   1   3    9.37    0.24
  -2   1   3    9.18    0.25
  -2   1   3    8.84    0.24
  -2   1   3    9.08    0.20
  -2   1   3    9.22    0.24
   1  -1  -3  299.75    5.04
   1  -1  -3  293.19    5.08
   1  -1  -3  291.89    5.04
   1  -1  -3  289.75    5.07
   1  -1  -3  290.04    5.06
   1  -1  -3  289.23    5.04
   1  -1  -3  295.28    5.11
  -1   1   3  288.40    5.04
  -1   1   3  289.74    5.05
  -1   1   3  291.47    5.04
  -1   1   3  292.30    5.07
  -1   1   3  287.57    5.05
   0  -1  -3   30.36    0.65
   0  -1  -3   28.99    0.59
   0  -1  -3   30.91    0.60
   0  -1  -3   29.20    0.60
   0  -1  -3   28.91    0.59
   0  -1  -3   29.17    0.59
   0   1   3   30.09    0.59
   0   1   3   29.47    0.59
   0   1   3   29.64    0.60
   0   1   3   29.16    0.59
  -1  -1  -3   92.57    1.71
  -1  -1  -3   91.86    1.70
  -1  -1  -3   93.57    1.66
  -1  -1  -3   91.62    1.65
   1   1   3   94.32    1.71
   1   1   3   92.71    1.72
  -2  -1  -3  111.42    2.00
  -2  -1  -3  113.49    1.98
   2   1   3  115.18    2.13
   2   1   3  111.91    2.06
  -3  -1  -3    7.29    0.20
  -3  -1  -3    8.31    0.31
  -4  -1  -3   50.99    0.95
   4   1   3   48.44    1.00
   4   1   3   51.06    1.19
  -5  -1  -3   22.60    0.60
  -6  -1  -3   16.12    0.51
  -7   2   3    2.52    0.30
  -6   2   3   12.65    0.36
  -6   2   3   13.39    0.53
   5  -2  -3   34.57    0.78
  -5   2   3   33.89    0.72
  -5   2   3   33.79    0.89
  -5   2   3   34.48    0.70
  -5   2   3   34.08    0.71
   4  -2  -3   23.60    0.57
   4  -2  -3   23.94    0.72
  -4   2   3   23.50    0.49
  -4   2   3   23.24    0.51
  -4   2   3   23.09    0.65
  -4   2   3   23.05    0.51
  -4   2   3   22.68    0.50
   3  -2  -3    0.21    0.07
   3  -2  -3    0.23    0.09
  -3   2   3    0.51    0.06
  -3   2   3    0.26    0.06
  -3   2   3    0.33    0.09
  -3   2   3    0.26    0.06
  -3   2   3    0.20    0.05
   2  -2  -3   14.51    0.39
   2  -2  -3   14.98    0.33
   2  -2  -3   16.32    0.43
   2  -2  -3   17.16    0.34
   2  -2  -3   16.19    0.45
  -2   2   3   14.71    0.35
  -2   2   3   14.99    0.35
  -2   2   3   18.27    0.45
  -2   2   3   14.93    0.34
   1  -2  -3   66.37    1.24
   1  -2  -3   69.01    1.22
   1  -2  -3   65.39    1.27
   1  -2  -3   68.36    1.27
   1  -2  -3   66.76    1.29
   1  -2  -3   68.30    1.23
   1  -2  -3   68.00    1.23
  -1   2   3   67.31    1.25
  -1   2   3   68.21    1.25
  -1   2   3   68.17    1.23
  -1   2   3   66.66    1.26
  -1   2   3   66.92    1.27
  -1   2   3   68.97    1.24
  -1   2   3   66.93    1.23
  -1   2   3   66.83    1.28
   0  -2  -3    0.02    0.04
   0  -2  -3   -0.02    0.02
   0  -2  -3    0.02    0.03
   0  -2  -3    0.06    0.04
   0  -2  -3    0.03    0.05
   0   2   3   -0.03    0.03
   0   2   3   -0.01    0.04
   0   2   3    0.05    0.03
   0   2   3    0.04    0.03
   0   2   3    0.01    0.04
  -1  -2  -3   93.29    1.62
  -1  -2  -3   95.11    1.68
  -1  -2  -3   91.00    1.67
  -1  -2  -3   91.05    1.73
  -1  -2  -3   91.33    1.66
   1   2   3   91.96    1.67
   1   2   3   92.59    1.66
   1   2   3   94.39    1.74
  -2  -2  -3  106.93    1.91
  -2  -2  -3  106.50    1.92
  -2  -2  -3  107.47    1.96
  -2  -2  -3  105.73    1.90
   2   2   3  106.53    1.89
   2   2   3  106.04    1.99
   2   2   3  106.00    2.00
   2   2   3  108.20    1.87
  -3  -2  -3    1.12    0.13
  -3  -2  -3    1.05    0.08
  -3  -2  -3    1.01    0.08
  -3  -2  -3    1.11    0.09
   3   2   3    1.18    0.12
   3   2   3    1.09    0.15
  -4  -2  -3    9.73    0.28
  -4  -2  -3    9.94    0.30
  -4  -2  -3   10.29    0.27
   4   2   3   10.63    0.43
   4   2   3   10.11    0.34
  -5  -2  -3   65.09    1.31
  -5  -2  -3   65.97    1.25
   5   2   3   63.47    1.34
   5   2   3   68.59    1.53
  -6  -2  -3    2.58    0.31
   6   2   3    2.15    0.18
  -7   3   3    0.09    0.15
  -7   3   3    0.13    0.08
  -6   3   3    1.63    0.15
  -6   3   3    2.32    0.28
   5  -3  -3    3.09    0.19
  -5   3   3    3.20    0.15
  -5   3   3    3.05    0.16
  -5   3   3    3.13    0.29
  -5   3   3    3.05    0.15
   4  -3  -3    9.09    0.31
  -4   3   3    9.11    0.24
  -4   3   3    8.72    0.25
  -4   3   3    8.54    0.38
  -4   3   3    8.54    0.26
  -4   3   3    8.83    0.25
   3  -3  -3  112.42    2.10
  -3   3   3  112.67    2.01
  -3   3   3  112.04    2.17
  -3   3   3  109.53    2.03
  -3   3   3  112.64    2.10
  -3   3   3  112.84    2.01
  -3   3   3  114.62    2.00
   2  -3  -3   13.90    0.30
   2  -3  -3   14.10    0.39
   2  -3  -3   14.10    0.31
  -2   3   3   14.12    0.41
  -2   3   3   13.97    0.35
  -2   3   3   14.01    0.32
  -2   3   3   14.05    0.41
  -2   3   3   14.27    0.34
  -2   3   3   14.15    0.33
  -2   3   3   14.35    0.37
   1  -3  -3  268.68    4.53
   1  -3  -3  259.36    4.53
   1  -3  -3  258.85    4.55
   1  -3  -3  261.15    4.64
   1  -3  -3  261.79    4.57
  -1   3   3  260.97    4.59
  -1   3   3  261.19    4.56
  -1   3   3  261.90    4.58
  -1   3   3  257.36    4.61
  -1   3   3  261.76    4.56
  -1   3   3  260.97    4.53
  -1   3   3  262.62    4.57
   0  -3  -3  713.35   12.48
   0  -3  -3  715.15   12.37
   0  -3  -3  711.09   12.53
   0  -3  -3  739.44   12.83
   0  -3  -3  696.06   12.61
   0   3   3  714.10   12.53
   0   3   3  713.56   12.81
   0   3   3  702.74   12.50
   0   3   3  704.02   12.27
   0   3   3  707.91   12.47
   0   3   3  711.78   12.54
  -1  -3  -3  101.91    1.85
  -1  -3  -3  103.39    1.88
  -1  -3  -3  105.12    1.95
  -1  -3  -3  103.34    1.88
  -1  -3  -3  103.55    1.79
   1   3   3  101.21    1.79
   1   3   3  101.89    1.95
   1   3   3  102.83    1.87
   1   3   3  102.97    1.86
   1   3   3  101.90    1.87
  -2  -3  -3   14.23    0.35
  -2  -3  -3   14.46    0.37
  -2  -3  -3   14.52    0.35
  -2  -3  -3   14.56    0.37
   2   3   3   14.39    0.35
   2   3   3   14.97    0.33
   2   3   3   14.72    0.43
   2   3   3   14.79    0.41
   2   3   3   14.96    0.35
  -3  -3  -3  182.90    3.29
  -3  -3  -3  182.22    3.34
  -3  -3  -3  186.06    3.20
  -3  -3  -3  186.87    3.24
  -3  -3  -3  187.67    3.28
  -3  -3  -3  182.20    3.30
   3   3   3  182.62    3.22
   3   3   3  186.81    3.39
   3   3   3  188.03    3.41
  -4  -3  -3   27.20    0.56
  -4  -3  -3   26.26    0.62
  -4  -3  -3   27.65    0.62
  -4  -3  -3   27.54    0.57
   4   3   3   28.06    0.71
   4   3   3   28.05    0.76
  -5  -3  -3    0.28    0.07
   5   3   3    0.16    0.10
   5   3   3   -0.02    0.13
   6   3   3    1.20    0.18
  -7  -3  -3    1.08    0.16
   7   3   3    0.79    0.16
  -7   4   3    0.31    0.18
  -7   4   3    0.51    0.10
  -6   4   3   16.33    0.43
  -6   4   3   16.95    0.65
   5  -4  -3    0.70    0.11
  -5   4   3    0.86    0.10
  -5   4   3    0.78    0.10
  -5   4   3    0.78    0.18
  -5   4   3    0.81    0.10
   4  -4  -3   22.36    0.59
  -4   4   3   23.38    0.64
  -4   4   3   22.96    0.68
  -4   4   3   22.14    0.52
  -4   4   3   23.36    0.49
  -4   4   3   23.01    0.50
   3  -4  -3   28.49    0.70
  -3   4   3   29.60    0.71
  -3   4   3   29.15    0.74
  -3   4   3   28.48    0.62
  -3   4   3   28.86    0.61
  -3   4   3   28.97    0.59
   2  -4  -3   39.69    0.76
   2  -4  -3   41.07    0.76
   2  -4  -3   39.40    0.90
  -2   4   3   39.25    0.78
  -2   4   3   40.91    0.90
  -2   4   3   40.12    0.82
  -2   4   3   40.84    0.87
  -2   4   3   40.01    0.89
  -2   4   3   40.43    0.81
   1  -4  -3    4.14    0.20
   1  -4  -3    3.86    0.14
   1  -4  -3    4.06    0.16
   1  -4  -3    3.96    0.22
  -1   4   3    3.92    0.17
  -1   4   3    4.01    0.18
  -1   4   3    4.17    0.21
  -1   4   3    4.14    0.16
  -1   4   3    4.25    0.20
  -1   4   3    3.98    0.17
  -1   4   3    4.51    0.20
   0  -4  -3   43.61    0.94
   0  -4  -3   45.94    1.00
   0  -4  -3   44.64    0.90
   0  -4  -3   44.71    0.88
   0   4   3   46.24    0.96
   0   4   3   45.35    0.88
   0   4   3   44.66    0.98
   0   4   3   44.02    0.91
  -1  -4  -3  108.88    2.00
  -1  -4  -3  107.14    1.97
  -1  -4  -3  106.01    2.07
   1   4   3  108.53    1.91
   1   4   3  108.17    1.89
   1   4   3  112.05    2.01
   1   4   3  109.26    2.01
   1   4   3  108.42    2.00
   1   4   3  109.92    2.09
  -2  -4  -3  294.66    5.17
  -2  -4  -3  288.39    5.14
  -2  -4  -3  293.36    5.17
  -2  -4  -3  296.77    5.13
   2   4   3  292.11    5.26
   2   4   3  294.40    5.13
   2   4   3  295.44    5.15
   2   4   3  292.26    5.12
   2   4   3  296.78    5.15
  -3  -4  -3    0.91    0.11
  -3  -4  -3    1.06    0.12
  -3  -4  -3    0.94    0.10
  -3  -4  -3    1.03    0.11
  -3  -4  -3    0.76    0.10
   3   4   3    0.90    0.13
   3   4   3    0.87    0.11
   3   4   3    1.43    0.10
   3   4   3    1.01    0.16
  -4  -4  -3   56.88    1.11
  -4  -4  -3   56.00    1.16
  -4  -4  -3   58.02    1.16
  -4  -4  -3   56.28    1.16
   4   4   3   57.40    1.27
   4   4   3   56.02    1.27
  -5  -4  -3    2.92    0.13
   5   4   3    2.99    0.25
   5   4   3    2.94    0.28
  -6  -4  -3    0.08    0.11
   6   4   3    0.16    0.13
   6   4   3    0.05    0.14
  -7  -4  -3    3.16    0.27
   7   4   3    2.88    0.28
  -7   5   3    0.12    0.08
  -7   5   3    0.11    0.17
  -6   5   3    5.44    0.41
  -6   5   3    4.60    0.23
   5  -5  -3    1.77    0.18
  -5   5   3    1.71    0.15
  -5   5   3    1.74    0.15
  -5   5   3    1.90    0.26
  -5   5   3    1.81    0.24
   4  -5  -3   33.06    0.82
  -4   5   3   34.00    0.72
  -4   5   3   34.18    0.73
  -4   5   3   33.26    0.69
  -4   5   3   32.97    0.90
  -4   5   3   34.37    0.87
   3  -5  -3   89.27    1.82
  -3   5   3   90.86    1.85
  -3   5   3   88.12    1.67
  -3   5   3   91.00    1.71
  -3   5   3   91.03    1.70
  -3   5   3   97.13    1.84
   2  -5  -3   30.40    0.62
   2  -5  -3   30.84    0.77
   2  -5  -3   29.71    0.60
  -2   5   3   30.74    0.74
  -2   5   3   30.39    0.66
  -2   5   3   29.92    0.64
  -2   5   3   29.12    0.73
  -2   5   3   30.18    0.66
  -2   5   3   31.06    0.74
   1  -5  -3  161.86    2.94
   1  -5  -3  162.70    2.85
   1  -5  -3  157.08    2.99
   1  -5  -3  154.46    2.81
  -1   5   3  161.07    2.93
  -1   5   3  160.62    2.87
  -1   5   3  159.21    2.87
  -1   5   3  156.79    2.84
  -1   5   3  156.40    2.95
   0  -5  -3   18.66    0.52
   0  -5  -3   18.33    0.47
   0  -5  -3   17.52    0.44
   0  -5  -3   18.14    0.56
   0   5   3   18.17    0.49
   0   5   3   18.61    0.47
   0   5   3   18.23    0.54
   0   5   3   18.82    0.48
   0   5   3   18.83    0.52
  -1  -5  -3   -0.04    0.05
  -1  -5  -3   -0.01    0.08
  -1  -5  -3   -0.02    0.05
  -1  -5  -3   -0.02    0.05
   1   5   3   -0.02    0.05
   1   5   3    0.00    0.07
   1   5   3    0.05    0.06
   1   5   3    0.13    0.07
   1   5   3    0.06    0.04
  -2  -5  -3    2.18    0.16
  -2  -5  -3    2.41    0.16
  -2  -5  -3    2.45    0.22
  -2  -5  -3    2.09    0.19
  -2  -5  -3    2.01    0.16
   2   5   3    2.20    0.16
   2   5   3    2.26    0.21
   2   5   3    2.12    0.12
   2   5   3    2.22    0.15
   2   5   3    2.05    0.17
  -3  -5  -3    2.44    0.17
  -3  -5  -3    2.36    0.17
  -3  -5  -3    2.08    0.16
  -3  -5  -3    2.56    0.16
   3   5   3    2.51    0.16
   3   5   3    2.34    0.23
   3   5   3    2.27    0.19
   3   5   3    2.52    0.17
   3   5   3    2.08    0.13
   3   5   3    2.23    0.15
  -4  -5  -3    1.13    0.15
  -4  -5  -3    1.40    0.15
  -4  -5  -3    1.30    0.18
   4   5   3    1.02    0.11
   4   5   3    0.96    0.17
   4   5   3    1.04    0.16
   4   5   3    1.34    0.22
  -5  -5  -3    0.06    0.10
   5   5   3    0.18    0.11
   5   5   3    0.21    0.13
  -6  -5  -3    1.28    0.18
   6   5   3    1.01    0.21
   6   5   3    1.38    0.22
  -7  -5  -3    5.43    0.35
   7   5   3    5.25    0.37
  -6   6   3    5.94    0.28
  -6   6   3    6.16    0.44
   5  -6  -3    8.33    0.36
  -5   6   3    8.91    0.31
  -5   6   3    9.11    0.46
  -5   6   3    8.34    0.31
  -5   6   3    8.81    0.46
   4  -6  -3   27.04    0.74
  -4   6   3   28.35    0.80
  -4   6   3   27.66    0.65
  -4   6   3   27.71    0.65
  -4   6   3   28.45    0.81
   3  -6  -3    1.96    0.21
  -3   6   3    1.11    0.13
  -3   6   3    1.31    0.14
  -3   6   3    1.23    0.20
  -3   6   3    0.88    0.18
   2  -6  -3   22.71    0.50
   2  -6  -3   23.43    0.52
   2  -6  -3   22.29    0.67
  -2   6   3   23.62    0.65
  -2   6   3   23.80    0.57
  -2   6   3   23.12    0.57
  -2   6   3   23.76    0.55
   1  -6  -3   14.87    0.37
   1  -6  -3   14.71    0.50
   1  -6  -3   14.18    0.47
   1  -6  -3   14.52    0.39
  -1   6   3   14.06    0.41
  -1   6   3   14.54    0.42
  -1   6   3   14.59    0.40
  -1   6   3   14.68    0.47
  -1   6   3   14.77    0.47
   0  -6  -3  157.73    2.84
   0  -6  -3  154.89    3.03
   0  -6  -3  158.16    2.87
   0  -6  -3  156.93    2.96
   0   6   3  157.17    2.88
   0   6   3  159.46    2.88
   0   6   3  156.49    2.96
   0   6   3  157.68    2.93
   0   6   3  154.59    2.98
  -1  -6  -3    4.39    0.21
  -1  -6  -3    4.42    0.26
  -1  -6  -3    5.52    0.32
   1   6   3    4.75    0.23
   1   6   3    4.88    0.25
   1   6   3    4.98    0.24
  -2  -6  -3   12.27    0.38
  -2  -6  -3   12.43    0.49
  -2  -6  -3   12.41    0.39
  -2  -6  -3   12.10    0.45
   2   6   3   11.74    0.40
   2   6   3   12.15    0.38
   2   6   3   12.44    0.39
   2   6   3   12.19    0.48
   2   6   3   12.69    0.33
  -3  -6  -3   33.23    0.79
  -3  -6  -3   34.21    0.77
   3   6   3   33.70    0.91
   3   6   3   27.51    0.72
   3   6   3   34.06    0.76
   3   6   3   34.85    0.78
   3   6   3   33.70    0.81
  -4  -6  -3    0.27    0.11
  -4  -6  -3    0.39    0.12
   4   6   3    0.42    0.10
   4   6   3    0.30    0.14
   4   6   3    0.07    0.11
   4   6   3    0.64    0.13
  -5  -6  -3    0.29    0.12
   5   6   3    0.36    0.14
   5   6   3    0.12    0.11
   5   6   3    0.19    0.13
  -6  -6  -3    0.76    0.17
   6   6   3    0.56    0.19
   6   6   3    0.94    0.21
  -7  -6  -3    0.33    0.16
   7   6   3    0.13    0.14
  -6   7   3    0.12    0.11
  -6   7   3    0.27    0.19
   5  -7  -3    0.50    0.14
  -5   7   3    0.37    0.19
  -5   7   3    0.23    0.14
  -5   7   3    0.22    0.11
  -5   7   3    0.44    0.11
  -5   7   3    0.04    0.15
   4  -7  -3    3.46    0.27
  -4   7   3    2.90    0.30
  -4   7   3    3.73    0.23
  -4   7   3    3.65    0.30
  -4   7   3    3.80    0.33
  -4   7   3    3.21    0.22
   3  -7  -3    7.21    0.38
  -3   7   3    6.74    0.30
  -3   7   3    6.65    0.36
  -3   7   3    6.52    0.37
  -3   7   3    6.88    0.38
  -3   7   3    6.62    0.29
   2  -7  -3    6.61    0.24
   2  -7  -3    6.61    0.36
  -2   7   3    6.32    0.26
  -2   7   3    6.69    0.33
  -2   7   3    7.08    0.36
  -2   7   3    7.09    0.29
  -2   7   3    6.50    0.28
   1  -7  -3    1.22    0.12
   1  -7  -3    1.23    0.22
   1  -7  -3    1.05    0.16
  -1   7   3    0.81    0.14
  -1   7   3    1.33    0.18
  -1   7   3    1.12    0.16
  -1   7   3    1.10    0.15
   0  -7  -3   27.06    0.81
   0  -7  -3   28.50    0.78
   0  -7  -3   28.04    0.66
   0   7   3   27.62    0.70
   0   7   3   28.82    0.78
   0   7   3   29.76    0.71
   0   7   3   27.77    0.79
   0   7   3   29.17    0.75
  -1  -7  -3    4.84    0.35
  -1  -7  -3    5.05    0.33
  -1  -7  -3    4.71    0.24
   1   7   3    4.86    0.33
   1   7   3    4.95    0.28
   1   7   3    4.64    0.26
   1   7   3    5.11    0.27
  -2  -7  -3   39.62    0.91
  -2  -7  -3   38.71    1.06
   2   7   3   39.49    1.05
   2   7   3   39.57    0.95
   2   7   3   40.78    0.92
   2   7   3   39.13    0.91
  -3  -7  -3   39.59    0.93
   3   7   3   40.23    0.97
   3   7   3   39.41    1.08
   3   7   3   39.78    0.89
   3   7   3   39.11    0.90
   3   7   3   39.92    0.92
  -4  -7  -3    1.95    0.21
   4   7   3    1.48    0.22
   4   7   3    1.81    0.21
   4   7   3    1.87    0.18
   4   7   3    1.65    0.20
  -5  -7  -3   13.25    0.50
   5   7   3   13.12    0.51
   5   7   3   13.08    0.60
   5   7   3   12.88    0.52
  -6  -7  -3    0.79    0.19
   6   7   3    0.64    0.20
   6   7   3    0.50    0.18
  -7  -7  -3    2.09    0.26
   7   7   3    2.26    0.33
   6  -8  -3   -0.07    0.11
  -6   8   3    0.25    0.13
   5  -8  -3    3.14    0.30
  -5   8   3    2.73    0.24
  -5   8   3    2.10    0.29
  -5   8   3    2.89    0.30
  -5   8   3    2.81    0.34
   4  -8  -3    0.57    0.17
  -4   8   3    0.59    0.13
  -4   8   3    0.70    0.19
  -4   8   3    0.67    0.21
  -4   8   3    0.69    0.14
  -4   8   3    0.49    0.16
   3  -8  -3    0.95    0.20
  -3   8   3    0.74    0.19
  -3   8   3    0.77    0.15
  -3   8   3    1.03    0.22
  -3   8   3    0.75    0.15
   2  -8  -3   18.58    0.68
  -2   8   3   19.86    0.57
  -2   8   3   20.53    0.67
  -2   8   3   20.25    0.65
  -2   8   3   19.41    0.58
   1  -8  -3    0.03    0.06
   1  -8  -3   -0.06    0.10
  -1   8   3    0.06    0.10
  -1   8   3    0.00    0.12
  -1   8   3   -0.09    0.08
  -1   8   3   -0.09    0.08
   0  -8  -3   50.23    1.07
   0  -8  -3   51.18    1.31
   0   8   3   50.52    1.21
   0   8   3   50.77    1.19
   0   8   3   49.00    1.23
   0   8   3   49.43    1.13
   0   8   3   50.49    1.12
  -1  -8  -3  165.96    3.10
  -1  -8  -3  168.48    3.37
   1   8   3  163.23    3.30
   1   8   3  171.16    3.15
   1   8   3  171.40    3.16
   1   8   3  168.79    3.28
   1   8   3  165.04    3.20
  -2  -8  -3    4.36    0.37
  -2  -8  -3    4.60    0.27
   2   8   3    4.42    0.31
   2   8   3    4.37    0.27
   2   8   3    4.69    0.28
   2   8   3    4.36    0.35
  -3  -8  -3   45.92    1.06
   3   8   3   45.36    1.00
   3   8   3   44.13    1.03
   3   8   3   45.62    1.06
   3   8   3   44.01    1.22
   3   8   3   44.54    1.11
  -4  -8  -3    4.72    0.31
   4   8   3    4.64    0.28
   4   8   3    5.22    0.32
   4   8   3    4.54    0.27
   4   8   3    4.85    0.40
  -5  -8  -3    3.51    0.31
   5   8   3    3.39    0.28
   5   8   3    3.12    0.36
   5   8   3    4.00    0.33
  -6  -8  -3    1.01    0.20
   6   8   3    0.55    0.20
   6   8   3    0.85    0.22
   6   8   3    0.90    0.21
   5  -9  -3    0.35    0.17
  -5   9   3    0.24    0.17
  -5   9   3    0.33    0.20
  -5   9   3    0.38    0.15
  -5   9   3    0.50    0.23
   4  -9  -3    0.00    0.12
  -4   9   3   -0.18    0.16
  -4   9   3    0.04    0.12
  -4   9   3   -0.17    0.14
  -4   9   3    0.01    0.11
  -4   9   3   -0.14    0.12
   3  -9  -3    0.02    0.14
  -3   9   3    0.04    0.12
  -3   9   3    0.35    0.18
  -3   9   3    0.35    0.16
  -3   9   3    0.21    0.13
   2  -9  -3    3.51    0.40
  -2   9   3    3.32    0.29
  -2   9   3    3.54    0.31
  -2   9   3    3.37    0.29
  -2   9   3    3.75    0.34
   1  -9  -3   22.59    0.82
   1  -9  -3   22.50    0.59
  -1   9   3   23.24    0.75
  -1   9   3   21.24    0.65
  -1   9   3   22.16    0.72
  -1   9   3   23.40    0.66
   0  -9  -3   16.90    0.71
   0  -9  -3   17.24    0.51
   0   9   3   17.98    0.65
   0   9   3   17.62    0.58
   0   9   3   16.78    0.61
   0   9   3   17.70    0.58
   0   9   3   17.10    0.66
  -1  -9  -3    2.38    0.22
  -1  -9  -3    1.91    0.30
   1   9   3    1.64    0.20
   1   9   3    1.28    0.18
   1   9   3    1.83    0.28
   1   9   3    1.66    0.23
   1   9   3    1.79    0.28
  -2  -9  -3  102.29    2.02
   2   9   3  100.01    2.04
   2   9   3   99.04    2.23
   2   9   3   99.32    2.12
   2   9   3  100.73    2.03
  -3  -9  -3    0.25    0.14
   3   9   3    0.35    0.12
   3   9   3    0.34    0.11
   3   9   3    0.16    0.12
   3   9   3    0.45    0.16
   3   9   3    0.33    0.14
  -4  -9  -3    0.21    0.14
   4   9   3    0.06    0.16
   4   9   3    0.18    0.10
   4   9   3    0.14    0.12
  -5  -9  -3    2.11    0.26
   5   9   3    1.40    0.21
   5   9   3    1.71    0.25
   5   9   3    1.42    0.34
  -6  -9  -3    0.16    0.15
   5 -10  -3    0.10    0.15
  -5  10   3    0.17    0.26
  -5  10   3   -0.01    0.14
  -5  10   3    0.09    0.16
   4 -10  -3    1.35    0.26
  -4  10   3    2.07    0.29
  -4  10   3    1.37    0.20
  -4  10   3    1.42    0.27
  -4  10   3    1.63    0.22
  -4  10   3    1.46    0.30
   3 -10  -3    3.06    0.35
  -3  10   3    3.38    0.33
  -3  10   3    2.89    0.28
  -3  10   3    3.38    0.36
  -3  10   3    2.45    0.26
   2 -10  -3    1.14    0.26
  -2  10   3    1.05    0.24
  -2  10   3    0.93    0.22
  -2  10   3    1.05    0.19
  -2  10   3    1.22    0.20
   1 -10  -3    1.89    0.26
  -1  10   3    2.54    0.26
  -1  10   3    2.28    0.29
  -1  10   3    2.47    0.25
  -1  10   3    2.42    0.30
   0 -10  -3    3.09    0.23
   0  10   3    3.03    0.32
   0  10   3    2.37    0.24
   0  10   3    3.00    0.32
   0  10   3    2.33    0.25
  -1 -10  -3   18.99    0.59
   1  10   3   19.41    0.65
   1  10   3   19.33    0.65
   1  10   3   20.24    0.72
   1  10   3   19.25    0.74
  -2 -10  -3    1.91    0.22
   2  10   3    1.16    0.19
   2  10   3    1.56    0.21
   2  10   3    1.40    0.24
  -3 -10  -3   -0.02    0.12
   3  10   3    0.08    0.09
   3  10   3   -0.09    0.15
   3  10   3    0.15    0.13
  -4 -10  -3    3.70    0.34
   4  10   3    3.61    0.31
   4  10   3    3.46    0.29
  -5 -10  -3    2.13    0.28
   5  10   3    2.27    0.30
  -6 -10  -3   -0.35    0.14
   4 -11  -3    0.21    0.18
  -4  11   3    0.62    0.23
  -4  11   3    0.59    0.18
  -4  11   3    0.56    0.17
  -4  11   3    0.37    0.19
   3 -11  -3    3.73    0.41
  -3  11   3    3.80    0.43
  -3  11   3    3.68    0.34
  -3  11   3    4.07    0.38
  -3  11   3    4.04    0.34
  -2  11   3    0.71    0.24
  -2  11   3    0.87    0.19
  -2  11   3    0.78    0.22
  -2  11   3    0.38    0.17
  -1  11   3    0.62    0.18
  -1  11   3    0.41    0.21
  -1  11   3    0.23    0.15
  -1  11   3    0.31    0.15
   0  11   3    1.99    0.26
   0  11   3    2.26    0.31
   0  11   3    2.29    0.33
   0  11   3    1.81    0.24
  -1 -11  -3    7.05    0.36
   1  11   3    7.35    0.42
   1  11   3    6.91    0.41
   1  11   3    6.82    0.47
   1  11   3    7.20    0.47
  -2 -11  -3    0.08    0.13
   2  11   3   -0.17    0.13
   2  11   3   -0.06    0.14
   2  11   3    0.04    0.13
  -3 -11  -3    4.20    0.35
   3  11   3    4.15    0.39
   3  11   3    3.63    0.34
  -4 -11  -3    2.10    0.29
   4  11   3    1.79    0.25
  -5 -11  -3    0.65    0.22
   5  11   3    0.64    0.25
  -3  12   3    0.25    0.20
  -3  12   3    0.26    0.18
  -3  12   3    0.33    0.18
  -2  12   3    1.01    0.22
  -2  12   3    1.46    0.31
  -2  12   3    0.96    0.21
  -2  12   3    1.24    0.27
  -1  12   3    0.84    0.24
  -1  12   3    0.60    0.19
  -1  12   3    0.78    0.26
  -1  12   3    0.99    0.23
   0  12   3    4.26    0.38
   0  12   3    4.25    0.40
   0  12   3    4.07    0.37
   0  12   3    4.35    0.43
   1  12   3    1.47    0.25
   1  12   3    1.70    0.27
   1  12   3    1.70    0.31
   1  12   3    1.88    0.33
  -2 -12  -3    0.86    0.20
   2  12   3    0.51    0.19
   2  12   3    1.04    0.22
   2  12   3    0.68    0.23
  -3 -12  -3    1.56    0.26
   3  12   3    1.40    0.25
   3  12   3    1.59    0.30
  -4 -12  -3    2.34    0.31
   4  12   3    2.67    0.32
  -2  13   3   -0.10    0.16
  -2  13   3    0.18    0.18
  -1  13   3    1.19    0.31
  -1  13   3    1.11    0.25
  -1  13   3    1.03    0.25
   0  13   3    0.19    0.20
   0  13   3    0.31    0.19
   0  13   3    0.07    0.18
   1  13   3    2.18    0.31
   1  13   3    1.97    0.31
   1  13   3    2.76    0.39
   2  13   3    3.69    0.38
   2  13   3    4.33    0.44
  -3 -13  -3   -0.09    0.16
   3  13   3    0.15    0.18
  -1  14   3    0.17    0.21
   0  14   3    1.13    0.27
   1  14   3   -0.23    0.18
   3  11  -4    0.58    0.24
   3  11  -4    0.51    0.23
   2  11  -4    3.96    0.40
   2  11  -4    4.53    0.47
   1  11  -4    2.00    0.39
   1  11  -4    2.65    0.35
   1  11  -4    2.19    0.33
   0  11  -4    0.44    0.21
   0  11  -4   -0.11    0.18
  -1  11  -4    4.15    0.41
  -1  11  -4    4.38    0.43
  -2  11  -4    2.35    0.31
   4  10  -4    1.03    0.25
  -4 -10   4    0.76    0.26
   3  10  -4    2.15    0.34
   3  10  -4    1.97    0.30
  -3 -10   4    2.33    0.33
   2  10  -4    0.15    0.19
   2  10  -4   -0.19    0.15
   2  10  -4   -0.39    0.16
   1  10  -4    2.58    0.35
   1  10  -4    2.21    0.30
   1  10  -4    3.07    0.34
   0  10  -4    9.06    0.51
   0  10  -4    8.55    0.55
   0  10  -4    7.83    0.49
  -1  10  -4    0.09    0.21
  -1  10  -4    0.40    0.20
  -1  10  -4    0.48    0.20
  -2  10  -4    1.03    0.23
  -2  10  -4    0.84    0.22
  -3  10  -4    2.49    0.31
  -3  10  -4    2.25    0.30
   5   9  -4    0.94    0.26
   4   9  -4    0.14    0.17
   4   9  -4    0.45    0.20
   3   9  -4    0.91    0.24
   3   9  -4    1.11    0.22
  -3  -9   4    0.85    0.24
   2   9  -4    4.89    0.40
   2   9  -4    5.01    0.41
   2   9  -4    4.85    0.39
  -2  -9   4    5.18    0.39
   1   9  -4    0.51    0.19
   1   9  -4    0.42    0.19
   1   9  -4    0.52    0.21
   0   9  -4    0.49    0.21
   0   9  -4    0.46    0.18
   0   9  -4    0.03    0.15
  -1   9  -4    0.11    0.14
  -1   9  -4   -0.08    0.19
  -1   9  -4    0.32    0.17
  -2   9  -4   -0.02    0.16
  -2   9  -4    0.05    0.15
  -2   9  -4    0.36    0.16
  -2   9  -4    0.18    0.22
  -3   9  -4    0.24    0.18
  -3   9  -4    0.16    0.16
  -3   9  -4    0.30    0.17
  -4   9  -4   -0.08    0.14
  -4   9  -4    0.03    0.16
   5   8  -4    1.98    0.33
   4   8  -4    0.36    0.18
   4   8  -4    0.26    0.16
   3   8  -4    0.22    0.16
   3   8  -4    0.57    0.19
   2   8  -4    5.22    0.37
   2   8  -4    5.35    0.36
   2   8  -4    5.35    0.38
   1   8  -4    2.13    0.26
   1   8  -4    1.59    0.26
   1   8  -4    1.87    0.22
  -1  -8   4    1.94    0.22
   0   8  -4    5.62    0.36
   0   8  -4    4.67    0.34
   0   8  -4    4.88    0.38
  -1   8  -4    0.76    0.18
  -1   8  -4    0.67    0.23
  -1   8  -4    0.81    0.18
  -2   8  -4   14.77    0.56
  -2   8  -4   13.71    0.55
  -2   8  -4   14.39    0.60
  -2   8  -4   13.88    0.67
  -3   8  -4   -0.07    0.14
  -3   8  -4    0.25    0.23
  -3   8  -4    0.04    0.15
  -3   8  -4    0.21    0.16
  -4   8  -4    0.41    0.16
  -4   8  -4   -0.13    0.13
   6   7  -4    0.35    0.21
   5   7  -4    0.92    0.24
   4   7  -4    0.04    0.15
   4   7  -4    0.34    0.14
   3   7  -4    0.04    0.11
   3   7  -4   -0.11    0.11
   3   7  -4   -0.03    0.12
   2   7  -4    5.07    0.35
   2   7  -4    4.56    0.33
   2   7  -4    4.85    0.31
   1   7  -4    5.17    0.34
   1   7  -4    5.12    0.35
   1   7  -4    4.87    0.33
  -1  -7   4    4.73    0.31
   0   7  -4   24.11    0.72
   0   7  -4   23.89    0.71
   0   7  -4   23.36    0.76
   0  -7   4   23.01    0.64
  -1   7  -4   42.39    1.05
  -1   7  -4   41.85    1.14
  -1   7  -4   42.47    1.04
  -2   7  -4    0.16    0.19
  -2   7  -4    0.09    0.14
  -2   7  -4    0.12    0.13
  -2   7  -4   -0.08    0.12
  -3   7  -4   14.00    0.53
  -3   7  -4   14.91    0.53
  -3   7  -4   14.33    0.56
  -4   7  -4    0.54    0.16
  -4   7  -4    0.63    0.16
  -5   7  -4    0.26    0.14
   6   6  -4    1.15    0.27
   5   6  -4    1.73    0.42
   5   6  -4    1.56    0.29
   4   6  -4    0.14    0.15
   4   6  -4    0.17    0.12
   4   6  -4    0.36    0.13
   3   6  -4    1.83    0.30
   3   6  -4    1.89    0.22
   3   6  -4    2.64    0.25
   3   6  -4    1.93    0.21
   2   6  -4   14.85    0.52
   2   6  -4   14.36    0.50
   2   6  -4   14.11    0.51
   2   6  -4   13.84    0.66
   1   6  -4   16.67    0.54
   1   6  -4   16.23    0.55
   1   6  -4   16.06    0.68
   1   6  -4   16.01    0.55
   0   6  -4   19.85    0.61
   0   6  -4   19.87    0.60
   0   6  -4   19.38    0.64
   0  -6   4   18.81    0.55
  -1   6  -4    2.67    0.29
  -1   6  -4    3.04    0.26
  -1   6  -4    2.39    0.24
  -2   6  -4   51.92    1.16
  -2   6  -4   49.97    1.15
  -2   6  -4   51.39    1.21
  -3   6  -4    5.36    0.33
  -3   6  -4    5.47    0.31
  -3   6  -4    5.23    0.30
  -4   6  -4    0.28    0.13
  -4   6  -4    0.23    0.12
  -5   6  -4    1.12    0.17
   6   5  -4    0.01    0.16
   6   5  -4    0.10    0.16
   5   5  -4    0.32    0.19
   5   5  -4    0.40    0.18
   5   5  -4    0.38    0.17
   4   5  -4    4.80    0.27
   4   5  -4    4.71    0.42
   4   5  -4    4.26    0.33
   3   5  -4   53.55    1.43
   3   5  -4   53.08    1.16
   3   5  -4   53.11    1.18
   2   5  -4   15.41    0.49
   2   5  -4   15.32    0.50
   2   5  -4   15.07    0.49
   1   5  -4    1.72    0.19
   1   5  -4    1.56    0.24
   1   5  -4    1.72    0.19
   1   5  -4    1.13    0.17
   0   5  -4   99.31    1.97
   0   5  -4   97.57    2.02
   0   5  -4  100.06    1.98
   0   5  -4  102.42    2.16
  -1   5  -4   38.70    0.90
  -1   5  -4   38.23    0.90
  -2   5  -4    0.36    0.12
  -2   5  -4    0.08    0.10
  -2   5  -4    0.23    0.11
   2  -5   4    0.21    0.06
  -3   5  -4   14.39    0.46
  -3   5  -4   15.31    0.50
  -3   5  -4   15.31    0.48
  -4   5  -4    0.19    0.10
  -4   5  -4    0.27    0.11
  -4   5  -4    0.10    0.09
  -5   5  -4    1.00    0.14
  -6   5  -4    1.73    0.17
   7   4  -4    1.26    0.28
   6   4  -4    0.39    0.20
   6   4  -4    0.11    0.15
   5   4  -4    0.67    0.18
   5   4  -4    0.87    0.21
   4   4  -4    7.56    0.32
   4   4  -4    8.20    0.49
   4   4  -4    7.72    0.42
  -4  -4   4    8.01    0.30
   3   4  -4    1.10    0.14
   3   4  -4    0.92    0.21
   3   4  -4    1.08    0.15
  -3  -4   4    1.18    0.14
   2   4  -4   69.24    1.39
   2   4  -4   67.54    1.39
   2   4  -4   66.88    1.60
   2   4  -4   67.82    1.41
   1   4  -4    3.46    0.24
   1   4  -4    3.27    0.25
   1   4  -4    4.06    0.23
   1   4  -4    4.18    0.32
   0   4  -4    4.73    0.25
   0   4  -4    4.66    0.34
   0   4  -4    4.22    0.26
   0   4  -4    4.66    0.24
   0  -4   4    4.83    0.26
  -1   4  -4    0.01    0.08
  -1   4  -4    0.21    0.09
   1  -4   4    0.04    0.03
  -2   4  -4    7.59    0.31
  -2   4  -4    7.78    0.30
  -2   4  -4    7.62    0.29
   2  -4   4    7.90    0.30
   2  -4   4    7.26    0.21
  -3   4  -4    8.36    0.32
  -3   4  -4    7.67    0.29
  -3   4  -4    8.33    0.33
  -4   4  -4    0.26    0.10
  -4   4  -4    0.18    0.08
  -4   4  -4    0.20    0.09
  -5   4  -4    3.14    0.18
  -6   4  -4    0.72    0.11
   7   3  -4    0.97    0.24
   7   3  -4    1.19    0.30
   6   3  -4    6.61    0.48
   6   3  -4    6.84    0.49
   5   3  -4    0.24    0.13
   5   3  -4    0.30    0.15
   4   3  -4    0.29    0.15
   4   3  -4    0.49    0.10
  -4  -3   4    0.47    0.09
   3   3  -4   29.57    0.80
   3   3  -4   29.51    0.67
   3   3  -4   29.24    0.70
  -3  -3   4   28.03    0.64
   2   3  -4    0.25    0.07
   2   3  -4    0.26    0.07
   2   3  -4    0.14    0.08
   2   3  -4    0.18    0.08
   1   3  -4   11.26    0.30
   1   3  -4   11.92    0.39
   1   3  -4   12.66    0.37
   1   3  -4   12.16    0.38
  -1  -3   4   12.11    0.42
  -1  -3   4   12.80    0.44
   0   3  -4    0.95    0.12
   0   3  -4    0.74    0.11
   0   3  -4    0.85    0.10
   0  -3   4    0.98    0.14
   0  -3   4    1.01    0.12
  -1   3  -4   54.35    1.11
  -1   3  -4   54.70    1.12
   1  -3   4   54.68    1.07
   1  -3   4   55.51    1.13
  -2   3  -4    6.44    0.25
  -2   3  -4    6.82    0.24
   2  -3   4    6.59    0.18
   2  -3   4    6.57    0.24
  -3   3  -4    1.14    0.12
  -3   3  -4    1.49    0.13
  -4   3  -4    5.30    0.19
  -4   3  -4    5.29    0.23
  -5   3  -4    9.32    0.26
   7   2  -4    0.00    0.13
   7   2  -4   -0.17    0.15
   6   2  -4    3.22    0.39
   6   2  -4    2.26    0.29
  -6  -2   4    2.84    0.26
   5   2  -4    2.71    0.31
  -5  -2   4    2.45    0.22
   4   2  -4    7.40    0.25
   4   2  -4    7.29    0.39
   4   2  -4    7.25    0.26
  -4  -2   4    7.59    0.23
  -4  -2   4    7.50    0.31
   3   2  -4    8.26    0.36
   3   2  -4    8.40    0.29
  -3  -2   4    7.76    0.30
  -3  -2   4    8.32    0.32
  -3  -2   4    7.38    0.22
   2   2  -4  111.04    2.05
   2   2  -4  110.85    2.03
   2   2  -4  108.06    2.03
   2   2  -4  108.08    1.98
  -2  -2   4  107.93    2.05
   1   2  -4    5.95    0.22
   1   2  -4    5.59    0.16
   1   2  -4    6.10    0.24
   1   2  -4    6.15    0.24
  -1  -2   4    5.59    0.23
   0   2  -4    4.33    0.18
   0   2  -4    4.52    0.21
   0   2  -4    4.21    0.19
   0  -2   4    4.12    0.18
   0  -2   4    4.34    0.22
  -1   2  -4  231.95    4.13
  -1   2  -4  232.22    4.14
   1  -2   4  239.19    4.16
   1  -2   4  233.71    4.10
  -2   2  -4    2.21    0.12
  -2   2  -4    1.85    0.13
   2  -2   4    2.13    0.13
  -3   2  -4    8.22    0.23
  -3   2  -4    8.31    0.25
  -4   2  -4   10.95    0.30
  -4   2  -4   11.40    0.27
  -5   2  -4    0.03    0.06
  -7   2  -4    0.49    0.27
   7   1  -4    0.78    0.26
   7   1  -4    0.67    0.21
  -7  -1   4    0.79    0.19
   6   1  -4    2.83    0.32
   6   1  -4    2.81    0.35
  -6  -1   4    3.15    0.26
   5   1  -4    1.06    0.22
  -5  -1   4    1.42    0.18
   4   1  -4   70.87    1.32
   4   1  -4   69.19    1.32
   4   1  -4   73.09    1.61
  -4  -1   4   70.90    1.31
  -4  -1   4   70.81    1.45
  -4  -1   4   70.60    1.32
  -4  -1   4   72.27    1.43
  -4  -1   4   72.90    1.43
   3   1  -4   20.07    0.60
   3   1  -4   20.02    0.44
   3   1  -4   19.25    0.47
   3   1  -4   19.37    0.47
   3   1  -4   20.87    0.59
  -3  -1   4   19.94    0.52
  -3  -1   4   18.98    0.50
  -3  -1   4   19.73    0.50
   2   1  -4  204.33    3.66
   2   1  -4  205.73    3.67
   2   1  -4  207.07    3.64
  -2  -1   4  207.76    3.66
  -2  -1   4  201.99    3.66
   1   1  -4   33.69    0.70
   1   1  -4   31.60    0.70
   1   1  -4   33.68    0.70
  -1  -1   4   31.91    0.70
   0   1  -4  295.33    5.12
   0   1  -4  291.26    5.10
   0   1  -4  293.44    5.12
   0  -1   4  290.87    5.10
  -1   1  -4   18.34    0.42
  -1   1  -4   17.88    0.48
  -1   1  -4   18.68    0.43
   1  -1   4   18.71    0.44
   1  -1   4   18.65    0.40
  -2   1  -4    4.81    0.17
  -2   1  -4    5.00    0.16
   2  -1   4    4.79    0.16
  -3   1  -4   31.16    0.61
  -3   1  -4   31.11    0.62
  -4   1  -4   11.60    0.29
  -5   1  -4    1.94    0.11
   7   0  -4    2.90    0.30
  -7   0   4    3.81    0.34
   6   0  -4    0.38    0.18
  -6   0   4    0.59    0.16
   5   0  -4   75.33    1.75
  -5   0   4   72.53    1.55
   4   0  -4   13.61    0.53
  -4   0   4   13.66    0.39
  -4   0   4   13.26    0.38
  -4   0   4   14.46    0.40
  -4   0   4   13.74    0.45
   3   0  -4   19.28    0.44
   3   0  -4   19.95    0.59
   3   0  -4   19.30    0.58
   3   0  -4   19.19    0.44
  -3   0   4   19.66    0.52
  -3   0   4   19.77    0.48
  -3   0   4   19.46    0.43
  -3   0   4   19.52    0.48
   2   0  -4  367.80    6.36
   2   0  -4  366.13    6.38
   2   0  -4  366.61    6.48
   2   0  -4  370.98    6.42
   2   0  -4  366.22    6.38
  -2   0   4  363.75    6.39
  -2   0   4  366.80    6.42
  -2   0   4  369.49    6.39
   1   0  -4   34.97    0.72
   1   0  -4   34.78    0.72
   1   0  -4   34.65    0.72
   1   0  -4   34.33    0.72
  -1   0   4   35.71    0.72
  -1   0   4   34.18    0.65
  -1   0   4   34.77    0.71
   0   0  -4   53.43    1.01
   0   0  -4   53.43    1.03
   0   0  -4   52.97    1.02
   0   0   4   54.33    1.03
  -1   0  -4  670.85   11.82
  -1   0  -4  659.40   11.62
  -1   0  -4  672.49   11.55
  -1   0  -4  674.26   11.73
   1   0   4  670.15   11.57
  -2   0  -4    0.46    0.06
  -2   0  -4    0.60    0.06
   2   0   4    0.58    0.05
   2   0   4    0.54    0.11
  -3   0  -4   18.96    0.39
   3   0   4   18.86    0.47
   3   0   4   18.68    0.59
  -4   0  -4   38.10    0.75
  -6   0  -4    2.73    0.24
   7  -1  -4    2.96    0.25
   7  -1  -4    2.81    0.28
  -7   1   4    3.08    0.33
   6  -1  -4    3.57    0.26
   6  -1  -4    3.56    0.36
  -6   1   4    3.66    0.30
   5  -1  -4    0.19    0.16
  -5   1   4    0.09    0.11
   4  -1  -4   24.70    0.75
  -4   1   4   24.50    0.57
  -4   1   4   24.36    0.57
  -4   1   4   25.07    0.67
   3  -1  -4  161.36    3.03
   3  -1  -4  158.27    2.80
   3  -1  -4  158.32    2.80
  -3   1   4  161.71    2.85
  -3   1   4  159.36    2.94
  -3   1   4  158.35    2.86
  -3   1   4  158.79    2.86
   2  -1  -4   34.33    0.66
   2  -1  -4   33.38    0.74
   2  -1  -4   32.74    0.68
   2  -1  -4   32.46    0.67
   2  -1  -4   33.18    0.77
  -2   1   4   33.78    0.69
  -2   1   4   32.76    0.69
  -2   1   4   32.72    0.73
  -2   1   4   33.56    0.70
   1  -1  -4  353.94    6.18
   1  -1  -4  351.15    6.16
   1  -1  -4  350.31    6.15
   1  -1  -4  356.39    6.15
   1  -1  -4  357.26    6.18
   1  -1  -4  358.17    6.24
  -1   1   4  355.76    6.15
  -1   1   4  358.08    6.17
  -1   1   4  353.99    6.17
  -1   1   4  356.89    6.15
   0  -1  -4   21.32    0.47
   0  -1  -4   23.62    0.54
   0  -1  -4   22.42    0.48
   0  -1  -4   22.41    0.48
   0   1   4   21.36    0.47
   0   1   4   22.25    0.49
  -1  -1  -4   14.98    0.40
  -1  -1  -4   14.89    0.35
  -1  -1  -4   14.75    0.34
  -1  -1  -4   14.71    0.35
   1   1   4   15.18    0.40
  -2  -1  -4    4.07    0.16
  -2  -1  -4    4.84    0.15
   2   1   4    4.56    0.23
   2   1   4    4.99    0.20
  -3  -1  -4    6.49    0.18
  -3  -1  -4    6.63    0.20
   3   1   4    6.71    0.25
   3   1   4    6.83    0.33
  -4  -1  -4   17.34    0.37
  -4  -1  -4   16.57    0.39
   4   1   4   16.79    0.45
   4   1   4   17.69    0.61
  -5  -1  -4    3.72    0.15
  -6  -1  -4    4.25    0.27
  -6  -1  -4    4.71    0.18
  -7  -1  -4    2.13    0.16
  -7   2   4    2.55    0.31
   6  -2  -4    4.86    0.27
  -6   2   4    4.50    0.34
   5  -2  -4   26.57    0.85
   5  -2  -4   26.08    0.67
  -5   2   4   25.20    0.61
  -5   2   4   25.89    0.75
   4  -2  -4   81.13    1.74
   4  -2  -4   79.66    1.58
  -4   2   4   80.01    1.49
  -4   2   4   77.56    1.50
  -4   2   4   76.69    1.63
  -4   2   4   78.07    1.48
  -4   2   4   79.57    1.50
   3  -2  -4    1.73    0.20
   3  -2  -4    1.36    0.07
   3  -2  -4    1.51    0.07
   3  -2  -4    1.63    0.15
  -3   2   4    1.50    0.10
  -3   2   4    1.77    0.12
  -3   2   4    1.49    0.12
  -3   2   4    1.46    0.11
  -3   2   4    1.25    0.15
  -3   2   4    1.44    0.11
   2  -2  -4  177.76    3.12
   2  -2  -4  179.05    3.24
   2  -2  -4  181.42    3.09
   2  -2  -4  177.68    3.22
   2  -2  -4  176.03    3.12
   2  -2  -4  176.15    3.21
  -2   2   4  175.31    3.20
  -2   2   4  177.71    3.13
  -2   2   4  176.01    3.15
  -2   2   4  178.28    3.09
  -2   2   4  175.68    3.15
  -2   2   4  177.17    3.13
  -2   2   4  173.46    3.21
   1  -2  -4    7.02    0.25
   1  -2  -4    6.37    0.18
   1  -2  -4    6.63    0.22
   1  -2  -4    6.30    0.20
   1  -2  -4    6.56    0.22
   1  -2  -4    6.66    0.20
   1  -2  -4    6.41    0.20
  -1   2   4    6.36    0.19
  -1   2   4    6.33    0.22
  -1   2   4    6.78    0.20
  -1   2   4    6.52    0.21
  -1   2   4    6.45    0.21
   0  -2  -4   38.89    0.77
   0  -2  -4   38.69    0.78
   0  -2  -4   39.04    0.84
   0  -2  -4   39.61    0.77
   0  -2  -4   40.29    0.77
   0   2   4   38.26    0.79
   0   2   4   39.50    0.77
   0   2   4   39.97    0.79
  -1  -2  -4   22.64    0.50
  -1  -2  -4   23.28    0.51
  -1  -2  -4   22.94    0.47
  -1  -2  -4   23.25    0.57
  -1  -2  -4   24.08    0.51
   1   2   4   23.89    0.50
   1   2   4   23.06    0.54
   1   2   4   23.86    0.57
  -2  -2  -4    0.53    0.07
  -2  -2  -4    0.35    0.06
  -2  -2  -4    0.36    0.06
   2   2   4    0.44    0.09
   2   2   4    0.46    0.09
   2   2   4    0.49    0.05
  -3  -2  -4   62.49    1.30
  -3  -2  -4   65.16    1.18
  -3  -2  -4   61.82    1.19
  -3  -2  -4   62.07    1.20
   3   2   4   64.31    1.29
   3   2   4   63.24    1.36
  -4  -2  -4   15.09    0.39
  -4  -2  -4   15.38    0.37
  -4  -2  -4   15.28    0.37
   4   2   4   15.76    0.56
   4   2   4   15.22    0.45
  -5  -2  -4    2.53    0.15
  -5  -2  -4    2.33    0.18
  -5  -2  -4    2.63    0.15
   5   2   4    2.35    0.19
   5   2   4    2.33    0.27
  -6  -2  -4   10.57    0.32
   6   2   4   10.55    0.37
  -7  -2  -4    2.50    0.20
  -7   3   4    4.84    0.39
   6  -3  -4    5.15    0.27
  -6   3   4    5.23    0.25
  -6   3   4    4.91    0.35
   5  -3  -4   17.33    0.51
  -5   3   4   17.00    0.60
  -5   3   4   17.88    0.51
  -5   3   4   17.24    0.45
  -5   3   4   17.27    0.46
   4  -3  -4   -0.01    0.07
  -4   3   4   -0.07    0.06
  -4   3   4   -0.01    0.06
  -4   3   4    0.00    0.06
  -4   3   4    0.07    0.08
  -4   3   4    0.00    0.09
  -4   3   4   -0.02    0.06
   3  -3  -4    2.17    0.16
   3  -3  -4    2.43    0.21
  -3   3   4    2.31    0.14
  -3   3   4    2.27    0.14
  -3   3   4    2.30    0.13
  -3   3   4    2.12    0.13
  -3   3   4    2.24    0.13
  -3   3   4    2.21    0.19
   2  -3  -4   91.09    1.68
   2  -3  -4   93.29    1.79
   2  -3  -4   92.34    1.80
   2  -3  -4   95.02    1.64
   2  -3  -4   91.08    1.78
   2  -3  -4   91.62    1.67
  -2   3   4   91.41    1.78
  -2   3   4   93.93    1.79
  -2   3   4   91.94    1.69
  -2   3   4   96.85    1.72
  -2   3   4   93.03    1.70
  -2   3   4   91.87    1.69
  -2   3   4   90.88    1.72
   1  -3  -4    7.55    0.23
   1  -3  -4    8.87    0.23
   1  -3  -4    7.10    0.23
   1  -3  -4    7.95    0.25
   1  -3  -4    8.51    0.23
   1  -3  -4    7.22    0.25
  -1   3   4    7.65    0.25
  -1   3   4    7.64    0.26
  -1   3   4    7.14    0.24
  -1   3   4    8.36    0.28
  -1   3   4    6.98    0.24
  -1   3   4    6.75    0.23
   0  -3  -4   74.41    1.41
   0  -3  -4   75.80    1.43
   0  -3  -4   75.91    1.35
   0  -3  -4   76.01    1.40
   0  -3  -4   76.62    1.46
   0   3   4   76.78    1.44
   0   3   4   75.74    1.40
   0   3   4   76.32    1.43
   0   3   4   75.83    1.50
  -1  -3  -4   51.88    0.94
  -1  -3  -4   53.01    1.12
  -1  -3  -4   52.72    1.02
  -1  -3  -4   52.32    1.04
  -1  -3  -4   52.48    0.97
  -1  -3  -4   54.41    1.04
   1   3   4   53.69    1.12
   1   3   4   52.72    1.03
   1   3   4   52.98    1.03
  -2  -3  -4   26.16    0.59
  -2  -3  -4   26.17    0.49
  -2  -3  -4   27.03    0.58
  -2  -3  -4   26.32    0.56
  -2  -3  -4   25.63    0.56
   2   3   4   26.88    0.67
   2   3   4   26.47    0.64
   2   3   4   26.38    0.54
   2   3   4   26.13    0.56
  -3  -3  -4   13.67    0.35
  -3  -3  -4   13.84    0.37
  -3  -3  -4   13.85    0.40
  -3  -3  -4   13.70    0.36
   3   3   4   13.65    0.44
   3   3   4   13.88    0.46
   3   3   4   13.57    0.31
  -4  -3  -4   15.61    0.43
  -4  -3  -4   16.67    0.38
  -4  -3  -4   16.18    0.42
  -4  -3  -4   15.89    0.41
   4   3   4   15.43    0.49
   4   3   4   16.63    0.56
  -5  -3  -4    7.41    0.27
  -5  -3  -4    7.34    0.25
   5   3   4    6.73    0.33
   5   3   4    7.02    0.42
  -6  -3  -4    3.18    0.20
   6   3   4    3.08    0.24
  -7  -3  -4    1.57    0.17
   7   3   4    1.35    0.18
  -7   4   4    1.48    0.17
  -7   4   4    1.84    0.28
   6  -4  -4    7.86    0.34
  -6   4   4    8.21    0.46
  -6   4   4    8.14    0.31
   5  -4  -4    0.17    0.09
  -5   4   4    0.24    0.12
  -5   4   4   -0.02    0.12
  -5   4   4    0.34    0.08
  -5   4   4    0.26    0.08
   4  -4  -4   38.01    0.91
  -4   4   4   38.27    0.82
  -4   4   4   37.84    0.83
  -4   4   4   39.75    0.89
  -4   4   4   40.05    0.80
  -4   4   4   39.07    0.79
  -4   4   4   39.95    0.99
   3  -4  -4   23.85    0.63
  -3   4   4   24.71    0.59
  -3   4   4   24.33    0.66
  -3   4   4   23.94    0.56
  -3   4   4   23.61    0.52
  -3   4   4   24.00    0.56
   2  -4  -4   41.04    0.81
   2  -4  -4   42.86    0.76
   2  -4  -4   41.53    0.94
   2  -4  -4   40.35    0.80
  -2   4   4   40.66    0.85
  -2   4   4   41.64    0.87
  -2   4   4   40.98    0.85
  -2   4   4   40.46    0.81
  -2   4   4   39.95    0.90
  -2   4   4   40.95    0.92
   1  -4  -4    1.59    0.11
   1  -4  -4    1.49    0.11
   1  -4  -4    1.55    0.13
   1  -4  -4    1.32    0.10
   1  -4  -4    1.43    0.16
  -1   4   4    2.13    0.16
  -1   4   4    1.49    0.13
  -1   4   4    1.69    0.14
  -1   4   4    1.51    0.13
  -1   4   4    1.89    0.12
   0  -4  -4  140.76    2.63
   0  -4  -4  144.68    2.56
   0  -4  -4  145.86    2.70
   0  -4  -4  141.14    2.59
   0  -4  -4  146.96    2.57
   0   4   4  142.54    2.55
   0   4   4  142.85    2.60
   0   4   4  146.17    2.69
   0   4   4  139.39    2.48
   0   4   4  139.35    2.60
  -1  -4  -4  109.13    2.16
  -1  -4  -4  113.00    1.98
  -1  -4  -4  110.44    2.04
  -1  -4  -4  112.28    2.07
   1   4   4  113.20    2.06
   1   4   4  114.62    2.07
   1   4   4  109.14    2.05
   1   4   4  113.56    2.17
   1   4   4  109.59    1.97
  -2  -4  -4   38.08    0.74
  -2  -4  -4   38.38    0.82
  -2  -4  -4   38.83    0.82
  -2  -4  -4   37.80    0.79
   2   4   4   38.42    0.79
   2   4   4   38.30    0.78
   2   4   4   37.79    0.90
   2   4   4   38.06    0.80
  -3  -4  -4    0.94    0.11
  -3  -4  -4    0.93    0.10
  -3  -4  -4    0.87    0.10
  -3  -4  -4    0.93    0.11
   3   4   4    0.87    0.14
   3   4   4    0.76    0.14
   3   4   4    0.91    0.09
   3   4   4    0.91    0.10
  -4  -4  -4   10.21    0.33
  -4  -4  -4    9.96    0.34
  -4  -4  -4    9.66    0.34
   4   4   4   10.01    0.41
   4   4   4   10.83    0.45
  -5  -4  -4    0.06    0.08
   5   4   4    0.19    0.10
   5   4   4    0.04    0.13
  -6  -4  -4    0.17    0.11
   6   4   4    0.21    0.16
   6   4   4    0.19    0.11
  -7  -4  -4    0.86    0.16
   7   4   4    1.01    0.19
  -7   5   4    0.03    0.09
  -7   5   4    0.08    0.16
   6  -5  -4    1.60    0.19
  -6   5   4    1.62    0.26
  -6   5   4    1.56    0.16
   5  -5  -4    2.30    0.21
  -5   5   4    2.20    0.25
  -5   5   4    2.65    0.29
  -5   5   4    2.23    0.17
  -5   5   4    2.29    0.17
   4  -5  -4   45.41    1.08
  -4   5   4   48.49    1.08
  -4   5   4   47.91    1.15
  -4   5   4   46.54    0.98
  -4   5   4   47.66    0.95
  -4   5   4   46.85    0.98
   3  -5  -4    7.31    0.33
  -3   5   4    7.56    0.32
  -3   5   4    7.29    0.27
  -3   5   4    7.43    0.35
  -3   5   4    7.25    0.27
  -3   5   4    6.77    0.23
   2  -5  -4   10.33    0.27
   2  -5  -4   10.48    0.24
   2  -5  -4    9.94    0.39
   2  -5  -4   10.24    0.28
  -2   5   4    9.69    0.35
  -2   5   4    9.84    0.32
  -2   5   4   10.26    0.32
  -2   5   4   10.07    0.36
  -2   5   4   10.07    0.35
  -2   5   4   10.24    0.29
   1  -5  -4  455.60    8.35
   1  -5  -4  490.95    8.35
   1  -5  -4  483.28    8.50
   1  -5  -4  488.47    8.42
  -1   5   4  480.16    8.34
  -1   5   4  467.92    8.44
  -1   5   4  478.81    8.41
  -1   5   4  482.51    8.34
  -1   5   4  481.31    8.37
  -1   5   4  488.24    8.38
  -1   5   4  495.01    8.37
   0  -5  -4    0.20    0.08
   0  -5  -4    0.16    0.06
   0  -5  -4    0.19    0.06
   0  -5  -4    0.51    0.18
   0   5   4    0.09    0.08
   0   5   4    0.17    0.04
   0   5   4    0.11    0.09
   0   5   4    0.12    0.07
   0   5   4    0.20    0.06
   0   5   4    0.09    0.07
  -1  -5  -4   14.21    0.48
  -1  -5  -4   12.81    0.38
  -1  -5  -4   12.43    0.43
  -1  -5  -4   14.35    0.37
   1   5   4   13.83    0.39
   1   5   4   13.81    0.40
   1   5   4   14.28    0.47
   1   5   4   13.44    0.39
   1   5   4   12.56    0.31
  -2  -5  -4  191.84    3.47
  -2  -5  -4  193.27    3.50
   2   5   4  194.44    3.48
   2   5   4  194.87    3.61
   2   5   4  195.68    3.48
   2   5   4  193.92    3.47
   2   5   4  189.68    3.38
  -3  -5  -4    5.51    0.25
  -3  -5  -4    5.51    0.25
  -3  -5  -4    5.42    0.24
   3   5   4    5.80    0.29
   3   5   4    5.26    0.22
   3   5   4    5.76    0.20
   3   5   4    5.37    0.31
   3   5   4    5.81    0.24
  -4  -5  -4   20.66    0.55
  -4  -5  -4   20.60    0.63
   4   5   4   20.90    0.65
   4   5   4   21.10    0.67
   4   5   4   20.28    0.47
  -5  -5  -4   15.59    0.48
   5   5   4   15.91    0.58
   5   5   4   15.63    0.59
  -6  -5  -4    6.60    0.33
   6   5   4    6.67    0.44
   6   5   4    6.34    0.39
  -7  -5  -4    5.83    0.34
   7   5   4    5.79    0.38
   6  -6  -4    1.56    0.20
  -6   6   4    1.62    0.18
  -6   6   4    1.75    0.28
   5  -6  -4    4.44    0.29
  -5   6   4    4.09    0.24
  -5   6   4    4.54    0.33
  -5   6   4    4.28    0.35
  -5   6   4    4.23    0.23
   4  -6  -4    0.49    0.14
  -4   6   4    0.38    0.11
  -4   6   4    0.35    0.15
  -4   6   4    0.34    0.15
  -4   6   4    0.48    0.11
   3  -6  -4   73.00    1.59
  -3   6   4   74.82    1.59
  -3   6   4   70.08    1.42
  -3   6   4   72.74    1.46
  -3   6   4   76.01    1.47
  -3   6   4   77.88    1.57
   2  -6  -4    1.22    0.11
   2  -6  -4    1.16    0.16
   2  -6  -4    1.11    0.10
   2  -6  -4    1.23    0.11
  -2   6   4    1.12    0.15
  -2   6   4    1.54    0.16
  -2   6   4    1.08    0.13
  -2   6   4    1.05    0.16
  -2   6   4    1.20    0.11
  -2   6   4    1.13    0.13
   1  -6  -4    0.30    0.06
   1  -6  -4    0.41    0.11
   1  -6  -4    0.43    0.12
   1  -6  -4    0.47    0.08
  -1   6   4    0.35    0.09
  -1   6   4    0.26    0.08
  -1   6   4    0.52    0.11
  -1   6   4    0.34    0.11
  -1   6   4    0.38    0.08
   0  -6  -4   14.58    0.46
   0  -6  -4   13.73    0.51
   0  -6  -4   13.82    0.39
   0  -6  -4   13.61    0.46
   0   6   4   14.68    0.48
   0   6   4   13.88    0.42
   0   6   4   13.22    0.37
   0   6   4   12.67    0.43
   0   6   4   13.58    0.42
  -1  -6  -4   11.45    0.42
  -1  -6  -4   11.30    0.35
  -1  -6  -4   11.47    0.46
   1   6   4   12.36    0.39
   1   6   4   10.29    0.43
   1   6   4   11.21    0.29
   1   6   4   11.95    0.39
   1   6   4   11.82    0.38
  -2  -6  -4    6.20    0.33
  -2  -6  -4    6.41    0.35
  -2  -6  -4    6.33    0.26
   2   6   4    6.09    0.26
   2   6   4    6.12    0.27
   2   6   4    5.99    0.34
   2   6   4    6.71    0.28
   2   6   4    5.80    0.19
  -3  -6  -4    8.50    0.33
   3   6   4    8.50    0.42
   3   6   4    8.38    0.29
   3   6   4    8.87    0.33
   3   6   4    8.78    0.34
  -4  -6  -4    0.19    0.10
  -4  -6  -4    0.12    0.08
   4   6   4    0.24    0.08
   4   6   4   -0.13    0.11
   4   6   4    0.09    0.09
   4   6   4    0.10    0.11
  -5  -6  -4    0.57    0.13
   5   6   4    0.99    0.20
   5   6   4    0.65    0.17
  -6  -6  -4    2.92    0.27
   6   6   4    3.73    0.37
   6   6   4    3.34    0.33
  -7  -6  -4    0.42    0.16
   7   6   4    0.55    0.21
   7   6   4    0.40    0.16
   6  -7  -4    0.43    0.14
  -6   7   4    0.25    0.20
  -6   7   4    0.24    0.12
   5  -7  -4    0.44    0.14
  -5   7   4    0.54    0.12
  -5   7   4    0.17    0.18
  -5   7   4    0.28    0.17
  -5   7   4    0.40    0.12
   4  -7  -4   41.90    1.09
  -4   7   4   43.67    0.97
  -4   7   4   44.34    1.10
  -4   7   4   43.96    0.97
  -4   7   4   42.80    1.12
   3  -7  -4   11.77    0.50
   3  -7  -4   11.55    0.28
  -3   7   4   12.61    0.41
  -3   7   4   11.32    0.48
  -3   7   4   12.06    0.49
  -3   7   4   12.00    0.41
   2  -7  -4    4.52    0.31
   2  -7  -4    3.94    0.19
   2  -7  -4    4.55    0.19
  -2   7   4    4.09    0.23
  -2   7   4    3.98    0.26
  -2   7   4    4.03    0.24
  -2   7   4    5.30    0.22
  -2   7   4    3.80    0.27
  -2   7   4    4.91    0.29
   1  -7  -4    8.77    0.42
   1  -7  -4    9.19    0.29
   1  -7  -4    9.62    0.39
  -1   7   4    8.72    0.34
  -1   7   4    9.35    0.39
  -1   7   4    9.13    0.34
  -1   7   4    9.75    0.40
  -1   7   4    9.18    0.35
   0  -7  -4    1.73    0.21
   0  -7  -4    1.52    0.15
   0  -7  -4    1.78    0.25
   0   7   4    1.91    0.21
   0   7   4    1.07    0.17
   0   7   4    1.54    0.17
   0   7   4    1.43    0.17
   0   7   4    1.68    0.18
   0   7   4    1.65    0.15
  -1  -7  -4    5.01    0.33
  -1  -7  -4    4.71    0.24
   1   7   4    5.33    0.20
   1   7   4    4.97    0.26
   1   7   4    5.31    0.28
   1   7   4    5.29    0.28
  -2  -7  -4    0.75    0.17
  -2  -7  -4    0.66    0.12
   2   7   4    0.87    0.15
   2   7   4    0.93    0.07
   2   7   4    0.85    0.15
   2   7   4    0.75    0.12
   2   7   4    0.86    0.09
   2   7   4    0.82    0.17
  -3  -7  -4    4.29    0.27
  -3  -7  -4    3.51    0.37
   3   7   4    4.46    0.22
   3   7   4    4.82    0.28
   3   7   4    4.23    0.34
   3   7   4    4.49    0.24
   3   7   4    4.35    0.26
  -4  -7  -4    2.45    0.23
   4   7   4    2.57    0.20
   4   7   4    2.04    0.19
   4   7   4    2.64    0.26
   4   7   4    2.89    0.30
  -5  -7  -4    2.00    0.22
   5   7   4    1.75    0.25
   5   7   4    2.32    0.30
  -6  -7  -4    0.20    0.14
   6   7   4    0.39    0.20
   6   7   4    0.48    0.19
  -7  -7  -4    1.65    0.23
   7   7   4    1.41    0.27
   7   7   4    1.00    0.23
   6  -8  -4    0.21    0.15
  -6   8   4    0.10    0.13
   5  -8  -4    2.18    0.28
  -5   8   4    2.17    0.31
  -5   8   4    2.07    0.22
  -5   8   4    1.74    0.27
  -5   8   4    2.21    0.28
  -5   8   4    2.07    0.21
   4  -8  -4    1.67    0.26
  -4   8   4    1.21    0.21
  -4   8   4    1.06    0.22
  -4   8   4    1.23    0.17
  -4   8   4    1.21    0.23
  -4   8   4    1.35    0.18
   3  -8  -4    5.33    0.19
   3  -8  -4    5.19    0.37
  -3   8   4    4.86    0.35
  -3   8   4    5.46    0.30
  -3   8   4    5.93    0.36
  -3   8   4    6.26    0.38
  -3   8   4    5.67    0.31
   2  -8  -4    5.64    0.38
  -2   8   4    5.81    0.30
  -2   8   4    6.22    0.35
  -2   8   4    5.99    0.36
  -2   8   4    6.04    0.34
  -2   8   4    5.77    0.31
   1  -8  -4    3.93    0.31
   1  -8  -4    3.85    0.20
  -1   8   4    3.78    0.28
  -1   8   4    3.52    0.28
  -1   8   4    4.08    0.25
  -1   8   4    3.86    0.25
   0  -8  -4    0.25    0.10
   0  -8  -4   -0.06    0.12
   0   8   4   -0.07    0.10
   0   8   4   -0.01    0.11
   0   8   4    0.11    0.11
   0   8   4    0.27    0.13
   0   8   4    0.23    0.11
  -1  -8  -4    2.38    0.22
   1   8   4    3.28    0.26
   1   8   4    3.10    0.26
   1   8   4    4.59    0.52
   1   8   4    3.31    0.27
  -2  -8  -4   11.27    0.54
  -2  -8  -4   11.10    0.40
   2   8   4   11.21    0.52
   2   8   4   10.92    0.31
   2   8   4   11.07    0.41
   2   8   4   10.85    0.28
   2   8   4   10.69    0.44
   2   8   4   11.19    0.42
  -3  -8  -4   11.19    0.44
   3   8   4   11.36    0.47
   3   8   4   11.27    0.36
   3   8   4   11.50    0.44
   3   8   4   11.56    0.41
   3   8   4   10.78    0.55
  -4  -8  -4    0.59    0.15
   4   8   4    0.82    0.17
   4   8   4    0.62    0.13
   4   8   4    0.73    0.21
   4   8   4    0.62    0.13
  -5  -8  -4    0.90    0.18
   5   8   4    1.27    0.19
   5   8   4    1.40    0.23
   5   8   4    1.01    0.26
  -6  -8  -4   -0.03    0.13
   6   8   4    0.11    0.15
   6   8   4   -0.07    0.15
   5  -9  -4    2.49    0.32
  -5   9   4    2.96    0.36
  -5   9   4    3.04    0.34
  -5   9   4    2.82    0.28
  -5   9   4    3.33    0.38
   4  -9  -4    0.00    0.12
  -4   9   4    0.09    0.18
  -4   9   4    0.10    0.15
  -4   9   4    0.01    0.11
  -4   9   4    0.03    0.12
  -4   9   4   -0.03    0.15
   3  -9  -4    9.21    0.49
  -3   9   4    8.45    0.45
  -3   9   4    9.03    0.47
  -3   9   4    9.29    0.41
  -3   9   4    9.02    0.46
  -3   9   4    9.21    0.40
   2  -9  -4    0.52    0.15
  -2   9   4    0.70    0.17
  -2   9   4    0.67    0.18
  -2   9   4    0.50    0.15
  -2   9   4    0.76    0.16
  -2   9   4    1.17    0.22
   1  -9  -4    3.02    0.32
   1  -9  -4    3.08    0.20
  -1   9   4    3.47    0.30
  -1   9   4    3.58    0.27
  -1   9   4    3.19    0.27
  -1   9   4    3.64    0.31
   0  -9  -4    1.24    0.23
   0  -9  -4    1.82    0.18
   0   9   4    1.01    0.18
   0   9   4    1.14    0.18
   0   9   4    1.40    0.23
   0   9   4    1.77    0.26
   0   9   4    1.48    0.21
  -1  -9  -4    1.85    0.19
  -1  -9  -4    2.15    0.30
   1   9   4    2.12    0.22
   1   9   4    1.71    0.21
   1   9   4    1.53    0.22
   1   9   4    2.24    0.26
   1   9   4    2.01    0.29
  -2  -9  -4   11.44    0.45
   2   9   4   11.70    0.51
   2   9   4   11.36    0.47
   2   9   4   11.70    0.47
   2   9   4   11.14    0.57
   2   9   4   11.49    0.32
  -3  -9  -4    0.18    0.12
   3   9   4    0.35    0.10
   3   9   4    0.25    0.14
   3   9   4    0.16    0.13
   3   9   4    0.10    0.11
   3   9   4    0.32    0.18
  -4  -9  -4    0.67    0.17
   4   9   4    0.79    0.20
   4   9   4    0.85    0.24
   4   9   4    0.76    0.15
   4   9   4    0.72    0.14
  -5  -9  -4    1.45    0.23
   5   9   4    1.75    0.27
   5   9   4    1.69    0.30
  -6  -9  -4    2.79    0.30
   6   9   4    2.73    0.34
   5 -10  -4    0.00    0.15
  -5  10   4   -0.10    0.13
  -5  10   4   -0.10    0.14
  -5  10   4   -0.07    0.20
   4 -10  -4    1.14    0.26
  -4  10   4    1.12    0.24
  -4  10   4    0.96    0.19
  -4  10   4    1.29    0.27
  -4  10   4    0.93    0.25
  -4  10   4    1.03    0.19
   3 -10  -4    4.24    0.39
  -3  10   4    4.55    0.32
  -3  10   4    5.13    0.41
  -3  10   4    4.36    0.32
  -3  10   4    3.97    0.36
  -3  10   4    4.59    0.36
   2 -10  -4    0.15    0.19
  -2  10   4    0.07    0.13
  -2  10   4    0.17    0.17
  -2  10   4   -0.06    0.12
  -2  10   4    0.05    0.13
   1 -10  -4   21.04    0.83
  -1  10   4   22.23    0.69
  -1  10   4   22.62    0.68
  -1  10   4   20.51    0.73
  -1  10   4   21.84    0.76
   0 -10  -4   17.50    0.53
   0  10   4   17.60    0.66
   0  10   4   17.63    0.59
   0  10   4   17.50    0.68
   0  10   4   17.13    0.60
  -1 -10  -4    9.32    0.39
   1  10   4    9.93    0.46
   1  10   4   10.40    0.49
   1  10   4    9.73    0.45
   1  10   4   11.10    0.54
  -2 -10  -4    3.60    0.28
   2  10   4    3.25    0.31
   2  10   4    3.50    0.30
   2  10   4    3.78    0.29
  -3 -10  -4    0.04    0.12
   3  10   4   -0.02    0.12
   3  10   4    0.04    0.08
   3  10   4   -0.08    0.13
  -4 -10  -4    0.21    0.15
   4  10   4    0.25    0.17
   4  10   4    0.37    0.15
  -5 -10  -4    1.63    0.25
   5  10   4    1.60    0.27
  -6 -10  -4    0.11    0.16
   6  10   4   -0.08    0.29
   4 -11  -4   -0.22    0.15
  -4  11   4   -0.03    0.21
  -4  11   4    0.08    0.14
  -4  11   4   -0.17    0.13
  -4  11   4    0.01    0.13
  -4  11   4    0.04    0.18
   3 -11  -4    1.50    0.34
  -3  11   4    1.37    0.26
  -3  11   4    1.24    0.21
  -3  11   4    0.94    0.24
  -3  11   4    1.89    0.24
  -3  11   4    1.39    0.29
  -2  11   4    7.18    0.46
  -2  11   4    8.01    0.42
  -2  11   4    7.22    0.42
  -2  11   4    8.13    0.50
  -1  11   4    0.92    0.19
  -1  11   4    1.21    0.22
  -1  11   4    1.06    0.23
  -1  11   4    1.44    0.28
   0  11   4   22.48    0.73
   0  11   4   21.88    0.82
   0  11   4   22.23    0.72
   0  11   4   21.54    0.79
  -1 -11  -4    3.51    0.27
   1  11   4    3.64    0.35
   1  11   4    3.21    0.31
   1  11   4    3.40    0.36
   1  11   4    3.75    0.34
  -2 -11  -4    1.81    0.22
   2  11   4    1.82    0.23
   2  11   4    2.32    0.28
   2  11   4    1.83    0.28
  -3 -11  -4    2.57    0.29
   3  11   4    2.32    0.32
   3  11   4    2.28    0.29
  -4 -11  -4   -0.20    0.15
   4  11   4   -0.03    0.16
   4  11   4   -0.04    0.14
  -5 -11  -4   -0.09    0.16
   5  11   4    0.00    0.15
  -3  12   4   -0.12    0.15
  -3  12   4   -0.12    0.15
  -3  12   4    0.13    0.16
  -3  12   4   -0.18    0.16
  -2  12   4    1.50    0.25
  -2  12   4    1.68    0.33
  -2  12   4    1.71    0.25
  -2  12   4    1.58    0.30
  -1  12   4    8.12    0.53
  -1  12   4    8.43    0.46
  -1  12   4    8.10    0.51
  -1  12   4    8.15    0.47
   0  12   4    0.00    0.19
   0  12   4    0.03    0.17
   0  12   4   -0.07    0.14
   0  12   4    0.04    0.16
   1  12   4    6.57    0.47
   1  12   4    6.39    0.44
   1  12   4    6.57    0.49
   1  12   4    6.41    0.44
  -2 -12  -4    0.94    0.19
   2  12   4    0.91    0.22
   2  12   4    0.91    0.25
   2  12   4    1.08    0.21
  -3 -12  -4    0.68    0.20
   3  12   4    1.14    0.27
   3  12   4    1.15    0.24
  -4 -12  -4    0.61    0.22
   4  12   4    1.03    0.26
   4  12   4    0.46    0.19
  -2  13   4    0.19    0.20
  -2  13   4    0.39    0.21
  -2  13   4    0.56    0.20
  -1  13   4    0.72    0.25
  -1  13   4    0.72    0.22
  -1  13   4    0.75    0.21
   0  13   4    1.31    0.26
   0  13   4    1.43    0.26
   0  13   4    1.56    0.30
   1  13   4    0.01    0.19
   1  13   4    0.28    0.19
   1  13   4   -0.03    0.18
   2  13   4    1.90    0.29
   2  13   4    2.59    0.38
  -3 -13  -4   -0.17    0.14
   3  13   4    0.20    0.19
   3  13   4    0.20    0.19
  -1  14   4    0.70    0.24
   0  14   4    0.17    0.21
   1  14   4    1.08    0.45
   1  14   4    1.47    0.28
   2  14   4    1.47    0.44
   1  11  -5    7.36    0.55
   0  11  -5    3.23    0.38
   3  10  -5    1.50    0.29
   3  10  -5    1.96    0.36
   2  10  -5    0.88    0.26
   2  10  -5    0.69    0.23
   1  10  -5    7.10    0.50
   1  10  -5    6.65    0.51
   1  10  -5    7.79    0.52
   0  10  -5    1.29    0.31
   0  10  -5    1.16    0.26
   0  10  -5    1.04    0.24
  -1  10  -5    2.75    0.33
  -1  10  -5    2.75    0.34
  -2  10  -5    1.28    0.25
  -2  10  -5    0.95    0.25
   4   9  -5   -0.22    0.16
   3   9  -5    6.86    0.47
   3   9  -5    6.67    0.48
   2   9  -5    0.76    0.23
   2   9  -5    0.69    0.22
   2   9  -5    0.35    0.22
  -2  -9   5    0.80    0.22
   1   9  -5    0.54    0.20
   1   9  -5    0.88    0.24
   1   9  -5    0.67    0.21
   0   9  -5   -0.06    0.16
   0   9  -5    0.04    0.16
   0   9  -5    0.16    0.20
  -1   9  -5    4.65    0.39
  -1   9  -5    4.28    0.45
  -1   9  -5    4.07    0.37
  -2   9  -5    0.51    0.19
  -2   9  -5    0.50    0.42
  -2   9  -5    0.84    0.21
  -3   9  -5    0.14    0.17
  -3   9  -5   -0.04    0.16
   5   8  -5    0.81    0.25
   4   8  -5    3.15    0.32
   4   8  -5    3.04    0.38
   3   8  -5    0.10    0.17
   3   8  -5   -0.01    0.15
   2   8  -5   -0.29    0.13
   2   8  -5   -0.09    0.16
   2   8  -5   -0.09    0.13
   1   8  -5    2.69    0.29
   1   8  -5    2.08    0.27
   1   8  -5    2.18    0.29
  -1  -8   5    2.43    0.27
   0   8  -5   -0.03    0.14
   0   8  -5    0.01    0.16
   0   8  -5    0.36    0.16
  -1   8  -5    0.35    0.21
  -1   8  -5    0.78    0.19
  -1   8  -5    0.27    0.16
  -2   8  -5    3.03    0.39
  -2   8  -5    3.24    0.31
  -2   8  -5    3.51    0.33
  -3   8  -5    2.11    0.27
  -3   8  -5    2.55    0.29
  -3   8  -5    2.51    0.48
  -4   8  -5    2.21    0.28
  -4   8  -5    2.07    0.27
   5   7  -5    0.42    0.21
   4   7  -5    2.85    0.28
   4   7  -5    2.97    0.37
   3   7  -5    0.48    0.17
   3   7  -5    0.78    0.19
   2   7  -5    0.27    0.14
   2   7  -5    0.30    0.15
   2   7  -5    0.10    0.14
   1   7  -5    0.91    0.20
   1   7  -5    1.02    0.20
   1   7  -5    0.74    0.17
   0   7  -5   14.95    0.57
   0   7  -5   14.81    0.55
   0   7  -5   14.08    0.59
  -1   7  -5    1.61    0.21
  -1   7  -5    2.10    0.25
  -1   7  -5    2.56    0.33
  -2   7  -5    5.32    0.34
  -2   7  -5    4.73    0.33
  -2   7  -5    4.77    0.42
  -3   7  -5   21.79    0.69
  -3   7  -5   22.68    0.70
  -4   7  -5    0.23    0.15
  -4   7  -5    0.27    0.15
  -5   7  -5    0.16    0.14
   6   6  -5   -0.17    0.15
   5   6  -5   -0.06    0.17
   4   6  -5   -0.18    0.10
   4   6  -5    0.10    0.15
   3   6  -5    0.28    0.12
   3   6  -5    0.41    0.14
   3   6  -5    0.42    0.15
   2   6  -5    3.11    0.28
   2   6  -5    2.90    0.26
   2   6  -5    3.04    0.26
   1   6  -5    9.14    0.42
   1   6  -5    9.46    0.41
   1   6  -5    8.07    0.79
   1   6  -5    8.89    0.42
   0   6  -5    2.81    0.27
   0   6  -5    3.29    0.29
   0   6  -5    3.73    0.32
   0  -6   5    3.05    0.24
  -1   6  -5    2.18    0.28
  -1   6  -5    2.34    0.23
  -1   6  -5    2.13    0.22
  -2   6  -5   20.70    0.64
  -2   6  -5   20.66    0.64
  -3   6  -5   18.32    0.59
  -3   6  -5   17.96    0.58
  -4   6  -5    3.34    0.28
  -4   6  -5    2.81    0.27
  -5   6  -5    3.07    0.28
   6   5  -5    0.19    0.18
   5   5  -5    2.48    0.32
   5   5  -5    3.16    0.37
   4   5  -5    0.89    0.26
   4   5  -5    0.88    0.20
   4   5  -5    0.93    0.16
   3   5  -5   15.60    0.72
   3   5  -5   16.07    0.52
   3   5  -5   16.69    0.55
   3   5  -5   15.00    0.51
   2   5  -5    6.38    0.31
   2   5  -5    6.02    0.46
   2   5  -5    5.77    0.32
   2   5  -5    5.99    0.20
   2   5  -5    6.26    0.35
   1   5  -5   16.93    0.54
   1   5  -5   17.00    0.70
   1   5  -5   16.24    0.55
   1   5  -5   16.35    0.54
   0   5  -5   27.23    0.74
   0   5  -5   28.80    0.92
   0   5  -5   27.10    0.75
   0   5  -5   27.68    0.79
  -1   5  -5   26.16    0.71
  -1   5  -5   26.06    0.71
  -2   5  -5    1.58    0.19
  -2   5  -5    2.10    0.21
  -3   5  -5    6.75    0.34
  -3   5  -5    6.57    0.33
  -4   5  -5   11.26    0.42
  -4   5  -5   10.41    0.40
  -5   5  -5    0.36    0.12
  -6   5  -5    0.51    0.13
   6   4  -5    0.00    0.18
   6   4  -5   -0.15    0.15
   5   4  -5   17.34    0.72
   5   4  -5   18.21    0.79
   4   4  -5    2.23    0.28
   4   4  -5    1.66    0.19
   4   4  -5    1.19    0.21
   3   4  -5    7.73    0.36
   3   4  -5    7.26    0.33
   2   4  -5   12.99    0.46
   2   4  -5   13.41    0.42
   2   4  -5   13.34    0.45
   1   4  -5   -0.33    0.10
   1   4  -5   -0.05    0.07
   1   4  -5   -0.36    0.10
   1   4  -5    0.28    0.11
   0   4  -5    5.20    0.29
   0   4  -5    6.29    0.40
   0   4  -5    5.00    0.29
  -1   4  -5   10.30    0.38
  -1   4  -5   10.55    0.38
   1  -4   5   10.38    0.39
  -2   4  -5   -0.32    0.09
   2  -4   5    0.18    0.10
  -3   4  -5   29.91    0.73
  -3   4  -5   29.19    0.71
   3  -4   5   28.93    0.70
  -4   4  -5   -0.01    0.10
  -4   4  -5    0.01    0.08
  -5   4  -5    8.66    0.32
  -6   4  -5    0.17    0.10
   7   3  -5    0.00    0.16
   6   3  -5   -0.03    0.16
   6   3  -5    0.17    0.17
   5   3  -5    8.77    0.52
   5   3  -5    8.98    0.50
   4   3  -5    6.69    0.40
   4   3  -5    6.66    0.29
   3   3  -5    7.36    0.30
   3   3  -5    7.43    0.33
   2   3  -5   54.61    1.11
   2   3  -5   54.06    1.17
   2   3  -5   54.95    1.16
   1   3  -5  220.26    3.97
   1   3  -5  219.73    3.93
   1   3  -5  222.10    3.96
   1   3  -5  210.71    3.83
   0   3  -5    6.87    0.29
   0   3  -5    7.04    0.29
   0  -3   5    6.90    0.32
  -1   3  -5   48.61    1.04
  -1   3  -5   48.03    1.03
   1  -3   5   48.91    1.06
   1  -3   5   49.16    0.98
  -2   3  -5    0.06    0.08
  -2   3  -5   -0.04    0.07
   2  -3   5   -0.03    0.04
   2  -3   5   -0.07    0.06
  -3   3  -5   14.27    0.41
  -3   3  -5   15.20    0.43
  -4   3  -5    3.48    0.18
  -4   3  -5    3.64    0.21
  -5   3  -5    0.61    0.09
  -6   3  -5    0.42    0.09
   7   2  -5    0.14    0.17
   6   2  -5    1.57    0.29
   6   2  -5    1.55    0.30
  -6  -2   5    1.64    0.22
   5   2  -5   11.60    0.56
   4   2  -5   12.05    0.38
   4   2  -5   12.76    0.53
   3   2  -5   13.21    0.49
   3   2  -5   12.61    0.37
   3   2  -5   12.82    0.40
   2   2  -5    1.63    0.15
   2   2  -5    1.64    0.16
   2   2  -5    1.61    0.11
   1   2  -5  124.93    2.36
   1   2  -5  126.32    2.31
   1   2  -5  123.11    2.23
   1   2  -5  127.48    2.35
  -1  -2   5  127.84    2.50
   0   2  -5   22.35    0.53
   0   2  -5   21.67    0.55
   0   2  -5   22.06    0.56
   0  -2   5   22.94    0.54
  -1   2  -5  171.93    3.14
  -1   2  -5  177.45    3.16
   1  -2   5  172.08    3.10
   1  -2   5  176.45    3.17
  -2   2  -5    2.85    0.16
  -2   2  -5    2.50    0.16
   2  -2   5    2.92    0.16
  -3   2  -5   27.89    0.63
  -3   2  -5   27.29    0.60
  -4   2  -5   23.92    0.53
  -4   2  -5   24.22    0.56
  -5   2  -5    7.56    0.25
  -5   2  -5    8.53    0.32
   7   1  -5    0.18    0.22
   7   1  -5    0.25    0.16
  -7  -1   5    0.32    0.16
   6   1  -5    0.03    0.15
  -6  -1   5    0.00    0.13
   5   1  -5    5.18    0.38
  -5  -1   5    5.52    0.31
   4   1  -5    0.72    0.09
   4   1  -5    0.52    0.16
   4   1  -5    0.65    0.10
  -4  -1   5    0.60    0.14
   3   1  -5    1.81    0.20
   3   1  -5    1.78    0.16
   3   1  -5    1.45    0.14
   3   1  -5    1.54    0.12
  -3  -1   5    1.63    0.16
  -3  -1   5    1.77    0.17
   2   1  -5    3.25    0.18
   2   1  -5    2.99    0.19
   2   1  -5    2.91    0.11
   2   1  -5    2.84    0.17
   2   1  -5    3.11    0.18
  -2  -1   5    2.86    0.18
   1   1  -5   86.70    1.67
   1   1  -5   87.98    1.66
   1   1  -5   87.83    1.68
  -1  -1   5   86.91    1.66
   0   1  -5  116.52    2.15
   0   1  -5  115.36    2.12
   0   1  -5  116.74    2.15
   0  -1   5  114.49    2.13
   0  -1   5  117.45    2.12
  -1   1  -5   71.66    1.37
  -1   1  -5   71.92    1.38
   1  -1   5   70.77    1.45
   1  -1   5   72.35    1.34
   1  -1   5   72.34    1.39
  -2   1  -5    2.51    0.13
  -2   1  -5    2.41    0.14
   2  -1   5    2.55    0.13
  -3   1  -5    6.91    0.24
  -3   1  -5    7.15    0.23
  -4   1  -5   44.61    0.88
  -4   1  -5   45.70    0.90
  -5   1  -5   28.14    0.59
  -5   1  -5   29.10    0.61
  -6   1  -5    3.80    0.17
   7   0  -5    1.74    0.28
   7   0  -5    2.04    0.35
  -7   0   5    2.40    0.29
   6   0  -5    3.00    0.36
  -6   0   5    3.12    0.28
   5   0  -5    0.79    0.19
  -5   0   5    0.73    0.15
   4   0  -5   29.72    0.63
   4   0  -5   31.36    0.89
   4   0  -5   30.77    0.64
  -4   0   5   30.50    0.77
  -4   0   5   31.15    0.76
  -4   0   5   29.97    0.64
  -4   0   5   30.72    0.73
   3   0  -5   27.23    0.74
   3   0  -5   26.45    0.61
   3   0  -5   27.69    0.57
   3   0  -5   26.83    0.60
  -3   0   5   26.96    0.67
  -3   0   5   26.87    0.63
  -3   0   5   26.11    0.53
  -3   0   5   26.27    0.63
   2   0  -5  315.11    5.57
   2   0  -5  319.98    5.56
   2   0  -5  321.54    5.66
   2   0  -5  316.24    5.60
   2   0  -5  314.87    5.58
  -2   0   5  316.37    5.58
  -2   0   5  317.19    5.59
  -2   0   5  320.90    5.61
   1   0  -5    3.95    0.18
   1   0  -5    3.74    0.18
   1   0  -5    3.98    0.19
   1   0  -5    4.06    0.18
  -1   0   5    3.96    0.18
  -1   0   5    4.01    0.14
   0   0  -5   43.81    0.89
   0   0  -5   44.80    0.88
   0   0   5   42.43    0.86
   0   0   5   42.82    0.88
  -1   0  -5  155.65    2.78
  -1   0  -5  155.22    2.78
  -1   0  -5  156.59    2.86
   1   0   5  154.97    2.86
  -2   0  -5    4.24    0.17
  -2   0  -5    4.29    0.16
   2   0   5    3.71    0.24
   2   0   5    4.12    0.15
  -3   0  -5   67.71    1.25
  -3   0  -5   66.32    1.25
   3   0   5   65.46    1.47
  -4   0  -5   92.01    1.70
  -4   0  -5   92.07    1.68
  -5   0  -5   17.74    0.40
  -6   0  -5    3.30    0.16
  -7   0  -5    0.07    0.07
   7  -1  -5    5.68    0.34
  -7   1   5    5.95    0.41
   6  -1  -5    0.02    0.10
   6  -1  -5    0.24    0.18
  -6   1   5   -0.05    0.11
   5  -1  -5   10.02    0.51
  -5   1   5    8.99    0.41
   4  -1  -5   32.63    0.63
   4  -1  -5   33.66    0.94
   4  -1  -5   32.53    0.63
  -4   1   5   32.43    0.74
  -4   1   5   33.22    0.83
  -4   1   5   32.90    0.74
  -4   1   5   33.18    0.74
   3  -1  -5   27.95    0.61
   3  -1  -5   29.34    0.62
   3  -1  -5   29.23    0.77
  -3   1   5   28.80    0.65
  -3   1   5   29.60    0.72
  -3   1   5   28.41    0.65
   2  -1  -5    0.22    0.06
   2  -1  -5    0.26    0.07
   2  -1  -5    0.34    0.07
   2  -1  -5    0.18    0.08
   2  -1  -5    0.17    0.07
  -2   1   5    0.24    0.07
  -2   1   5    0.30    0.07
  -2   1   5    0.16    0.08
   1  -1  -5   59.42    1.17
   1  -1  -5   58.50    1.16
   1  -1  -5   61.62    1.26
   1  -1  -5   60.33    1.16
   1  -1  -5   60.06    1.17
  -1   1   5   60.08    1.16
  -1   1   5   60.72    1.18
   0  -1  -5  113.16    2.15
   0  -1  -5  116.37    2.08
   0  -1  -5  114.04    2.07
   0  -1  -5  113.48    2.07
   0   1   5  112.26    2.07
   0   1   5  112.80    2.05
  -1  -1  -5   46.11    0.97
  -1  -1  -5   45.66    0.90
  -1  -1  -5   45.85    0.91
  -1  -1  -5   46.23    0.90
   1   1   5   45.09    0.98
   1   1   5   44.13    0.96
  -2  -1  -5   68.18    1.29
  -2  -1  -5   68.63    1.28
   2   1   5   66.80    1.41
   2   1   5   68.20    1.37
  -3  -1  -5   26.02    0.57
  -3  -1  -5   25.14    0.55
   3   1   5   25.34    0.63
   3   1   5   26.03    0.74
  -4  -1  -5    0.25    0.07
  -4  -1  -5    0.48    0.07
   4   1   5    0.46    0.09
   4   1   5    0.26    0.15
  -5  -1  -5    0.72    0.08
   5   1   5    0.80    0.12
  -6  -1  -5   13.47    0.35
  -6  -1  -5   12.52    0.58
  -7  -1  -5    0.07    0.08
   7  -2  -5   -0.11    0.09
  -7   2   5    0.00    0.16
   6  -2  -5    1.41    0.19
  -6   2   5    1.08    0.21
   5  -2  -5    3.65    0.34
   5  -2  -5    3.58    0.26
  -5   2   5    3.47    0.28
   4  -2  -5   12.76    0.44
   4  -2  -5   12.13    0.51
  -4   2   5   11.59    0.44
  -4   2   5   12.20    0.36
  -4   2   5   11.75    0.37
  -4   2   5   12.35    0.38
  -4   2   5   12.23    0.30
  -4   2   5   12.27    0.36
   3  -2  -5    8.17    0.24
   3  -2  -5    8.47    0.37
   3  -2  -5    8.02    0.24
   3  -2  -5    8.47    0.34
  -3   2   5    8.18    0.33
  -3   2   5    8.88    0.28
  -3   2   5    8.69    0.28
  -3   2   5    8.32    0.29
  -3   2   5    8.37    0.29
   2  -2  -5   33.47    0.77
   2  -2  -5   32.01    0.69
   2  -2  -5   33.22    0.78
   2  -2  -5   32.02    0.75
   2  -2  -5   33.00    0.69
  -2   2   5   32.57    0.69
  -2   2   5   33.12    0.72
  -2   2   5   32.20    0.72
  -2   2   5   32.94    0.75
  -2   2   5   33.31    0.69
   1  -2  -5   80.73    1.63
   1  -2  -5   82.00    1.56
   1  -2  -5   81.05    1.54
   1  -2  -5   82.98    1.54
   1  -2  -5   83.28    1.56
   1  -2  -5   82.90    1.54
   1  -2  -5   83.13    1.51
  -1   2   5   81.61    1.56
  -1   2   5   83.72    1.57
  -1   2   5   84.50    1.55
  -1   2   5   83.23    1.56
  -1   2   5   81.47    1.53
   0  -2  -5  200.51    3.55
   0  -2  -5  200.97    3.56
   0  -2  -5  198.36    3.64
   0  -2  -5  204.20    3.56
   0  -2  -5  200.43    3.57
   0   2   5  201.97    3.58
   0   2   5  203.53    3.56
  -1  -2  -5  211.44    3.67
  -1  -2  -5  212.39    3.67
  -1  -2  -5  201.56    3.65
  -1  -2  -5  207.78    3.75
  -1  -2  -5  205.56    3.63
   1   2   5  205.20    3.75
   1   2   5  208.29    3.66
   1   2   5  204.90    3.71
  -2  -2  -5   19.15    0.45
  -2  -2  -5   19.73    0.46
  -2  -2  -5   19.08    0.46
   2   2   5   19.07    0.54
   2   2   5   19.84    0.53
  -3  -2  -5  111.96    2.05
  -3  -2  -5  111.34    2.05
  -3  -2  -5  108.79    2.02
  -3  -2  -5  109.74    2.13
   3   2   5  117.34    2.25
   3   2   5  113.04    2.15
  -4  -2  -5    5.52    0.22
  -4  -2  -5    5.61    0.21
  -4  -2  -5    5.56    0.20
   4   2   5    5.77    0.27
   4   2   5    5.89    0.36
  -5  -2  -5    1.72    0.13
   5   2   5    1.68    0.25
   5   2   5    1.66    0.17
  -6  -2  -5    0.84    0.11
   6   2   5    0.68    0.12
  -7  -2  -5    0.65    0.11
   7  -3  -5    5.86    0.32
  -7   3   5    5.52    0.42
   6  -3  -5    0.13    0.09
  -6   3   5    0.14    0.09
  -6   3   5    0.10    0.14
   5  -3  -5   14.80    0.49
  -5   3   5   14.23    0.55
  -5   3   5   14.39    0.43
  -5   3   5   13.95    0.44
  -5   3   5   13.98    0.43
   4  -3  -5    2.44    0.27
   4  -3  -5    1.86    0.19
  -4   3   5    1.65    0.20
  -4   3   5    2.02    0.15
  -4   3   5    1.68    0.15
  -4   3   5    1.98    0.15
  -4   3   5    2.11    0.14
  -4   3   5    1.79    0.16
   3  -3  -5   37.32    0.88
   3  -3  -5   36.66    0.73
   3  -3  -5   37.15    0.73
   3  -3  -5   37.17    0.93
  -3   3   5   37.97    0.78
  -3   3   5   38.07    0.89
  -3   3   5   37.64    0.82
  -3   3   5   37.23    0.81
  -3   3   5   36.77    0.75
  -3   3   5   37.63    0.78
   2  -3  -5   22.83    0.53
   2  -3  -5   23.80    0.50
   2  -3  -5   23.16    0.62
   2  -3  -5   23.61    0.61
   2  -3  -5   23.52    0.52
   2  -3  -5   23.28    0.67
  -2   3   5   23.90    0.53
  -2   3   5   23.13    0.56
  -2   3   5   23.98    0.59
  -2   3   5   23.80    0.52
  -2   3   5   23.28    0.56
  -2   3   5   23.65    0.60
  -2   3   5   23.65    0.53
   1  -3  -5   49.65    1.07
   1  -3  -5   49.00    0.96
   1  -3  -5   49.04    1.01
   1  -3  -5   49.83    0.97
   1  -3  -5   48.30    0.97
   1  -3  -5   49.17    0.98
   1  -3  -5   48.92    0.98
  -1   3   5   49.10    1.05
  -1   3   5   48.21    0.96
  -1   3   5   50.96    1.00
  -1   3   5   48.68    1.00
  -1   3   5   48.50    1.00
   0  -3  -5   56.50    1.10
   0  -3  -5   57.02    1.11
   0  -3  -5   57.21    1.05
   0  -3  -5   55.72    1.12
   0  -3  -5   56.94    1.21
   0  -3  -5   54.69    1.10
   0   3   5   57.22    1.13
   0   3   5   62.57    1.31
   0   3   5   56.91    1.13
   0   3   5   56.06    1.10
  -1  -3  -5   32.55    0.70
  -1  -3  -5   34.24    0.72
  -1  -3  -5   33.12    0.71
  -1  -3  -5   33.00    0.65
  -1  -3  -5   33.00    0.80
   1   3   5   34.09    0.71
   1   3   5   32.76    0.71
   1   3   5   33.11    0.80
  -2  -3  -5  191.91    3.42
  -2  -3  -5  190.64    3.41
  -2  -3  -5  197.09    3.45
  -2  -3  -5  192.01    3.44
   2   3   5  193.06    3.53
   2   3   5  192.76    3.38
   2   3   5  191.15    3.55
   2   3   5  194.04    3.42
  -3  -3  -5   61.22    1.24
  -3  -3  -5   61.51    1.20
  -3  -3  -5   60.25    1.20
  -3  -3  -5   60.59    1.17
   3   3   5   60.07    1.30
   3   3   5   61.47    1.34
  -4  -3  -5   20.03    0.49
  -4  -3  -5   20.35    0.50
  -4  -3  -5   20.07    0.51
   4   3   5   19.96    0.59
   4   3   5   20.46    0.66
  -5  -3  -5    0.59    0.10
  -5  -3  -5    0.37    0.09
   5   3   5    0.31    0.11
   5   3   5    0.39    0.18
  -6  -3  -5   17.76    0.48
   6   3   5   16.81    0.55
  -7  -3  -5    0.64    0.12
   7   3   5    0.65    0.14
  -7   4   5    0.21    0.11
  -7   4   5    0.20    0.18
   6  -4  -5    0.10    0.10
  -6   4   5    0.22    0.16
  -6   4   5    0.22    0.10
   5  -4  -5   12.89    0.46
  -5   4   5   13.37    0.40
  -5   4   5   13.16    0.41
  -5   4   5   11.71    0.51
  -5   4   5   13.26    0.43
   4  -4  -5    5.33    0.29
  -4   4   5    6.03    0.34
  -4   4   5    5.55    0.23
  -4   4   5    5.92    0.25
  -4   4   5    5.15    0.25
  -4   4   5    5.82    0.26
  -4   4   5    5.88    0.23
   3  -4  -5   35.19    0.70
   3  -4  -5   35.86    0.70
   3  -4  -5   36.20    0.87
  -3   4   5   34.82    0.79
  -3   4   5   36.34    0.76
  -3   4   5   36.01    0.88
  -3   4   5   35.53    0.79
  -3   4   5   36.10    0.75
  -3   4   5   35.73    0.78
   2  -4  -5    1.58    0.16
   1  -4  -5   97.13    1.85
   1  -4  -5   99.81    1.95
   1  -4  -5   98.14    1.86
   1  -4  -5   98.24    1.81
   1  -4  -5   98.88    1.82
   1  -4  -5   99.54    1.84
   1  -4  -5   98.93    1.82
  -1   4   5   98.48    1.82
  -1   4   5   98.07    1.85
  -1   4   5   98.22    1.86
  -1   4   5   94.66    1.91
  -1   4   5   96.77    1.81
  -1   4   5   99.34    1.86
   0  -4  -5   29.42    0.56
   0  -4  -5   29.34    0.63
   0  -4  -5   29.36    0.70
   0  -4  -5   28.38    0.63
   0  -4  -5   29.19    0.66
   0   4   5   29.29    0.74
   0   4   5   28.76    0.66
   0   4   5   28.82    0.66
   0   4   5   29.34    0.63
  -1  -4  -5   24.04    0.56
  -1  -4  -5   24.31    0.66
  -1  -4  -5   23.74    0.57
  -1  -4  -5   23.58    0.50
   1   4   5   24.35    0.66
   1   4   5   23.77    0.49
   1   4   5   24.09    0.57
   1   4   5   24.21    0.57
  -2  -4  -5    0.16    0.04
  -2  -4  -5    0.08    0.05
  -2  -4  -5    0.07    0.06
  -2  -4  -5    0.11    0.06
  -2  -4  -5    0.21    0.05
   2   4   5    0.21    0.06
   2   4   5    0.16    0.06
   2   4   5    0.12    0.05
   2   4   5    0.40    0.10
  -3  -4  -5    6.93    0.27
  -3  -4  -5    6.97    0.26
  -3  -4  -5    6.99    0.25
  -3  -4  -5    6.80    0.25
   3   4   5    6.83    0.33
   3   4   5    6.76    0.22
   3   4   5    6.78    0.22
   3   4   5    6.50    0.32
  -4  -4  -5    0.07    0.06
  -4  -4  -5    0.13    0.07
  -4  -4  -5    0.14    0.07
   4   4   5    0.13    0.13
   4   4   5    0.27    0.10
  -5  -4  -5    0.56    0.11
   5   4   5    0.86    0.19
   5   4   5    0.52    0.13
  -6  -4  -5    2.89    0.22
   6   4   5    3.35    0.28
   6   4   5    3.74    0.38
  -7  -4  -5    4.90    0.29
   7   4   5    5.48    0.33
   6  -5  -5    0.14    0.10
  -6   5   5    0.21    0.11
  -6   5   5    0.21    0.16
   5  -5  -5    4.55    0.29
  -5   5   5    4.82    0.25
  -5   5   5    4.72    0.29
  -5   5   5    4.57    0.35
  -5   5   5    4.21    0.24
   4  -5  -5    3.32    0.25
  -4   5   5    3.47    0.28
  -4   5   5    3.11    0.20
  -4   5   5    3.44    0.24
  -4   5   5    2.91    0.21
   3  -5  -5   20.16    0.44
   3  -5  -5   19.55    0.61
   3  -5  -5   20.40    0.44
  -3   5   5   20.52    0.54
  -3   5   5   20.74    0.62
  -3   5   5   21.20    0.56
  -3   5   5   19.96    0.53
  -3   5   5   20.40    0.49
   2  -5  -5    8.17    0.36
   2  -5  -5    8.13    0.23
   2  -5  -5    8.27    0.25
   2  -5  -5    7.98    0.26
  -2   5   5    8.07    0.26
  -2   5   5    7.97    0.29
  -2   5   5    8.26    0.31
  -2   5   5    7.70    0.32
  -2   5   5    7.96    0.29
  -2   5   5    7.69    0.30
   1  -5  -5   23.62    0.68
   1  -5  -5   23.47    0.54
   1  -5  -5   23.63    0.57
   1  -5  -5   22.98    0.60
   1  -5  -5   23.09    0.55
  -1   5   5   23.94    0.65
  -1   5   5   22.86    0.53
  -1   5   5   23.93    0.59
  -1   5   5   24.68    0.62
  -1   5   5   23.79    0.59
  -1   5   5   24.03    0.59
   0  -5  -5   27.20    0.65
   0  -5  -5   27.87    0.63
   0  -5  -5   27.26    0.69
   0  -5  -5   30.07    0.79
   0   5   5   27.50    0.66
   0   5   5   28.00    0.62
   0   5   5   27.30    0.66
   0   5   5   28.48    0.74
   0   5   5   27.38    0.53
  -1  -5  -5   30.16    0.80
  -1  -5  -5   30.27    0.68
  -1  -5  -5   29.57    0.69
  -1  -5  -5   29.57    0.76
   1   5   5   29.88    0.79
   1   5   5   29.09    0.69
   1   5   5   29.84    0.69
   1   5   5   29.73    0.60
   1   5   5   30.06    0.69
  -2  -5  -5   52.36    1.09
  -2  -5  -5   50.77    1.05
   2   5   5   51.19    1.05
   2   5   5   50.25    1.04
   2   5   5   51.25    1.19
   2   5   5   51.79    1.06
  -3  -5  -5    8.01    0.26
  -3  -5  -5    7.52    0.33
  -3  -5  -5    7.67    0.28
  -3  -5  -5    7.92    0.31
   3   5   5    7.96    0.38
   3   5   5    7.75    0.27
   3   5   5    8.20    0.36
   3   5   5    7.83    0.28
  -4  -5  -5   53.46    1.13
  -4  -5  -5   53.39    1.14
   4   5   5   53.05    1.04
   4   5   5   55.15    1.28
   4   5   5   53.67    1.28
  -5  -5  -5    6.98    0.31
   5   5   5    7.13    0.42
   5   5   5    7.09    0.39
  -6  -5  -5    3.54    0.26
   6   5   5    3.74    0.32
   6   5   5    4.00    0.38
  -7  -5  -5    5.32    0.32
   7   5   5    5.10    0.36
   6  -6  -5    0.09    0.12
  -6   6   5   -0.10    0.15
  -6   6   5    0.05    0.10
   5  -6  -5    0.03    0.10
  -5   6   5   -0.06    0.13
  -5   6   5   -0.12    0.08
  -5   6   5    0.16    0.15
  -5   6   5    0.11    0.10
   4  -6  -5    0.26    0.12
  -4   6   5    0.22    0.10
  -4   6   5    0.02    0.09
  -4   6   5    0.26    0.15
  -4   6   5    0.17    0.12
   3  -6  -5   41.93    1.06
   3  -6  -5   42.93    0.82
   3  -6  -5   41.63    0.82
  -3   6   5   41.50    0.94
  -3   6   5   43.50    1.05
  -3   6   5   40.58    0.89
  -3   6   5   44.79    1.00
  -3   6   5   42.94    0.95
   2  -6  -5    0.27    0.07
   2  -6  -5    0.37    0.06
   2  -6  -5    0.50    0.08
   2  -6  -5    0.37    0.12
  -2   6   5    0.25    0.08
  -2   6   5    0.19    0.10
  -2   6   5    0.27    0.07
  -2   6   5    0.31    0.09
  -2   6   5    0.32    0.12
  -2   6   5    0.36    0.10
   1  -6  -5   49.05    0.98
   1  -6  -5   49.54    1.17
   1  -6  -5   47.11    1.07
  -1   6   5   48.29    0.99
  -1   6   5   47.37    1.04
  -1   6   5   47.64    1.12
  -1   6   5   47.67    1.04
  -1   6   5   49.74    1.09
  -1   6   5   48.35    1.04
   0  -6  -5   62.61    1.36
   0  -6  -5   62.79    1.44
   0  -6  -5   65.44    1.27
   0   6   5   62.56    1.16
   0   6   5   64.40    1.31
   0   6   5   62.76    1.40
   0   6   5   64.12    1.25
   0   6   5   63.15    1.31
  -1  -6  -5   70.16    1.58
  -1  -6  -5   71.73    1.41
  -1  -6  -5   71.09    1.53
   1   6   5   69.87    1.45
   1   6   5   71.78    1.33
   1   6   5   72.30    1.45
   1   6   5   73.10    1.45
  -2  -6  -5   32.04    0.73
   2   6   5   29.80    0.73
   2   6   5   32.25    0.75
   2   6   5   31.25    0.75
   2   6   5   31.62    0.86
  -3  -6  -5    1.68    0.16
   3   6   5    1.23    0.19
   3   6   5    1.23    0.13
   3   6   5    1.62    0.16
   3   6   5    1.72    0.17
  -4  -6  -5    2.03    0.20
   4   6   5    2.30    0.29
   4   6   5    2.16    0.26
   4   6   5    2.53    0.17
  -5  -6  -5    3.56    0.25
   5   6   5    4.06    0.33
   5   6   5    3.93    0.34
  -6  -6  -5    7.51    0.37
   6   6   5    7.55    0.49
   6   6   5    7.10    0.44
  -7  -6  -5    8.49    0.42
   7   6   5    8.55    0.48
   7   6   5    9.29    0.59
   6  -7  -5    0.54    0.15
  -6   7   5    0.50    0.14
  -6   7   5    0.26    0.19
   5  -7  -5    0.06    0.11
  -5   7   5   -0.05    0.14
  -5   7   5    0.11    0.16
  -5   7   5    0.08    0.10
  -5   7   5    0.10    0.10
   4  -7  -5    1.71    0.25
  -4   7   5    1.03    0.22
  -4   7   5    1.42    0.18
  -4   7   5    1.15    0.17
  -4   7   5    1.50    0.22
   3  -7  -5    6.50    0.21
   3  -7  -5    6.09    0.21
   3  -7  -5    6.42    0.38
  -3   7   5    6.19    0.31
  -3   7   5    6.71    0.36
  -3   7   5    6.32    0.37
  -3   7   5    6.39    0.31
   2  -7  -5   18.14    0.63
   2  -7  -5   17.53    0.42
   2  -7  -5   16.77    0.45
  -2   7   5   18.04    0.56
  -2   7   5   17.45    0.48
  -2   7   5   18.22    0.53
  -2   7   5   18.43    0.53
  -2   7   5   17.97    0.57
   1  -7  -5   16.58    0.60
   1  -7  -5   16.77    0.44
   1  -7  -5   16.65    0.54
  -1   7   5   16.28    0.50
  -1   7   5   17.25    0.55
  -1   7   5   16.45    0.45
  -1   7   5   16.58    0.50
  -1   7   5   17.06    0.50
   0  -7  -5   22.12    0.66
   0  -7  -5   23.15    0.58
   0  -7  -5   23.27    0.74
   0   7   5   21.97    0.49
   0   7   5   24.20    0.69
   0   7   5   22.20    0.65
   0   7   5   22.36    0.56
   0   7   5   22.57    0.70
   0   7   5   22.94    0.62
   0   7   5   22.97    0.62
  -1  -7  -5   53.01    1.14
  -1  -7  -5   55.23    1.34
   1   7   5   54.08    1.06
   1   7   5   55.66    1.19
   1   7   5   53.57    1.18
   1   7   5   54.86    1.20
  -2  -7  -5    3.12    0.27
   2   7   5    2.96    0.28
   2   7   5    2.63    0.19
  -3  -7  -5   12.70    0.43
   3   7   5   12.85    0.35
   3   7   5   12.44    0.44
   3   7   5   13.60    0.44
   3   7   5   12.49    0.54
   3   7   5   12.71    0.40
  -4  -7  -5   13.43    0.47
   4   7   5   13.71    0.55
   4   7   5   12.93    0.42
   4   7   5   12.86    0.57
   4   7   5   13.21    0.47
  -5  -7  -5    3.20    0.27
   5   7   5    3.28    0.34
   5   7   5    3.98    0.34
  -6  -7  -5    0.38    0.15
   6   7   5    0.70    0.21
   6   7   5    0.60    0.23
   6  -8  -5    1.00    0.21
  -6   8   5    0.84    0.17
   5  -8  -5    2.49    0.28
  -5   8   5    2.32    0.24
  -5   8   5    2.45    0.30
  -5   8   5    2.53    0.24
  -5   8   5    2.35    0.31
   4  -8  -5    3.22    0.30
  -4   8   5    2.67    0.24
  -4   8   5    2.52    0.29
  -4   8   5    2.74    0.24
  -4   8   5    2.78    0.30
   3  -8  -5    5.20    0.20
   3  -8  -5    5.38    0.37
  -3   8   5    5.64    0.35
  -3   8   5    5.64    0.36
  -3   8   5    5.69    0.31
  -3   8   5    5.47    0.31
   2  -8  -5   14.24    0.59
   2  -8  -5   13.88    0.40
  -2   8   5   14.35    0.54
  -2   8   5   13.86    0.48
  -2   8   5   13.58    0.48
  -2   8   5   14.45    0.51
  -2   8   5   14.27    0.54
   1  -8  -5   12.09    0.53
   1  -8  -5   13.39    0.38
  -1   8   5   11.43    0.42
  -1   8   5   11.33    0.42
  -1   8   5   11.57    0.43
  -1   8   5   10.58    0.36
  -1   8   5   11.26    0.47
  -1   8   5   12.27    0.48
   0  -8  -5    0.01    0.08
   0  -8  -5    0.04    0.28
   0   8   5    0.05    0.09
   0   8   5    0.09    0.08
   0   8   5    0.17    0.13
   0   8   5   -0.03    0.09
   0   8   5    0.06    0.12
   0   8   5    0.00    0.09
  -1  -8  -5   30.01    0.74
   1   8   5   30.37    0.78
   1   8   5   29.85    0.81
   1   8   5   29.48    0.66
   1   8   5   30.45    0.79
  -2  -8  -5    4.13    0.25
  -2  -8  -5    4.19    0.36
   2   8   5    4.78    0.27
   2   8   5    4.62    0.35
   2   8   5    4.69    0.30
   2   8   5    4.81    0.29
   2   8   5    4.69    0.16
   2   8   5    4.84    0.16
  -3  -8  -5   11.75    0.44
   3   8   5   10.93    0.33
   3   8   5   12.13    0.45
   3   8   5   11.43    0.56
   3   8   5   11.79    0.47
   3   8   5   11.24    0.41
  -4  -8  -5    1.95    0.21
   4   8   5    1.93    0.25
   4   8   5    1.79    0.17
   4   8   5    1.78    0.23
   4   8   5    1.72    0.19
   4   8   5    1.59    0.26
  -5  -8  -5    0.41    0.15
   5   8   5    0.30    0.16
   5   8   5    0.51    0.18
  -6  -8  -5    0.65    0.18
   6   8   5    0.40    0.20
   6   8   5    0.64    0.24
   5  -9  -5    1.35    0.26
  -5   9   5    1.04    0.19
  -5   9   5    1.08    0.25
  -5   9   5    1.20    0.24
  -5   9   5    1.21    0.26
  -5   9   5    0.94    0.18
   4  -9  -5    2.26    0.30
  -4   9   5    2.78    0.27
  -4   9   5    2.18    0.30
  -4   9   5    2.14    0.29
  -4   9   5    2.14    0.22
  -4   9   5    2.12    0.29
   3  -9  -5    1.59    0.26
  -3   9   5    1.53    0.20
  -3   9   5    1.70    0.25
  -3   9   5    1.29    0.19
  -3   9   5    1.35    0.22
  -3   9   5    1.77    0.26
   2  -9  -5    0.86    0.22
  -2   9   5    0.67    0.17
  -2   9   5    0.59    0.15
  -2   9   5    0.34    0.14
  -2   9   5    0.86    0.20
  -2   9   5    0.63    0.17
   1  -9  -5    1.24    0.14
   1  -9  -5    1.42    0.26
  -1   9   5    1.10    0.17
  -1   9   5    1.07    0.20
  -1   9   5    0.93    0.16
  -1   9   5    1.17    0.18
  -1   9   5    1.33    0.22
  -1  -9  -5    4.30    0.39
  -1  -9  -5    4.85    0.27
   1   9   5    4.40    0.22
   1   9   5    4.51    0.37
   1   9   5    4.47    0.32
   1   9   5    4.97    0.32
   1   9   5    4.23    0.29
  -2  -9  -5   14.93    0.51
   2   9   5   14.68    0.53
   2   9   5   14.44    0.55
   2   9   5   14.57    0.37
   2   9   5   14.21    0.64
   2   9   5   14.49    0.36
   2   9   5   14.64    0.52
  -3  -9  -5    5.40    0.32
   3   9   5    5.11    0.22
   3   9   5    5.55    0.35
   3   9   5    5.62    0.44
   3   9   5    5.68    0.34
  -4  -9  -5    0.38    0.14
   4   9   5    0.32    0.12
   4   9   5    0.38    0.19
   4   9   5   -0.08    0.12
  -5  -9  -5    0.30    0.16
   5   9   5    0.22    0.19
   5   9   5    0.42    0.19
  -6  -9  -5    1.72    0.25
   6   9   5    0.98    0.25
   6   9   5    1.46    0.31
   5 -10  -5    0.35    0.18
  -5  10   5    0.21    0.16
  -5  10   5    0.44    0.26
  -5  10   5    0.48    0.20
   4 -10  -5    0.03    0.12
  -4  10   5    0.11    0.14
  -4  10   5    0.16    0.14
  -4  10   5   -0.17    0.17
  -4  10   5   -0.14    0.15
  -4  10   5   -0.12    0.15
   3 -10  -5    0.79    0.23
  -3  10   5    0.48    0.19
  -3  10   5    0.42    0.19
  -3  10   5    0.69    0.17
  -3  10   5    0.66    0.17
  -3  10   5    0.48    0.19
   2 -10  -5   -0.03    0.10
  -2  10   5    0.02    0.12
  -2  10   5    0.05    0.14
  -2  10   5    0.06    0.13
  -2  10   5   -0.16    0.11
  -2  10   5    0.14    0.17
   1 -10  -5    1.35    0.26
  -1  10   5    1.34    0.20
  -1  10   5    1.66    0.23
  -1  10   5    1.62    0.27
  -1  10   5    2.03    0.28
  -1  10   5    1.50    0.21
   0 -10  -5    1.18    0.16
   0  10   5    1.15    0.23
   0  10   5    1.22    0.22
   0  10   5    0.88    0.17
   0  10   5    0.77    0.17
   0  10   5    0.89    0.16
   1  10   5    0.58    0.18
   1  10   5    0.07    0.14
   1  10   5    0.14    0.08
   1  10   5    0.20    0.12
  -2 -10  -5    3.01    0.26
   2  10   5    3.41    0.30
   2  10   5    3.52    0.28
   2  10   5    3.58    0.18
   2  10   5    3.93    0.33
   2  10   5    3.26    0.17
  -3 -10  -5   17.56    0.59
   3  10   5   16.92    0.60
   3  10   5   16.88    0.65
  -4 -10  -5   10.31    0.48
   4  10   5    9.72    0.50
   4  10   5    9.16    0.43
  -5 -10  -5    2.67    0.30
   5  10   5    2.83    0.34
  -6 -10  -5    0.44    0.19
   6  10   5    0.41    0.21
   4 -11  -5    0.01    0.16
  -4  11   5    0.06    0.14
  -4  11   5   -0.05    0.15
  -4  11   5    0.38    0.15
  -4  11   5   -0.13    0.20
  -4  11   5    0.13    0.20
   3 -11  -5    2.02    0.32
  -3  11   5    2.45    0.34
  -3  11   5    2.29    0.30
  -3  11   5    2.67    0.28
  -3  11   5    2.30    0.33
  -3  11   5    1.84    0.24
  -2  11   5    0.52    0.18
  -2  11   5    0.42    0.16
  -2  11   5    0.36    0.21
  -2  11   5    0.73    0.20
  -2  11   5    0.53    0.19
  -1  11   5    0.87    0.23
  -1  11   5    0.97    0.20
  -1  11   5    0.92    0.20
  -1  11   5    1.28    0.25
  -1  11   5    0.92    0.19
   0  11   5    7.05    0.36
   0  11   5    6.18    0.40
   0  11   5    6.58    0.41
   0  11   5    6.47    0.43
   0  11   5    6.86    0.48
  -1 -11  -5   11.50    0.45
   1  11   5   11.53    0.51
   1  11   5   10.93    0.51
   1  11   5   10.10    0.39
   1  11   5   10.83    0.54
  -2 -11  -5    0.83    0.16
   2  11   5    0.61    0.15
   2  11   5    0.58    0.20
   2  11   5    0.26    0.15
  -3 -11  -5   20.66    0.69
   3  11   5   20.08    0.70
   3  11   5   19.40    0.75
  -4 -11  -5   -0.13    0.15
   4  11   5   -0.03    0.15
   4  11   5   -0.18    0.12
  -5 -11  -5    0.49    0.19
   5  11   5    0.77    0.23
  -3  12   5    0.62    0.23
  -3  12   5    0.11    0.22
  -3  12   5    0.12    0.15
  -3  12   5    0.37    0.21
  -3  12   5    0.27    0.18
  -2  12   5    7.12    0.44
  -2  12   5    6.64    0.44
  -2  12   5    6.17    0.43
  -2  12   5    6.19    0.47
  -2  12   5    7.05    0.50
  -1  12   5    2.37    0.34
  -1  12   5    2.42    0.29
  -1  12   5    2.59    0.30
  -1  12   5    2.45    0.29
  -1  12   5    2.27    0.33
   0  12   5    1.46    0.29
   0  12   5    1.34    0.27
   0  12   5    1.42    0.24
   0  12   5    1.37    0.24
   0  12   5    1.41    0.21
   1  12   5   15.08    0.62
   1  12   5   14.86    0.68
   1  12   5   13.58    0.48
   1  12   5   14.14    0.60
  -2 -12  -5    4.72    0.34
   2  12   5    4.33    0.41
   2  12   5    4.89    0.38
   2  12   5    5.28    0.41
  -3 -12  -5    0.23    0.16
   3  12   5    0.27    0.20
   3  12   5    0.16    0.17
  -4 -12  -5    4.03    0.39
   4  12   5    4.00    0.42
   4  12   5    3.97    0.37
  -3  13   5    0.55    0.20
  -3  13   5    0.64    0.22
  -2  13   5    0.44    0.20
  -2  13   5    0.53    0.20
  -2  13   5    0.45    0.21
  -1  13   5    1.41    0.28
  -1  13   5    1.54    0.30
  -1  13   5    1.25    0.25
  -1  13   5    1.26    0.24
   0  13   5    3.38    0.46
   0  13   5    2.87    0.32
   0  13   5    2.74    0.28
   0  13   5    3.70    0.37
   0  13   5    2.89    0.38
   1  13   5    2.00    0.33
   1  13   5    1.76    0.27
   1  13   5    2.14    0.30
   2  13   5    2.36    0.36
   2  13   5    1.66    0.29
  -3 -13  -5    2.49    0.30
   3  13   5    1.95    0.28
   3  13   5    2.39    0.36
  -4 -13  -5   -0.03    0.17
   4  13   5    0.14    0.20
   4  13   5   -0.28    0.14
  -1  14   5   -0.02    0.18
  -1  14   5    0.11    0.19
   0  14   5    0.18    0.19
   0  14   5   -0.01    0.16
   0  14   5    0.19    0.24
   1  14   5    0.14    0.21
   1  14   5    0.18    0.20
   2  14   5    1.06    0.26
   2  10  -6    4.41    0.55
   2  10  -6    3.56    0.42
   1  10  -6    3.36    0.43
   1  10  -6    2.91    0.39
   1  10  -6    3.41    0.38
   0  10  -6    3.19    0.43
   0  10  -6    2.64    0.32
  -1  10  -6    2.25    0.32
   4   9  -6    0.06    0.19
   3   9  -6    7.62    0.51
   2   9  -6    6.05    0.51
   2   9  -6    5.19    0.43
   2   9  -6    5.81    0.47
   1   9  -6    1.78    0.28
   1   9  -6    2.13    0.33
   1   9  -6    2.05    0.31
   0   9  -6    4.88    0.44
   0   9  -6    5.31    0.44
   0   9  -6    4.70    0.42
  -1   9  -6    0.81    0.23
  -1   9  -6    0.67    0.27
  -1   9  -6    0.72    0.22
  -2   9  -6    0.51    0.20
  -2   9  -6    0.31    0.20
  -3   9  -6   -0.02    0.17
  -3   9  -6   -0.03    0.17
   4   8  -6    3.48    0.35
   3   8  -6    0.04    0.16
   3   8  -6    0.02    0.18
   2   8  -6    9.40    0.50
   2   8  -6    9.68    0.50
   2   8  -6   10.12    0.54
   1   8  -6    3.34    0.35
   1   8  -6    3.64    0.35
   1   8  -6    3.33    0.34
   0   8  -6    1.07    0.23
   0   8  -6    0.86    0.22
   0   8  -6    0.81    0.23
  -1   8  -6    0.57    0.23
  -1   8  -6    0.81    0.21
  -1   8  -6    0.83    0.21
  -2   8  -6    0.61    0.20
  -2   8  -6    0.69    0.19
  -2   8  -6    0.58    0.25
  -3   8  -6    0.58    0.20
  -3   8  -6    1.16    0.23
   5   7  -6    0.96    0.27
   4   7  -6    3.48    0.39
   4   7  -6    3.57    0.34
   3   7  -6    2.35    0.29
   3   7  -6    2.59    0.31
   2   7  -6    1.11    0.21
   2   7  -6    1.26    0.22
   2   7  -6    1.11    0.23
   1   7  -6    8.19    0.46
   1   7  -6    7.67    0.43
   1   7  -6    7.99    0.43
   0   7  -6    1.29    0.24
   0   7  -6    1.01    0.20
   0   7  -6    0.82    0.18
  -1   7  -6    1.47    0.27
  -1   7  -6    1.59    0.23
  -1   7  -6    1.61    0.23
  -2   7  -6    0.21    0.16
  -2   7  -6    0.12    0.15
  -2   7  -6    0.42    0.22
  -3   7  -6    0.55    0.18
  -3   7  -6    0.45    0.17
  -4   7  -6    4.62    0.37
  -4   7  -6    5.30    0.38
   5   6  -6    1.59    0.30
   4   6  -6   -0.11    0.15
   4   6  -6    0.09    0.14
   3   6  -6    0.24    0.13
   3   6  -6    0.15    0.14
   2   6  -6    0.59    0.16
   2   6  -6    0.31    0.15
   2   6  -6    0.59    0.17
   1   6  -6    1.20    0.20
   1   6  -6    1.11    0.18
   1   6  -6    1.19    0.19
   0   6  -6    3.14    0.28
   0   6  -6    3.63    0.31
   0   6  -6    3.69    0.32
  -1   6  -6    3.22    0.33
  -1   6  -6    3.69    0.30
  -1   6  -6    3.65    0.29
  -2   6  -6    0.24    0.14
  -2   6  -6    0.37    0.15
  -3   6  -6    5.69    0.36
  -3   6  -6    5.60    0.35
  -4   6  -6    1.17    0.20
  -4   6  -6    1.00    0.19
  -5   6  -6    0.22    0.14
   6   5  -6   -0.07    0.19
   5   5  -6    3.10    0.38
   4   5  -6    0.18    0.16
   4   5  -6    0.26    0.13
   3   5  -6    2.13    0.21
   3   5  -6    2.39    0.24
   3   5  -6    1.50    0.38
   3   5  -6    2.51    0.24
   2   5  -6    0.17    0.11
   2   5  -6   -0.01    0.18
   2   5  -6    0.13    0.10
   2   5  -6   -0.02    0.12
   1   5  -6   22.59    0.68
   1   5  -6   23.49    0.70
   1   5  -6   22.50    0.68
   0   5  -6    0.31    0.15
   0   5  -6    0.61    0.17
   0   5  -6    0.19    0.15
  -1   5  -6    0.78    0.16
  -1   5  -6    0.76    0.17
  -2   5  -6   17.90    0.58
  -2   5  -6   17.87    0.58
  -3   5  -6   -0.08    0.11
  -3   5  -6    0.04    0.12
  -4   5  -6    0.84    0.17
  -4   5  -6    0.81    0.17
  -5   5  -6    0.34    0.13
   6   4  -6    2.95    0.40
   6   4  -6    1.96    0.32
   5   4  -6    0.09    0.20
   5   4  -6    0.15    0.19
   4   4  -6   -0.02    0.11
   4   4  -6    0.28    0.14
   4   4  -6    0.06    0.20
   3   4  -6   15.69    0.48
   3   4  -6   15.93    0.52
   3   4  -6   16.86    0.56
   2   4  -6    0.89    0.16
   2   4  -6    1.36    0.20
   2   4  -6    1.41    0.17
   1   4  -6    2.38    0.22
   1   4  -6    2.32    0.16
   1   4  -6    2.29    0.22
   1   4  -6    1.96    0.21
   0   4  -6   46.90    1.08
   0   4  -6   47.74    1.10
  -1   4  -6   20.78    0.61
  -1   4  -6   20.13    0.59
  -2   4  -6    0.44    0.14
  -2   4  -6    0.69    0.15
   2  -4   6    0.53    0.16
  -3   4  -6   13.07    0.45
  -3   4  -6   13.58    0.47
   3  -4   6   13.38    0.43
  -4   4  -6    0.16    0.12
  -4   4  -6    0.27    0.13
  -5   4  -6    1.70    0.19
  -6   4  -6    0.14    0.11
   6   3  -6    0.31    0.20
   6   3  -6    0.23    0.17
   5   3  -6    1.10    0.24
   4   3  -6    7.23    0.33
   4   3  -6    6.33    0.41
   3   3  -6   -0.17    0.10
   3   3  -6   -0.07    0.12
   2   3  -6    2.51    0.24
   2   3  -6    2.11    0.21
   2   3  -6    2.41    0.17
   1   3  -6  124.13    2.31
   1   3  -6  130.47    2.42
   1   3  -6  128.43    2.46
   1   3  -6  128.86    2.45
   0   3  -6   35.43    0.86
   0   3  -6   35.29    0.85
  -1   3  -6   10.16    0.38
  -1   3  -6   10.59    0.38
   1  -3   6   10.38    0.39
  -2   3  -6  101.07    1.92
  -2   3  -6   97.50    1.90
   2  -3   6   98.00    1.90
   2  -3   6   96.74    1.80
  -3   3  -6    8.71    0.35
  -3   3  -6    8.77    0.33
   3  -3   6    8.51    0.30
  -4   3  -6   12.72    0.40
  -4   3  -6   13.26    0.42
  -5   3  -6    0.36    0.11
  -6   3  -6    0.05    0.08
   7   2  -6   -0.18    0.14
   6   2  -6   12.10    0.65
   5   2  -6    1.06    0.22
   4   2  -6    0.85    0.19
   4   2  -6    0.93    0.14
   3   2  -6   41.70    0.93
   3   2  -6   42.34    0.96
   3   2  -6   43.27    1.07
   2   2  -6    7.65    0.31
   2   2  -6    8.01    0.33
   2   2  -6    7.66    0.25
   1   2  -6    9.79    0.37
   1   2  -6    8.86    0.26
   1   2  -6    9.27    0.36
   0   2  -6   32.39    0.76
   0   2  -6   32.17    0.76
   0   2  -6   31.18    0.77
  -1   2  -6   58.48    1.22
  -1   2  -6   59.11    1.22
   1  -2   6   60.49    1.25
   1  -2   6   59.32    1.22
  -2   2  -6    1.58    0.15
  -2   2  -6    1.39    0.15
   2  -2   6    1.81    0.15
  -3   2  -6   15.04    0.42
  -3   2  -6   15.71    0.44
   3  -2   6   15.27    0.39
  -4   2  -6    0.18    0.08
  -4   2  -6    0.33    0.09
  -5   2  -6    0.04    0.11
  -5   2  -6    0.09    0.08
  -6   2  -6    3.33    0.19
   7   1  -6    0.66    0.22
  -7  -1   6    0.46    0.19
   6   1  -6    0.08    0.16
  -6  -1   6    0.05    0.14
   5   1  -6    3.26    0.32
  -5  -1   6    3.30    0.27
   4   1  -6    4.13    0.22
   4   1  -6    4.26    0.33
  -4  -1   6    3.93    0.27
   3   1  -6   15.35    0.42
   3   1  -6   15.27    0.54
   3   1  -6   14.65    0.45
   2   1  -6   42.38    0.81
   2   1  -6   41.70    0.93
   2   1  -6   42.29    0.92
   1   1  -6   12.55    0.40
   1   1  -6   12.50    0.39
   0   1  -6   66.35    1.32
   0   1  -6   66.15    1.33
   0   1  -6   66.76    1.29
   0  -1   6   64.54    1.35
   0  -1   6   66.87    1.31
  -1   1  -6    1.43    0.14
  -1   1  -6    1.40    0.13
   1  -1   6    1.20    0.16
   1  -1   6    1.17    0.11
  -2   1  -6   18.31    0.47
  -2   1  -6   17.45    0.45
   2  -1   6   18.25    0.45
  -3   1  -6   13.00    0.38
  -3   1  -6   13.87    0.38
   3  -1   6   14.06    0.33
  -4   1  -6   -0.04    0.06
  -4   1  -6    0.01    0.06
  -5   1  -6    0.13    0.07
  -5   1  -6    0.10    0.08
  -6   1  -6    0.18    0.08
   7   0  -6   -0.06    0.12
  -7   0   6    0.34    0.16
   6   0  -6    3.85    0.43
  -6   0   6    4.36    0.33
   5   0  -6    0.13    0.14
  -5   0   6    0.19    0.12
   4   0  -6   24.15    0.76
   4   0  -6   22.79    0.55
   4   0  -6   23.07    0.59
  -4   0   6   23.62    0.66
   3   0  -6    0.05    0.09
   3   0  -6    0.01    0.05
   3   0  -6    0.00    0.06
  -3   0   6    0.14    0.08
   2   0  -6    1.55    0.14
   2   0  -6    1.12    0.13
   1   0  -6    0.07    0.06
   1   0  -6   -0.02    0.04
   1   0  -6    0.06    0.05
  -1   0   6    0.01    0.04
  -1   0   6    0.20    0.07
   0   0  -6  108.60    2.03
   0   0  -6  109.69    2.13
   0   0  -6  106.75    2.02
   0   0  -6  108.69    2.03
   0   0   6  108.33    2.02
   0   0   6  107.64    2.00
  -1   0  -6   13.06    0.37
  -1   0  -6   12.56    0.36
   1   0   6   12.97    0.42
  -2   0  -6   32.05    0.70
  -2   0  -6   32.68    0.71
   2   0   6   32.88    0.68
   2   0   6   32.86    0.84
  -3   0  -6   77.20    1.46
  -3   0  -6   78.07    1.49
  -3   0  -6   76.24    1.47
   3   0   6   77.48    1.70
  -4   0  -6    1.79    0.14
  -4   0  -6    1.75    0.15
  -4   0  -6    1.60    0.13
  -5   0  -6    1.50    0.13
  -5   0  -6    1.27    0.12
  -6   0  -6    8.28    0.28
  -7   0  -6    1.17    0.13
   7  -1  -6    6.96    0.40
  -7   1   6    6.06    0.42
   6  -1  -6    0.29    0.18
   6  -1  -6    0.04    0.11
  -6   1   6    0.05    0.13
   5  -1  -6    6.12    0.41
  -5   1   6    5.95    0.34
   4  -1  -6   18.08    0.43
   4  -1  -6   18.56    0.43
   4  -1  -6   19.45    0.66
  -4   1   6   15.81    0.59
  -4   1   6   18.80    0.58
   3  -1  -6   44.61    0.88
   3  -1  -6   44.67    0.93
   3  -1  -6   42.44    0.90
   3  -1  -6   45.79    1.07
  -3   1   6   43.98    1.00
  -3   1   6   45.39    0.95
  -3   1   6   42.97    0.96
   2  -1  -6   54.38    1.12
   2  -1  -6   55.53    1.10
   2  -1  -6   55.69    1.18
   2  -1  -6   54.25    1.10
  -2   1   6   54.51    1.11
  -2   1   6   54.77    1.15
   1  -1  -6    0.31    0.07
   0  -1  -6  129.32    2.34
   0  -1  -6  128.40    2.34
   0  -1  -6  126.37    2.33
   0  -1  -6  125.98    2.44
   0  -1  -6  129.74    2.36
   0   1   6  127.56    2.32
   0   1   6  127.40    2.34
  -1  -1  -6  247.98    4.38
  -1  -1  -6  248.25    4.46
  -1  -1  -6  244.39    4.37
  -1  -1  -6  251.54    4.37
   1   1   6  244.77    4.44
  -2  -1  -6    3.01    0.16
  -2  -1  -6    3.11    0.17
  -2  -1  -6    3.17    0.16
   2   1   6    3.52    0.24
   2   1   6    3.15    0.21
  -3  -1  -6   21.72    0.53
  -3  -1  -6   22.00    0.52
   3   1   6   21.86    0.60
   3   1   6   21.93    0.70
  -4  -1  -6    2.56    0.16
  -4  -1  -6    2.16    0.15
   4   1   6    2.33    0.19
   4   1   6    2.11    0.27
  -5  -1  -6   21.37    0.51
  -6  -1  -6    2.73    0.18
  -7  -1  -6    0.20    0.09
   7  -2  -6    0.08    0.12
  -7   2   6    0.13    0.17
   6  -2  -6    3.77    0.42
   6  -2  -6    3.62    0.29
  -6   2   6    3.92    0.33
   5  -2  -6    3.56    0.35
   5  -2  -6    2.59    0.26
  -5   2   6    3.10    0.28
   4  -2  -6    2.87    0.27
   4  -2  -6    2.72    0.12
   4  -2  -6    2.57    0.12
   4  -2  -6    2.70    0.24
  -4   2   6    2.60    0.24
  -4   2   6    2.32    0.21
   3  -2  -6   16.90    0.56
   3  -2  -6   18.16    0.57
   3  -2  -6   16.97    0.43
   3  -2  -6   17.32    0.44
  -3   2   6   18.02    0.47
  -3   2   6   18.07    0.47
  -3   2   6   17.72    0.53
  -3   2   6   17.56    0.49
   2  -2  -6    3.17    0.17
   2  -2  -6    3.66    0.24
   2  -2  -6    3.52    0.17
   2  -2  -6    3.82    0.22
   2  -2  -6    3.30    0.18
  -2   2   6    3.43    0.20
  -2   2   6    3.61    0.19
  -2   2   6    3.43    0.21
  -2   2   6    3.59    0.18
   1  -2  -6   42.26    0.89
   1  -2  -6   41.95    0.88
   1  -2  -6   41.48    0.96
   1  -2  -6   41.87    0.87
   1  -2  -6   41.12    0.86
   1  -2  -6   41.61    0.88
  -1   2   6   41.90    0.89
  -1   2   6   41.76    0.86
  -1   2   6   41.14    0.89
   0  -2  -6  490.77    8.48
   0  -2  -6  488.92    8.47
   0  -2  -6  489.82    8.58
   0  -2  -6  479.32    8.46
   0  -2  -6  489.39    8.47
   0   2   6  493.27    8.49
  -1  -2  -6    4.57    0.21
  -1  -2  -6    6.49    0.28
  -1  -2  -6    4.91    0.23
  -1  -2  -6    6.17    0.22
  -1  -2  -6    5.43    0.22
   1   2   6    5.62    0.27
  -2  -2  -6  114.57    2.14
  -2  -2  -6  116.77    2.15
  -2  -2  -6  117.14    2.15
   2   2   6  117.91    2.25
   2   2   6  114.86    2.26
  -3  -2  -6   89.93    1.73
  -3  -2  -6   91.17    1.72
  -3  -2  -6   91.82    1.73
   3   2   6   93.09    1.92
   3   2   6   91.58    1.83
  -4  -2  -6   17.15    0.43
  -4  -2  -6   17.36    0.45
  -4  -2  -6   16.88    0.44
   4   2   6   16.81    0.52
   4   2   6   16.43    0.63
  -5  -2  -6    0.66    0.10
   5   2   6    0.55    0.20
   5   2   6    0.83    0.13
  -6  -2  -6    4.71    0.22
   6   2   6    4.33    0.26
  -7  -2  -6    0.55    0.11
   7  -3  -6    1.77    0.23
  -7   3   6    1.65    0.27
   6  -3  -6    1.13    0.18
  -6   3   6    1.14    0.22
   5  -3  -6   36.17    1.06
   5  -3  -6   33.88    0.91
  -5   3   6   35.96    0.85
  -5   3   6   34.75    0.84
  -5   3   6   35.00    0.96
   4  -3  -6    1.76    0.21
   4  -3  -6    1.85    0.24
  -4   3   6    1.66    0.11
  -4   3   6    1.74    0.17
  -4   3   6    1.59    0.15
  -4   3   6    1.57    0.21
  -4   3   6    1.59    0.16
   3  -3  -6   50.08    1.14
   3  -3  -6   49.24    0.99
   3  -3  -6   49.05    0.99
   3  -3  -6   50.36    1.16
  -3   3   6   51.25    1.02
  -3   3   6   50.26    1.06
  -3   3   6   49.20    1.06
  -3   3   6   49.47    1.12
  -3   3   6   49.87    1.02
   2  -3  -6  156.30    2.85
   2  -3  -6  155.20    2.90
   2  -3  -6  134.49    2.72
   2  -3  -6  156.30    2.76
   2  -3  -6  154.59    2.70
   2  -3  -6  149.86    2.77
  -2   3   6  154.96    2.76
  -2   3   6  156.00    2.80
  -2   3   6  157.02    2.76
  -2   3   6  151.36    2.84
  -2   3   6  152.79    2.81
   1  -3  -6   17.94    0.45
   1  -3  -6   18.18    0.46
   1  -3  -6   17.87    0.44
   1  -3  -6   17.98    0.53
   1  -3  -6   17.60    0.45
   1  -3  -6   18.07    0.47
   1  -3  -6   18.15    0.46
  -1   3   6   17.42    0.52
  -1   3   6   17.83    0.47
  -1   3   6   17.97    0.48
  -1   3   6   18.71    0.48
   0  -3  -6   27.87    0.63
   0  -3  -6   27.44    0.64
   0  -3  -6   27.74    0.62
   0  -3  -6   27.83    0.72
   0  -3  -6   27.95    0.63
   0   3   6   28.17    0.65
   0   3   6   28.36    0.62
   0   3   6   27.98    0.65
  -1  -3  -6  152.82    2.74
  -1  -3  -6  151.44    2.79
  -1  -3  -6  155.24    2.91
  -1  -3  -6  155.93    2.80
   1   3   6  157.10    2.80
   1   3   6  152.09    2.90
  -2  -3  -6   31.39    0.64
  -2  -3  -6   32.51    0.71
  -2  -3  -6   31.49    0.70
  -2  -3  -6   31.57    0.71
   2   3   6   31.08    0.78
   2   3   6   30.97    0.79
   2   3   6   31.38    0.68
  -3  -3  -6    5.87    0.23
  -3  -3  -6    5.87    0.24
  -3  -3  -6    5.25    0.23
  -3  -3  -6    5.73    0.25
   3   3   6    5.39    0.33
   3   3   6    5.57    0.29
  -4  -3  -6    0.59    0.10
  -4  -3  -6    0.52    0.10
  -4  -3  -6    0.42    0.09
   4   3   6    0.47    0.13
   4   3   6    0.57    0.17
  -5  -3  -6    0.05    0.07
   5   3   6    0.10    0.09
   5   3   6   -0.29    0.10
  -6  -3  -6    6.95    0.29
   6   3   6    6.85    0.34
   6   3   6    7.33    0.50
  -7  -3  -6    5.59    0.28
   7   3   6    5.66    0.31
   7  -4  -6    0.13    0.12
  -7   4   6    0.03    0.16
   6  -4  -6    0.26    0.13
  -6   4   6    0.28    0.12
  -6   4   6    0.21    0.16
   5  -4  -6    1.52    0.20
  -5   4   6    1.69    0.19
  -5   4   6    1.90    0.25
  -5   4   6    1.65    0.18
   4  -4  -6    2.56    0.28
   4  -4  -6    2.83    0.24
  -4   4   6    2.60    0.18
  -4   4   6    2.37    0.16
  -4   4   6    2.09    0.19
  -4   4   6    2.40    0.19
  -4   4   6    2.62    0.24
   3  -4  -6    9.21    0.28
   3  -4  -6    9.68    0.41
   3  -4  -6    9.62    0.40
   3  -4  -6    9.20    0.28
  -3   4   6    9.09    0.38
  -3   4   6    8.75    0.33
  -3   4   6   10.13    0.31
  -3   4   6    9.69    0.31
  -3   4   6    9.82    0.34
  -3   4   6    9.56    0.30
   2  -4  -6   12.80    0.37
   2  -4  -6   12.71    0.35
   2  -4  -6   12.82    0.45
   2  -4  -6   12.93    0.36
   2  -4  -6   12.88    0.42
  -2   4   6   12.82    0.42
  -2   4   6   13.00    0.40
  -2   4   6   12.58    0.36
  -2   4   6   12.43    0.39
  -2   4   6   13.02    0.40
   1  -4  -6    0.56    0.09
   1  -4  -6    0.52    0.10
   1  -4  -6    0.65    0.14
   1  -4  -6    0.44    0.07
   1  -4  -6    0.40    0.08
   1  -4  -6    0.36    0.08
   1  -4  -6    0.56    0.10
  -1   4   6    0.47    0.09
  -1   4   6    0.49    0.09
  -1   4   6    0.43    0.10
  -1   4   6    0.42    0.09
   0  -4  -6   79.17    1.65
   0  -4  -6   79.67    1.51
   0  -4  -6   78.33    1.43
   0  -4  -6   76.17    1.51
   0  -4  -6   81.09    1.55
   0   4   6   79.87    1.55
   0   4   6   79.79    1.51
   0   4   6   77.74    1.63
   0   4   6   81.06    1.55
  -1  -4  -6   21.47    0.62
  -1  -4  -6   20.46    0.52
  -1  -4  -6   20.82    0.47
  -1  -4  -6   21.98    0.54
   1   4   6   20.93    0.53
   1   4   6   20.91    0.53
   1   4   6   20.67    0.61
  -2  -4  -6    5.46    0.23
  -2  -4  -6    5.33    0.18
  -2  -4  -6    5.27    0.23
  -2  -4  -6    5.18    0.16
  -2  -4  -6    5.39    0.23
   2   4   6    5.35    0.21
   2   4   6    5.49    0.28
   2   4   6    5.34    0.22
   2   4   6    5.83    0.30
  -3  -4  -6    9.82    0.24
  -3  -4  -6    9.87    0.34
  -3  -4  -6   11.50    0.34
  -3  -4  -6    9.75    0.34
  -3  -4  -6   10.01    0.32
   3   4   6   10.60    0.43
   3   4   6   10.97    0.29
   3   4   6    9.83    0.30
   3   4   6   11.73    0.44
  -4  -4  -6    4.39    0.22
  -4  -4  -6    4.38    0.23
   4   4   6    4.89    0.35
   4   4   6    4.42    0.29
  -5  -4  -6    2.74    0.19
   5   4   6    2.88    0.31
   5   4   6    2.77    0.25
  -6  -4  -6    3.49    0.23
   6   4   6    3.14    0.28
   6   4   6    3.67    0.39
  -7  -4  -6    1.26    0.17
   7   4   6    1.11    0.19
   6  -5  -6    0.01    0.10
  -6   5   6   -0.01    0.13
  -6   5   6    0.02    0.10
   5  -5  -6   19.15    0.64
  -5   5   6   19.98    0.69
  -5   5   6   18.92    0.55
  -5   5   6   18.95    0.57
   4  -5  -6    0.08    0.10
  -4   5   6    0.16    0.10
  -4   5   6    0.07    0.10
  -4   5   6    0.13    0.09
  -4   5   6    0.17    0.13
   3  -5  -6   14.97    0.39
   3  -5  -6   15.63    0.54
   3  -5  -6   15.40    0.39
  -3   5   6   16.33    0.45
  -3   5   6   15.48    0.42
  -3   5   6   14.93    0.46
  -3   5   6   15.81    0.53
  -3   5   6   15.28    0.47
   2  -5  -6   26.76    0.58
   2  -5  -6   26.27    0.62
   2  -5  -6   26.21    0.61
   2  -5  -6   27.17    0.65
   2  -5  -6   26.67    0.75
  -2   5   6   26.83    0.67
  -2   5   6   26.49    0.66
  -2   5   6   26.73    0.62
  -2   5   6   27.07    0.66
  -2   5   6   26.81    0.70
  -2   5   6   26.37    0.66
   1  -5  -6   39.91    0.85
   1  -5  -6   38.42    0.89
   1  -5  -6   41.04    1.00
   1  -5  -6   39.83    0.84
   1  -5  -6   40.99    0.89
  -1   5   6   40.98    0.89
  -1   5   6   39.10    0.82
  -1   5   6   38.33    0.95
  -1   5   6   39.73    0.89
  -1   5   6   39.35    0.88
   0  -5  -6    4.31    0.27
   0  -5  -6    4.47    0.24
   0  -5  -6    4.18    0.19
   0  -5  -6    4.53    0.20
   0   5   6    4.35    0.22
   0   5   6    4.78    0.23
   0   5   6    4.53    0.20
   0   5   6    4.47    0.27
  -1  -5  -6   34.95    0.72
  -1  -5  -6   35.98    0.92
  -1  -5  -6   34.91    0.78
   1   5   6   35.37    0.71
   1   5   6   35.15    0.80
   1   5   6   35.47    0.91
   1   5   6   35.20    0.80
  -2  -5  -6    3.05    0.11
  -2  -5  -6    2.82    0.18
   2   5   6    3.08    0.17
   2   5   6    3.10    0.25
   2   5   6    2.97    0.17
   2   5   6    3.06    0.19
  -3  -5  -6   25.12    0.57
  -3  -5  -6   25.69    0.65
  -3  -5  -6   24.28    0.61
   3   5   6   26.00    0.73
   3   5   6   25.41    0.75
   3   5   6   24.85    0.58
   3   5   6   25.39    0.60
  -4  -5  -6   30.95    0.73
  -4  -5  -6   30.31    0.74
   4   5   6   31.16    0.87
   4   5   6   29.97    0.65
   4   5   6   30.81    0.88
  -5  -5  -6    3.66    0.23
   5   5   6    3.88    0.35
   5   5   6    3.79    0.30
  -6  -5  -6    7.04    0.34
   6   5   6    7.04    0.41
   6   5   6    7.12    0.50
  -7  -5  -6    1.46    0.19
   7   5   6    2.00    0.35
   7   5   6    1.22    0.21
   6  -6  -6    1.77    0.24
  -6   6   6    1.55    0.27
  -6   6   6    1.95    0.22
   5  -6  -6    0.97    0.18
  -5   6   6    0.89    0.15
  -5   6   6    1.05    0.17
  -5   6   6    1.31    0.23
   4  -6  -6   31.16    0.89
  -4   6   6   31.84    0.79
  -4   6   6   31.34    0.90
  -4   6   6   32.61    0.81
  -4   6   6   32.19    0.79
   3  -6  -6   37.16    0.78
   3  -6  -6   38.79    0.78
   3  -6  -6   36.98    0.99
  -3   6   6   37.63    0.88
  -3   6   6   39.01    0.96
  -3   6   6   35.74    0.87
  -3   6   6   38.28    0.89
   2  -6  -6    2.03    0.13
   2  -6  -6    1.93    0.21
   2  -6  -6    1.95    0.18
   2  -6  -6    1.93    0.15
  -2   6   6    1.95    0.19
  -2   6   6    2.05    0.19
  -2   6   6    2.01    0.16
  -2   6   6    1.67    0.18
  -2   6   6    1.98    0.18
  -2   6   6    1.75    0.17
   1  -6  -6    0.71    0.12
   1  -6  -6    0.59    0.09
   1  -6  -6    0.88    0.17
   1  -6  -6    0.64    0.10
  -1   6   6    0.85    0.12
  -1   6   6    0.91    0.16
  -1   6   6    0.76    0.13
  -1   6   6    0.74    0.12
  -1   6   6    0.75    0.09
   0  -6  -6    8.72    0.41
   0  -6  -6    9.41    0.31
   0  -6  -6    8.61    0.36
   0   6   6    8.73    0.34
   0   6   6    9.24    0.40
   0   6   6    9.42    0.30
   0   6   6    8.57    0.33
  -1  -6  -6    8.88    0.42
  -1  -6  -6    8.85    0.32
  -1  -6  -6    8.61    0.38
   1   6   6    8.73    0.34
   1   6   6    8.81    0.34
   1   6   6    8.52    0.25
   1   6   6    9.17    0.34
   1   6   6    9.39    0.42
  -2  -6  -6   20.91    0.55
   2   6   6   20.58    0.55
   2   6   6   21.63    0.57
   2   6   6   20.53    0.67
   2   6   6   20.51    0.55
  -3  -6  -6   22.33    0.59
   3   6   6   22.40    0.58
   3   6   6   22.68    0.73
   3   6   6   22.89    0.58
   3   6   6   22.51    0.55
   3   6   6   22.91    0.69
  -4  -6  -6    2.38    0.21
   4   6   6    2.34    0.19
   4   6   6    1.95    0.24
   4   6   6    2.26    0.26
   4   6   6    2.12    0.17
  -5  -6  -6    7.74    0.34
   5   6   6    8.16    0.47
   5   6   6    8.08    0.44
  -6  -6  -6    4.36    0.30
   6   6   6    4.69    0.43
   6   6   6    4.76    0.37
  -7  -6  -6    0.28    0.14
   7   6   6    0.16    0.22
   7   6   6    0.23    0.16
   6  -7  -6    2.04    0.27
  -6   7   6    2.42    0.25
  -6   7   6    1.81    0.29
   5  -7  -6    0.02    0.12
  -5   7   6    0.17    0.17
  -5   7   6    0.11    0.11
  -5   7   6    0.11    0.11
   4  -7  -6   13.92    0.57
  -4   7   6   14.35    0.48
  -4   7   6   13.98    0.49
  -4   7   6   14.63    0.58
  -4   7   6   14.05    0.51
   3  -7  -6    0.41    0.08
   3  -7  -6    0.31    0.08
   3  -7  -6    0.38    0.15
  -3   7   6    0.25    0.12
  -3   7   6    0.10    0.15
  -3   7   6    0.29    0.14
  -3   7   6    0.25    0.12
   2  -7  -6    0.01    0.09
   2  -7  -6    0.12    0.07
   2  -7  -6    0.06    0.10
   2  -7  -6    0.08    0.05
  -2   7   6   -0.03    0.07
  -2   7   6    0.03    0.11
  -2   7   6   -0.03    0.10
  -2   7   6    0.01    0.08
  -2   7   6    0.07    0.09
   1  -7  -6    2.39    0.16
   1  -7  -6    2.35    0.26
   1  -7  -6    2.28    0.21
  -1   7   6    2.29    0.15
  -1   7   6    2.80    0.21
  -1   7   6    2.27    0.20
  -1   7   6    2.31    0.21
  -1   7   6    2.51    0.23
   0  -7  -6    7.51    0.35
   0  -7  -6    7.99    0.30
   0  -7  -6    7.74    0.41
   0   7   6    7.13    0.20
   0   7   6    7.69    0.38
   0   7   6    7.70    0.33
   0   7   6    7.59    0.28
   0   7   6    7.59    0.33
  -1  -7  -6   64.27    1.55
  -1  -7  -6   67.20    1.37
   1   7   6   66.30    1.27
   1   7   6   64.83    1.41
   1   7   6   67.44    1.40
   1   7   6   68.15    1.40
   2   7   6    0.14    0.09
   2   7   6    0.09    0.07
   2   7   6    0.12    0.09
  -3  -7  -6    8.83    0.36
   3   7   6    9.07    0.36
   3   7   6    8.13    0.32
   3   7   6    8.41    0.46
   3   7   6    8.47    0.35
  -4  -7  -6   39.97    0.96
   4   7   6   40.99    0.92
   4   7   6   40.97    1.09
   4   7   6   39.61    1.12
   4   7   6   40.87    0.95
  -5  -7  -6   -0.22    0.08
   5   7   6   -0.11    0.11
   5   7   6   -0.11    0.13
  -6  -7  -6   -0.03    0.12
   6   7   6    0.05    0.15
   6   7   6   -0.08    0.17
   6  -8  -6    0.05    0.12
  -6   8   6    0.02    0.12
   5  -8  -6    3.27    0.32
  -5   8   6    3.69    0.37
  -5   8   6    3.41    0.27
  -5   8   6    3.37    0.29
   4  -8  -6    9.22    0.48
  -4   8   6    9.81    0.46
  -4   8   6    9.68    0.49
  -4   8   6    9.37    0.41
  -4   8   6    9.94    0.41
   3  -8  -6    1.76    0.14
   3  -8  -6    1.36    0.21
  -3   8   6    0.86    0.18
  -3   8   6    1.11    0.17
  -3   8   6    1.56    0.19
  -3   8   6    1.13    0.21
   2  -8  -6   51.16    1.09
   2  -8  -6   50.75    1.33
  -2   8   6   52.78    1.20
  -2   8   6   53.67    1.22
  -2   8   6   53.43    1.25
  -2   8   6   53.02    1.18
   1  -8  -6    9.23    0.32
  -1   8   6    9.07    0.42
  -1   8   6    8.92    0.37
  -1   8   6    8.99    0.38
  -1   8   6    9.31    0.39
  -1   8   6    8.51    0.30
   0  -8  -6    0.76    0.12
   0  -8  -6    0.95    0.21
   0   8   6    0.80    0.08
   0   8   6    0.78    0.15
   0   8   6    0.67    0.13
   0   8   6    0.64    0.16
   0   8   6    0.61    0.12
   0   8   6    0.61    0.15
  -1  -8  -6   30.69    0.76
  -1  -8  -6   28.53    0.92
   1   8   6   30.09    0.66
   1   8   6   30.31    0.79
   1   8   6   29.82    0.79
   1   8   6   29.24    0.80
  -2  -8  -6    3.76    0.25
   2   8   6    3.45    0.27
   2   8   6    3.51    0.33
   2   8   6    2.87    0.13
   2   8   6    3.47    0.27
   2   8   6    3.66    0.25
   3   8   6    0.89    0.15
   3   8   6    1.18    0.18
  -4  -8  -6    0.35    0.13
   4   8   6    0.11    0.15
   4   8   6    0.22    0.13
   4   8   6    0.35    0.16
   4   8   6    0.32    0.11
  -5  -8  -6   -0.05    0.11
   5   8   6   -0.07    0.12
   5   8   6   -0.28    0.10
  -6  -8  -6    0.81    0.18
   6   8   6    0.91    0.23
   6   8   6    0.86    0.26
   5  -9  -6    2.01    0.30
  -5   9   6    2.10    0.25
  -5   9   6    2.02    0.32
  -5   9   6    2.20    0.30
  -5   9   6    2.13    0.23
   4  -9  -6    3.26    0.33
  -4   9   6    3.60    0.29
  -4   9   6    2.65    0.32
  -4   9   6    3.13    0.29
  -4   9   6    2.94    0.32
   3  -9  -6    8.09    0.48
  -3   9   6    7.68    0.39
  -3   9   6    8.93    0.45
  -3   9   6    7.95    0.38
  -3   9   6    8.67    0.45
  -3   9   6    7.95    0.43
   2  -9  -6    3.67    0.22
   2  -9  -6    4.00    0.35
  -2   9   6    2.80    0.26
  -2   9   6    4.00    0.32
  -2   9   6    2.63    0.26
  -2   9   6    3.16    0.28
  -2   9   6    2.37    0.28
   1  -9  -6   12.08    0.39
   1  -9  -6   11.04    0.55
  -1   9   6   12.29    0.52
  -1   9   6   11.90    0.48
  -1   9   6   11.18    0.38
  -1   9   6   12.90    0.47
  -1   9   6   12.67    0.53
  -1   9   6   12.65    0.48
   0  -9  -6    0.06    0.10
   0  -9  -6    0.13    0.09
   0   9   6   -0.04    0.08
   0   9   6   -0.07    0.12
   0   9   6    0.00    0.10
   0   9   6    0.04    0.11
   0   9   6    0.08    0.06
   0   9   6   -0.04    0.11
  -1  -9  -6   12.54    0.45
   1   9   6   12.68    0.38
   1   9   6   12.12    0.47
   1   9   6   12.40    0.48
   1   9   6   11.76    0.49
  -2  -9  -6   11.45    0.45
   2   9   6   11.99    0.48
   2   9   6   11.76    0.61
   2   9   6   12.03    0.46
   2   9   6   11.89    0.49
   2   9   6   11.47    0.30
  -3  -9  -6    0.11    0.11
   3   9   6    0.05    0.12
   3   9   6   -0.10    0.10
   3   9   6    0.08    0.16
  -4  -9  -6    1.06    0.18
   4   9   6    0.66    0.17
   4   9   6    0.52    0.13
   4   9   6    0.61    0.18
   4   9   6    1.23    0.24
  -5  -9  -6   -0.15    0.12
   5   9   6   -0.08    0.15
   5   9   6   -0.17    0.12
  -6  -9  -6    0.06    0.14
   6   9   6   -0.09    0.18
   6   9   6    0.16    0.19
   5 -10  -6    1.15    0.25
  -5  10   6    1.56    0.23
  -5  10   6    1.36    0.22
  -5  10   6    1.72    0.30
   4 -10  -6    7.31    0.49
  -4  10   6    7.36    0.48
  -4  10   6    7.28    0.47
  -4  10   6    7.58    0.42
  -4  10   6    6.81    0.39
  -4  10   6    7.23    0.47
   3 -10  -6    1.77    0.27
  -3  10   6    2.89    0.33
  -3  10   6    2.49    0.27
  -3  10   6    2.48    0.29
  -3  10   6    2.93    0.34
  -3  10   6    2.02    0.24
   2 -10  -6    1.49    0.23
   2 -10  -6    2.40    0.20
  -2  10   6    2.97    0.32
  -2  10   6    2.68    0.28
  -2  10   6    2.62    0.32
  -2  10   6    2.12    0.24
  -2  10   6    2.25    0.25
   1 -10  -6    0.06    0.12
  -1  10   6    0.04    0.12
  -1  10   6    0.09    0.13
  -1  10   6   -0.01    0.14
  -1  10   6    0.69    0.17
  -1  10   6    0.00    0.13
   0 -10  -6    3.19    0.25
   0  10   6    3.39    0.30
   0  10   6    3.22    0.30
   0  10   6    2.95    0.24
   0  10   6    3.35    0.34
   0  10   6    3.35    0.32
  -1 -10  -6    0.24    0.12
   1  10   6    0.36    0.16
   1  10   6    0.10    0.09
   1  10   6    0.17    0.12
   1  10   6    0.26    0.14
  -2 -10  -6    0.05    0.11
   2  10   6    0.11    0.06
   2  10   6    0.14    0.14
   2  10   6   -0.05    0.09
   2  10   6   -0.05    0.11
  -3 -10  -6    0.85    0.18
   3  10   6    1.38    0.23
   3  10   6    1.08    0.19
  -4 -10  -6    0.08    0.14
   4  10   6    0.25    0.14
   4  10   6    0.26    0.17
  -5 -10  -6    0.00    0.15
   5  10   6   -0.25    0.15
   4 -11  -6    0.51    0.19
  -4  11   6    0.46    0.18
  -4  11   6    0.51    0.23
  -4  11   6    0.39    0.17
  -4  11   6    0.49    0.20
  -4  11   6    0.49    0.24
  -3  11   6    0.17    0.16
  -3  11   6    0.13    0.18
  -3  11   6    0.27    0.17
  -3  11   6    0.21    0.17
  -3  11   6    0.43    0.16
  -2  11   6   -0.01    0.14
  -2  11   6    0.11    0.18
  -2  11   6    0.07    0.14
  -2  11   6    0.07    0.15
  -2  11   6    0.02    0.15
  -1  11   6    0.69    0.22
  -1  11   6    0.85    0.20
  -1  11   6    0.68    0.18
  -1  11   6    0.75    0.18
  -1  11   6    0.60    0.20
   0  11   6    1.71    0.24
   0  11   6    1.72    0.25
   0  11   6    2.23    0.30
   0  11   6    1.71    0.28
   0  11   6    1.56    0.20
  -1 -11  -6    1.80    0.22
   1  11   6    1.57    0.26
   1  11   6    1.46    0.22
   1  11   6    1.33    0.21
   1  11   6    1.23    0.16
  -2 -11  -6    0.57    0.16
   2  11   6    0.94    0.21
   2  11   6    0.71    0.18
   2  11   6    0.74    0.17
  -3 -11  -6   -0.02    0.14
   3  11   6    0.14    0.17
   3  11   6    0.20    0.15
  -4 -11  -6    1.09    0.23
   4  11   6    0.90    0.19
   4  11   6    1.13    0.23
  -5 -11  -6    0.43    0.19
   5  11   6    0.37    0.20
  -3  12   6   -0.03    0.16
  -3  12   6   -0.03    0.18
  -3  12   6   -0.02    0.21
  -3  12   6    0.09    0.15
  -3  12   6    0.20    0.18
  -2  12   6    3.99    0.42
  -2  12   6    3.58    0.35
  -2  12   6    3.75    0.42
  -2  12   6    3.78    0.37
  -2  12   6    3.92    0.37
  -1  12   6    0.18    0.18
  -1  12   6    0.26    0.17
  -1  12   6    0.09    0.20
  -1  12   6    0.31    0.18
  -1  12   6    0.13    0.15
   0  12   6   -0.08    0.16
   0  12   6    0.20    0.16
   0  12   6   -0.03    0.12
   0  12   6    0.08    0.16
   0  12   6    0.12    0.18
  -1 -12  -6    4.76    0.37
   1  12   6    4.91    0.40
   1  12   6    4.66    0.37
   1  12   6    4.25    0.27
   1  12   6    4.27    0.39
  -2 -12  -6    4.23    0.33
   2  12   6    3.23    0.32
   2  12   6    3.17    0.50
   2  12   6    4.17    0.39
  -3 -12  -6    0.73    0.19
   3  12   6    0.88    0.23
   3  12   6    0.70    0.21
  -4 -12  -6    1.19    0.24
   4  12   6    1.73    0.30
   4  12   6    1.26    0.23
  -3  13   6    1.93    0.31
  -3  13   6    1.38    0.44
  -3  13   6    1.86    0.29
  -2  13   6    1.17    0.24
  -2  13   6    0.89    0.23
  -2  13   6    0.95    0.23
  -1  13   6    4.90    0.49
  -1  13   6    4.66    0.43
  -1  13   6    6.01    0.44
  -1  13   6    5.37    0.39
  -1  13   6    5.82    0.46
   0  13   6    1.67    0.24
   0  13   6    1.87    0.28
   0  13   6    1.24    0.24
   0  13   6    1.73    0.31
   0  13   6    1.96    0.35
   1  13   6    0.75    0.24
   1  13   6    0.90    0.22
   1  13   6    0.57    0.21
  -2 -13  -6    0.73    0.20
   2  13   6    1.00    0.27
   2  13   6    0.89    0.22
  -3 -13  -6    0.38    0.18
   3  13   6   -0.11    0.15
   3  13   6    0.11    0.18
  -4 -13  -6   -0.09    0.16
   4  13   6    0.23    0.17
   4  13   6   -0.06    0.18
  -1  14   6    0.69    0.23
  -1  14   6    0.32    0.19
   0  14   6    6.34    0.49
   0  14   6    4.20    0.58
   0  14   6    5.09    0.53
   1  14   6    0.04    0.19
   1  14   6   -0.08    0.16
   2  14   6    0.61    0.23
   3   9  -7    0.72    0.24
   2   9  -7    7.95    0.52
   2   9  -7    6.25    0.49
   1   9  -7    0.42    0.22
   1   9  -7    0.56    0.24
   1   9  -7    0.47    0.21
   0   9  -7    2.81    0.38
   0   9  -7    2.46    0.31
   0   9  -7    2.97    0.36
  -1   9  -7    1.08    0.24
  -1   9  -7    0.90    0.24
  -2   9  -7    1.44    0.27
  -2   9  -7    1.72    0.34
   4   8  -7    0.03    0.18
   3   8  -7    0.35    0.20
   2   8  -7    0.86    0.22
   2   8  -7    0.72    0.23
   2   8  -7    0.65    0.21
   1   8  -7    5.46    0.47
   1   8  -7    5.57    0.43
   1   8  -7    4.71    0.43
   0   8  -7    0.95    0.23
   0   8  -7    0.95    0.24
   0   8  -7    1.29    0.29
  -1   8  -7    5.72    0.43
  -1   8  -7    4.80    0.47
  -1   8  -7    4.67    0.43
  -2   8  -7    0.51    0.21
  -2   8  -7    0.24    0.19
  -3   8  -7    0.49    0.21
  -3   8  -7    0.99    0.25
   4   7  -7    2.84    0.32
   4   7  -7    2.88    0.39
   3   7  -7    0.02    0.18
   2   7  -7    2.90    0.32
   2   7  -7    2.54    0.30
   2   7  -7    2.84    0.32
   1   7  -7    0.82    0.21
   1   7  -7    0.57    0.19
   1   7  -7    0.61    0.21
   0   7  -7    9.76    0.52
   0   7  -7    9.72    0.51
   0   7  -7   10.28    0.51
  -1   7  -7    3.07    0.37
  -1   7  -7    2.34    0.29
  -1   7  -7    1.97    0.27
  -2   7  -7    0.58    0.19
  -2   7  -7    0.72    0.20
  -2   7  -7    1.21    0.29
  -3   7  -7    3.87    0.37
  -3   7  -7    4.04    0.37
  -4   7  -7    0.47    0.19
  -4   7  -7    0.91    0.22
   5   6  -7    0.10    0.19
   4   6  -7    0.59    0.23
   4   6  -7    0.88    0.20
   3   6  -7    8.67    0.44
   3   6  -7    8.20    0.47
   2   6  -7    0.23    0.18
   2   6  -7    0.30    0.17
   2   6  -7    0.41    0.15
   1   6  -7    2.23    0.26
   1   6  -7    2.01    0.26
   1   6  -7    1.88    0.25
   0   6  -7    1.77    0.24
   0   6  -7    1.99    0.27
   0   6  -7    1.51    0.22
  -1   6  -7    4.41    0.35
  -1   6  -7    5.36    0.36
  -1   6  -7    4.79    0.40
  -2   6  -7    0.87    0.18
  -2   6  -7    0.35    0.16
  -3   6  -7    0.20    0.14
  -3   6  -7    0.09    0.13
  -4   6  -7    4.94    0.36
  -4   6  -7    4.97    0.37
   5   5  -7    2.20    0.36
   4   5  -7    8.54    0.52
   4   5  -7    9.66    0.45
   3   5  -7    1.47    0.22
   3   5  -7    1.56    0.20
   2   5  -7   12.77    0.50
   2   5  -7   13.80    0.54
   2   5  -7   12.94    0.48
   1   5  -7    0.05    0.11
   1   5  -7   -0.18    0.09
   1   5  -7   -0.05    0.12
   0   5  -7    2.83    0.27
   0   5  -7    3.13    0.29
   0   5  -7    3.08    0.29
  -1   5  -7    4.70    0.32
  -1   5  -7    5.10    0.33
  -2   5  -7    3.43    0.29
  -2   5  -7    3.23    0.28
  -3   5  -7    0.00    0.12
  -3   5  -7    0.00    0.13
  -4   5  -7    1.95    0.23
  -4   5  -7    2.58    0.26
  -5   5  -7    0.18    0.14
   5   4  -7   -0.14    0.16
   4   4  -7    0.08    0.12
   4   4  -7   -0.15    0.12
   3   4  -7    0.09    0.12
   3   4  -7    0.03    0.08
   3   4  -7    0.03    0.12
   2   4  -7    5.03    0.34
   2   4  -7    4.74    0.26
   2   4  -7    4.90    0.31
   1   4  -7   10.70    0.46
   1   4  -7   10.32    0.36
   1   4  -7   11.04    0.45
   1   4  -7   10.57    0.42
   0   4  -7   70.82    1.53
   0   4  -7   70.22    1.53
  -1   4  -7    2.43    0.24
  -1   4  -7    2.29    0.23
  -2   4  -7    0.80    0.17
  -2   4  -7    0.71    0.16
  -3   4  -7    9.95    0.41
  -3   4  -7    9.99    0.42
  -4   4  -7   -0.05    0.12
  -4   4  -7   -0.09    0.11
  -5   4  -7    0.11    0.12
   6   3  -7    1.26    0.29
   6   3  -7    1.32    0.33
   5   3  -7    0.32    0.18
   4   3  -7    1.90    0.27
   4   3  -7    1.96    0.22
   3   3  -7    5.67    0.34
   3   3  -7    5.71    0.31
   2   3  -7   79.18    1.57
   2   3  -7   79.31    1.66
   2   3  -7   80.90    1.68
   1   3  -7    9.34    0.39
   1   3  -7    9.44    0.37
   1   3  -7    9.49    0.41
   1   3  -7    9.26    0.29
   0   3  -7    1.77    0.20
   0   3  -7    1.88    0.20
  -1   3  -7   25.67    0.70
  -1   3  -7   26.62    0.72
  -2   3  -7   47.32    1.07
  -2   3  -7   48.64    1.09
   2  -3   7   46.40    1.05
  -3   3  -7   18.98    0.56
  -3   3  -7   19.59    0.58
   3  -3   7   18.56    0.59
  -4   3  -7   17.90    0.54
  -4   3  -7   18.15    0.55
  -5   3  -7    7.33    0.32
  -6   3  -7    0.36    0.11
   6   2  -7    0.71    0.24
   5   2  -7    2.25    0.31
   4   2  -7    8.84    0.37
   4   2  -7    9.76    0.49
   3   2  -7   93.11    1.86
   3   2  -7   95.44    2.02
   3   2  -7   95.22    1.91
   2   2  -7    3.63    0.18
   2   2  -7    3.74    0.27
   2   2  -7    3.69    0.25
   1   2  -7   22.03    0.62
   1   2  -7   22.12    0.63
   0   2  -7  193.63    3.59
   0   2  -7  196.53    3.59
  -1   2  -7    5.66    0.28
  -1   2  -7    5.50    0.28
   1  -2   7    5.40    0.29
  -2   2  -7    2.85    0.21
  -2   2  -7    2.74    0.23
   2  -2   7    2.60    0.21
  -3   2  -7   23.52    0.62
  -3   2  -7   23.37    0.61
   3  -2   7   23.23    0.56
  -4   2  -7   -0.10    0.08
  -4   2  -7    0.01    0.08
  -5   2  -7    0.19    0.18
  -5   2  -7    0.22    0.09
  -6   2  -7    0.40    0.10
   6   1  -7    0.05    0.19
   5   1  -7   10.00    0.53
   4   1  -7    1.80    0.25
   4   1  -7    2.10    0.20
   3   1  -7    3.44    0.22
   3   1  -7    3.47    0.25
   3   1  -7    3.77    0.29
   2   1  -7    2.26    0.12
   2   1  -7    2.76    0.22
   2   1  -7    2.35    0.19
   1   1  -7  116.59    2.21
   1   1  -7  113.82    2.22
   0   1  -7   45.01    1.00
   0   1  -7   44.84    0.99
  -1   1  -7   27.33    0.67
  -1   1  -7   26.68    0.66
  -2   1  -7   74.77    1.48
  -2   1  -7   74.35    1.48
   2  -1   7   74.70    1.46
  -3   1  -7   10.55    0.35
  -3   1  -7   10.82    0.36
   3  -1   7   10.03    0.29
  -4   1  -7   -0.05    0.06
  -4   1  -7    0.07    0.07
  -5   1  -7   11.93    0.39
  -5   1  -7   11.71    0.37
  -6   1  -7    0.36    0.10
   7   0  -7   -0.16    0.13
  -7   0   7   -0.13    0.14
   6   0  -7    1.32    0.29
  -6   0   7    1.30    0.23
   5   0  -7    0.79    0.21
  -5   0   7    1.03    0.19
   4   0  -7   14.67    0.58
   4   0  -7   13.51    0.42
  -4   0   7   13.68    0.50
   3   0  -7   61.15    1.23
   3   0  -7   60.83    1.27
   3   0  -7   61.08    1.39
  -3   0   7   60.50    1.32
   2   0  -7    8.22    0.32
   2   0  -7    8.05    0.31
  -2   0   7    7.76    0.21
   1   0  -7   36.68    0.83
   1   0  -7   36.42    0.84
  -1   0   7   36.59    0.76
   0   0  -7   40.86    0.91
   0   0  -7   41.75    0.92
   0   0  -7   42.93    1.02
   0   0   7   41.40    0.91
  -1   0  -7    6.42    0.26
  -1   0  -7    6.05    0.26
  -1   0  -7    6.52    0.30
   1   0   7    6.75    0.31
  -2   0  -7   11.53    0.37
  -2   0  -7   11.83    0.36
  -2   0  -7   11.55    0.37
   2   0   7   12.02    0.47
   2   0   7   11.76    0.35
  -3   0  -7   61.81    1.23
  -3   0  -7   58.90    1.23
  -3   0  -7   60.74    1.22
   3   0   7   60.96    1.44
   3   0   7   61.88    1.12
  -4   0  -7    7.99    0.29
  -4   0  -7    8.06    0.29
  -5   0  -7    2.71    0.19
  -5   0  -7    2.57    0.18
  -6   0  -7    6.40    0.27
   7  -1  -7    3.69    0.35
  -7   1   7    3.65    0.37
   6  -1  -7    0.27    0.15
   6  -1  -7    0.07    0.17
  -6   1   7    0.26    0.16
   5  -1  -7    0.17    0.13
   5  -1  -7    0.23    0.16
  -5   1   7    0.07    0.11
   4  -1  -7    0.49    0.10
   4  -1  -7    0.39    0.15
  -4   1   7    0.35    0.13
   3  -1  -7    0.23    0.08
   3  -1  -7    0.29    0.07
   3  -1  -7    0.21    0.11
  -3   1   7    0.17    0.10
   2  -1  -7   18.17    0.49
   2  -1  -7   18.14    0.50
   2  -1  -7   17.47    0.54
  -2   1   7   18.26    0.53
   1  -1  -7    1.03    0.15
   1  -1  -7    1.26    0.14
  -1   1   7    1.64    0.11
   0  -1  -7   65.56    1.32
   0  -1  -7   66.98    1.32
   0  -1  -7   64.01    1.31
   0  -1  -7   67.47    1.42
   0   1   7   65.08    1.31
  -1  -1  -7  288.41    5.07
  -1  -1  -7  280.91    5.06
  -1  -1  -7  288.49    5.06
   1   1   7  286.18    5.13
  -2  -1  -7    1.97    0.16
  -2  -1  -7    1.72    0.14
  -2  -1  -7    2.11    0.16
   2   1   7    2.16    0.22
  -3  -1  -7   70.50    1.37
  -3  -1  -7   69.21    1.38
  -3  -1  -7   68.69    1.37
   3   1   7   69.83    1.58
  -4  -1  -7   13.19    0.39
  -4  -1  -7   13.29    0.39
   4   1   7   13.74    0.59
  -5  -1  -7    5.85    0.26
  -5  -1  -7    6.57    0.27
  -6  -1  -7    0.87    0.13
   7  -2  -7    0.03    0.13
  -7   2   7    0.21    0.18
   6  -2  -7    0.31    0.19
   6  -2  -7    0.07    0.11
  -6   2   7    0.23    0.15
   5  -2  -7    4.10    0.37
   5  -2  -7    4.17    0.32
  -5   2   7    3.79    0.30
   4  -2  -7    0.25    0.06
   4  -2  -7    0.09    0.11
   4  -2  -7    0.09    0.06
   4  -2  -7    0.41    0.15
  -4   2   7    0.48    0.14
   3  -2  -7    2.59    0.22
   3  -2  -7    2.77    0.16
   3  -2  -7    2.51    0.18
   3  -2  -7    2.92    0.25
  -3   2   7    2.82    0.22
   2  -2  -7   25.19    0.61
   2  -2  -7   25.29    0.62
   2  -2  -7   25.72    0.67
   2  -2  -7   25.75    0.73
  -2   2   7   24.67    0.65
  -2   2   7   26.20    0.66
   1  -2  -7    2.38    0.16
   1  -2  -7    2.17    0.17
   1  -2  -7    2.29    0.21
  -1   2   7    2.56    0.18
  -1   2   7    2.30    0.17
   0  -2  -7   92.03    1.78
   0  -2  -7   88.41    1.70
   0  -2  -7   90.72    1.72
   0  -2  -7   89.86    1.71
   0  -2  -7   87.86    1.82
   0   2   7   88.32    1.71
  -1  -2  -7    3.33    0.21
  -1  -2  -7    3.89    0.18
  -1  -2  -7    4.30    0.25
  -1  -2  -7    3.44    0.20
  -1  -2  -7    3.73    0.20
   1   2   7    3.31    0.23
   1   2   7    3.98    0.26
  -2  -2  -7   13.90    0.40
  -2  -2  -7   13.17    0.39
  -2  -2  -7   12.93    0.38
  -2  -2  -7   13.66    0.40
   2   2   7   13.13    0.47
   2   2   7   13.48    0.48
  -3  -2  -7  265.53    4.68
  -3  -2  -7  264.62    4.68
  -3  -2  -7  258.48    4.66
   3   2   7  264.55    4.80
   3   2   7  260.58    4.87
  -4  -2  -7    1.58    0.15
  -4  -2  -7    1.59    0.15
   4   2   7    1.29    0.22
   4   2   7    1.64    0.19
  -5  -2  -7   18.82    0.52
   5   2   7   21.06    0.79
   5   2   7   20.28    0.61
  -6  -2  -7   10.78    0.37
  -7  -2  -7    1.97    0.19
   6  -3  -7    0.62    0.22
   6  -3  -7    0.47    0.15
  -6   3   7    0.83    0.21
   5  -3  -7    2.24    0.26
   5  -3  -7    2.77    0.33
  -5   3   7    2.18    0.27
   4  -3  -7    1.59    0.12
   4  -3  -7    1.41    0.20
   4  -3  -7    1.54    0.11
   4  -3  -7    1.44    0.22
  -4   3   7    1.82    0.22
  -4   3   7    1.64    0.18
  -4   3   7    1.63    0.18
   3  -3  -7   26.52    0.75
   3  -3  -7   25.46    0.55
   3  -3  -7   25.28    0.61
   3  -3  -7   25.49    0.74
  -3   3   7   25.80    0.63
  -3   3   7   25.98    0.71
  -3   3   7   24.61    0.66
  -3   3   7   25.36    0.66
   2  -3  -7  103.16    2.04
   2  -3  -7  103.00    1.89
   2  -3  -7  106.41    1.99
   2  -3  -7  105.65    2.13
   2  -3  -7  105.84    1.97
  -2   3   7  106.69    2.03
  -2   3   7  105.31    2.04
  -2   3   7  105.19    2.05
   1  -3  -7    2.95    0.17
   1  -3  -7    3.00    0.17
   1  -3  -7    2.82    0.18
   1  -3  -7    2.91    0.16
   1  -3  -7    2.73    0.22
  -1   3   7    2.66    0.19
  -1   3   7    3.04    0.19
  -1   3   7    3.17    0.19
   0  -3  -7  128.78    2.36
   0  -3  -7  125.91    2.36
   0  -3  -7  126.66    2.34
   0  -3  -7  127.26    2.49
   0   3   7  127.51    2.38
  -1  -3  -7  172.38    3.17
  -1  -3  -7  177.54    3.14
  -1  -3  -7  178.10    3.19
  -1  -3  -7  172.60    3.17
  -1  -3  -7  173.41    3.30
   1   3   7  174.49    3.24
   1   3   7  176.94    3.31
   1   3   7  177.43    3.19
  -2  -3  -7   18.62    0.50
  -2  -3  -7   18.87    0.44
  -2  -3  -7   17.70    0.48
  -2  -3  -7   18.43    0.49
   2   3   7   18.05    0.57
   2   3   7   17.77    0.56
  -3  -3  -7   10.27    0.35
  -3  -3  -7   10.49    0.35
  -3  -3  -7   10.62    0.35
   3   3   7   10.69    0.43
   3   3   7   10.13    0.47
  -4  -3  -7   33.39    0.76
  -4  -3  -7   32.97    0.77
   4   3   7   32.93    0.87
   4   3   7   33.99    0.97
  -5  -3  -7    2.11    0.18
   5   3   7    1.84    0.21
   5   3   7    1.92    0.29
  -6  -3  -7    0.21    0.10
   6   3   7    0.15    0.18
   6   3   7    0.19    0.11
  -7  -3  -7    1.25    0.16
   7   3   7    1.27    0.19
   6  -4  -7    0.60    0.16
  -6   4   7    0.94    0.22
   5  -4  -7    2.31    0.27
  -5   4   7    2.49    0.28
  -5   4   7    2.40    0.23
  -5   4   7    2.67    0.24
   4  -4  -7    1.31    0.21
   4  -4  -7    1.19    0.10
   4  -4  -7    1.26    0.19
  -4   4   7    1.18    0.16
  -4   4   7    1.14    0.19
  -4   4   7    1.20    0.17
   3  -4  -7    0.04    0.09
   3  -4  -7    0.04    0.10
   3  -4  -7    0.10    0.07
   3  -4  -7    0.08    0.07
  -3   4   7    0.13    0.10
  -3   4   7    0.12    0.08
  -3   4   7    0.02    0.08
  -3   4   7    0.15    0.07
   2  -4  -7    0.01    0.06
   2  -4  -7    0.01    0.09
   2  -4  -7    0.08    0.09
   2  -4  -7    0.13    0.06
   2  -4  -7   -0.01    0.07
  -2   4   7   -0.04    0.07
  -2   4   7    0.10    0.08
  -2   4   7    0.17    0.09
   1  -4  -7  111.65    2.28
   1  -4  -7  116.04    2.13
   1  -4  -7  112.93    2.15
   1  -4  -7  115.98    2.14
   1  -4  -7  116.39    2.15
  -1   4   7  115.50    2.19
  -1   4   7  115.46    2.18
  -1   4   7  114.69    2.18
  -1   4   7  113.18    2.28
   0  -4  -7    1.05    0.13
   0  -4  -7    1.26    0.18
   0  -4  -7    1.15    0.12
   0  -4  -7    1.09    0.09
   0  -4  -7    0.83    0.11
   0   4   7    0.93    0.12
   0   4   7    0.70    0.13
   0   4   7    1.03    0.12
   0   4   7    1.22    0.13
  -1  -4  -7   38.44    0.80
  -1  -4  -7   38.68    0.98
  -1  -4  -7   39.42    0.86
   1   4   7   39.61    0.98
   1   4   7   38.51    0.86
  -2  -4  -7   14.22    0.41
  -2  -4  -7   14.20    0.35
   2   4   7   15.07    0.52
   2   4   7   14.32    0.41
   2   4   7   14.48    0.49
  -3  -4  -7   58.87    1.23
  -3  -4  -7   58.71    1.20
  -3  -4  -7   58.55    1.11
  -3  -4  -7   60.10    1.22
   3   4   7   58.56    1.36
   3   4   7   58.54    1.12
   3   4   7   59.51    1.36
  -4  -4  -7   20.92    0.56
   4   4   7   22.71    0.75
   4   4   7   20.98    0.68
  -5  -4  -7   17.66    0.51
   5   4   7   19.31    0.73
   5   4   7   17.80    0.61
  -6  -4  -7    1.72    0.18
   6   4   7    2.11    0.25
   6   4   7    1.74    0.30
  -7  -4  -7    0.77    0.15
   7   4   7    0.60    0.16
   6  -5  -7    0.67    0.18
  -6   5   7    0.92    0.22
  -6   5   7    0.83    0.17
  -6   5   7    0.53    0.20
   5  -5  -7    2.09    0.26
  -5   5   7    2.29    0.23
  -5   5   7    2.43    0.29
  -5   5   7    2.22    0.23
   4  -5  -7    0.23    0.12
  -4   5   7    0.21    0.10
  -4   5   7    0.24    0.10
  -4   5   7    0.40    0.15
  -4   5   7    0.28    0.11
   3  -5  -7    1.21    0.19
   3  -5  -7    1.44    0.13
   3  -5  -7    1.58    0.20
  -3   5   7    1.30    0.16
  -3   5   7    1.76    0.16
  -3   5   7    1.08    0.15
  -3   5   7    1.72    0.21
   2  -5  -7   64.13    1.42
   2  -5  -7   76.49    1.53
   2  -5  -7   75.43    1.64
   2  -5  -7   76.10    1.46
   2  -5  -7   75.39    1.48
  -2   5   7   76.96    1.55
  -2   5   7   75.48    1.52
  -2   5   7   75.65    1.53
  -2   5   7   75.69    1.50
   1  -5  -7   10.68    0.45
   1  -5  -7   10.82    0.37
   1  -5  -7   11.56    0.35
   1  -5  -7   11.00    0.36
   1  -5  -7   11.13    0.34
  -1   5   7   11.28    0.38
  -1   5   7   10.74    0.43
  -1   5   7   10.64    0.38
  -1   5   7   11.47    0.39
   0  -5  -7   11.58    0.41
   0  -5  -7   11.65    0.36
   0  -5  -7   11.78    0.36
   0  -5  -7   11.91    0.28
   0  -5  -7   12.02    0.48
   0   5   7   11.47    0.45
   0   5   7   12.20    0.40
   0   5   7   11.90    0.40
   0   5   7   11.95    0.36
  -1  -5  -7   19.34    0.52
  -1  -5  -7   19.56    0.63
  -1  -5  -7   19.00    0.46
   1   5   7   19.04    0.62
   1   5   7   19.11    0.53
   1   5   7   19.09    0.53
  -2  -5  -7   -0.01    0.04
  -2  -5  -7    0.11    0.07
  -2  -5  -7    0.07    0.03
   2   5   7    0.00    0.06
   2   5   7    0.01    0.08
   2   5   7    0.01    0.06
   3   5   7    3.27    0.27
  -4  -5  -7   -0.01    0.08
  -4  -5  -7    0.06    0.07
   4   5   7   -0.08    0.09
   4   5   7    0.08    0.13
  -5  -5  -7    1.24    0.15
   5   5   7    0.98    0.23
   5   5   7    1.25    0.20
  -6  -5  -7    0.00    0.10
   6   5   7   -0.11    0.17
   6   5   7   -0.09    0.12
   7   5   7    4.52    0.35
   7   5   7    6.13    0.53
   6  -6  -7    1.41    0.23
  -6   6   7    1.00    0.19
  -6   6   7    0.99    0.24
   5  -6  -7    0.34    0.15
  -5   6   7    0.12    0.11
  -5   6   7    0.17    0.12
  -5   6   7    0.51    0.18
   4  -6  -7    2.98    0.29
  -4   6   7    3.08    0.31
  -4   6   7    2.86    0.23
  -4   6   7    2.89    0.24
  -4   6   7    2.65    0.24
   3  -6  -7   30.38    0.89
   3  -6  -7   31.17    0.70
  -3   6   7   32.12    0.78
  -3   6   7   31.25    0.85
  -3   6   7   29.97    0.79
  -3   6   7   31.64    0.79
   2  -6  -7   19.04    0.51
   2  -6  -7   18.85    0.55
   2  -6  -7   19.22    0.66
  -2   6   7   19.15    0.53
  -2   6   7   19.34    0.56
  -2   6   7   19.13    0.56
  -2   6   7   19.54    0.58
   1  -6  -7    5.05    0.27
   1  -6  -7    6.03    0.26
   1  -6  -7    6.37    0.36
   1  -6  -7    5.75    0.24
  -1   6   7    5.43    0.28
  -1   6   7    5.53    0.28
  -1   6   7    5.36    0.27
  -1   6   7    6.02    0.33
  -1   6   7    5.48    0.21
   0  -6  -7    0.32    0.11
   0  -6  -7    0.32    0.13
   0  -6  -7    0.14    0.07
   0  -6  -7    0.37    0.09
   0   6   7    0.30    0.10
   0   6   7    0.18    0.08
   0   6   7    0.32    0.12
   0   6   7    0.39    0.10
  -1  -6  -7   92.30    1.77
  -1  -6  -7   90.97    1.68
  -1  -6  -7   87.99    1.93
  -1  -6  -7   87.46    1.87
   1   6   7   90.07    1.78
   1   6   7   90.38    1.91
   1   6   7   89.56    1.78
   1   6   7   88.51    1.67
  -2  -6  -7    2.53    0.19
  -2  -6  -7    2.11    0.11
   2   6   7    2.56    0.25
   2   6   7    2.29    0.18
   2   6   7    2.33    0.20
   2   6   7    2.22    0.17
  -3  -6  -7   11.34    0.40
   3   6   7   12.20    0.50
   3   6   7   12.01    0.52
   3   6   7   11.64    0.38
   3   6   7   11.46    0.39
  -4  -6  -7    8.24    0.35
   4   6   7    8.18    0.45
   4   6   7    9.14    0.47
   4   6   7    8.97    0.31
   4   6   7    8.64    0.31
  -5  -6  -7    0.08    0.10
   5   6   7    0.05    0.14
   5   6   7    0.22    0.14
  -6  -6  -7    1.37    0.19
   6   6   7    1.34    0.28
   6   6   7    1.65    0.28
   6  -7  -7    0.07    0.13
  -6   7   7    0.19    0.21
  -6   7   7    0.15    0.14
   5  -7  -7   -0.15    0.10
  -5   7   7    0.01    0.11
  -5   7   7    0.03    0.15
  -5   7   7   -0.28    0.10
   4  -7  -7    2.42    0.28
  -4   7   7    2.54    0.24
  -4   7   7    1.73    0.25
  -4   7   7    2.16    0.22
  -4   7   7    2.39    0.24
   3  -7  -7   14.85    0.41
   3  -7  -7   14.83    0.60
  -3   7   7   15.46    0.57
  -3   7   7   14.74    0.51
  -3   7   7   14.50    0.50
  -3   7   7   15.30    0.51
   2  -7  -7    2.07    0.15
   2  -7  -7    2.31    0.21
   2  -7  -7    2.10    0.25
   2  -7  -7    2.02    0.18
  -2   7   7    2.15    0.21
  -2   7   7    2.16    0.22
  -2   7   7    2.02    0.22
  -2   7   7    1.74    0.19
  -2   7   7    2.20    0.22
   1  -7  -7   31.12    0.74
   1  -7  -7   31.28    0.76
   1  -7  -7   31.01    0.83
   1  -7  -7   32.73    0.94
  -1   7   7   34.24    0.82
  -1   7   7   32.20    0.82
  -1   7   7   33.87    0.80
  -1   7   7   31.85    0.70
   0  -7  -7    2.34    0.26
   0  -7  -7    2.83    0.20
   0   7   7    2.81    0.22
   0   7   7    2.42    0.18
   0   7   7    2.78    0.25
   0   7   7    2.35    0.21
  -1  -7  -7    0.19    0.09
  -1  -7  -7    0.42    0.15
   1   7   7    0.19    0.11
   1   7   7    0.20    0.11
   1   7   7    0.25    0.11
   1   7   7    0.55    0.09
   1   7   7    0.54    0.25
  -2  -7  -7    0.02    0.08
   2   7   7    0.00    0.07
   2   7   7    0.04    0.10
   2   7   7    0.17    0.09
   2   7   7   -0.09    0.08
  -3  -7  -7   17.09    0.52
   3   7   7   16.81    0.51
   3   7   7   16.79    0.51
   3   7   7   15.91    0.64
  -4  -7  -7    7.06    0.35
   4   7   7    7.46    0.45
   4   7   7    7.54    0.32
   4   7   7    6.81    0.31
   4   7   7    6.91    0.44
  -5  -7  -7    3.97    0.28
   5   7   7    4.19    0.39
   5   7   7    3.77    0.35
  -6  -7  -7    0.29    0.14
   6   7   7    0.15    0.15
   6   7   7   -0.14    0.19
   6  -8  -7    0.18    0.15
   5  -8  -7    0.83    0.21
  -5   8   7    1.28    0.25
  -5   8   7    0.83    0.17
  -5   8   7    0.98    0.19
   4  -8  -7    4.04    0.35
  -4   8   7    4.74    0.31
  -4   8   7    4.26    0.36
  -4   8   7    4.04    0.30
  -4   8   7    3.77    0.31
   3  -8  -7    0.02    0.07
   3  -8  -7   -0.05    0.10
  -3   8   7   -0.14    0.11
  -3   8   7    0.01    0.12
  -3   8   7   -0.04    0.09
  -3   8   7    0.01    0.11
   2  -8  -7   11.91    0.56
   2  -8  -7   11.17    0.39
  -2   8   7   12.68    0.47
  -2   8   7   11.67    0.47
  -2   8   7   12.01    0.49
  -2   8   7   11.98    0.46
   1  -8  -7   23.98    0.62
   1  -8  -7   24.31    0.82
  -1   8   7   24.63    0.69
  -1   8   7   25.43    0.70
  -1   8   7   25.28    0.67
  -1   8   7   23.27    0.57
   0  -8  -7    7.35    0.31
   0  -8  -7   10.27    0.59
   0   8   7    7.74    0.38
   0   8   7    7.45    0.35
   0   8   7    7.32    0.30
   0   8   7    7.10    0.40
   0   8   7    7.83    0.36
  -1  -8  -7    1.53    0.21
  -1  -8  -7    2.01    0.19
   1   8   7    2.13    0.15
   1   8   7    1.83    0.20
   1   8   7    2.20    0.22
   1   8   7    1.75    0.19
  -2  -8  -7  120.87    2.35
   2   8   7  120.63    2.57
   2   8   7  124.44    2.39
   2   8   7  118.69    2.38
   2   8   7  118.52    2.15
   2   8   7  123.94    2.38
  -3  -8  -7   36.99    0.91
   3   8   7   37.83    0.91
   3   8   7   36.55    0.92
   3   8   7   35.60    1.08
  -4  -8  -7   13.51    0.49
   4   8   7   13.20    0.45
   4   8   7   12.81    0.61
   4   8   7   12.56    0.58
   4   8   7   11.96    0.46
  -5  -8  -7    0.19    0.13
   5   8   7    0.47    0.19
   5   8   7    0.16    0.18
  -6  -8  -7    3.46    0.32
   6   8   7    3.80    0.38
   6   8   7    3.45    0.42
   5  -9  -7    0.55    0.21
  -5   9   7    0.61    0.22
  -5   9   7    0.46    0.16
  -5   9   7    0.53    0.15
   4  -9  -7    0.11    0.13
  -4   9   7    0.35    0.14
  -4   9   7    0.27    0.15
  -4   9   7    0.14    0.17
  -4   9   7    0.07    0.16
   3  -9  -7    8.18    0.48
  -3   9   7    8.14    0.45
  -3   9   7    9.13    0.41
  -3   9   7    8.45    0.42
  -3   9   7    7.92    0.43
   2  -9  -7    3.32    0.22
   2  -9  -7    3.07    0.32
  -2   9   7    3.13    0.32
  -2   9   7    3.84    0.29
  -2   9   7    3.87    0.30
  -2   9   7    3.79    0.29
   1  -9  -7   15.50    0.66
   1  -9  -7   16.24    0.47
  -1   9   7   15.88    0.52
  -1   9   7   15.72    0.59
  -1   9   7   15.50    0.60
  -1   9   7   16.17    0.55
  -1   9   7   15.83    0.56
  -1   9   7   13.60    0.46
   0  -9  -7   18.34    0.54
   0  -9  -7   17.54    0.72
   0   9   7   16.88    0.51
   0   9   7   18.08    0.63
   0   9   7   17.31    0.40
   0   9   7   18.76    0.60
   0   9   7   18.44    0.60
  -1  -9  -7    0.08    0.10
   1   9   7   -0.07    0.07
   1   9   7   -0.03    0.11
   1   9   7    0.02    0.11
   1   9   7   -0.11    0.08
   1   9   7    0.06    0.12
  -2  -9  -7   25.27    0.70
   2   9   7   24.10    0.75
   2   9   7   25.55    0.73
   2   9   7   24.63    0.53
   2   9   7   24.60    0.87
   2   9   7   26.28    0.73
  -3  -9  -7    1.38    0.19
   3   9   7    1.61    0.21
   3   9   7    1.44    0.22
   3   9   7    1.35    0.26
  -4  -9  -7    0.64    0.16
   4   9   7    0.47    0.16
   4   9   7    0.56    0.14
   4   9   7    1.01    0.23
   4   9   7    0.95    0.21
  -5  -9  -7    0.36    0.15
   5   9   7    0.56    0.21
   5   9   7    0.40    0.19
  -6  -9  -7    1.65    0.24
   6   9   7    1.48    0.45
   6   9   7    1.56    0.32
   5 -10  -7    0.19    0.16
  -5  10   7    0.06    0.14
  -5  10   7   -0.07    0.13
  -5  10   7   -0.11    0.21
   4 -10  -7    2.47    0.35
  -4  10   7    2.93    0.29
  -4  10   7    2.44    0.28
  -4  10   7    2.22    0.31
  -4  10   7    2.43    0.32
  -4  10   7    3.23    0.37
   3 -10  -7   -0.04    0.12
  -3  10   7    0.07    0.13
  -3  10   7    0.10    0.13
  -3  10   7    0.31    0.18
  -3  10   7    0.29    0.16
  -3  10   7    0.15    0.16
   2 -10  -7    2.55    0.21
   2 -10  -7    1.91    0.28
  -2  10   7    2.30    0.25
  -2  10   7    2.60    0.27
  -2  10   7    2.92    0.32
  -2  10   7    2.69    0.32
  -2  10   7    2.09    0.25
  -1  10   7   15.92    0.58
  -1  10   7   16.42    0.65
  -1  10   7   15.40    0.58
  -1  10   7   16.58    0.56
  -1  10   7   16.00    0.63
   0 -10  -7   25.76    0.70
   0  10   7   25.30    0.77
   0  10   7   26.03    0.82
   0  10   7   26.09    0.77
   0  10   7   24.85    0.68
  -1 -10  -7    4.73    0.30
   1  10   7    4.80    0.34
   1  10   7    5.15    0.34
   1  10   7    4.46    0.24
   1  10   7    5.39    0.37
  -2 -10  -7    0.99    0.17
   2  10   7    1.05    0.20
   2  10   7    1.38    0.20
   2  10   7    1.18    0.12
   2  10   7    1.24    0.20
  -3 -10  -7    0.16    0.14
   3  10   7    0.16    0.14
   3  10   7    0.09    0.13
  -4 -10  -7    2.77    0.29
   4  10   7    3.25    0.32
   4  10   7    2.72    0.26
   4  10   7    3.15    0.36
  -5 -10  -7    1.06    0.21
   5  10   7    0.79    0.24
  -4  11   7    2.46    0.28
  -4  11   7    1.86    0.30
  -4  11   7    2.57    0.35
  -4  11   7    2.26    0.29
  -4  11   7    1.94    0.31
  -3  11   7    0.85    0.20
  -3  11   7    0.96    0.24
  -3  11   7    1.05    0.21
  -3  11   7    1.07    0.25
  -3  11   7    1.05    0.26
   2 -11  -7    0.64    0.13
  -2  11   7    0.70    0.18
  -2  11   7    0.45    0.18
  -2  11   7    0.52    0.20
  -2  11   7    0.53    0.17
  -2  11   7    0.33    0.17
  -1  11   7    1.20    0.21
  -1  11   7    1.49    0.28
  -1  11   7    1.31    0.21
  -1  11   7    1.15    0.21
  -1  11   7    1.06    0.23
   0  11   7    0.65    0.16
   0  11   7    0.72    0.18
   0  11   7    0.69    0.19
   0  11   7    1.05    0.22
  -1 -11  -7    3.58    0.29
   1  11   7    3.31    0.35
   1  11   7    4.25    0.35
   1  11   7    3.31    0.22
   1  11   7    3.92    0.32
  -2 -11  -7    0.15    0.13
   2  11   7   -0.10    0.10
   2  11   7    0.02    0.13
   2  11   7   -0.13    0.13
  -3 -11  -7    0.32    0.16
   3  11   7    0.50    0.17
   3  11   7    0.40    0.19
  -4 -11  -7   -0.16    0.13
   4  11   7    0.05    0.14
   4  11   7    0.21    0.17
  -5 -11  -7    0.18    0.17
   5  11   7   -0.09    0.17
  -3  12   7    1.87    0.30
  -3  12   7    1.70    0.26
  -3  12   7    1.55    0.31
  -3  12   7    2.67    0.48
  -3  12   7    1.71    0.27
  -2  12   7    1.32    0.29
  -2  12   7    1.12    0.24
  -2  12   7    0.97    0.22
  -2  12   7    1.49    0.26
  -2  12   7    1.52    0.29
  -1  12   7    0.43    0.21
  -1  12   7    0.56    0.18
  -1  12   7    0.67    0.20
  -1  12   7    0.76    0.23
  -1  12   7    0.43    0.18
   0  12   7    2.94    0.35
   0  12   7    3.55    0.35
   0  12   7    2.66    0.26
   0  12   7    2.65    0.31
  -1 -12  -7   -0.09    0.12
   1  12   7    0.05    0.15
   1  12   7   -0.01    0.10
   1  12   7   -0.14    0.14
   1  12   7   -0.07    0.15
  -2 -12  -7    0.02    0.13
   2  12   7    0.15    0.17
   2  12   7    0.10    0.16
  -3 -12  -7    0.93    0.20
   3  12   7    1.02    0.24
   3  12   7    0.79    0.19
  -4 -12  -7    0.13    0.16
   4  12   7    0.11    0.18
   4  12   7   -0.10    0.13
  -3  13   7    0.60    0.38
  -2  13   7    0.21    0.20
  -2  13   7    0.50    0.20
  -2  13   7   -0.16    0.17
  -1  13   7    3.15    0.40
  -1  13   7    2.80    0.40
  -1  13   7    2.99    0.35
  -1  13   7    2.70    0.33
  -1  13   7    3.10    0.33
   0  13   7    1.46    0.26
   0  13   7    1.15    0.21
   0  13   7    1.27    0.25
   0  13   7    1.08    0.28
   1  13   7    0.24    0.20
   1  13   7    0.30    0.19
   1  13   7    0.29    0.18
  -2 -13  -7    4.48    0.37
   2  13   7    4.82    0.41
   2  13   7    4.62    0.43
  -3 -13  -7   -0.12    0.15
   3  13   7    0.01    0.18
   3  13   7    0.45    0.19
  -1  14   7   -0.04    0.15
  -1  14   7    0.03    0.19
   0  14   7    1.26    0.31
   0  14   7    1.90    0.32
   1  14   7    4.15    0.42
   1  14   7    3.02    0.37
   2  14   7    1.23    0.26
   1   9  -8    0.88    0.25
   1   9  -8    0.71    0.26
   0   9  -8    0.20    0.19
   3   8  -8    2.62    0.34
   2   8  -8   -0.06    0.18
   1   8  -8    0.04    0.18
   1   8  -8    0.23    0.20
   1   8  -8    0.32    0.18
   0   8  -8    0.75    0.26
   0   8  -8    1.23    0.27
   0   8  -8    0.92    0.24
  -1   8  -8    0.44    0.21
  -1   8  -8    0.38    0.21
  -2   8  -8    0.42    0.21
  -2   8  -8   -0.01    0.18
   4   7  -8    2.97    0.34
   3   7  -8    0.59    0.22
   2   7  -8   19.02    0.72
   2   7  -8   18.11    0.69
   2   7  -8   18.52    0.73
   1   7  -8    6.09    0.46
   1   7  -8    6.11    0.43
   1   7  -8    5.69    0.42
   0   7  -8    0.31    0.20
   0   7  -8   -0.03    0.19
   0   7  -8    0.44    0.20
  -1   7  -8    1.21    0.25
  -1   7  -8    1.16    0.28
  -1   7  -8    1.37    0.26
  -2   7  -8    3.34    0.34
  -2   7  -8    4.12    0.39
  -2   7  -8    3.92    0.53
  -3   7  -8   -0.09    0.17
  -3   7  -8   -0.17    0.17
   4   6  -8    0.14    0.18
   4   6  -8    0.25    0.22
   3   6  -8   17.40    0.68
   2   6  -8   13.43    0.55
   2   6  -8   13.91    0.62
   2   6  -8   14.13    0.60
   1   6  -8    9.59    0.50
   1   6  -8    8.95    0.47
   1   6  -8    9.58    0.51
   0   6  -8    9.61    0.51
   0   6  -8   10.34    0.53
   0   6  -8   10.52    0.52
  -1   6  -8    3.07    0.32
  -1   6  -8    3.36    0.34
  -1   6  -8    4.05    0.40
  -2   6  -8    0.99    0.22
  -2   6  -8    1.01    0.21
  -3   6  -8    0.18    0.17
  -3   6  -8    0.60    0.19
  -4   6  -8    0.73    0.20
  -4   6  -8    0.85    0.21
   5   5  -8    6.29    0.53
   4   5  -8    8.61    0.54
   4   5  -8    8.00    0.45
   3   5  -8    4.31    0.39
   2   5  -8   23.79    0.71
   2   5  -8   24.41    0.79
   2   5  -8   24.73    0.76
   1   5  -8   11.78    0.50
   1   5  -8   13.23    0.55
   1   5  -8   12.40    0.53
   0   5  -8    0.32    0.15
   0   5  -8    0.20    0.15
   0   5  -8    0.36    0.16
  -1   5  -8    2.68    0.28
  -1   5  -8    2.75    0.28
  -2   5  -8    0.06    0.13
  -2   5  -8    0.09    0.13
  -3   5  -8    0.32    0.16
  -3   5  -8    0.23    0.14
  -4   5  -8    0.10    0.15
  -4   5  -8    0.10    0.15
   5   4  -8    0.38    0.22
   4   4  -8    1.02    0.19
   4   4  -8    0.99    0.24
   3   4  -8    6.79    0.40
   2   4  -8    9.17    0.43
   2   4  -8    9.67    0.47
   2   4  -8    9.29    0.38
   1   4  -8    0.40    0.14
   1   4  -8    0.56    0.15
   1   4  -8    0.52    0.16
   0   4  -8    0.36    0.14
   0   4  -8    0.12    0.12
  -1   4  -8    0.83    0.17
  -1   4  -8    0.99    0.17
  -2   4  -8   -0.16    0.10
  -2   4  -8    0.14    0.12
  -3   4  -8    3.09    0.28
  -3   4  -8    3.94    0.31
  -4   4  -8    0.30    0.14
  -4   4  -8    0.22    0.14
  -5   4  -8    0.18    0.13
   5   3  -8    3.52    0.42
   4   3  -8    5.65    0.41
   4   3  -8    5.48    0.34
   3   3  -8    2.37    0.17
   3   3  -8    2.31    0.24
   2   3  -8    0.09    0.09
   2   3  -8    0.17    0.12
   2   3  -8   -0.09    0.12
   1   3  -8    0.20    0.14
   1   3  -8    0.22    0.13
   1   3  -8    0.42    0.14
   0   3  -8   10.07    0.43
   0   3  -8    9.69    0.43
  -1   3  -8   30.04    0.81
  -1   3  -8   28.93    0.79
  -2   3  -8   19.60    0.61
  -2   3  -8   20.26    0.63
  -3   3  -8    0.52    0.15
  -3   3  -8    0.57    0.15
  -4   3  -8    7.17    0.37
  -4   3  -8    6.48    0.34
  -5   3  -8    1.11    0.17
   6   2  -8    0.01    0.17
   5   2  -8    1.08    0.24
   4   2  -8   22.85    0.81
   4   2  -8   23.44    0.68
   3   2  -8   19.16    0.63
   3   2  -8   18.02    0.59
   2   2  -8   10.75    0.44
   2   2  -8    9.62    0.41
   2   2  -8   10.27    0.33
   1   2  -8   55.22    1.24
   1   2  -8   55.38    1.25
   0   2  -8   21.52    0.63
   0   2  -8   20.66    0.62
  -1   2  -8    1.86    0.20
  -1   2  -8    1.79    0.19
  -2   2  -8   12.83    0.45
  -2   2  -8   12.62    0.46
   2  -2   8   12.22    0.43
  -3   2  -8    0.06    0.11
  -3   2  -8    0.05    0.09
  -4   2  -8   10.34    0.41
  -4   2  -8    9.34    0.38
  -5   2  -8    0.07    0.09
  -6   2  -8    3.12    0.24
   6   1  -8    3.31    0.43
   5   1  -8    0.54    0.20
   4   1  -8    2.67    0.32
   4   1  -8    2.75    0.25
   3   1  -8    6.60    0.31
   3   1  -8    7.02    0.35
   3   1  -8    7.15    0.40
   2   1  -8   33.22    0.82
   2   1  -8   33.24    0.84
   2   1  -8   32.61    0.69
   1   1  -8    0.10    0.10
   1   1  -8    0.04    0.09
   0   1  -8    9.84    0.39
   0   1  -8   10.28    0.39
  -1   1  -8   27.84    0.71
  -1   1  -8   27.13    0.70
  -2   1  -8    8.03    0.34
  -2   1  -8    7.82    0.32
   2  -1   8    7.03    0.31
  -3   1  -8   31.56    0.75
  -3   1  -8   30.97    0.76
   3  -1   8   29.88    0.68
  -4   1  -8   16.76    0.50
  -4   1  -8   16.35    0.49
  -5   1  -8    3.02    0.22
  -5   1  -8    3.89    0.25
  -6   1  -8    0.24    0.10
   6   0  -8    1.54    0.31
  -6   0   8    1.68    0.26
   5   0  -8    0.15    0.16
  -5   0   8    0.04    0.13
   4   0  -8   27.84    0.71
   4   0  -8   28.09    0.88
  -4   0   8   28.17    0.79
   3   0  -8   37.91    0.90
   3   0  -8   37.53    0.87
   3   0  -8   37.90    1.00
   2   0  -8    4.16    0.15
   2   0  -8    4.24    0.25
   2   0  -8    4.66    0.27
  -2   0   8    4.16    0.16
   1   0  -8  134.79    2.54
   1   0  -8  133.57    2.53
  -1   0   8  130.72    2.43
   0   0  -8    0.47    0.10
   0   0  -8    0.37    0.10
   0   0  -8    0.41    0.12
   0   0   8    0.36    0.11
  -1   0  -8    0.00    0.07
  -1   0  -8    0.31    0.09
   1   0   8   -0.01    0.09
  -2   0  -8    3.22    0.21
  -2   0  -8    3.27    0.21
   2   0   8    2.82    0.20
   2   0   8    3.28    0.29
  -3   0  -8    3.33    0.21
  -3   0  -8    2.88    0.21
   3   0   8    2.78    0.30
   3   0   8    2.92    0.15
  -4   0  -8    6.35    0.28
  -4   0  -8    6.10    0.28
  -5   0  -8    7.75    0.32
  -5   0  -8    8.05    0.33
  -6   0  -8    0.70    0.12
   6  -1  -8   15.80    0.67
   6  -1  -8   16.03    0.76
  -6   1   8   17.63    0.67
   5  -1  -8    1.48    0.28
   5  -1  -8    1.52    0.23
  -5   1   8    1.59    0.23
   4  -1  -8    8.77    0.34
   4  -1  -8    8.56    0.46
   4  -1  -8    9.25    0.47
  -4   1   8    8.86    0.42
   3  -1  -8    0.29    0.09
   3  -1  -8    0.47    0.14
   3  -1  -8    0.19    0.09
   3  -1  -8    0.22    0.11
  -3   1   8    0.25    0.12
   2  -1  -8    0.35    0.11
   2  -1  -8    0.21    0.08
   2  -1  -8    0.29    0.12
   2  -1  -8    0.35    0.10
  -2   1   8    0.38    0.07
   1  -1  -8    3.66    0.28
   1  -1  -8    3.62    0.22
   1  -1  -8    3.63    0.23
  -1   1   8    3.39    0.18
   0  -1  -8   22.18    0.58
   0  -1  -8   22.61    0.68
   0  -1  -8   21.60    0.58
   0   1   8   22.06    0.58
  -1  -1  -8   -0.06    0.06
  -1  -1  -8   -0.01    0.06
   1   1   8   -0.01    0.08
  -2  -1  -8    7.38    0.29
  -2  -1  -8    7.18    0.29
   2   1   8    7.30    0.37
  -3  -1  -8    6.69    0.28
  -3  -1  -8    6.66    0.28
   3   1   8    6.21    0.40
   3   1   8    6.61    0.21
  -4  -1  -8   21.72    0.57
  -4  -1  -8   20.95    0.56
   4   1   8   22.18    0.79
  -5  -1  -8    0.96    0.14
  -5  -1  -8    0.89    0.14
  -6  -1  -8    0.07    0.09
   6  -2  -8    0.91    0.26
   6  -2  -8    0.59    0.19
  -6   2   8    0.57    0.19
   5  -2  -8    0.39    0.17
   5  -2  -8    0.51    0.17
  -5   2   8    0.20    0.15
   4  -2  -8   20.23    0.70
   4  -2  -8   20.59    0.72
   4  -2  -8   20.68    0.54
  -4   2   8   20.11    0.65
   3  -2  -8    3.43    0.19
   3  -2  -8    4.04    0.30
   3  -2  -8    3.41    0.22
   3  -2  -8    3.35    0.26
  -3   2   8    3.20    0.25
   2  -2  -8    0.67    0.11
   2  -2  -8    0.28    0.09
  -2   2   8    0.55    0.12
   1  -2  -8   17.65    0.50
   1  -2  -8   18.05    0.59
   1  -2  -8   17.20    0.50
   0  -2  -8    2.44    0.22
   0  -2  -8    2.24    0.19
   0  -2  -8    2.26    0.18
   0   2   8    2.65    0.18
  -1  -2  -8   25.93    0.62
  -1  -2  -8   23.32    0.63
  -1  -2  -8   24.03    0.61
   1   2   8   24.01    0.66
  -2  -2  -8   16.15    0.47
  -2  -2  -8   16.66    0.47
   2   2   8   16.36    0.56
   2   2   8   16.93    0.57
  -3  -2  -8   15.24    0.45
  -3  -2  -8   14.90    0.45
   3   2   8   15.49    0.54
   3   2   8   15.53    0.60
  -4  -2  -8   16.38    0.48
  -4  -2  -8   16.68    0.48
   4   2   8   16.85    0.67
   4   2   8   16.59    0.57
  -5  -2  -8   15.92    0.48
  -5  -2  -8   15.62    0.48
   5   2   8   17.89    0.75
  -6  -2  -8    0.40    0.12
   6  -3  -8    7.41    0.53
   6  -3  -8    8.17    0.46
  -6   3   8    7.82    0.47
   5  -3  -8    8.17    0.44
   5  -3  -8    8.61    0.51
  -5   3   8    8.04    0.44
   4  -3  -8    2.16    0.17
   4  -3  -8    2.06    0.26
   4  -3  -8    2.27    0.27
  -4   3   8    2.14    0.26
   3  -3  -8    6.01    0.27
   3  -3  -8    6.44    0.35
   3  -3  -8    6.30    0.28
   3  -3  -8    6.37    0.37
  -3   3   8    6.79    0.33
  -3   3   8    6.50    0.34
   2  -3  -8   23.76    0.72
   2  -3  -8   23.83    0.61
   2  -3  -8   22.10    0.50
   2  -3  -8   24.29    0.60
   2  -3  -8   23.62    0.64
  -2   3   8   23.40    0.65
  -2   3   8   24.27    0.64
   1  -3  -8   12.37    0.39
   1  -3  -8   11.43    0.47
   1  -3  -8   11.32    0.37
   1  -3  -8   11.80    0.38
  -1   3   8   12.32    0.41
  -1   3   8   12.21    0.40
   0  -3  -8   87.88    1.73
   0  -3  -8   88.51    1.73
   0  -3  -8   88.17    1.85
   0   3   8   88.65    1.75
  -1  -3  -8   19.40    0.61
  -1  -3  -8   19.41    0.49
  -1  -3  -8   19.89    0.53
  -1  -3  -8   19.70    0.53
   1   3   8   19.14    0.62
   1   3   8   19.70    0.57
  -2  -3  -8   62.18    1.28
  -2  -3  -8   61.59    1.28
  -2  -3  -8   61.77    1.22
   2   3   8   62.04    1.41
   2   3   8   63.63    1.40
  -3  -3  -8    0.19    0.09
   3   3   8    0.10    0.11
   3   3   8    0.05    0.14
  -4  -3  -8    0.32    0.10
   4   3   8    0.29    0.16
   4   3   8    0.49    0.13
  -5  -3  -8    0.48    0.12
   5   3   8    0.26    0.20
   5   3   8    0.59    0.15
  -6  -3  -8    2.30    0.22
   6   3   8    1.92    0.32
   6   3   8    2.11    0.24
   6  -4  -8    2.17    0.28
  -6   4   8    2.26    0.31
   5  -4  -8    9.23    0.46
   5  -4  -8    8.91    0.52
  -5   4   8    9.04    0.48
  -5   4   8    9.11    0.41
   4  -4  -8    2.02    0.15
   4  -4  -8    2.22    0.28
   4  -4  -8    2.10    0.27
  -4   4   8    2.29    0.23
  -4   4   8    2.30    0.23
  -4   4   8    2.26    0.25
   3  -4  -8   35.46    0.93
   3  -4  -8   35.43    0.80
   3  -4  -8   35.54    0.96
  -3   4   8   34.45    0.87
  -3   4   8   34.67    0.90
  -3   4   8   34.51    0.86
   2  -4  -8    0.00    0.07
   2  -4  -8    0.00    0.07
   2  -4  -8    0.00    0.06
   2  -4  -8    0.03    0.08
   2  -4  -8    0.05    0.06
  -2   4   8   -0.05    0.07
  -2   4   8    0.06    0.09
  -2   4   8    0.07    0.08
   1  -4  -8    0.75    0.12
   1  -4  -8    0.97    0.12
   1  -4  -8    0.83    0.16
   1  -4  -8    0.93    0.12
   1  -4  -8    1.16    0.14
  -1   4   8    1.12    0.15
  -1   4   8    0.76    0.16
  -1   4   8    0.92    0.13
  -1   4   8    0.95    0.14
   0  -4  -8   19.31    0.54
   0  -4  -8   19.03    0.63
   0  -4  -8   19.56    0.53
   0  -4  -8   19.97    0.52
   0  -4  -8   19.29    0.46
   0   4   8   20.21    0.56
   0   4   8   20.06    0.52
  -1  -4  -8    0.73    0.12
  -1  -4  -8    0.60    0.09
  -1  -4  -8    0.46    0.09
  -1  -4  -8    0.96    0.18
   1   4   8    0.61    0.11
   1   4   8    0.70    0.15
  -2  -4  -8   17.61    0.43
  -2  -4  -8   17.11    0.49
   2   4   8   17.10    0.59
   2   4   8   17.69    0.58
   2   4   8   17.53    0.49
  -3  -4  -8    0.19    0.08
  -3  -4  -8    0.20    0.07
  -3  -4  -8    0.24    0.09
   3   4   8    0.00    0.11
   3   4   8    0.19    0.07
   3   4   8    0.40    0.15
  -4  -4  -8    4.87    0.26
   4   4   8    4.60    0.36
   4   4   8    4.84    0.33
  -5  -4  -8    2.81    0.23
   5   4   8    2.91    0.36
   5   4   8    2.73    0.27
  -6  -4  -8    3.12    0.25
   6   4   8    3.25    0.30
   6   4   8    3.27    0.41
   6  -5  -8   -0.12    0.12
  -6   5   8    0.15    0.17
  -6   5   8    0.27    0.14
   5  -5  -8    0.23    0.13
  -5   5   8    0.34    0.18
  -5   5   8    0.29    0.13
  -5   5   8    0.19    0.12
   4  -5  -8    6.30    0.39
   4  -5  -8    6.57    0.40
  -4   5   8    7.30    0.41
  -4   5   8    6.81    0.35
  -4   5   8    6.37    0.35
   3  -5  -8   70.12    1.39
   3  -5  -8   69.31    1.53
   3  -5  -8   67.97    1.58
  -3   5   8   69.01    1.46
  -3   5   8   68.87    1.52
  -3   5   8   68.27    1.48
   2  -5  -8    0.18    0.10
   2  -5  -8    0.13    0.08
   2  -5  -8    0.17    0.07
   2  -5  -8    0.10    0.07
   2  -5  -8    0.20    0.11
  -2   5   8   -0.04    0.08
  -2   5   8    0.09    0.09
  -2   5   8    0.09    0.08
   1  -5  -8   44.95    1.14
   1  -5  -8   44.66    1.00
   1  -5  -8   45.01    0.99
   1  -5  -8   45.99    0.96
   1  -5  -8   44.28    0.97
  -1   5   8   44.76    1.11
  -1   5   8   45.92    1.03
  -1   5   8   45.54    1.01
  -1   5   8   45.30    1.04
   0  -5  -8  167.90    3.39
   0  -5  -8  174.59    3.23
   0  -5  -8  175.97    3.23
   0  -5  -8  174.86    3.10
   0  -5  -8  180.71    3.22
   0  -5  -8  173.11    3.28
   0   5   8  179.41    3.20
   0   5   8  177.15    3.26
   0   5   8  175.65    3.39
   0   5   8  176.91    3.27
  -1  -5  -8   17.90    0.51
  -1  -5  -8   17.89    0.63
  -1  -5  -8   18.38    0.46
   1   5   8   17.95    0.52
   1   5   8   18.42    0.63
   1   5   8   18.95    0.53
  -2  -5  -8   63.08    1.32
  -2  -5  -8   62.81    1.21
  -2  -5  -8   62.14    1.17
   2   5   8   64.27    1.47
   2   5   8   64.08    1.32
   2   5   8   64.07    1.42
  -3  -5  -8   10.76    0.39
  -3  -5  -8   10.31    0.28
  -3  -5  -8   10.48    0.32
   3   5   8   10.95    0.48
   3   5   8   10.07    0.35
   3   5   8   10.23    0.47
   3   5   8   10.27    0.32
  -4  -5  -8   27.04    0.71
   4   5   8   27.83    0.84
   4   5   8   28.23    0.88
  -5  -5  -8    1.43    0.18
   5   5   8    1.73    0.25
   5   5   8    1.12    0.26
  -6  -5  -8    0.27    0.13
   6   5   8    0.42    0.16
   6   5   8    0.25    0.20
   6  -6  -8    2.25    0.30
  -6   6   8    2.28    0.26
  -6   6   8    2.10    0.32
   5  -6  -8    0.83    0.20
  -5   6   8    0.47    0.18
  -5   6   8    0.63    0.15
  -5   6   8    0.63    0.17
   4  -6  -8    6.31    0.40
  -4   6   8    5.93    0.34
  -4   6   8    6.81    0.35
  -4   6   8    6.57    0.40
   3  -6  -8   37.53    0.84
   3  -6  -8   36.37    1.05
  -3   6   8   37.79    0.95
  -3   6   8   38.00    0.98
  -3   6   8   38.32    0.94
   2  -6  -8   19.46    0.51
   2  -6  -8   19.54    0.54
   2  -6  -8   19.06    0.55
   2  -6  -8   18.75    0.67
  -2   6   8   20.56    0.59
  -2   6   8   19.92    0.60
  -2   6   8   19.77    0.60
   1  -6  -8    1.34    0.17
   1  -6  -8    1.17    0.14
   1  -6  -8    1.03    0.14
   1  -6  -8    1.36    0.23
  -1   6   8    1.35    0.17
  -1   6   8    1.17    0.20
  -1   6   8    1.01    0.15
  -1   6   8    1.07    0.16
   0  -6  -8   21.43    0.58
   0  -6  -8   21.38    0.57
   0  -6  -8   21.85    0.72
   0  -6  -8   19.74    0.61
   0   6   8   21.11    0.61
   0   6   8   20.53    0.68
   0   6   8   20.92    0.60
   0   6   8   20.55    0.55
  -1  -6  -8   30.72    0.74
  -1  -6  -8   30.34    0.68
  -1  -6  -8   30.66    0.90
   1   6   8   30.13    0.88
   1   6   8   30.88    0.68
   1   6   8   29.92    0.76
   1   6   8   29.36    0.76
  -2  -6  -8    0.36    0.07
  -2  -6  -8    0.50    0.11
   2   6   8    0.56    0.11
   2   6   8    0.47    0.10
   2   6   8    0.39    0.15
   2   6   8    0.45    0.11
  -3  -6  -8    1.84    0.11
  -3  -6  -8    2.32    0.21
   3   6   8    2.35    0.28
   3   6   8    2.59    0.28
   3   6   8    1.70    0.17
   3   6   8    2.07    0.18
  -4  -6  -8    1.65    0.19
   4   6   8    1.84    0.16
   4   6   8    1.47    0.26
   4   6   8    1.72    0.16
   4   6   8    1.89    0.28
  -5  -6  -8    0.00    0.10
   5   6   8    0.03    0.16
   5   6   8    0.12    0.11
  -6  -6  -8    1.91    0.22
   6   6   8    1.76    0.26
   6   6   8    1.44    0.30
   6  -7  -8    0.70    0.20
  -6   7   8    0.49    0.17
   5  -7  -8    0.06    0.12
  -5   7   8   -0.06    0.10
  -5   7   8    0.03    0.15
  -5   7   8   -0.01    0.12
   4  -7  -8    0.15    0.12
  -4   7   8    0.14    0.12
  -4   7   8    0.28    0.13
  -4   7   8   -0.08    0.14
   3  -7  -8   18.06    0.49
   3  -7  -8   17.03    0.67
  -3   7   8   17.94    0.58
  -3   7   8   17.63    0.56
  -3   7   8   17.91    0.59
  -3   7   8   18.78    0.63
   2  -7  -8    0.22    0.13
   1  -7  -8   11.20    0.52
   1  -7  -8   10.36    0.37
   1  -7  -8   11.32    0.39
   1  -7  -8   10.45    0.42
  -1   7   8   10.61    0.40
  -1   7   8   11.57    0.59
  -1   7   8   11.42    0.43
  -1   7   8   10.93    0.43
   0  -7  -8   60.62    1.28
   0  -7  -8   61.36    1.49
   0   7   8   60.17    1.34
   0   7   8   60.54    1.25
   0   7   8   61.15    1.33
   0   7   8   61.26    1.44
  -1  -7  -8    1.01    0.15
  -1  -7  -8    0.97    0.17
   1   7   8    0.96    0.11
   1   7   8    0.90    0.16
   1   7   8    0.68    0.16
   1   7   8    0.57    0.13
  -2  -7  -8   24.05    0.66
   2   7   8   24.13    0.67
   2   7   8   23.44    0.79
   2   7   8   24.08    0.65
   2   7   8   23.08    0.65
  -3  -7  -8   -0.03    0.10
   3   7   8    0.01    0.12
   3   7   8   -0.04    0.13
   3   7   8   -0.06    0.09
   3   7   8   -0.17    0.07
  -4  -7  -8    4.03    0.28
   4   7   8    3.72    0.24
   4   7   8    3.89    0.24
   4   7   8    3.89    0.36
   4   7   8    3.94    0.35
  -5  -7  -8    0.40    0.14
   5   7   8    0.19    0.18
   5   7   8    0.33    0.15
  -6  -7  -8    6.17    0.36
   6   7   8    6.94    0.53
   6   7   8    6.06    0.44
   5  -8  -8    1.71    0.28
  -5   8   8    1.15    0.24
  -5   8   8    1.28    0.20
  -5   8   8    1.36    0.23
   4  -8  -8    2.75    0.36
  -4   8   8    2.42    0.30
  -4   8   8    2.46    0.25
  -4   8   8    2.72    0.28
   3  -8  -8    0.10    0.13
   3  -8  -8    0.22    0.09
  -3   8   8    0.25    0.14
  -3   8   8    0.11    0.11
  -3   8   8    0.17    0.12
  -3   8   8   -0.02    0.12
   2  -8  -8    0.45    0.11
   2  -8  -8    0.46    0.17
  -2   8   8    0.40    0.13
  -2   8   8    0.50    0.15
  -2   8   8    0.52    0.15
   1  -8  -8    1.47    0.17
   1  -8  -8    1.72    0.24
   1  -8  -8    1.50    0.16
  -1   8   8    1.48    0.13
  -1   8   8    1.61    0.19
  -1   8   8    1.27    0.18
  -1   8   8    1.33    0.19
   0  -8  -8   12.72    0.43
   0  -8  -8   11.94    0.56
   0   8   8   11.90    0.53
   0   8   8   12.15    0.47
   0   8   8   12.88    0.41
   0   8   8   12.05    0.47
  -1  -8  -8    5.12    0.29
   1   8   8    5.06    0.32
   1   8   8    4.90    0.22
   1   8   8    6.12    0.50
   1   8   8    5.16    0.32
   1   8   8    5.24    0.31
  -2  -8  -8   18.99    0.59
   2   8   8   18.96    0.60
   2   8   8   18.44    0.59
   2   8   8   18.60    0.72
   2   8   8   18.18    0.58
  -3  -8  -8    2.31    0.23
   3   8   8    2.34    0.30
   3   8   8    2.76    0.24
   3   8   8    2.58    0.25
  -4  -8  -8    0.41    0.14
   4   8   8    0.24    0.17
   4   8   8    0.44    0.13
   4   8   8    0.28    0.11
   4   8   8    0.51    0.18
  -5  -8  -8    1.54    0.21
   5   8   8    1.81    0.30
   5   8   8    1.57    0.29
  -6  -8  -8    0.54    0.17
   6   8   8    0.95    0.24
   6   8   8    0.53    0.24
   5  -9  -8    1.57    0.29
  -5   9   8    1.82    0.26
  -5   9   8    1.53    0.28
  -5   9   8    1.74    0.23
   4  -9  -8    1.44    0.26
  -4   9   8    1.39    0.21
  -4   9   8    1.74    0.24
  -4   9   8    1.68    0.27
   3  -9  -8    1.01    0.25
  -3   9   8    1.24    0.24
  -3   9   8    1.33    0.20
  -3   9   8    1.04    0.21
  -3   9   8    0.91    0.18
   2  -9  -8    7.00    0.32
   2  -9  -8    6.63    0.45
  -2   9   8    6.88    0.38
  -2   9   8    7.16    0.38
  -2   9   8    7.16    0.38
  -2   9   8    7.11    0.40
   1  -9  -8    0.07    0.13
   1  -9  -8    0.11    0.09
  -1   9   8    0.07    0.13
  -1   9   8    0.01    0.11
  -1   9   8    0.04    0.11
   0  -9  -8    1.43    0.17
   0   9   8    1.72    0.21
   0   9   8    1.84    0.23
   0   9   8    1.71    0.22
   0   9   8    1.56    0.18
  -1  -9  -8   36.93    0.91
   1   9   8   37.80    0.96
   1   9   8   36.09    0.94
   1   9   8   35.25    0.80
   1   9   8   34.85    0.96
  -2  -9  -8    1.11    0.17
   2   9   8    1.01    0.31
   2   9   8    1.09    0.10
   2   9   8    1.31    0.20
   2   9   8    0.98    0.17
   2   9   8    1.36    0.21
  -3  -9  -8    4.54    0.32
   3   9   8    4.66    0.32
   3   9   8    4.77    0.32
   3   9   8    4.65    0.42
  -4  -9  -8    0.46    0.14
   4   9   8    0.41    0.15
   4   9   8    0.68    0.21
   4   9   8    0.34    0.13
   4   9   8    0.29    0.20
  -5  -9  -8    2.08    0.25
   5   9   8    2.78    0.36
  -6  -9  -8    6.38    0.40
   6   9   8    6.18    0.55
   5 -10  -8    0.30    0.18
   4 -10  -8    0.56    0.20
  -4  10   8    0.97    0.21
  -4  10   8    0.52    0.19
  -4  10   8    0.68    0.18
   3 -10  -8    0.80    0.31
  -3  10   8    1.01    0.23
  -3  10   8    1.05    0.20
  -3  10   8    1.26    0.21
  -3  10   8    1.07    0.24
   2 -10  -8    0.49    0.13
  -2  10   8    0.52    0.16
  -2  10   8    0.68    0.19
  -2  10   8    0.53    0.17
  -2  10   8    0.61    0.19
  -2  10   8    0.45    0.16
  -1  10   8    0.36    0.15
  -1  10   8    0.54    0.17
  -1  10   8    0.50    0.18
  -1  10   8    0.56    0.15
   0 -10  -8   11.60    0.44
   0  10   8   10.87    0.48
   0  10   8   11.60    0.52
   0  10   8   10.49    0.41
   0  10   8   11.32    0.50
  -1 -10  -8   30.29    0.82
   1  10   8   30.73    0.87
   1  10   8   31.35    0.88
   1  10   8   29.76    0.89
   1  10   8   29.87    0.71
  -2 -10  -8    3.27    0.28
   2  10   8    3.09    0.27
   2  10   8    2.84    0.29
   2  10   8    2.70    0.27
  -3 -10  -8   23.76    0.73
   3  10   8   22.08    0.74
   3  10   8   23.30    0.72
  -4 -10  -8    5.84    0.38
   4  10   8    5.67    0.44
   4  10   8    5.76    0.38
   4  10   8    5.89    0.36
  -5 -10  -8   -0.06    0.13
   5  10   8   -0.23    0.16
  -4  11   8    5.43    0.39
  -4  11   8    5.49    0.42
  -4  11   8    5.78    0.46
  -3  11   8    2.13    0.30
  -3  11   8    2.63    0.29
  -3  11   8    2.38    0.33
  -3  11   8    2.54    0.30
  -3  11   8    2.83    0.36
   2 -11  -8    6.43    0.33
  -2  11   8    7.16    0.47
  -2  11   8    6.76    0.41
  -2  11   8    6.21    0.41
  -2  11   8    6.71    0.43
  -2  11   8    6.64    0.44
  -1  11   8    1.46    0.24
  -1  11   8    0.98    0.20
  -1  11   8    1.31    0.25
  -1  11   8    1.33    0.20
   0  11   8    0.21    0.15
   0  11   8    0.01    0.10
   0  11   8    0.15    0.16
   0  11   8    0.02    0.13
  -1 -11  -8    6.05    0.35
   1  11   8    5.74    0.41
   1  11   8    5.78    0.28
   1  11   8    6.07    0.40
   1  11   8    6.01    0.39
  -2 -11  -8    8.17    0.42
   2  11   8    8.32    0.47
   2  11   8    7.60    0.63
   2  11   8    8.22    0.45
  -3 -11  -8    2.11    0.26
   3  11   8    1.82    0.27
   3  11   8    2.32    0.27
  -4 -11  -8    0.45    0.18
   4  11   8    0.68    0.21
   4  11   8    0.56    0.17
  -5 -11  -8   -0.12    0.15
   5  11   8    0.00    0.19
  -3  12   8    0.30    0.20
  -3  12   8    0.28    0.22
  -3  12   8    0.38    0.20
  -3  12   8    0.04    0.16
  -2  12   8   -0.22    0.14
  -2  12   8    0.06    0.16
  -2  12   8   -0.14    0.15
  -2  12   8   -0.14    0.17
  -2  12   8   -0.09    0.15
  -1  12   8    3.83    0.36
  -1  12   8    3.24    0.34
  -1  12   8    3.43    0.38
  -1  12   8    2.50    0.27
   0  12   8    0.56    0.20
   0  12   8    0.84    0.21
   0  12   8    0.80    0.22
   0  12   8    0.62    0.16
  -1 -12  -8    0.99    0.21
   1  12   8    1.02    0.21
   1  12   8    1.13    0.23
   1  12   8    1.04    0.25
  -2 -12  -8    0.24    0.14
   2  12   8    0.10    0.15
   2  12   8    0.19    0.17
  -3 -12  -8    0.66    0.19
   3  12   8    0.87    0.22
   3  12   8    0.59    0.19
  -4 -12  -8    0.11    0.17
   4  12   8   -0.04    0.19
   4  12   8   -0.01    0.15
  -2  13   8    1.25    0.40
  -2  13   8    0.94    0.23
  -2  13   8    1.10    0.25
  -2  13   8    1.76    0.29
  -1  13   8    0.91    0.24
  -1  13   8    1.11    0.32
  -1  13   8    0.74    0.23
  -1  13   8    0.93    0.21
   0  13   8   -0.01    0.17
   0  13   8    0.21    0.20
   0  13   8   -0.04    0.16
   0  13   8   -0.09    0.11
   1  13   8    0.20    0.19
   1  13   8   -0.01    0.14
   1  13   8   -0.06    0.17
  -2 -13  -8    0.23    0.16
   2  13   8    0.04    0.18
   2  13   8    0.08    0.17
  -3 -13  -8   -0.06    0.14
   3  13   8    0.10    0.16
   3  13   8    0.23    0.19
  -1  14   8    0.12    0.17
  -1  14   8   -0.03    0.20
   0  14   8    3.31    0.38
   1  14   8   -0.06    0.19
   2  14   8    1.36    0.28
   1   8  -9    0.23    0.19
   1   8  -9   -0.11    0.18
   0   8  -9    0.42    0.24
   0   8  -9    0.72    0.22
  -1   8  -9    0.14    0.19
   3   7  -9    0.33    0.20
   2   7  -9    1.18    0.26
   1   7  -9    8.89    0.51
   1   7  -9    8.41    0.50
   1   7  -9    9.26    0.56
   0   7  -9   -0.05    0.19
   0   7  -9    0.21    0.19
   0   7  -9   -0.28    0.15
  -1   7  -9    4.48    0.42
  -1   7  -9    4.79    0.47
  -1   7  -9    4.13    0.41
  -2   7  -9    0.14    0.19
  -2   7  -9    0.28    0.21
   4   6  -9    1.09    0.24
   3   6  -9    4.26    0.40
   2   6  -9    6.19    0.48
   2   6  -9    6.45    0.45
   1   6  -9    4.88    0.43
   1   6  -9    3.74    0.36
   1   6  -9    3.73    0.37
   0   6  -9    6.18    0.45
   0   6  -9    6.18    0.44
   0   6  -9    6.66    0.47
  -1   6  -9    3.06    0.38
  -1   6  -9    2.96    0.33
  -1   6  -9    3.08    0.33
  -2   6  -9    2.27    0.31
  -2   6  -9    3.02    0.34
  -3   6  -9    3.45    0.36
  -3   6  -9    3.23    0.36
   4   5  -9    5.60    0.43
   4   5  -9    5.36    0.48
   3   5  -9    0.23    0.19
   2   5  -9    1.33    0.23
   2   5  -9    1.83    0.23
   2   5  -9    1.11    0.25
   1   5  -9    9.95    0.47
   1   5  -9   10.24    0.52
   1   5  -9   10.80    0.54
   0   5  -9    1.25    0.24
   0   5  -9    1.33    0.25
   0   5  -9    1.44    0.24
  -1   5  -9   14.32    0.60
  -1   5  -9   14.49    0.60
  -2   5  -9    2.58    0.29
  -2   5  -9    2.01    0.26
  -3   5  -9    0.95    0.22
  -3   5  -9    0.54    0.19
  -4   5  -9    2.31    0.29
  -4   5  -9    1.78    0.26
   5   4  -9    0.22    0.26
   4   4  -9    5.31    0.45
   4   4  -9    5.77    0.40
   3   4  -9    6.88    0.44
   2   4  -9   16.45    0.61
   2   4  -9   15.91    0.53
   2   4  -9   16.71    0.64
   1   4  -9    0.48    0.16
   1   4  -9   -0.01    0.14
   1   4  -9    0.05    0.14
   0   4  -9    2.70    0.28
   0   4  -9    3.49    0.31
  -1   4  -9    1.72    0.23
  -1   4  -9    1.34    0.21
  -2   4  -9    1.59    0.22
  -2   4  -9    1.61    0.22
  -3   4  -9    0.66    0.18
  -3   4  -9    0.49    0.17
  -4   4  -9    1.53    0.23
  -4   4  -9    1.31    0.22
   5   3  -9    0.60    0.24
   4   3  -9    0.35    0.16
   4   3  -9    0.75    0.21
   3   3  -9    3.84    0.33
   2   3  -9    0.33    0.11
   2   3  -9    0.36    0.14
   2   3  -9    0.28    0.15
   1   3  -9    0.22    0.12
   1   3  -9    0.02    0.11
   1   3  -9    0.19    0.13
   0   3  -9    0.82    0.17
   0   3  -9    0.62    0.15
  -1   3  -9    0.11    0.12
  -1   3  -9   -0.05    0.11
  -2   3  -9   -0.05    0.11
  -2   3  -9    0.04    0.12
  -3   3  -9    0.23    0.13
  -3   3  -9    0.25    0.14
  -4   3  -9   -0.08    0.13
  -4   3  -9   -0.07    0.12
  -5   3  -9    0.61    0.16
   5   2  -9    0.02    0.15
   4   2  -9    0.26    0.15
   4   2  -9   -0.09    0.11
   3   2  -9    7.54    0.39
   2   2  -9   14.23    0.52
   2   2  -9   13.64    0.41
   2   2  -9   13.35    0.53
   1   2  -9   76.53    1.65
   1   2  -9   75.10    1.63
   0   2  -9    8.29    0.39
   0   2  -9    7.85    0.39
  -1   2  -9    1.56    0.20
  -1   2  -9    1.58    0.21
  -2   2  -9   37.39    0.94
  -2   2  -9   37.19    0.94
  -3   2  -9    7.03    0.36
  -3   2  -9    6.97    0.37
  -4   2  -9    0.59    0.15
  -4   2  -9    0.48    0.15
  -5   2  -9    2.91    0.25
   5   1  -9    1.03    0.24
   4   1  -9    0.10    0.12
   4   1  -9    0.28    0.16
   3   1  -9    0.20    0.14
   3   1  -9    0.07    0.12
   2   1  -9   25.98    0.59
   2   1  -9   25.78    0.72
   2   1  -9   25.70    0.75
   1   1  -9    7.28    0.36
   1   1  -9    7.85    0.39
   0   1  -9   55.49    1.38
   0   1  -9   53.82    1.22
   0   1  -9   54.41    1.23
  -1   1  -9    1.42    0.17
  -1   1  -9    1.56    0.19
  -2   1  -9    0.09    0.10
  -2   1  -9    0.05    0.10
   2  -1   9   -0.08    0.10
  -3   1  -9    5.56    0.31
  -3   1  -9    5.86    0.31
  -4   1  -9   -0.01    0.10
  -4   1  -9    0.03    0.11
  -5   1  -9   -0.09    0.10
  -5   1  -9    0.09    0.10
   6   0  -9    0.86    0.28
   5   0  -9    0.87    0.23
   4   0  -9    9.98    0.51
   4   0  -9    9.46    0.41
   3   0  -9    1.28    0.22
   3   0  -9    0.74    0.15
   2   0  -9    0.28    0.12
   2   0  -9    0.47    0.08
   2   0  -9    0.26    0.12
  -2   0   9    0.47    0.07
   1   0  -9   98.47    1.96
   1   0  -9   96.06    2.09
   1   0  -9   98.55    1.95
  -1   0   9   94.73    1.85
   0   0  -9    1.24    0.16
   0   0  -9    1.53    0.22
   0   0  -9    1.07    0.16
   0   0   9    1.14    0.16
  -1   0  -9   10.27    0.39
  -1   0  -9    9.86    0.39
   1   0   9    9.44    0.42
  -2   0  -9   52.29    1.15
  -2   0  -9   52.14    1.15
   2   0   9   51.12    1.11
   2   0   9   51.94    1.29
  -3   0  -9    0.08    0.09
  -3   0  -9    0.07    0.09
  -4   0  -9   18.60    0.55
  -4   0  -9   18.45    0.55
  -5   0  -9    2.61    0.23
  -5   0  -9    2.16    0.21
  -6   0  -9    1.18    0.17
   6  -1  -9    0.76    0.25
   6  -1  -9    0.73    0.25
  -6   1   9    1.01    0.24
   5  -1  -9    0.32    0.17
   5  -1  -9    0.32    0.18
  -5   1   9    0.14    0.15
   4  -1  -9    6.36    0.43
   4  -1  -9    5.64    0.39
   4  -1  -9    5.32    0.30
  -4   1   9    5.94    0.37
   3  -1  -9   10.15    0.40
   3  -1  -9   10.26    0.46
   3  -1  -9   10.16    0.50
  -3   1   9    9.67    0.26
   2  -1  -9    1.17    0.18
   2  -1  -9    1.45    0.17
   2  -1  -9    1.55    0.19
   2  -1  -9    0.97    0.19
  -2   1   9    1.18    0.12
   1  -1  -9    0.27    0.12
   1  -1  -9    0.32    0.11
   1  -1  -9    0.32    0.10
  -1   1   9    0.07    0.08
   0  -1  -9   19.99    0.66
   0  -1  -9   19.31    0.56
   0  -1  -9   19.65    0.57
   0   1   9   19.47    0.56
  -1  -1  -9    0.33    0.10
  -1  -1  -9    0.35    0.11
   1   1   9    0.52    0.13
  -2  -1  -9    0.73    0.12
  -2  -1  -9    0.43    0.11
   2   1   9    0.05    0.13
  -3  -1  -9    2.33    0.20
  -3  -1  -9    2.76    0.20
   3   1   9    2.41    0.17
   3   1   9    3.01    0.33
  -4  -1  -9    4.85    0.27
  -4  -1  -9    4.73    0.27
   4   1   9    5.25    0.43
  -5  -1  -9    0.06    0.10
  -5  -1  -9   -0.05    0.09
  -6  -1  -9    0.11    0.09
   6  -2  -9    3.02    0.35
   6  -2  -9    3.50    0.44
  -6   2   9    2.66    0.33
   5  -2  -9    1.63    0.28
   5  -2  -9    1.72    0.26
  -5   2   9    1.49    0.25
   4  -2  -9    2.28    0.21
   4  -2  -9    2.46    0.29
   4  -2  -9    2.12    0.26
  -4   2   9    2.04    0.25
   3  -2  -9    3.97    0.32
   3  -2  -9    3.84    0.25
   3  -2  -9    3.71    0.28
  -3   2   9    3.43    0.27
   2  -2  -9   32.94    0.82
   2  -2  -9   33.84    0.95
   2  -2  -9   31.56    0.65
   2  -2  -9   33.03    0.80
   2  -2  -9   33.17    0.85
  -2   2   9   32.89    0.84
   1  -2  -9    8.20    0.35
   1  -2  -9    8.32    0.34
   1  -2  -9   10.48    0.51
  -1   2   9    7.83    0.30
   0  -2  -9   16.28    0.58
   0  -2  -9   16.07    0.49
   0  -2  -9   15.96    0.49
   0   2   9   16.29    0.49
  -1  -2  -9   67.14    1.38
  -1  -2  -9   66.43    1.37
   1   2   9   63.69    1.42
  -2  -2  -9    1.55    0.17
  -2  -2  -9    1.42    0.16
   2   2   9    1.27    0.20
  -3  -2  -9    0.80    0.13
  -3  -2  -9    1.12    0.15
   3   2   9    0.88    0.20
  -4  -2  -9   11.29    0.41
  -4  -2  -9   12.06    0.42
   4   2   9   13.27    0.62
  -5  -2  -9    0.21    0.10
  -5  -2  -9    0.01    0.10
   5   2   9    0.26    0.21
  -6  -2  -9    0.58    0.13
   6  -3  -9    0.99    0.27
   6  -3  -9    0.86    0.21
  -6   3   9    0.90    0.23
   5  -3  -9    2.44    0.33
   5  -3  -9    2.25    0.33
  -5   3   9    2.56    0.31
   4  -3  -9    7.91    0.45
   4  -3  -9    7.06    0.43
   4  -3  -9    7.38    0.31
  -4   3   9    7.00    0.40
   3  -3  -9    4.90    0.35
   3  -3  -9    4.76    0.26
   3  -3  -9    4.84    0.32
  -3   3   9    5.09    0.32
   2  -3  -9   14.72    0.57
   2  -3  -9   14.56    0.47
   2  -3  -9   15.27    0.46
   2  -3  -9   13.54    0.35
   2  -3  -9   13.76    0.48
  -2   3   9   14.62    0.50
   1  -3  -9    5.95    0.28
   1  -3  -9    6.01    0.27
   1  -3  -9    6.08    0.35
   1  -3  -9    5.76    0.28
  -1   3   9    5.25    0.30
   0  -3  -9    0.18    0.10
   0  -3  -9    0.18    0.08
   0  -3  -9    0.16    0.12
   0   3   9    0.26    0.10
  -1  -3  -9    0.30    0.09
  -1  -3  -9    0.45    0.11
   1   3   9    0.40    0.13
   1   3   9    0.50    0.14
  -2  -3  -9    1.70    0.18
  -2  -3  -9    1.59    0.17
   2   3   9    1.99    0.26
   2   3   9    1.73    0.22
  -3  -3  -9   22.72    0.62
  -3  -3  -9   22.74    0.62
   3   3   9   24.12    0.78
   3   3   9   22.38    0.73
  -4  -3  -9    7.32    0.33
  -4  -3  -9    7.40    0.33
   4   3   9    7.44    0.40
   4   3   9    7.83    0.48
  -5  -3  -9    2.28    0.22
   5   3   9    2.13    0.33
   5   3   9    1.92    0.24
  -6  -3  -9    1.80    0.20
   6  -4  -9    2.35    0.32
   6  -4  -9    2.80    0.38
  -6   4   9    2.44    0.32
   5  -4  -9    1.91    0.26
   5  -4  -9    2.34    0.33
  -5   4   9    2.31    0.29
   4  -4  -9    0.41    0.16
   4  -4  -9    0.14    0.10
   4  -4  -9    0.32    0.17
  -4   4   9    0.36    0.14
  -4   4   9    0.56    0.17
   3  -4  -9    2.05    0.24
   3  -4  -9    1.94    0.26
   3  -4  -9    2.06    0.19
  -3   4   9    1.81    0.22
  -3   4   9    2.11    0.22
   2  -4  -9    7.59    0.33
   2  -4  -9    7.62    0.26
   2  -4  -9    7.88    0.32
   2  -4  -9    8.23    0.35
   2  -4  -9    7.93    0.41
  -2   4   9    8.20    0.37
  -2   4   9    8.24    0.36
   1  -4  -9   18.60    0.53
   1  -4  -9   21.43    0.58
   1  -4  -9   21.14    0.57
   1  -4  -9   18.86    0.66
   1  -4  -9   20.04    0.54
  -1   4   9   20.91    0.60
  -1   4   9   19.32    0.57
   0  -4  -9   33.77    0.81
   0  -4  -9   33.63    0.81
   0  -4  -9   33.07    0.92
   0   4   9   33.27    0.83
  -1  -4  -9   13.13    0.53
  -1  -4  -9   12.47    0.42
  -1  -4  -9   12.19    0.42
   1   4   9   12.41    0.51
   1   4   9   12.82    0.43
   1   4   9   12.89    0.46
  -2  -4  -9    1.89    0.19
  -2  -4  -9    1.82    0.15
  -2  -4  -9    1.66    0.17
   2   4   9    1.33    0.21
   2   4   9    1.65    0.22
  -3  -4  -9    1.95    0.15
  -3  -4  -9    1.67    0.18
   3   4   9    2.29    0.27
   3   4   9    2.36    0.29
  -4  -4  -9    7.23    0.34
   4   4   9    7.15    0.41
   4   4   9    7.87    0.48
  -5  -4  -9    0.27    0.12
   5   4   9    0.12    0.12
   5   4   9   -0.12    0.17
  -6  -4  -9    0.00    0.10
   6   4   9   -0.19    0.17
   6   4   9    0.02    0.11
   6  -5  -9    0.13    0.15
  -6   5   9    0.27    0.19
   5  -5  -9    0.15    0.13
  -5   5   9    0.25    0.14
  -5   5   9    0.24    0.13
  -5   5   9    0.42    0.19
   4  -5  -9    1.02    0.21
   4  -5  -9    1.09    0.22
  -4   5   9    1.22    0.20
  -4   5   9    1.24    0.22
  -4   5   9    1.13    0.19
   3  -5  -9    0.08    0.09
   3  -5  -9    0.13    0.13
   3  -5  -9    0.12    0.13
  -3   5   9   -0.05    0.11
  -3   5   9    0.16    0.12
  -3   5   9    0.11    0.12
   2  -5  -9    8.98    0.33
   2  -5  -9    8.74    0.44
   2  -5  -9    8.75    0.37
   2  -5  -9    9.12    0.35
   2  -5  -9    8.02    0.30
  -2   5   9    8.53    0.38
  -2   5   9    8.84    0.39
  -2   5   9    9.07    0.39
   1  -5  -9   19.13    0.51
   1  -5  -9   18.65    0.54
   1  -5  -9   19.33    0.67
   1  -5  -9   19.42    0.56
   1  -5  -9   19.14    0.54
  -1   5   9   19.76    0.60
  -1   5   9   19.32    0.58
  -1   5   9   18.53    0.65
  -1   5   9   18.61    0.56
   0  -5  -9   45.96    1.03
   0  -5  -9   46.33    0.91
   0  -5  -9   46.26    1.02
   0  -5  -9   44.72    1.17
   0   5   9   47.96    1.06
   0   5   9   45.04    1.05
   0   5   9   41.17    1.14
   0   5   9   46.19    1.01
  -1  -5  -9    0.91    0.14
  -1  -5  -9    0.70    0.16
  -1  -5  -9    0.84    0.12
  -1  -5  -9    0.75    0.13
   1   5   9    0.54    0.13
   1   5   9    0.48    0.15
  -2  -5  -9   61.19    1.30
  -2  -5  -9   61.04    1.20
   2   5   9   59.69    1.29
   2   5   9   60.97    1.40
   2   5   9   59.84    1.45
  -3  -5  -9   74.58    1.53
  -3  -5  -9   71.38    1.44
   3   5   9   68.57    1.41
   3   5   9   74.31    1.69
   3   5   9   76.38    1.70
  -4  -5  -9    7.24    0.34
   4   5   9    7.29    0.43
   4   5   9    7.67    0.47
  -5  -5  -9   12.79    0.47
   5   5   9   12.84    0.66
   5   5   9   12.95    0.57
  -6  -5  -9    0.19    0.13
   6   5   9    0.06    0.18
   6   5   9    0.12    0.14
   6  -6  -9    0.64    0.20
  -6   6   9    0.82    0.20
  -6   6   9    0.80    0.18
   5  -6  -9    7.69    0.48
  -5   6   9    8.32    0.48
  -5   6   9    8.35    0.42
  -5   6   9    9.20    0.45
   4  -6  -9   34.51    1.04
  -4   6   9   32.67    0.90
  -4   6   9   35.84    0.94
  -4   6   9   33.88    0.97
   3  -6  -9    3.00    0.22
   3  -6  -9    2.95    0.31
   3  -6  -9    3.06    0.27
  -3   6   9    2.84    0.27
  -3   6   9    2.77    0.27
  -3   6   9    2.85    0.28
   2  -6  -9   16.04    0.47
   2  -6  -9   16.20    0.51
   2  -6  -9   16.08    0.50
   2  -6  -9   15.47    0.48
   2  -6  -9   15.76    0.63
  -2   6   9   16.61    0.56
  -2   6   9   16.81    0.55
  -2   6   9   15.69    0.54
   1  -6  -9    3.79    0.21
   1  -6  -9    3.90    0.23
   1  -6  -9    3.78    0.25
   1  -6  -9    4.03    0.32
   1  -6  -9    4.05    0.25
  -1   6   9    3.76    0.27
  -1   6   9    3.81    0.28
  -1   6   9    4.03    0.31
  -1   6   9    4.23    0.26
   0  -6  -9    7.25    0.22
   0  -6  -9    7.43    0.35
   0  -6  -9    7.74    0.33
   0  -6  -9    7.47    0.34
   0  -6  -9    6.93    0.42
   0   6   9    7.41    0.36
   0   6   9    6.29    0.33
   0   6   9    7.20    0.41
   0   6   9    7.43    0.31
  -1  -6  -9  116.52    2.47
  -1  -6  -9  117.09    2.20
  -1  -6  -9  118.61    2.27
   1   6   9  118.42    2.30
   1   6   9  114.57    2.44
   1   6   9  117.50    2.29
  -2  -6  -9    1.76    0.14
  -2  -6  -9    1.78    0.19
   2   6   9    1.80    0.24
   2   6   9    1.69    0.19
  -3  -6  -9    1.17    0.16
   3   6   9    1.36    0.22
   3   6   9    1.17    0.16
   3   6   9    1.06    0.22
   3   6   9    1.20    0.15
  -4  -6  -9   14.90    0.51
   4   6   9   14.76    0.62
   4   6   9   15.58    0.66
  -5  -6  -9    0.93    0.17
   5   6   9    0.73    0.18
   5   6   9    0.37    0.22
  -6  -6  -9   -0.27    0.11
   6   6   9   -0.03    0.12
   6   6   9   -0.03    0.17
   5  -7  -9    0.14    0.13
  -5   7   9    0.20    0.14
  -5   7   9    0.22    0.18
  -5   7   9    0.28    0.15
   4  -7  -9    2.82    0.32
  -4   7   9    2.50    0.29
  -4   7   9    2.64    0.28
  -4   7   9    2.83    0.28
   3  -7  -9    1.65    0.24
   3  -7  -9    2.31    0.21
  -3   7   9    2.22    0.25
  -3   7   9    2.00    0.23
  -3   7   9    2.06    0.26
   2  -7  -9    4.59    0.28
   2  -7  -9    5.60    0.29
   2  -7  -9    5.40    0.39
  -2   7   9    5.15    0.32
  -2   7   9    5.55    0.33
  -2   7   9    5.14    0.32
   1  -7  -9   41.47    0.96
   1  -7  -9   40.47    1.15
   1  -7  -9   40.18    0.94
   1  -7  -9   40.33    1.01
  -1   7   9   41.30    1.02
  -1   7   9   40.88    0.97
  -1   7   9   41.57    1.15
  -1   7   9   42.40    1.02
   0  -7  -9   25.98    0.69
   0  -7  -9   26.23    0.86
   0  -7  -9   25.98    0.70
   0   7   9   26.12    0.73
   0   7   9   26.48    0.74
   0   7   9   25.52    0.66
   0   7   9   25.66    0.82
  -1  -7  -9    2.47    0.40
  -1  -7  -9    3.26    0.24
  -1  -7  -9    3.50    0.20
   1   7   9    3.30    0.25
   1   7   9    3.40    0.27
   1   7   9    3.35    0.31
   1   7   9    3.35    0.20
  -2  -7  -9    0.35    0.13
  -2  -7  -9    0.27    0.08
   2   7   9    0.38    0.13
   2   7   9    0.19    0.10
   2   7   9    0.17    0.15
  -3  -7  -9   41.34    1.01
   3   7   9   42.45    1.18
   3   7   9   40.74    0.96
   3   7   9   44.31    1.16
   3   7   9   41.85    0.99
  -4  -7  -9    3.56    0.28
   4   7   9    3.34    0.36
   4   7   9    3.14    0.23
   4   7   9    3.60    0.34
  -5  -7  -9    5.38    0.34
   5   7   9    5.02    0.40
   5   7   9    5.72    0.47
  -6  -7  -9    0.12    0.15
   6   7   9    0.08    0.19
   6   7   9    0.28    0.18
   5  -8  -9    0.94    0.23
  -5   8   9    0.93    0.25
  -5   8   9    0.93    0.21
  -5   8   9    1.13    0.21
   4  -8  -9    2.01    0.28
  -4   8   9    2.16    0.26
  -4   8   9    2.26    0.29
  -4   8   9    2.08    0.25
   3  -8  -9    7.60    0.48
   3  -8  -9    7.47    0.32
  -3   8   9    7.51    0.40
  -3   8   9    7.79    0.43
  -3   8   9    7.10    0.40
   2  -8  -9    6.32    0.31
   2  -8  -9    6.67    0.44
  -2   8   9    6.55    0.35
  -2   8   9    6.72    0.37
  -2   8   9    6.84    0.37
   1  -8  -9    2.45    0.23
   1  -8  -9    2.19    0.28
  -1   8   9    1.80    0.22
  -1   8   9    1.69    0.20
  -1   8   9    1.69    0.20
   0  -8  -9    1.16    0.16
   0   8   9    1.07    0.18
   0   8   9    0.94    0.17
   0   8   9    1.29    0.16
  -1  -8  -9    6.90    0.34
   1   8   9    6.97    0.28
   1   8   9    6.66    0.43
   1   8   9    7.04    0.38
   1   8   9    7.05    0.36
  -2  -8  -9   32.20    0.83
   2   8   9   29.61    0.82
   2   8   9   29.55    0.96
   2   8   9   31.87    0.85
   2   8   9   31.27    0.82
  -3  -8  -9   10.49    0.44
   3   8   9    9.96    0.41
   3   8   9   10.39    0.52
   3   8   9    9.97    0.54
   3   8   9    9.78    0.42
  -4  -8  -9    0.25    0.13
   4   8   9   -0.11    0.15
   4   8   9    0.16    0.10
   4   8   9    0.16    0.13
  -5  -8  -9    3.30    0.30
   5   8   9    2.97    0.38
   5   8   9    2.11    0.28
  -6  -8  -9   -0.09    0.14
   6   8   9    0.06    0.15
   6   8   9    0.02    0.20
   5  -9  -9    0.18    0.18
  -5   9   9    0.03    0.13
  -5   9   9    0.12    0.16
   4  -9  -9    0.41    0.17
  -4   9   9    0.58    0.18
  -4   9   9    0.45    0.17
  -4   9   9    0.91    0.22
   3  -9  -9    0.05    0.14
  -3   9   9    0.34    0.14
  -3   9   9    0.09    0.14
  -3   9   9    0.10    0.14
   2  -9  -9    0.04    0.10
  -2   9   9   -0.09    0.11
  -2   9   9   -0.02    0.11
  -2   9   9   -0.11    0.11
   1  -9  -9    0.97    0.16
  -1   9   9    0.79    0.17
  -1   9   9    1.11    0.19
  -1   9   9    1.00    0.18
   0  -9  -9    4.32    0.27
   0   9   9    4.67    0.26
   0   9   9    4.18    0.32
   0   9   9    4.30    0.32
  -1  -9  -9   17.80    0.57
   1   9   9   17.77    0.60
   1   9   9   17.31    0.61
   1   9   9   16.29    0.47
   1   9   9   18.04    0.62
  -2  -9  -9    7.39    0.37
   2   9   9    7.61    0.40
   2   9   9    7.33    0.37
   2   9   9    7.03    0.38
  -3  -9  -9   -0.03    0.12
   3   9   9    0.08    0.12
   3   9   9    0.06    0.11
  -4  -9  -9   10.94    0.48
   4   9   9    9.75    0.55
   4   9   9    9.82    0.43
  -5  -9  -9    0.93    0.20
   5   9   9    1.36    0.30
  -4  10   9    0.77    0.20
  -4  10   9    1.10    0.24
  -4  10   9    0.51    0.17
  -3  10   9    1.30    0.23
  -3  10   9    1.57    0.25
  -3  10   9    1.39    0.22
   2 -10  -9    1.95    0.21
  -2  10   9    1.83    0.25
  -2  10   9    2.28    0.28
  -2  10   9    2.35    0.27
   1 -10  -9   15.66    0.53
  -1  10   9   14.91    0.59
  -1  10   9   15.08    0.58
  -1  10   9   14.73    0.53
   0 -10  -9   12.42    0.46
   0  10   9   11.77    0.51
   0  10   9   12.45    0.55
   0  10   9   11.41    0.42
   0  10   9   12.39    0.52
  -1 -10  -9    1.57    0.20
   1  10   9    1.84    0.26
   1  10   9    1.54    0.23
   1  10   9    1.53    0.16
   1  10   9    1.58    0.23
  -2 -10  -9    2.31    0.24
   2  10   9    2.40    0.26
   2  10   9    2.38    0.27
  -3 -10  -9   20.49    0.69
   3  10   9   20.96    0.69
   3  10   9   19.84    0.69
  -4 -10  -9    5.96    0.40
   4  10   9    5.74    0.36
   4  10   9    5.32    0.46
  -5 -10  -9    1.54    0.25
   5  10   9    1.79    0.33
  -4  11   9   -0.08    0.16
  -4  11   9    0.00    0.14
  -3  11   9   -0.11    0.15
  -3  11   9    0.07    0.18
  -3  11   9    0.01    0.14
  -3  11   9   -0.17    0.14
  -3  11   9    0.07    0.16
   2 -11  -9    7.18    0.35
  -2  11   9    6.92    0.42
  -2  11   9    6.61    0.43
  -2  11   9    6.21    0.43
  -2  11   9    6.49    0.40
  -1  11   9    2.30    0.32
  -1  11   9    1.99    0.27
  -1  11   9    2.13    0.24
  -1  11   9    2.18    0.28
   0  11   9    0.17    0.16
   0  11   9    0.09    0.15
   0  11   9    0.19    0.16
   0  11   9    0.06    0.11
  -1 -11  -9   15.22    0.56
   1  11   9   15.19    0.59
   1  11   9   14.57    0.45
   1  11   9   14.52    0.62
   1  11   9   15.00    0.60
  -2 -11  -9   14.28    0.55
   2  11   9   13.01    0.59
   2  11   9   14.60    0.58
  -3 -11  -9    0.33    0.16
   3  11   9    0.40    0.16
   3  11   9    0.36    0.17
  -4 -11  -9    6.63    0.43
   4  11   9    6.59    0.42
   4  11   9    6.08    0.48
  -5 -11  -9    0.12    0.18
   5  11   9   -0.45    0.16
  -3  12   9    3.03    0.38
  -3  12   9    2.98    0.35
  -3  12   9    2.71    0.32
  -3  12   9    2.40    0.32
  -2  12   9    0.23    0.19
  -2  12   9    0.39    0.17
  -2  12   9    0.26    0.18
  -2  12   9   -0.07    0.14
  -1  12   9    5.21    0.41
  -1  12   9    6.70    0.44
  -1  12   9    5.93    0.45
  -1  12   9    6.48    0.38
   0  12   9    5.98    0.42
   0  12   9    6.07    0.33
   0  12   9    6.66    0.45
   0  12   9    6.34    0.45
  -1 -12  -9    0.20    0.17
   1  12   9    0.15    0.16
   1  12   9   -0.01    0.13
   1  12   9    0.08    0.15
  -2 -12  -9    1.57    0.24
   2  12   9    1.81    0.28
   2  12   9    1.42    0.25
  -3 -12  -9    2.11    0.28
   3  12   9    2.50    0.32
   3  12   9    2.16    0.28
  -4 -12  -9    0.57    0.20
   4  12   9    0.31    0.28
  -2  13   9    0.67    0.23
  -2  13   9    0.65    0.20
  -2  13   9    0.56    0.20
  -1  13   9    0.20    0.16
  -1  13   9    0.03    0.17
  -1  13   9    0.38    0.20
   0  13   9    1.90    0.29
   0  13   9    2.83    0.37
   0  13   9    2.82    0.32
   0  13   9    2.37    0.26
   1  13   9    0.43    0.20
   1  13   9    0.01    0.16
   1  13   9    0.45    0.21
  -2 -13  -9    1.71    0.26
   2  13   9    1.32    0.28
   2  13   9    1.48    0.26
  -3 -13  -9    0.07    0.15
   3  13   9   -0.07    0.17
   3  13   9   -0.19    0.14
  -1  14   9    0.85    0.21
  -1  14   9    0.76    0.24
   0  14   9    0.28    0.21
   2  14   9   -0.02    0.20
   1   7 -10    0.20    0.18
   0   7 -10    1.29    0.27
   0   7 -10    0.80    0.25
  -1   7 -10    0.24    0.21
   3   6 -10    0.75    0.23
   2   6 -10    1.29    0.27
   1   6 -10   -0.04    0.16
   1   6 -10    0.17    0.18
   1   6 -10    0.08    0.19
   0   6 -10    0.89    0.22
   0   6 -10    0.60    0.23
   0   6 -10    0.75    0.24
  -1   6 -10    0.48    0.21
  -1   6 -10    0.34    0.23
  -1   6 -10   -0.25    0.16
  -2   6 -10    2.72    0.34
  -2   6 -10    2.51    0.33
   4   5 -10    2.62    0.32
   3   5 -10   -0.21    0.16
   2   5 -10    1.04    0.36
   2   5 -10    0.71    0.23
   1   5 -10    2.66    0.31
   1   5 -10    2.67    0.31
   1   5 -10    2.42    0.32
   0   5 -10    7.68    0.48
   0   5 -10    7.58    0.50
   0   5 -10    7.20    0.46
  -1   5 -10    0.58    0.21
  -1   5 -10    0.94    0.24
  -2   5 -10   -0.16    0.16
  -2   5 -10   -0.04    0.17
  -3   5 -10    9.24    0.52
  -3   5 -10    9.48    0.53
   4   4 -10    1.25    0.24
   4   4 -10    0.72    0.25
   3   4 -10   -0.35    0.15
   2   4 -10    8.04    0.45
   2   4 -10    6.74    0.46
   1   4 -10    0.09    0.17
   1   4 -10    0.40    0.17
   1   4 -10    0.33    0.17
   0   4 -10    2.21    0.28
   0   4 -10    1.95    0.26
  -1   4 -10    2.40    0.29
  -1   4 -10    1.97    0.26
  -2   4 -10    1.05    0.22
  -2   4 -10    0.85    0.21
  -3   4 -10    3.17    0.33
  -3   4 -10    3.53    0.35
  -4   4 -10    1.45    0.25
  -4   4 -10    1.96    0.27
   4   3 -10    1.82    0.32
   4   3 -10    1.97    0.27
   3   3 -10   17.60    0.67
   2   3 -10    0.01    0.13
   2   3 -10    0.22    0.19
   2   3 -10    0.06    0.16
   1   3 -10    8.19    0.45
   1   3 -10    7.38    0.39
   1   3 -10    7.52    0.42
   0   3 -10   15.03    0.58
   0   3 -10   14.45    0.58
  -1   3 -10    0.12    0.14
  -1   3 -10    0.19    0.15
  -2   3 -10   -0.06    0.13
  -2   3 -10    0.12    0.13
  -3   3 -10   13.46    0.55
  -3   3 -10   12.39    0.54
  -4   3 -10    0.90    0.20
  -4   3 -10    0.81    0.19
   5   2 -10    5.56    0.48
   4   2 -10    1.69    0.24
   4   2 -10    1.40    0.27
   3   2 -10    0.65    0.18
   2   2 -10   23.47    0.61
   2   2 -10   24.75    0.76
   2   2 -10   24.48    0.75
   1   2 -10    0.88    0.18
   1   2 -10    1.11    0.19
   0   2 -10    8.91    0.42
   0   2 -10    8.44    0.43
  -1   2 -10    1.21    0.19
  -1   2 -10    1.43    0.21
  -2   2 -10    2.44    0.25
  -2   2 -10    2.43    0.26
  -3   2 -10    1.50    0.21
  -3   2 -10    1.38    0.21
  -4   2 -10    1.77    0.23
  -4   2 -10    1.91    0.23
  -5   2 -10    0.18    0.13
   5   1 -10    0.22    0.19
   4   1 -10    1.07    0.20
   4   1 -10    1.09    0.24
   3   1 -10    1.15    0.20
   3   1 -10    0.78    0.20
   2   1 -10   33.51    0.91
   2   1 -10   32.83    0.74
   2   1 -10   33.31    0.89
   1   1 -10    4.42    0.31
   1   1 -10    4.30    0.32
   0   1 -10   13.07    0.51
   0   1 -10   13.78    0.52
  -1   1 -10    4.79    0.32
  -1   1 -10    4.51    0.31
  -2   1 -10   13.25    0.50
  -2   1 -10   12.91    0.50
  -3   1 -10    7.69    0.38
  -3   1 -10    8.00    0.39
  -4   1 -10    1.93    0.22
  -4   1 -10    2.13    0.24
  -5   1 -10    0.75    0.18
  -5   1 -10    0.79    0.16
   5   0 -10    4.02    0.39
   4   0 -10    1.57    0.22
   4   0 -10    1.19    0.25
   3   0 -10   -0.03    0.12
   3   0 -10    0.07    0.12
   2   0 -10    1.45    0.21
   2   0 -10    1.91    0.15
   2   0 -10    1.70    0.21
   1   0 -10    2.99    0.26
   1   0 -10    3.10    0.28
  -1   0  10    3.19    0.22
   0   0 -10    9.36    0.41
   0   0 -10    9.91    0.43
   0   0  10    9.66    0.40
  -1   0 -10   49.22    1.15
  -1   0 -10   48.47    1.14
   1   0  10   48.91    1.19
  -2   0 -10    5.76    0.32
  -2   0 -10    5.69    0.31
   2   0  10    6.03    0.39
   2   0  10    5.42    0.30
  -3   0 -10   10.91    0.43
  -3   0 -10   11.35    0.44
  -4   0 -10   11.05    0.44
  -4   0 -10   10.69    0.44
  -5   0 -10    0.19    0.11
  -5   0 -10    0.37    0.13
   5  -1 -10    3.37    0.40
   4  -1 -10   24.54    0.83
   4  -1 -10   23.62    0.69
   3  -1 -10    5.24    0.32
   3  -1 -10    5.41    0.35
   2  -1 -10   52.95    1.23
   2  -1 -10   51.13    1.55
   2  -1 -10   55.49    1.22
  -2   1  10   53.81    1.08
   1  -1 -10   35.11    1.08
   1  -1 -10   35.21    0.89
   1  -1 -10   36.35    0.91
  -1   1  10   35.19    0.82
   0  -1 -10    0.88    0.15
   0  -1 -10    1.52    0.26
   0  -1 -10    1.40    0.18
   0   1  10    1.10    0.16
  -1  -1 -10   16.70    0.54
  -1  -1 -10   16.79    0.54
   1   1  10   15.97    0.57
  -2  -1 -10    4.94    0.29
  -2  -1 -10    4.77    0.29
   2   1  10    4.74    0.36
  -3  -1 -10    0.85    0.15
  -3  -1 -10    0.83    0.15
   3   1  10    0.56    0.20
  -4  -1 -10    2.22    0.23
  -4  -1 -10    2.05    0.22
   4   1  10    2.01    0.31
  -5  -1 -10    0.37    0.13
  -5  -1 -10    0.23    0.12
  -6   2  10    2.21    0.32
   5  -2 -10    0.65    0.21
  -5   2  10    0.63    0.20
   4  -2 -10    1.28    0.20
   4  -2 -10    1.55    0.26
   4  -2 -10    1.29    0.29
  -4   2  10    1.51    0.25
   3  -2 -10    2.89    0.27
   3  -2 -10    2.94    0.25
   3  -2 -10    2.76    0.32
  -3   2  10    3.39    0.28
   2  -2 -10   49.90    1.16
   2  -2 -10   46.42    0.94
   2  -2 -10   49.40    1.11
   2  -2 -10   48.06    1.12
   2  -2 -10   47.60    1.26
  -2   2  10   48.42    1.01
   1  -2 -10    1.61    0.19
   1  -2 -10    1.22    0.17
   1  -2 -10    1.14    0.20
  -1   2  10    1.65    0.17
   0  -2 -10    2.33    0.22
   0  -2 -10    2.37    0.25
   0  -2 -10    2.23    0.21
   0   2  10    2.09    0.21
  -1  -2 -10   42.20    0.99
  -1  -2 -10   42.20    0.99
   1   2  10   40.79    1.03
  -2  -2 -10   39.64    0.95
  -2  -2 -10   39.27    0.94
   2   2  10   38.50    1.05
  -3  -2 -10    6.56    0.32
  -3  -2 -10    7.15    0.33
   3   2  10    6.11    0.42
  -4  -2 -10   18.49    0.57
  -4  -2 -10   18.12    0.57
   4   2  10   18.10    0.76
  -5  -2 -10    4.84    0.29
  -5  -2 -10    4.37    0.29
   5   2  10    4.94    0.45
  -6  -2 -10    3.19    0.27
   6  -3 -10    0.71    0.29
  -6   3  10    0.30    0.20
   5  -3 -10    0.09    0.16
   5  -3 -10   -0.15    0.13
  -5   3  10    0.00    0.14
   4  -3 -10   61.76    1.55
   4  -3 -10   60.67    1.52
   4  -3 -10   61.24    1.31
  -4   3  10   61.00    1.46
   3  -3 -10   18.68    0.70
   3  -3 -10   16.70    0.61
   3  -3 -10   17.90    0.56
  -3   3  10   17.29    0.61
   2  -3 -10   23.36    0.79
   2  -3 -10   22.36    0.53
   2  -3 -10   24.18    0.69
   2  -3 -10   23.64    0.65
   2  -3 -10   23.42    0.67
  -2   3  10   23.56    0.69
   1  -3 -10   79.17    1.64
   1  -3 -10   79.75    1.64
   1  -3 -10   79.76    1.80
   1  -3 -10   78.16    1.61
   0  -3 -10    2.77    0.26
   0  -3 -10    3.19    0.23
   0  -3 -10    2.93    0.23
   0   3  10    3.31    0.24
  -1  -3 -10    0.06    0.09
  -1  -3 -10   -0.02    0.08
   1   3  10   -0.07    0.09
  -2  -3 -10    1.75    0.20
  -2  -3 -10    1.76    0.20
   2   3  10    2.14    0.26
  -3  -3 -10    0.61    0.12
  -3  -3 -10    0.69    0.13
   3   3  10    0.13    0.14
   3   3  10    0.49    0.16
  -4  -3 -10   11.65    0.44
  -4  -3 -10   11.76    0.44
   4   3  10   11.67    0.60
  -5  -3 -10    1.22    0.18
  -5  -3 -10    1.43    0.19
   5   3  10    1.64    0.31
  -6  -3 -10    0.81    0.16
   6  -4 -10    1.32    0.29
   6  -4 -10    1.49    0.34
   5  -4 -10    1.87    0.30
   5  -4 -10    1.50    0.26
  -5   4  10    1.95    0.29
   4  -4 -10    0.23    0.14
   4  -4 -10    0.03    0.14
   4  -4 -10    0.32    0.17
  -4   4  10    0.43    0.18
   3  -4 -10    1.82    0.24
   3  -4 -10    1.57    0.23
   3  -4 -10    1.57    0.19
  -3   4  10    1.81    0.24
  -3   4  10    2.08    0.24
   2  -4 -10   24.83    0.67
   2  -4 -10   26.82    0.83
   2  -4 -10   22.96    0.57
   2  -4 -10   25.27    0.69
   2  -4 -10   23.56    0.69
  -2   4  10   23.82    0.72
  -2   4  10   25.35    0.73
   1  -4 -10   21.52    0.60
   1  -4 -10   23.05    0.61
   1  -4 -10   23.06    0.64
   1  -4 -10   23.32    0.65
   1  -4 -10   23.22    0.77
  -1   4  10   23.08    0.68
  -1   4  10   23.26    0.66
   0  -4 -10    6.39    0.31
   0  -4 -10    6.94    0.34
   0  -4 -10    6.94    0.39
   0   4  10    7.59    0.36
  -1  -4 -10    0.01    0.09
  -1  -4 -10    0.07    0.08
   1   4  10    0.07    0.11
   1   4  10   -0.04    0.10
  -2  -4 -10   19.24    0.58
  -2  -4 -10   18.85    0.58
   2   4  10   20.04    0.68
   2   4  10   19.61    0.71
  -3  -4 -10    4.83    0.29
  -3  -4 -10    4.71    0.28
   3   4  10    5.00    0.37
   3   4  10    4.59    0.35
  -4  -4 -10    0.70    0.15
  -4  -4 -10    0.75    0.15
   4   4  10    0.85    0.23
   4   4  10    0.70    0.17
  -5  -4 -10    0.32    0.14
   5   4  10    0.15    0.19
   5   4  10    0.48    0.17
  -6  -4 -10   -0.02    0.11
   6   4  10   -0.21    0.17
   6   4  10   -0.08    0.10
   6  -5 -10    1.91    0.31
   5  -5 -10    2.14    0.32
   5  -5 -10    2.26    0.32
  -5   5  10    2.59    0.32
   4  -5 -10    1.98    0.30
   4  -5 -10    2.23    0.29
  -4   5  10    1.83    0.23
  -4   5  10    1.94    0.28
   3  -5 -10   11.25    0.49
   3  -5 -10   11.71    0.43
   3  -5 -10   11.67    0.56
  -3   5  10   11.08    0.48
  -3   5  10   11.39    0.48
   2  -5 -10    0.70    0.13
   2  -5 -10    0.86    0.19
   2  -5 -10    0.78    0.16
   2  -5 -10    0.73    0.12
   2  -5 -10    0.65    0.14
  -2   5  10    0.73    0.16
  -2   5  10    1.01    0.18
  -2   5  10    0.54    0.15
   1  -5 -10    1.84    0.20
   1  -5 -10    1.79    0.18
   1  -5 -10    1.92    0.20
   1  -5 -10    1.95    0.17
   1  -5 -10    1.67    0.23
  -1   5  10    2.00    0.24
  -1   5  10    1.92    0.21
   0  -5 -10   12.16    0.35
   0  -5 -10   12.34    0.55
   0  -5 -10   12.21    0.45
   0  -5 -10   11.65    0.43
   0   5  10   11.89    0.46
  -1  -5 -10    9.36    0.64
  -1  -5 -10    9.59    0.39
  -1  -5 -10    9.77    0.39
   1   5  10    9.82    0.43
   1   5  10    9.78    0.49
   1   5  10    9.85    0.41
  -2  -5 -10   64.76    1.38
  -2  -5 -10   62.49    1.34
  -2  -5 -10   62.60    1.37
   2   5  10   62.72    1.54
   2   5  10   63.82    1.37
   2   5  10   65.57    1.50
  -3  -5 -10    8.16    0.36
   3   5  10    7.38    0.44
   3   5  10    7.35    0.28
   3   5  10    7.37    0.44
  -4  -5 -10    2.67    0.25
   4   5  10    2.24    0.29
   4   5  10    2.65    0.34
  -5  -5 -10   20.70    0.66
   5   5  10   20.74    0.77
   5   5  10   22.35    0.88
  -6  -5 -10   -0.02    0.12
   6   5  10    0.09    0.13
   6   5  10   -0.25    0.17
   5  -6 -10    0.54    0.21
  -5   6  10    0.49    0.18
  -5   6  10    0.72    0.23
  -5   6  10    0.52    0.16
   4  -6 -10    0.38    0.18
   4  -6 -10    0.72    0.20
  -4   6  10    0.68    0.17
  -4   6  10    0.57    0.20
  -4   6  10    0.38    0.16
   3  -6 -10   35.97    1.10
   3  -6 -10   37.50    1.00
   3  -6 -10   37.03    0.90
  -3   6  10   37.75    0.99
  -3   6  10   38.73    1.02
  -3   6  10   39.22    1.02
   2  -6 -10    6.55    0.43
   2  -6 -10    6.58    0.33
   2  -6 -10    6.12    0.29
   2  -6 -10    6.31    0.32
  -2   6  10    6.25    0.34
  -2   6  10    6.22    0.36
  -2   6  10    6.12    0.35
   1  -6 -10   33.76    1.02
   1  -6 -10   32.82    0.84
   1  -6 -10   32.86    0.83
   1  -6 -10   33.87    0.78
   1  -6 -10   34.75    0.86
  -1   6  10   34.35    0.89
  -1   6  10   32.28    0.88
  -1   6  10   33.32    0.85
   0  -6 -10   95.95    1.91
   0  -6 -10   95.10    1.90
   0  -6 -10   93.78    2.18
   0  -6 -10   95.68    1.75
   0   6  10   96.86    1.95
   0   6  10   95.04    1.88
   0   6  10   93.24    1.94
   0   6  10   90.89    2.07
  -1  -6 -10    4.26    0.27
  -1  -6 -10    4.41    0.28
   1   6  10    4.07    0.34
   1   6  10    3.95    0.29
  -2  -6 -10    7.56    0.36
  -2  -6 -10    7.31    0.30
   2   6  10    7.22    0.36
   2   6  10    6.79    0.44
   2   6  10    7.46    0.43
  -3  -6 -10    0.37    0.13
   3   6  10    0.25    0.12
   3   6  10    0.28    0.17
   3   6  10    0.05    0.15
   3   6  10    0.29    0.10
  -4  -6 -10    9.10    0.42
   4   6  10    9.58    0.55
   4   6  10    9.30    0.50
  -5  -6 -10    0.19    0.13
   5   6  10   -0.04    0.12
   5   6  10    0.36    0.21
  -6  -6 -10    0.02    0.13
   6   6  10   -0.01    0.14
   6   6  10   -0.04    0.17
   5  -7 -10    0.06    0.14
  -5   7  10    0.04    0.15
  -5   7  10    0.20    0.18
  -5   7  10    0.23    0.15
   4  -7 -10    0.32    0.18
  -4   7  10    0.15    0.16
  -4   7  10    0.11    0.15
  -4   7  10    0.37    0.16
   3  -7 -10    0.91    0.16
   3  -7 -10    0.57    0.16
  -3   7  10    0.81    0.18
  -3   7  10    0.72    0.18
  -3   7  10    0.61    0.18
   2  -7 -10    5.23    0.40
   2  -7 -10    5.88    0.31
   2  -7 -10    5.50    0.29
  -2   7  10    5.31    0.34
  -2   7  10    5.90    0.34
  -2   7  10    5.93    0.36
   1  -7 -10   31.72    0.81
   1  -7 -10   31.81    0.83
  -1   7  10   31.95    0.88
  -1   7  10   33.55    0.85
  -1   7  10   33.12    0.89
   0  -7 -10    6.74    0.33
   0  -7 -10    6.74    0.35
   0   7  10    6.91    0.37
   0   7  10    6.64    0.31
   0   7  10    7.31    0.37
  -1  -7 -10    0.23    0.12
   1   7  10    0.01    0.10
   1   7  10    0.24    0.16
   1   7  10    0.20    0.14
  -2  -7 -10   72.84    1.55
   2   7  10   72.39    1.57
   2   7  10   73.01    1.75
  -3  -7 -10    5.55    0.33
   3   7  10    5.27    0.28
   3   7  10    5.39    0.40
   3   7  10    5.17    0.31
   3   7  10    5.05    0.40
  -4  -7 -10    1.29    0.20
   4   7  10    1.25    0.22
   4   7  10    1.24    0.26
  -5  -7 -10    4.83    0.34
   5   7  10    4.19    0.38
   5   7  10    4.48    0.45
  -6  -7 -10   -0.06    0.12
   6   7  10   -0.11    0.13
   6   7  10    0.13    0.20
  -5   8  10    0.11    0.16
  -5   8  10    0.11    0.14
  -4   8  10    0.33    0.15
  -4   8  10    0.49    0.18
  -4   8  10    0.61    0.20
   3  -8 -10   14.08    0.48
  -3   8  10   14.99    0.59
  -3   8  10   14.62    0.57
  -3   8  10   14.46    0.58
   2  -8 -10    6.69    0.34
  -2   8  10    7.15    0.40
  -2   8  10    7.20    0.40
  -2   8  10    7.38    0.39
   1  -8 -10    6.35    0.34
   1  -8 -10    5.93    0.31
  -1   8  10    6.40    0.38
  -1   8  10    6.06    0.37
  -1   8  10    6.39    0.34
   0  -8 -10    8.05    0.38
   0  -8 -10    8.05    0.37
   0   8  10    7.78    0.40
   0   8  10    8.14    0.40
   0   8  10    8.39    0.35
  -1  -8 -10   23.82    0.69
   1   8  10   24.02    0.72
   1   8  10   23.42    0.61
   1   8  10   23.72    0.71
  -2  -8 -10   12.92    0.50
   2   8  10   12.45    0.50
   2   8  10   12.45    0.48
  -3  -8 -10    2.94    0.28
   3   8  10    2.48    0.23
   3   8  10    2.86    0.27
   3   8  10    2.37    0.31
   3   8  10    2.17    0.29
  -4  -8 -10    1.99    0.24
   4   8  10    2.35    0.33
   4   8  10    1.61    0.30
  -5  -8 -10    2.14    0.26
   5   8  10    2.00    0.31
   5   8  10    2.19    0.34
  -4   9  10    0.02    0.14
  -4   9  10    0.48    0.17
  -4   9  10    0.51    0.18
  -3   9  10    0.80    0.20
  -3   9  10    0.85    0.20
  -3   9  10    0.83    0.20
   2  -9 -10    0.16    0.11
  -2   9  10   -0.05    0.12
  -2   9  10   -0.06    0.11
  -2   9  10    0.05    0.13
   1  -9 -10    2.28    0.24
  -1   9  10    2.08    0.26
  -1   9  10    1.71    0.23
  -1   9  10    1.95    0.22
   0  -9 -10    0.70    0.14
   0   9  10    0.48    0.17
   0   9  10    0.48    0.12
   0   9  10    0.52    0.16
  -1  -9 -10    3.71    0.28
   1   9  10    3.61    0.32
   1   9  10    3.61    0.30
   1   9  10    3.62    0.22
   1   9  10    3.64    0.29
  -2  -9 -10    0.35    0.14
   2   9  10    0.25    0.13
   2   9  10    0.25    0.14
  -3  -9 -10   -0.25    0.11
   3   9  10    0.09    0.12
   3   9  10   -0.05    0.12
  -4  -9 -10    5.07    0.37
   4   9  10    5.53    0.48
  -5  -9 -10    0.43    0.17
   5   9  10    0.29    0.23
  -4  10  10    0.21    0.17
  -4  10  10    0.42    0.19
  -4  10  10    0.26    0.16
  -3  10  10    1.74    0.26
  -3  10  10    1.37    0.22
  -3  10  10    1.81    0.26
   2 -10 -10    0.32    0.13
  -2  10  10    0.54    0.17
  -2  10  10    0.39    0.17
  -2  10  10    0.34    0.16
   1 -10 -10    0.12    0.12
  -1  10  10    0.29    0.15
  -1  10  10    0.28    0.13
  -1  10  10    0.00    0.13
   0 -10 -10    1.56    0.20
   0  10  10    1.35    0.18
   0  10  10    1.65    0.25
   0  10  10    1.44    0.24
   0  10  10    1.31    0.23
  -1 -10 -10    3.45    0.29
   1  10  10    4.03    0.33
   1  10  10    3.71    0.33
   1  10  10    3.70    0.22
   1  10  10    3.61    0.32
  -2 -10 -10    2.44    0.27
   2  10  10    2.04    0.27
   2  10  10    1.51    0.23
  -3 -10 -10    9.61    0.47
   3  10  10    9.44    0.46
   3  10  10    9.71    0.47
  -4 -10 -10    4.33    0.36
   4  10  10    4.02    0.44
  -5 -10 -10    1.60    0.26
   5  10  10    1.64    0.32
  -4  11  10    0.27    0.17
  -4  11  10    0.39    0.20
  -3  11  10    0.28    0.16
  -3  11  10    0.04    0.16
  -3  11  10    0.20    0.16
   2 -11 -10    1.44    0.20
  -2  11  10    1.34    0.23
  -2  11  10    1.37    0.23
  -2  11  10    1.39    0.24
   1 -11 -10    0.01    0.11
  -1  11  10   -0.16    0.11
  -1  11  10   -0.08    0.14
  -1  11  10    0.18    0.15
  -1  11  10    0.05    0.15
   0  11  10    1.36    0.23
   0  11  10    1.06    0.21
   0  11  10    1.73    0.20
   0  11  10    1.85    0.28
  -1 -11 -10    3.23    0.30
   1  11  10    2.59    0.29
   1  11  10    2.56    0.28
   1  11  10    3.44    0.34
   1  11  10    3.08    0.24
  -2 -11 -10    3.48    0.32
   2  11  10    3.16    0.32
   2  11  10    3.14    0.32
  -3 -11 -10    0.13    0.14
   3  11  10    0.10    0.15
   3  11  10   -0.01    0.14
  -4 -11 -10    0.23    0.17
   4  11  10    0.25    0.20
  -3  12  10    0.08    0.17
  -3  12  10   -0.07    0.14
  -3  12  10   -0.03    0.16
  -2  12  10    0.77    0.20
  -2  12  10    0.50    0.18
  -2  12  10    0.64    0.21
   1 -12 -10    2.31    0.26
  -1  12  10    3.00    0.34
  -1  12  10    2.58    0.34
  -1  12  10    2.08    0.28
  -1  12  10    2.63    0.28
   0  12  10    0.42    0.18
   0  12  10    0.42    0.14
   0  12  10    0.08    0.16
   0  12  10    0.35    0.19
   1  12  10    0.24    0.16
   1  12  10    0.47    0.19
   1  12  10    0.42    0.18
  -2 -12 -10    0.81    0.20
   2  12  10    0.79    0.22
   2  12  10    0.92    0.21
  -3 -12 -10    0.09    0.15
   3  12  10    0.03    0.15
   3  12  10   -0.06    0.15
  -4 -12 -10    3.28    0.35
   4  12  10    4.30    0.47
  -2  13  10    0.42    0.19
  -2  13  10   -0.27    0.15
   1 -13 -10    0.08    0.13
  -1  13  10    0.28    0.20
  -1  13  10    0.19    0.15
  -1  13  10   -0.01    0.16
   0  13  10    4.75    0.41
   0  13  10    4.78    0.43
   0  13  10    5.02    0.46
   1  13  10    0.86    0.22
   1  13  10    0.58    0.22
  -2 -13 -10    1.38    0.28
   2  13  10    1.57    0.29
   2  13  10    1.13    0.24
  -3 -13 -10    0.26    0.18
   3  13  10    0.37    0.21
   3  13  10    0.27    0.18
   0  14  10    0.03    0.20
   1   6 -11    2.75    0.34
   0   6 -11    0.01    0.17
   0   6 -11    0.05    0.19
  -1   6 -11   -0.06    0.17
   3   5 -11    1.05    0.25
   2   5 -11   -0.05    0.18
   1   5 -11    0.03    0.18
   1   5 -11   -0.05    0.15
   0   5 -11    0.15    0.19
   0   5 -11    0.31    0.20
   0   5 -11   -0.12    0.16
  -1   5 -11    0.09    0.19
  -1   5 -11    0.03    0.19
  -2   5 -11   -0.13    0.17
  -2   5 -11   -0.05    0.17
   4   4 -11    0.59    0.21
   3   4 -11    0.87    0.23
   2   4 -11    7.62    0.50
   1   4 -11    0.52    0.19
   1   4 -11    0.29    0.19
   1   4 -11   -0.14    0.15
   0   4 -11    0.52    0.21
   0   4 -11    1.01    0.24
  -1   4 -11   10.57    0.56
  -1   4 -11   10.05    0.54
  -2   4 -11   -0.16    0.17
  -2   4 -11   -0.05    0.17
  -3   4 -11    0.93    0.23
  -3   4 -11    0.85    0.22
   4   3 -11    0.61    0.23
   4   3 -11    0.34    0.20
   3   3 -11    4.54    0.41
   2   3 -11    0.02    0.17
   2   3 -11    0.07    0.18
   1   3 -11   10.41    0.48
   1   3 -11   11.50    0.55
   1   3 -11   11.15    0.53
   0   3 -11   10.54    0.52
   0   3 -11   10.46    0.53
  -1   3 -11    0.15    0.16
  -1   3 -11   -0.05    0.15
  -2   3 -11    6.83    0.44
  -2   3 -11    6.90    0.46
  -3   3 -11    3.35    0.34
  -3   3 -11    3.63    0.35
  -4   3 -11    3.15    0.32
  -4   3 -11    3.33    0.34
   4   2 -11   -0.03    0.17
   4   2 -11    0.12    0.16
   3   2 -11    9.59    0.50
   2   2 -11   10.15    0.49
   2   2 -11   10.15    0.51
   1   2 -11    0.44    0.17
   1   2 -11    0.42    0.16
   0   2 -11    2.89    0.29
   0   2 -11    3.23    0.32
  -1   2 -11   12.06    0.53
  -1   2 -11   12.38    0.53
  -2   2 -11    1.09    0.20
  -2   2 -11    1.45    0.23
  -3   2 -11    0.15    0.16
  -3   2 -11    0.09    0.15
  -4   2 -11    0.01    0.13
  -4   2 -11    0.32    0.15
   5   1 -11    0.35    0.25
   4   1 -11    2.08    0.32
   4   1 -11    2.24    0.27
   3   1 -11    3.54    0.34
   3   1 -11    3.56    0.32
   2   1 -11    2.04    0.26
   2   1 -11    2.22    0.24
   1   1 -11    0.54    0.16
   1   1 -11    0.40    0.14
   0   1 -11   20.69    0.69
   0   1 -11   21.11    0.69
  -1   1 -11    1.14    0.20
  -1   1 -11    1.18    0.20
  -2   1 -11    0.50    0.15
  -2   1 -11    0.35    0.14
  -3   1 -11    5.97    0.38
  -3   1 -11    5.57    0.37
  -4   1 -11    1.10    0.19
  -4   1 -11    1.28    0.20
  -5   1 -11   -0.20    0.11
   5   0 -11    2.05    0.33
   4   0 -11    2.80    0.35
   4   0 -11    2.77    0.28
   3   0 -11    2.43    0.30
   3   0 -11    3.15    0.29
   2   0 -11    0.54    0.15
   2   0 -11    0.66    0.15
   1   0 -11    2.31    0.25
   1   0 -11    2.06    0.25
  -1   0  11    2.18    0.20
   0   0 -11    0.70    0.17
   0   0 -11    0.69    0.16
   0   0  11    0.49    0.14
  -1   0 -11    1.44    0.21
  -1   0 -11    1.88    0.23
   1   0  11    1.63    0.23
  -2   0 -11    0.55    0.15
  -2   0 -11    0.97    0.18
   2   0  11    0.85    0.20
  -3   0 -11    0.48    0.16
  -3   0 -11    0.50    0.15
  -4   0 -11    8.61    0.42
  -4   0 -11    9.04    0.43
  -5   0 -11    2.24    0.24
  -5   0 -11    1.74    0.22
   5  -1 -11    1.82    0.31
   4  -1 -11    3.83    0.36
   4  -1 -11    4.35    0.32
   3  -1 -11    1.96    0.24
   3  -1 -11    1.46    0.24
   2  -1 -11   20.96    0.67
   2  -1 -11   19.85    0.63
  -2   1  11   20.22    0.57
   1  -1 -11   40.92    1.01
   1  -1 -11   39.06    1.01
  -1   1  11   39.58    0.93
   0  -1 -11    1.21    0.20
   0  -1 -11    1.06    0.18
   0   1  11    1.20    0.18
  -1  -1 -11   22.46    0.69
  -1  -1 -11   23.17    0.70
   1   1  11   22.59    0.73
  -2  -1 -11    6.38    0.35
  -2  -1 -11    6.00    0.34
   2   1  11    6.15    0.41
  -3  -1 -11    0.05    0.11
  -3  -1 -11    0.04    0.12
   3   1  11   -0.08    0.16
  -4  -1 -11    2.42    0.25
  -4  -1 -11    2.17    0.24
  -5  -1 -11    1.88    0.23
  -5  -1 -11    2.10    0.23
   5  -2 -11    0.12    0.19
  -5   2  11    0.65    0.21
   4  -2 -11    0.93    0.18
   4  -2 -11    0.54    0.19
   3  -2 -11    6.67    0.41
   3  -2 -11    7.04    0.37
   2  -2 -11   21.68    0.69
   2  -2 -11   20.86    0.67
   2  -2 -11   22.48    0.66
  -2   2  11   21.70    0.57
   1  -2 -11    7.90    0.41
   1  -2 -11    7.61    0.39
  -1   2  11    7.54    0.34
   0  -2 -11   57.87    1.31
   0  -2 -11   58.34    1.31
   0   2  11   56.71    1.29
  -1  -2 -11   32.72    0.86
  -1  -2 -11   31.66    0.85
   1   2  11   30.95    0.89
  -2  -2 -11    2.43    0.24
  -2  -2 -11    2.75    0.26
   2   2  11    2.74    0.30
  -3  -2 -11    7.92    0.39
  -3  -2 -11    9.03    0.40
   3   2  11    8.47    0.51
  -4  -2 -11    9.89    0.44
  -4  -2 -11   10.79    0.45
   4   2  11   10.84    0.62
  -5  -2 -11    1.76    0.22
  -5  -2 -11    1.37    0.20
   5  -3 -11    6.55    0.48
  -5   3  11    7.19    0.46
   4  -3 -11   18.04    0.59
   4  -3 -11   17.57    0.71
  -4   3  11   17.72    0.68
   3  -3 -11    1.42    0.19
   3  -3 -11    1.04    0.20
  -3   3  11    1.11    0.22
   2  -3 -11    0.98    0.16
   2  -3 -11    0.64    0.15
   2  -3 -11    0.83    0.17
   1  -3 -11  105.41    2.12
   1  -3 -11  103.52    2.10
  -1   3  11  102.22    2.04
   0  -3 -11    2.48    0.24
   0  -3 -11    1.63    0.20
   0   3  11    1.69    0.22
  -1  -3 -11   26.84    0.75
  -1  -3 -11   27.75    0.77
   1   3  11   26.92    0.80
  -2  -3 -11   19.62    0.62
  -2  -3 -11   20.50    0.63
   2   3  11   19.35    0.70
  -3  -3 -11    4.91    0.31
  -3  -3 -11    5.12    0.31
   3   3  11    5.47    0.41
  -4  -3 -11    1.38    0.20
  -4  -3 -11    1.28    0.19
   4   3  11    1.26    0.28
  -5  -3 -11   -0.04    0.10
  -5  -3 -11    0.05    0.11
   5   3  11    0.13    0.21
   5  -4 -11    2.06    0.33
  -5   4  11    1.65    0.28
   4  -4 -11    2.38    0.31
  -4   4  11    3.15    0.34
   3  -4 -11    0.34    0.13
   3  -4 -11    0.33    0.15
  -3   4  11    0.41    0.15
   2  -4 -11   22.58    0.68
   2  -4 -11   24.60    0.70
   2  -4 -11   23.29    0.67
  -2   4  11   23.05    0.71
   1  -4 -11   32.01    0.86
   1  -4 -11   33.50    0.86
   1  -4 -11   32.39    0.81
   0  -4 -11   17.91    0.57
   0  -4 -11   17.81    0.58
   0   4  11   18.12    0.59
  -1  -4 -11   23.38    0.69
  -1  -4 -11   23.93    0.70
   1   4  11   24.61    0.75
  -2  -4 -11    0.29    0.12
  -2  -4 -11    0.10    0.10
  -3  -4 -11    9.48    0.41
  -3  -4 -11    8.50    0.39
   3   4  11    8.91    0.51
   3   4  11    8.32    0.47
  -4  -4 -11    1.97    0.23
  -4  -4 -11    1.57    0.21
   4   4  11    2.01    0.31
   4   4  11    1.37    0.22
  -5  -4 -11   -0.10    0.10
  -5  -4 -11    0.01    0.11
   5   4  11    0.09    0.20
   5  -5 -11   -0.28    0.14
  -5   5  11    0.28    0.18
   4  -5 -11   24.82    0.85
  -4   5  11   25.52    0.83
   3  -5 -11   -0.11    0.12
   3  -5 -11    0.17    0.12
  -3   5  11    0.29    0.15
  -3   5  11    0.25    0.14
   2  -5 -11    0.30    0.12
   2  -5 -11    0.50    0.14
  -2   5  11    0.30    0.14
  -2   5  11    0.31    0.13
   1  -5 -11    5.28    0.27
   1  -5 -11    4.40    0.26
   1  -5 -11    4.54    0.29
   1  -5 -11    4.51    0.32
  -1   5  11    4.73    0.34
  -1   5  11    4.96    0.31
   0  -5 -11    0.46    0.13
   0  -5 -11    0.64    0.11
   0  -5 -11    0.74    0.15
   0   5  11    0.44    0.14
  -1  -5 -11    1.15    0.18
  -1  -5 -11    1.20    0.17
   1   5  11    1.33    0.23
   1   5  11    1.52    0.21
   1   5  11    1.21    0.20
  -2  -5 -11   -0.10    0.10
  -2  -5 -11    0.08    0.11
   2   5  11   -0.01    0.12
   2   5  11    0.15    0.14
  -3  -5 -11    1.19    0.18
  -3  -5 -11    1.11    0.18
   3   5  11    1.51    0.26
   3   5  11    0.99    0.21
  -4  -5 -11    0.33    0.15
  -4  -5 -11    0.09    0.13
   4   5  11    0.31    0.17
   4   5  11    0.06    0.18
  -5  -5 -11    0.24    0.13
  -5  -5 -11    0.46    0.15
   5   5  11    0.07    0.19
   5   5  11    0.40    0.18
  -5   6  11    0.13    0.15
  -5   6  11    0.05    0.17
   4  -6 -11    0.77    0.21
  -4   6  11    0.89    0.22
  -4   6  11    0.51    0.18
   3  -6 -11    6.07    0.33
   3  -6 -11    6.27    0.38
  -3   6  11    6.14    0.39
  -3   6  11    5.31    0.37
  -3   6  11    6.39    0.38
   2  -6 -11    0.67    0.14
   2  -6 -11    0.68    0.15
  -2   6  11    0.79    0.17
  -2   6  11    0.74    0.18
  -2   6  11    0.38    0.15
   1  -6 -11   35.14    0.91
   1  -6 -11   33.52    0.87
   1  -6 -11   35.33    0.83
   1  -6 -11   35.30    0.89
  -1   6  11   35.73    0.95
  -1   6  11   36.57    0.92
   0  -6 -11   17.76    0.46
   0  -6 -11   18.94    0.59
   0  -6 -11   17.81    0.59
   0   6  11   18.62    0.62
  -1  -6 -11    9.90    0.42
  -1  -6 -11    9.61    0.42
  -1  -6 -11    9.47    0.26
   1   6  11    9.58    0.43
   1   6  11    8.89    0.50
  -2  -6 -11    0.73    0.15
  -2  -6 -11    0.42    0.15
   2   6  11    0.62    0.15
   2   6  11    0.52    0.18
   2   6  11    0.37    0.18
  -3  -6 -11    0.04    0.11
   3   6  11    0.22    0.16
   3   6  11    0.24    0.10
   3   6  11    0.13    0.17
  -4  -6 -11    0.95    0.18
   4   6  11    1.21    0.27
   4   6  11    0.74    0.21
  -5  -6 -11    0.10    0.13
   5   6  11   -0.12    0.18
   5   6  11    0.15    0.14
  -5   7  11   -0.24    0.14
  -5   7  11    0.20    0.16
  -4   7  11    0.23    0.15
  -4   7  11    0.31    0.17
  -4   7  11    0.26    0.15
   3  -7 -11    0.19    0.12
  -3   7  11    0.20    0.14
  -3   7  11    0.48    0.17
  -3   7  11   -0.04    0.12
   2  -7 -11    8.74    0.38
   2  -7 -11    9.05    0.40
  -2   7  11    8.47    0.44
  -2   7  11    8.70    0.42
  -2   7  11    8.26    0.44
   1  -7 -11    7.66    0.36
   1  -7 -11    7.90    0.31
   1  -7 -11    7.82    0.39
  -1   7  11    8.10    0.42
  -1   7  11    8.21    0.38
  -1   7  11    8.17    0.42
   0  -7 -11   10.38    0.43
   0  -7 -11   11.30    0.46
   0   7  11   11.16    0.47
   0   7  11   10.86    0.42
   0   7  11   11.61    0.48
  -1  -7 -11    0.70    0.16
  -1  -7 -11    0.43    0.14
   1   7  11    0.36    0.15
  -2  -7 -11   14.70    0.54
   2   7  11   14.63    0.61
   2   7  11   13.52    0.52
  -3  -7 -11    2.21    0.24
   3   7  11    2.06    0.31
   3   7  11    1.94    0.19
   3   7  11    1.73    0.28
   3   7  11    2.06    0.22
  -4  -7 -11    0.30    0.14
   4   7  11    0.06    0.13
   4   7  11    0.18    0.20
  -5  -7 -11    0.68    0.19
   5   7  11    0.90    0.27
   5   7  11    0.87    0.23
  -5   8  11    0.41    0.19
  -5   8  11    0.39    0.20
  -4   8  11    5.17    0.38
  -4   8  11    5.09    0.39
  -4   8  11    5.10    0.40
   3  -8 -11    9.09    0.40
  -3   8  11    9.98    0.49
  -3   8  11    9.61    0.48
  -3   8  11    9.56    0.50
   2  -8 -11    1.14    0.18
  -2   8  11    0.94    0.20
  -2   8  11    1.27    0.21
  -2   8  11    1.05    0.21
   1  -8 -11   16.79    0.66
   1  -8 -11   16.83    0.58
  -1   8  11   17.36    0.63
  -1   8  11   16.65    0.57
  -1   8  11   16.51    0.61
   0  -8 -11   11.95    0.48
   0  -8 -11   11.37    0.45
   0   8  11   11.77    0.50
   0   8  11   10.92    0.43
   0   8  11   12.16    0.51
  -1  -8 -11    6.65    0.36
  -1  -8 -11    6.98    0.37
   1   8  11    6.87    0.39
   1   8  11    6.49    0.37
  -2  -8 -11    3.03    0.28
   2   8  11    2.80    0.28
   2   8  11    2.79    0.26
  -3  -8 -11    1.08    0.20
   3   8  11    0.68    0.16
   3   8  11    1.01    0.17
   3   8  11    0.73    0.21
  -4  -8 -11    5.19    0.37
   4   8  11    4.56    0.46
  -5  -8 -11   -0.15    0.12
   5   8  11    0.25    0.20
  -4   9  11    0.58    0.20
  -4   9  11    0.55    0.20
  -4   9  11    0.27    0.16
  -3   9  11    2.40    0.30
  -3   9  11    2.03    0.26
  -3   9  11    2.17    0.28
   2  -9 -11    0.20    0.12
  -2   9  11    0.21    0.15
  -2   9  11    0.10    0.14
  -2   9  11   -0.16    0.12
   1  -9 -11    7.63    0.40
  -1   9  11    7.75    0.44
  -1   9  11    8.01    0.44
  -1   9  11    8.25    0.39
   0  -9 -11    3.85    0.30
   0  -9 -11    4.00    0.28
   0   9  11    4.29    0.35
   0   9  11    3.81    0.26
   0   9  11    3.71    0.33
  -1  -9 -11   10.15    0.44
   1   9  11    9.89    0.46
   1   9  11    9.46    0.36
   1   9  11   10.43    0.48
  -2  -9 -11    0.08    0.12
   2   9  11    0.02    0.12
   2   9  11    0.20    0.14
  -3  -9 -11    3.53    0.32
   3   9  11    3.05    0.37
   3   9  11    3.08    0.26
   3   9  11    3.38    0.31
  -4  -9 -11    1.58    0.24
   4   9  11    1.86    0.33
  -5  -9 -11    0.33    0.17
   5   9  11   -0.07    0.19
  -4  10  11    1.92    0.27
  -4  10  11    1.94    0.30
  -3  10  11    0.41    0.17
  -3  10  11    0.53    0.20
  -3  10  11    0.41    0.18
   2 -10 -11    1.32    0.20
  -2  10  11    1.76    0.25
  -2  10  11    1.69    0.27
  -2  10  11    1.23    0.22
   1 -10 -11    2.17    0.25
  -1  10  11    1.93    0.24
  -1  10  11    2.15    0.28
  -1  10  11    2.07    0.27
   0 -10 -11    3.50    0.29
   0 -10 -11    3.68    0.30
   0  10  11    3.40    0.33
   0  10  11    3.31    0.25
   0  10  11    2.54    0.29
  -1 -10 -11    4.42    0.32
   1  10  11    4.11    0.35
   1  10  11    3.25    0.23
   1  10  11    3.62    0.33
   1  10  11    3.66    0.34
  -2 -10 -11    0.13    0.13
   2  10  11    0.30    0.15
   2  10  11    0.39    0.16
  -3 -10 -11    0.39    0.17
   3  10  11    0.21    0.15
   3  10  11    0.18    0.15
  -4 -10 -11    0.63    0.19
   4  10  11    0.59    0.24
  -3  11  11   -0.03    0.15
  -3  11  11   -0.03    0.15
  -3  11  11    0.03    0.17
   2 -11 -11    0.50    0.15
  -2  11  11    0.45    0.19
  -2  11  11    0.19    0.16
  -2  11  11    0.87    0.22
   1 -11 -11    0.34    0.15
  -1  11  11    0.45    0.16
  -1  11  11    0.60    0.20
  -1  11  11    0.49    0.19
   0  11  11    4.11    0.37
   0  11  11    4.06    0.37
   0  11  11    3.44    0.35
   0  11  11    4.15    0.27
  -1 -11 -11    0.60    0.17
   1  11  11    0.71    0.20
   1  11  11    0.83    0.20
   1  11  11    0.80    0.20
  -2 -11 -11    0.83    0.19
   2  11  11    1.05    0.22
   2  11  11    0.74    0.20
  -3 -11 -11    0.46    0.19
   3  11  11    0.72    0.19
   3  11  11    0.51    0.18
  -4 -11 -11    2.07    0.29
   4  11  11    2.43    0.36
  -3  12  11    0.25    0.21
  -2  12  11   -0.32    0.15
  -2  12  11    0.17    0.16
  -2  12  11    0.12    0.17
   1 -12 -11    0.14    0.14
  -1  12  11   -0.01    0.16
  -1  12  11    0.03    0.17
  -1  12  11    0.04    0.15
  -1  12  11    0.19    0.15
   0  12  11   -0.08    0.15
   0  12  11    0.15    0.17
   0  12  11   -0.08    0.15
   0  12  11   -0.06    0.10
   1  12  11    2.65    0.34
   1  12  11    1.99    0.28
  -2 -12 -11    4.12    0.35
   2  12  11    3.51    0.36
   2  12  11    3.96    0.37
  -3 -12 -11    0.22    0.17
   3  12  11    0.25    0.17
   3  12  11    0.40    0.18
   1 -13 -11    1.88    0.25
  -1  13  11    2.17    0.27
  -1  13  11    2.29    0.33
   0  13  11    2.37    0.32
   0  13  11    2.76    0.34
   1  13  11    1.75    0.29
   1  13  11    2.27    0.33
   2  13  11    7.04    0.48
   2  13  11    6.57    0.48
   1   5 -12    0.19    0.19
   0   5 -12    0.63    0.26
   0   5 -12    0.57    0.22
  -1   5 -12   -0.13    0.17
   3   4 -12   -0.35    0.15
   2   4 -12    0.20    0.19
   1   4 -12   -0.10    0.18
   1   4 -12   -0.14    0.15
   0   4 -12    0.73    0.22
   0   4 -12    0.51    0.21
   0   4 -12    0.40    0.19
  -1   4 -12    0.25    0.20
  -1   4 -12    0.27    0.19
  -2   4 -12    0.56    0.22
  -2   4 -12    0.73    0.26
   3   3 -12    0.44    0.21
   2   3 -12    0.95    0.23
   1   3 -12    1.91    0.28
   1   3 -12    2.10    0.30
   0   3 -12    0.43    0.20
   0   3 -12    0.77    0.22
  -1   3 -12    1.60    0.26
  -1   3 -12    1.54    0.27
  -2   3 -12   20.61    0.79
  -2   3 -12   21.39    0.79
  -3   3 -12    0.39    0.19
  -3   3 -12    0.05    0.18
   4   2 -12    0.19    0.19
   4   2 -12    0.27    0.25
   3   2 -12    1.05    0.24
   2   2 -12    6.70    0.45
   1   2 -12    0.22    0.17
   1   2 -12    0.11    0.17
   0   2 -12   14.44    0.62
   0   2 -12   15.26    0.65
  -1   2 -12   12.91    0.59
  -1   2 -12   14.06    0.61
  -2   2 -12    3.16    0.33
  -2   2 -12    2.68    0.31
  -3   2 -12    1.73    0.28
  -3   2 -12    1.84    0.27
   4   1 -12   -0.09    0.15
   4   1 -12    0.09    0.17
   3   1 -12    0.03    0.15
   3   1 -12    0.01    0.15
   2   1 -12    0.28    0.17
   1   1 -12    9.41    0.50
   1   1 -12    9.55    0.48
   0   1 -12   -0.10    0.13
   0   1 -12    0.35    0.17
  -1   1 -12    0.33    0.16
  -1   1 -12    0.22    0.15
  -2   1 -12    7.50    0.44
  -2   1 -12    7.53    0.44
  -3   1 -12   10.18    0.51
  -3   1 -12   10.43    0.51
  -4   1 -12    0.49    0.17
  -4   1 -12    0.17    0.15
   4   0 -12   -0.10    0.15
   4   0 -12    0.12    0.15
   3   0 -12    2.76    0.30
   3   0 -12    2.84    0.33
   2   0 -12    3.49    0.33
   1   0 -12    3.07    0.31
   1   0 -12    2.87    0.29
   0   0 -12    2.34    0.26
   0   0 -12    2.51    0.28
   0   0  12    2.69    0.26
  -1   0 -12    2.62    0.28
  -1   0 -12    2.61    0.28
  -2   0 -12    0.35    0.15
  -2   0 -12    0.55    0.16
  -3   0 -12    3.79    0.34
  -3   0 -12    4.49    0.35
  -4   0 -12   -0.02    0.12
  -4   0 -12   -0.03    0.12
   5  -1 -12    0.41    0.22
   4  -1 -12    0.22    0.17
   4  -1 -12    0.31    0.16
   3  -1 -12    1.06    0.22
   3  -1 -12    1.17    0.21
   2  -1 -12    0.22    0.19
   2  -1 -12    0.07    0.13
   1  -1 -12    4.52    0.34
   1  -1 -12    4.47    0.32
  -1   1  12    4.10    0.26
   0  -1 -12    0.71    0.18
   0  -1 -12    0.69    0.18
   0   1  12    0.53    0.14
  -1  -1 -12    2.20    0.26
  -1  -1 -12    2.17    0.26
   1   1  12    2.55    0.28
  -2  -1 -12    1.34    0.20
  -2  -1 -12    1.39    0.20
   2   1  12    1.77    0.27
  -3  -1 -12   15.64    0.59
  -3  -1 -12   15.21    0.58
   3   1  12   16.07    0.71
  -4  -1 -12   -0.09    0.11
  -4  -1 -12    0.01    0.12
  -5  -1 -12    1.78    0.23
   5  -2 -12    0.04    0.17
   4  -2 -12    2.12    0.31
   4  -2 -12    2.33    0.27
   3  -2 -12    1.35    0.21
   3  -2 -12    1.09    0.22
   2  -2 -12   -0.06    0.11
   2  -2 -12   -0.17    0.10
   1  -2 -12    2.64    0.27
   1  -2 -12    3.17    0.30
  -1   2  12    2.54    0.23
   0  -2 -12    1.40    0.21
   0  -2 -12    1.74    0.22
   0   2  12    1.41    0.20
  -1  -2 -12    6.34    0.37
  -1  -2 -12    6.43    0.37
   1   2  12    6.48    0.39
  -2  -2 -12   -0.09    0.10
  -2  -2 -12   -0.08    0.10
   2   2  12    0.13    0.15
  -3  -2 -12    6.95    0.39
  -3  -2 -12    6.20    0.38
   3   2  12    6.85    0.48
  -4  -2 -12    2.44    0.27
  -4  -2 -12    2.51    0.27
   4   2  12    2.32    0.36
  -5  -2 -12   -0.08    0.12
  -5  -2 -12    0.02    0.13
   5  -3 -12    0.73    0.24
  -5   3  12    0.81    0.26
   4  -3 -12    4.41    0.39
   3  -3 -12    0.24    0.15
   3  -3 -12    0.51    0.16
   2  -3 -12    5.33    0.34
   2  -3 -12    5.73    0.36
  -2   3  12    5.68    0.29
   1  -3 -12    3.96    0.31
   1  -3 -12    3.77    0.29
  -1   3  12    3.81    0.27
   0  -3 -12    0.80    0.17
   0  -3 -12    1.38    0.20
   0   3  12    1.19    0.19
  -1  -3 -12   10.06    0.44
  -1  -3 -12    9.65    0.44
   1   3  12    9.72    0.47
  -2  -3 -12    5.81    0.36
  -2  -3 -12    5.50    0.35
   2   3  12    5.35    0.40
  -3  -3 -12    4.22    0.34
  -3  -3 -12    4.41    0.33
   3   3  12    4.59    0.43
  -4  -3 -12    6.30    0.37
  -4  -3 -12    6.46    0.39
   4   3  12    6.92    0.52
  -5  -3 -12    0.73    0.18
  -5  -3 -12    0.82    0.17
   5   3  12    0.76    0.29
   5  -4 -12    0.16    0.20
   4  -4 -12    0.72    0.23
  -4   4  12    0.92    0.23
   3  -4 -12    2.86    0.31
   3  -4 -12    3.19    0.29
  -3   4  12    2.74    0.31
   2  -4 -12   15.33    0.56
   2  -4 -12   17.10    0.59
   1  -4 -12    0.45    0.14
   1  -4 -12    0.29    0.12
   1  -4 -12    0.09    0.12
  -1   4  12    0.23    0.12
   0  -4 -12    2.94    0.26
   0  -4 -12    3.13    0.28
   0   4  12    2.92    0.27
  -1  -4 -12    0.36    0.14
  -1  -4 -12    0.33    0.15
   1   4  12    0.39    0.16
  -2  -4 -12    7.14    0.38
  -2  -4 -12    6.90    0.37
   2   4  12    7.65    0.46
  -3  -4 -12   19.45    0.65
  -3  -4 -12   19.34    0.64
   3   4  12   19.69    0.78
  -4  -4 -12    1.42    0.21
  -4  -4 -12    1.78    0.22
   4   4  12    2.02    0.34
  -5  -4 -12    0.77    0.17
  -5  -4 -12    0.93    0.18
   5   4  12    1.06    0.29
   5  -5 -12    1.47    0.29
   4  -5 -12    0.20    0.16
  -4   5  12    0.46    0.18
   3  -5 -12    0.00    0.14
   3  -5 -12    0.25    0.13
  -3   5  12    0.16    0.15
   2  -5 -12    9.95    0.43
   2  -5 -12    9.42    0.44
  -2   5  12    9.80    0.47
  -2   5  12    9.71    0.48
   1  -5 -12    5.98    0.34
   1  -5 -12    5.70    0.29
   1  -5 -12    5.53    0.34
  -1   5  12    5.54    0.37
   0  -5 -12    0.02    0.11
   0  -5 -12    0.07    0.10
   0  -5 -12    0.03    0.08
   0   5  12    0.09    0.12
  -1  -5 -12   19.68    0.64
  -1  -5 -12   18.93    0.63
   1   5  12   19.19    0.69
  -2  -5 -12   -0.04    0.11
  -2  -5 -12    0.12    0.12
   2   5  12   -0.17    0.13
   2   5  12    0.06    0.17
  -3  -5 -12    4.84    0.33
  -3  -5 -12    5.47    0.35
   3   5  12    4.55    0.39
   3   5  12    4.39    0.41
  -4  -5 -12    0.98    0.19
  -4  -5 -12    0.76    0.18
   4   5  12    0.98    0.27
   4   5  12    1.19    0.26
  -5  -5 -12    0.07    0.13
  -5  -5 -12    0.15    0.14
   5   5  12    0.18    0.20
   5   5  12    0.23    0.16
   5  -6 -12    4.12    0.42
   4  -6 -12    0.84    0.21
  -4   6  12    0.78    0.20
  -4   6  12    0.99    0.23
   3  -6 -12    0.67    0.18
   3  -6 -12    0.33    0.13
  -3   6  12    0.34    0.17
  -3   6  12    0.32    0.16
   2  -6 -12   18.26    0.60
   2  -6 -12   18.19    0.61
  -2   6  12   18.14    0.67
  -2   6  12   17.78    0.64
   1  -6 -12    0.07    0.10
   1  -6 -12    0.06    0.12
   1  -6 -12    0.31    0.11
  -1   6  12   -0.03    0.11
  -1   6  12    0.16    0.13
   0  -6 -12    2.29    0.25
   0  -6 -12    2.04    0.16
   0  -6 -12    2.08    0.24
   0   6  12    1.98    0.24
  -1  -6 -12    8.42    0.43
  -1  -6 -12    8.69    0.42
   1   6  12    8.99    0.47
   1   6  12    9.12    0.44
  -2  -6 -12    6.19    0.36
  -2  -6 -12    5.68    0.35
   2   6  12    5.25    0.40
  -3  -6 -12    0.38    0.15
  -3  -6 -12    0.36    0.15
   3   6  12    0.27    0.19
   3   6  12    0.45    0.26
  -4  -6 -12   10.64    0.49
  -4  -6 -12   11.76    0.51
   4   6  12   12.32    0.65
   4   6  12   11.62    0.61
  -5  -6 -12    1.13    0.20
  -5  -6 -12    0.88    0.19
   5   6  12    1.02    0.29
   5   6  12    1.00    0.24
  -4   7  12    0.19    0.17
  -4   7  12    0.01    0.14
   3  -7 -12    0.16    0.12
   3  -7 -12    0.19    0.14
  -3   7  12    0.16    0.14
  -3   7  12    0.47    0.17
  -3   7  12    0.11    0.15
   2  -7 -12    9.15    0.44
   2  -7 -12    9.34    0.42
  -2   7  12    9.80    0.49
  -2   7  12    9.64    0.47
  -2   7  12    9.94    0.49
   1  -7 -12    3.73    0.23
   1  -7 -12    3.68    0.28
   1  -7 -12    3.58    0.30
  -1   7  12    3.64    0.33
  -1   7  12    4.37    0.30
   0  -7 -12   11.12    0.47
   0  -7 -12   11.15    0.47
   0   7  12   10.61    0.49
  -1  -7 -12   13.02    0.52
  -1  -7 -12   12.66    0.50
   1   7  12   12.26    0.52
  -2  -7 -12    2.08    0.24
  -2  -7 -12    2.07    0.24
   2   7  12    1.85    0.28
   2   7  12    1.72    0.23
  -3  -7 -12    0.56    0.17
  -3  -7 -12    0.79    0.18
   3   7  12    0.75    0.24
  -4  -7 -12    0.42    0.17
   4   7  12    0.27    0.21
  -5  -7 -12    0.33    0.17
   5   7  12    0.80    0.28
  -4   8  12    0.73    0.20
  -4   8  12    0.64    0.20
  -4   8  12    1.03    0.25
   3  -8 -12    0.96    0.19
  -3   8  12    0.61    0.18
  -3   8  12    0.44    0.18
  -3   8  12    1.02    0.22
   2  -8 -12    0.11    0.12
  -2   8  12    0.00    0.14
  -2   8  12    0.19    0.15
  -2   8  12    0.16    0.15
   1  -8 -12    1.57    0.22
  -1   8  12    1.76    0.26
  -1   8  12    1.85    0.23
  -1   8  12    1.51    0.23
   0  -8 -12   14.81    0.55
   0  -8 -12   13.40    0.52
   0   8  12   14.52    0.51
   0   8  12   14.40    0.58
   0   8  12   14.03    0.57
  -1  -8 -12    6.41    0.38
  -1  -8 -12    6.86    0.38
   1   8  12    6.23    0.39
  -2  -8 -12    6.75    0.39
  -2  -8 -12    6.68    0.38
   2   8  12    6.88    0.46
   2   8  12    7.28    0.40
  -3  -8 -12    0.06    0.13
   3   8  12    0.05    0.17
   3   8  12    0.06    0.12
  -4  -8 -12    7.44    0.44
   4   8  12    7.61    0.56
  -5  -8 -12    1.21    0.22
   5   8  12    1.46    0.32
  -4   9  12    1.25    0.24
  -4   9  12    1.28    0.26
  -3   9  12    1.80    0.26
  -3   9  12    1.76    0.28
  -3   9  12    1.62    0.25
   2  -9 -12    0.10    0.12
  -2   9  12    0.09    0.14
  -2   9  12    0.02    0.13
  -2   9  12    0.02    0.16
   1  -9 -12   13.42    0.53
  -1   9  12   13.42    0.52
  -1   9  12   13.46    0.58
  -1   9  12   14.51    0.60
   0  -9 -12    0.06    0.11
   0  -9 -12   -0.10    0.12
   0   9  12   -0.12    0.10
   0   9  12   -0.11    0.12
   0   9  12    0.08    0.13
  -1  -9 -12    1.22    0.20
  -1  -9 -12    1.12    0.21
   1   9  12    1.35    0.23
   1   9  12    1.00    0.19
  -2  -9 -12    1.60    0.23
   2   9  12    1.86    0.24
   2   9  12    1.71    0.24
  -3  -9 -12    0.24    0.15
   3   9  12    0.14    0.19
   3   9  12    0.06    0.14
  -4  -9 -12    6.20    0.43
   4   9  12    6.47    0.54
  -3  10  12    1.28    0.25
  -3  10  12    1.00    0.23
  -3  10  12    1.47    0.28
   2 -10 -12    9.01    0.44
  -2  10  12    9.47    0.53
  -2  10  12    8.62    0.46
  -2  10  12    9.90    0.51
   1 -10 -12    1.44    0.22
  -1  10  12    1.63    0.23
  -1  10  12    1.83    0.28
  -1  10  12    1.88    0.27
   0 -10 -12    1.26    0.21
   0  10  12    1.06    0.22
   0  10  12    1.10    0.18
   0  10  12    1.28    0.23
  -1 -10 -12    1.20    0.20
   1  10  12    1.56    0.24
   1  10  12    1.32    0.32
   1  10  12    1.41    0.24
  -2 -10 -12    4.61    0.35
   2  10  12    4.34    0.34
   2  10  12    4.84    0.38
  -3 -10 -12    0.56    0.19
   3  10  12    0.77    0.19
   3  10  12    0.60    0.23
  -4 -10 -12    4.20    0.39
   4  10  12    4.10    0.48
  -3  11  12    3.84    0.40
  -3  11  12    4.10    0.38
   2 -11 -12    1.45    0.22
  -2  11  12    1.35    0.24
  -2  11  12    1.37    0.27
  -2  11  12    1.36    0.25
   1 -11 -12    4.95    0.36
  -1  11  12    4.06    0.39
  -1  11  12    4.51    0.41
  -1  11  12    4.60    0.34
   0 -11 -12    4.39    0.35
   0  11  12    4.79    0.39
   0  11  12    4.87    0.40
   0  11  12    4.43    0.30
   0  11  12    4.05    0.38
  -1 -11 -12   -0.15    0.11
   1  11  12    0.09    0.14
   1  11  12   -0.07    0.14
  -2 -11 -12    0.14    0.15
   2  11  12    0.10    0.15
   2  11  12    0.42    0.18
  -3 -11 -12    1.46    0.25
   3  11  12    1.30    0.24
   4  11  12    1.27    0.32
  -2  12  12    0.47    0.22
  -2  12  12    0.79    0.21
   1 -12 -12    1.25    0.22
  -1  12  12    1.30    0.26
  -1  12  12    1.43    0.23
  -1  12  12    1.51    0.27
   0 -12 -12    0.20    0.15
   0  12  12    0.17    0.17
   0  12  12   -0.28    0.14
   0  12  12    0.04    0.17
   1  12  12    0.33    0.19
   1  12  12    0.37    0.18
  -2 -12 -12    1.19    0.24
   2  12  12    0.80    0.22
   2  12  12    0.87    0.23
  -3 -12 -12    0.00    0.16
   3  12  12    0.00    0.16
   1 -13 -12    1.03    0.22
  -1  13  12    0.55    0.18
  -1  13  12    1.13    0.27
   0 -13 -12    0.43    0.18
   0  13  12    0.10    0.19
   1  13  12    1.43    0.32
   2  13  12    0.16    0.19
   1   4 -13    0.58    0.30
   0   4 -13    0.35    0.20
   2   3 -13   -0.03    0.18
   1   3 -13    0.77    0.22
   1   3 -13    0.81    0.24
   0   3 -13    1.01    0.24
   0   3 -13    1.40    0.27
  -1   3 -13    1.40    0.27
  -1   3 -13    1.07    0.26
  -2   3 -13   -0.15    0.17
   3   2 -13    1.77    0.32
   3   2 -13    1.76    0.29
   2   2 -13    0.75    0.22
   1   2 -13    0.90    0.23
   1   2 -13    1.51    0.27
   0   2 -13   10.01    0.55
   0   2 -13   10.98    0.58
  -1   2 -13    1.93    0.31
  -1   2 -13    1.94    0.29
  -2   2 -13    0.48    0.22
  -2   2 -13    0.50    0.22
  -3   2 -13    8.70    0.53
   3   1 -13    2.02    0.32
   3   1 -13    2.13    0.30
   2   1 -13    2.17    0.31
   1   1 -13    0.25    0.17
   1   1 -13    0.19    0.18
   0   1 -13    1.26    0.24
   0   1 -13    1.58    0.27
  -1   1 -13    8.66    0.50
  -1   1 -13    7.93    0.49
  -2   1 -13    7.18    0.48
  -2   1 -13    6.85    0.47
  -3   1 -13    0.63    0.21
  -3   1 -13    0.26    0.17
   4   0 -13    0.30    0.19
   4   0 -13    0.26    0.23
   3   0 -13    9.56    0.55
   3   0 -13   10.16    0.53
   2   0 -13    0.12    0.15
   1   0 -13   11.65    0.55
   1   0 -13   12.28    0.58
   0   0 -13   29.79    0.92
   0   0 -13   31.17    0.95
  -1   0 -13    0.11    0.14
  -1   0 -13    0.24    0.16
  -2   0 -13    7.79    0.47
  -2   0 -13    7.72    0.46
  -3   0 -13    3.80    0.37
  -3   0 -13    3.05    0.32
  -4   0 -13    2.29    0.30
  -4   0 -13    2.11    0.27
   4  -1 -13    1.32    0.27
   3  -1 -13    0.48    0.18
   3  -1 -13    0.27    0.18
   2  -1 -13    8.26    0.47
   1  -1 -13    0.68    0.19
   1  -1 -13    0.86    0.20
   0  -1 -13    0.60    0.18
   0  -1 -13    0.44    0.17
   0   1  13    0.43    0.16
  -1  -1 -13    8.11    0.44
  -1  -1 -13    6.79    0.42
   1   1  13    6.74    0.43
  -2  -1 -13    3.82    0.34
  -2  -1 -13    4.24    0.36
   2   1  13    4.33    0.40
  -3  -1 -13    7.34    0.44
  -3  -1 -13    7.43    0.45
  -4  -1 -13    0.15    0.14
  -4  -1 -13    0.15    0.16
   4  -2 -13    0.13    0.16
   3  -2 -13    8.53    0.46
   3  -2 -13    8.13    0.47
   2  -2 -13   -0.07    0.12
   2  -2 -13    0.17    0.14
   1  -2 -13    6.59    0.40
   1  -2 -13    6.84    0.41
  -1   2  13    6.76    0.36
   0  -2 -13    7.77    0.44
   0  -2 -13    8.78    0.45
   0   2  13    8.35    0.42
  -1  -2 -13    6.19    0.40
  -1  -2 -13    6.23    0.39
   1   2  13    5.61    0.39
  -2  -2 -13    1.93    0.25
  -2  -2 -13    1.77    0.25
   2   2  13    2.32    0.31
  -3  -2 -13    0.92    0.20
  -3  -2 -13    1.01    0.21
   3   2  13    0.68    0.24
  -4  -2 -13    6.66    0.41
  -4  -2 -13    6.80    0.41
   4   2  13    6.83    0.55
   4  -3 -13    2.70    0.34
   3  -3 -13    3.22    0.32
   3  -3 -13    3.35    0.33
   2  -3 -13    1.00    0.20
   2  -3 -13    0.89    0.19
   1  -3 -13    0.40    0.15
   1  -3 -13    0.26    0.15
  -1   3  13    0.30    0.13
   0  -3 -13   10.45    0.49
   0  -3 -13   10.36    0.49
   0   3  13    9.81    0.46
  -1  -3 -13   11.79    0.52
  -1  -3 -13   11.93    0.53
   1   3  13   12.14    0.55
  -2  -3 -13    8.21    0.43
  -2  -3 -13    7.66    0.42
   2   3  13    8.00    0.49
  -3  -3 -13   13.22    0.56
  -3  -3 -13   13.87    0.58
   3   3  13   13.97    0.69
  -4  -3 -13   11.26    0.53
  -4  -3 -13   11.44    0.51
   4   3  13   11.82    0.69
   4  -4 -13    1.26    0.26
  -4   4  13    1.10    0.25
   3  -4 -13    2.86    0.32
   3  -4 -13    3.22    0.31
   2  -4 -13    4.67    0.36
   2  -4 -13    4.98    0.33
  -2   4  13    5.24    0.31
   1  -4 -13    2.25    0.28
   1  -4 -13    2.14    0.25
   1  -4 -13    2.38    0.24
  -1   4  13    2.57    0.26
   0  -4 -13    4.22    0.34
   0  -4 -13    4.00    0.34
   0   4  13    3.86    0.32
  -1  -4 -13    4.95    0.37
  -1  -4 -13    5.05    0.36
   1   4  13    5.29    0.39
  -2  -4 -13    9.96    0.48
  -2  -4 -13   10.02    0.48
   2   4  13   10.80    0.56
  -3  -4 -13    3.39    0.32
  -3  -4 -13    2.93    0.31
   3   4  13    3.72    0.41
  -4  -4 -13    0.10    0.15
  -4  -4 -13    0.15    0.14
   4   4  13    0.33    0.24
   4  -5 -13   -0.11    0.14
  -4   5  13    0.18    0.17
   3  -5 -13    0.24    0.16
   3  -5 -13    0.19    0.13
  -3   5  13    0.13    0.16
   2  -5 -13   14.76    0.58
   2  -5 -13   14.48    0.54
   1  -5 -13    2.81    0.29
   1  -5 -13    2.83    0.24
   1  -5 -13    2.66    0.27
   0  -5 -13   19.42    0.67
   0  -5 -13   18.52    0.55
   0  -5 -13   19.06    0.66
   0   5  13   18.92    0.67
  -1  -5 -13   39.27    1.05
  -1  -5 -13   40.05    1.06
   1   5  13   40.97    1.13
  -2  -5 -13    6.19    0.39
  -2  -5 -13    6.00    0.38
   2   5  13    6.27    0.45
  -3  -5 -13    9.94    0.48
  -3  -5 -13    9.22    0.46
   3   5  13    9.57    0.58
  -4  -5 -13   14.12    0.57
  -4  -5 -13   13.91    0.58
   4   5  13   13.56    0.71
   4  -6 -13    6.89    0.47
  -4   6  13    6.42    0.47
   3  -6 -13    4.13    0.35
   3  -6 -13    4.56    0.34
  -3   6  13    4.08    0.38
  -3   6  13    4.48    0.38
   2  -6 -13    3.05    0.31
   2  -6 -13    3.17    0.29
  -2   6  13    3.02    0.34
  -2   6  13    3.17    0.33
   1  -6 -13   14.54    0.56
   1  -6 -13   14.90    0.57
   1  -6 -13   14.26    0.49
  -1   6  13   14.38    0.60
   0  -6 -13    0.28    0.16
   0  -6 -13    0.05    0.12
   0   6  13    0.28    0.15
  -1  -6 -13    6.54    0.41
  -1  -6 -13    6.16    0.39
   1   6  13    6.43    0.43
  -2  -6 -13    4.40    0.34
  -2  -6 -13    4.62    0.35
   2   6  13    4.06    0.39
  -3  -6 -13    4.31    0.36
  -3  -6 -13    4.24    0.34
   3   6  13    4.50    0.44
  -4  -6 -13    1.55    0.24
  -4  -6 -13    0.94    0.21
   4   6  13    1.81    0.34
   4  -7 -13    0.49    0.20
  -4   7  13    0.72    0.29
  -4   7  13    0.46    0.19
   3  -7 -13    0.19    0.13
   3  -7 -13    0.21    0.15
  -3   7  13    0.00    0.15
  -3   7  13   -0.14    0.13
   2  -7 -13   14.32    0.64
   2  -7 -13   14.13    0.57
  -2   7  13   14.44    0.59
  -2   7  13   14.20    0.62
   1  -7 -13    5.07    0.37
  -1   7  13    4.98    0.38
  -1   7  13    5.08    0.35
   0  -7 -13   24.90    0.79
   0  -7 -13   26.00    0.78
   0   7  13   25.72    0.83
  -1  -7 -13   17.33    0.63
  -1  -7 -13   17.41    0.62
   1   7  13   16.65    0.68
   1   7  13   16.75    0.63
  -2  -7 -13    0.30    0.15
  -2  -7 -13    0.50    0.18
   2   7  13    0.32    0.20
  -3  -7 -13    4.61    0.36
  -3  -7 -13    3.87    0.34
   3   7  13    4.14    0.45
  -4  -7 -13    0.35    0.17
  -4  -7 -13    0.39    0.17
   4   7  13    0.53    0.23
  -4   8  13    2.01    0.36
  -3   8  13    0.07    0.17
  -3   8  13   -0.15    0.13
  -3   8  13    0.10    0.16
   2  -8 -13   -0.03    0.12
  -2   8  13   -0.01    0.14
  -2   8  13   -0.14    0.14
  -2   8  13   -0.22    0.12
   1  -8 -13    0.05    0.14
  -1   8  13    0.00    0.13
  -1   8  13    0.06    0.17
   0  -8 -13    6.29    0.38
   0  -8 -13    6.43    0.40
   0   8  13    6.33    0.41
  -1  -8 -13    0.28    0.14
  -1  -8 -13    0.48    0.17
   1   8  13    0.39    0.17
  -2  -8 -13    0.20    0.14
  -2  -8 -13    0.17    0.14
   2   8  13    0.06    0.16
   2   8  13    0.17    0.14
  -3  -8 -13    2.54    0.29
  -3  -8 -13    2.12    0.27
   3   8  13    2.23    0.34
  -4  -8 -13    2.10    0.28
   4   8  13    1.83    0.34
  -3   9  13    0.79    0.21
  -3   9  13    0.55    0.20
  -3   9  13    0.52    0.21
   2  -9 -13    0.18    0.15
  -2   9  13    0.24    0.19
  -2   9  13    0.17    0.17
  -2   9  13    0.25    0.15
   1  -9 -13   19.39    0.68
  -1   9  13   19.54    0.73
  -1   9  13   19.95    0.75
  -1   9  13   19.25    0.66
   0  -9 -13    2.24    0.28
   0  -9 -13    2.07    0.25
   0   9  13    2.49    0.29
   0   9  13    2.22    0.24
   0   9  13    2.52    0.31
  -1  -9 -13    9.25    0.46
  -1  -9 -13    9.46    0.48
   1   9  13    9.68    0.50
  -2  -9 -13    1.88    0.25
  -2  -9 -13    1.71    0.24
   2   9  13    1.81    0.26
   2   9  13    1.77    0.24
   2   9  13    2.20    0.33
  -3  -9 -13    0.57    0.19
   3   9  13    0.54    0.23
   3   9  13    0.36    0.17
  -4  -9 -13    0.38    0.18
   4   9  13    0.56    0.25
  -3  10  13   -0.03    0.18
  -3  10  13    0.14    0.17
   2 -10 -13    6.34    0.40
  -2  10  13    6.06    0.45
  -2  10  13    6.85    0.42
  -2  10  13    6.25    0.45
   1 -10 -13    5.33    0.38
  -1  10  13    5.27    0.35
  -1  10  13    5.70    0.43
  -1  10  13    5.65    0.43
   0 -10 -13    4.56    0.36
   0  10  13    4.74    0.39
   0  10  13    4.70    0.31
   0  10  13    5.04    0.40
  -1 -10 -13    9.71    0.49
  -1 -10 -13   10.01    0.48
   1  10  13    9.87    0.53
  -2 -10 -13    1.91    0.26
   2  10  13    1.64    0.24
   2  10  13    2.44    0.31
  -3 -10 -13    2.37    0.30
   3  10  13    2.30    0.36
   3  10  13    2.28    0.29
   2 -11 -13    0.29    0.16
  -2  11  13    0.25    0.16
  -2  11  13    0.41    0.22
   1 -11 -13    5.75    0.40
  -1  11  13    5.85    0.45
  -1  11  13    5.49    0.46
  -1  11  13    5.58    0.38
   0 -11 -13    6.78    0.42
   0  11  13    6.87    0.47
   0  11  13    6.55    0.36
   0  11  13    6.61    0.45
  -1 -11 -13    1.49    0.24
  -1 -11 -13    1.37    0.34
   1  11  13    1.17    0.25
   1  11  13    1.30    0.25
  -2 -11 -13    0.79    0.21
   2  11  13    0.86    0.21
   2  11  13    0.65    0.21
  -3 -11 -13    0.07    0.17
   3  11  13   -0.03    0.20
   3  11  13    0.24    0.17
   1 -12 -13    3.39    0.34
  -1  12  13    3.39    0.31
  -1  12  13    2.77    0.35
   0 -12 -13    1.35    0.23
   0  12  13    1.11    0.26
   0  12  13    1.29    0.26
  -1 -12 -13    0.30    0.16
   1  12  13    0.49    0.20
   1  12  13    0.12    0.17
  -2 -12 -13    0.25    0.17
   2  12  13   -0.15    0.15
   2  12  13    0.16    0.18
   0   2 -14    0.04    0.17
  -1   2 -14    0.81    0.24
   2   1 -14    1.01    0.25
   1   1 -14    4.85    0.45
   1   1 -14    5.34    0.43
   0   1 -14    0.11    0.18
   0   1 -14   -0.26    0.17
  -1   1 -14    6.64    0.49
  -1   1 -14    5.75    0.45
  -2   1 -14   -0.02    0.18
   3   0 -14   -0.17    0.16
   3   0 -14    0.05    0.17
   2   0 -14    0.17    0.18
   1   0 -14    6.17    0.44
   1   0 -14    5.07    0.46
   0   0 -14    4.91    0.44
   0   0 -14    5.04    0.43
  -1   0 -14    0.20    0.17
  -1   0 -14    0.13    0.17
  -2   0 -14   13.92    0.65
  -2   0 -14   14.14    0.64
  -3   0 -14    6.52    0.47
  -3   0 -14    6.12    0.56
   3  -1 -14    2.06    0.30
   3  -1 -14    1.93    0.31
   2  -1 -14    1.22    0.24
   2  -1 -14    2.01    0.29
   1  -1 -14    0.95    0.22
   1  -1 -14    0.82    0.22
   0  -1 -14    8.37    0.49
   0  -1 -14    9.13    0.52
   0   1  14    8.19    0.46
  -1  -1 -14    3.87    0.38
  -1  -1 -14    3.97    0.39
   1   1  14    4.17    0.38
  -2  -1 -14    3.32    0.36
  -2  -1 -14    4.20    0.40
   2   1  14    4.22    0.41
  -3  -1 -14    0.38    0.18
  -3  -1 -14    0.38    0.18
   4  -2 -14    0.93    0.26
   3  -2 -14    0.68    0.21
   3  -2 -14    0.77    0.22
   2  -2 -14    0.53    0.18
   2  -2 -14    0.62    0.18
   1  -2 -14   19.10    0.72
   1  -2 -14   18.72    0.70
   0  -2 -14    4.96    0.39
   0  -2 -14    4.95    0.39
   0   2  14    4.54    0.36
  -1  -2 -14    0.74    0.21
  -1  -2 -14    0.59    0.18
   1   2  14    0.54    0.19
  -2  -2 -14    8.66    0.49
  -2  -2 -14    8.40    0.49
   2   2  14    8.79    0.54
  -3  -2 -14    3.23    0.34
  -3  -2 -14    3.46    0.35
   3   2  14    3.30    0.42
   4  -3 -14    3.17    0.38
   3  -3 -14    1.78    0.27
   3  -3 -14    1.58    0.25
   2  -3 -14    0.89    0.21
   2  -3 -14    0.92    0.21
   1  -3 -14    1.06    0.22
   1  -3 -14    1.23    0.22
  -1   3  14    1.13    0.21
   0  -3 -14    3.49    0.35
   0  -3 -14    3.07    0.32
   0   3  14    3.59    0.33
  -1  -3 -14    0.93    0.21
  -1  -3 -14    0.36    0.16
   1   3  14    0.53    0.19
  -2  -3 -14    1.31    0.24
  -2  -3 -14    0.83    0.20
   2   3  14    1.20    0.27
  -3  -3 -14    2.03    0.28
  -3  -3 -14    2.68    0.31
   3   3  14    2.51    0.38
  -4  -3 -14    0.85    0.20
  -4  -3 -14    0.61    0.19
   4   3  14    0.25    0.24
   4  -4 -14    0.27    0.20
   3  -4 -14    0.40    0.18
   3  -4 -14    0.40    0.17
   2  -4 -14    2.61    0.29
   2  -4 -14    2.11    0.26
   1  -4 -14    2.49    0.29
   1  -4 -14    2.77    0.26
   1  -4 -14    2.13    0.27
  -1   4  14    2.47    0.27
   0  -4 -14    5.58    0.39
   0  -4 -14    5.25    0.40
   0   4  14    6.02    0.39
  -1  -4 -14    4.88    0.38
  -1  -4 -14    4.82    0.37
   1   4  14    4.55    0.38
  -2  -4 -14    1.13    0.22
  -2  -4 -14    0.79    0.20
   2   4  14    1.07    0.26
  -3  -4 -14    7.42    0.46
  -3  -4 -14    7.53    0.46
   3   4  14    8.07    0.57
  -4  -4 -14    0.68    0.19
  -4  -4 -14    0.45    0.18
   4   4  14    0.27    0.24
   4  -5 -14    1.58    0.30
   3  -5 -14    0.08    0.15
   3  -5 -14    0.29    0.16
   2  -5 -14    0.17    0.13
   2  -5 -14    0.03    0.14
  -2   5  14    0.02    0.20
   1  -5 -14    0.03    0.11
   1  -5 -14    0.18    0.15
  -1   5  14    0.03    0.13
   0  -5 -14   26.81    0.84
   0  -5 -14   27.96    0.87
   0   5  14   26.71    0.86
  -1  -5 -14    0.16    0.14
  -1  -5 -14    0.22    0.16
   1   5  14    0.37    0.18
  -2  -5 -14    7.24    0.44
  -2  -5 -14    7.51    0.45
   2   5  14    7.18    0.50
  -3  -5 -14    6.88    0.45
  -3  -5 -14    6.03    0.42
   3   5  14    6.73    0.53
  -4  -5 -14    0.46    0.18
  -4  -5 -14    0.47    0.18
   4   5  14    0.58    0.25
   4  -6 -14   -0.05    0.18
   3  -6 -14    1.43    0.23
   3  -6 -14    1.34    0.24
  -3   6  14    1.51    0.27
   2  -6 -14    7.32    0.44
   2  -6 -14    7.17    0.47
   1  -6 -14    4.47    0.36
   0  -6 -14   19.29    0.70
   0  -6 -14   19.07    0.69
   0   6  14   18.63    0.70
  -1  -6 -14    3.19    0.32
  -1  -6 -14    3.39    0.32
   1   6  14    3.86    0.37
  -2  -6 -14    5.01    0.38
  -2  -6 -14    5.69    0.39
   2   6  14    5.26    0.46
  -3  -6 -14    2.19    0.29
  -3  -6 -14    2.05    0.28
   3   6  14    1.55    0.31
  -4  -6 -14   -0.16    0.13
  -4  -6 -14    0.05    0.14
   4   6  14    0.05    0.22
   3  -7 -14    5.80    0.43
  -3   7  14    5.85    0.42
  -3   7  14    5.83    0.45
   2  -7 -14    0.09    0.14
  -2   7  14    0.35    0.18
  -2   7  14    0.26    0.17
   1  -7 -14    3.55    0.34
  -1   7  14    3.33    0.37
   0  -7 -14    1.28    0.22
   0  -7 -14    0.66    0.20
   0   7  14    0.74    0.21
  -1  -7 -14    6.86    0.43
  -1  -7 -14    6.82    0.42
   1   7  14    6.22    0.45
  -2  -7 -14    2.24    0.28
  -2  -7 -14    1.55    0.24
   2   7  14    1.60    0.30
  -3  -7 -14   11.28    0.55
  -3  -7 -14   11.22    0.54
   3   7  14   11.76    0.68
  -4  -7 -14    1.35    0.24
   4   7  14    0.65    0.27
  -3   8  14    1.25    0.26
  -3   8  14    1.15    0.26
   2  -8 -14    2.41    0.29
  -2   8  14    2.02    0.28
  -2   8  14    2.00    0.31
   1  -8 -14    0.15    0.15
  -1   8  14    0.12    0.16
   0  -8 -14    0.67    0.19
   0  -8 -14    0.31    0.15
   0   8  14    0.27    0.17
  -1  -8 -14    0.62    0.19
  -1  -8 -14    0.52    0.18
   1   8  14    0.71    0.20
   1   8  14    0.42    0.19
  -2  -8 -14    3.15    0.32
  -2  -8 -14    3.77    0.34
   2   8  14    3.25    0.34
   2   8  14    3.31    0.41
  -3  -8 -14    0.16    0.17
  -3  -8 -14    0.37    0.17
   3   8  14   -0.02    0.20
   4   8  14   -0.12    0.19
  -3   9  14    0.14    0.28
   2  -9 -14    1.06    0.21
  -2   9  14    0.60    0.22
  -2   9  14    0.67    0.19
   1  -9 -14    0.04    0.15
  -1   9  14    0.04    0.14
  -1   9  14    0.04    0.16
   0  -9 -14   -0.06    0.14
   0   9  14   -0.19    0.13
  -1  -9 -14    0.49    0.18
  -1  -9 -14    0.48    0.18
   1   9  14    0.28    0.17
  -2  -9 -14    1.13    0.23
  -2  -9 -14    0.97    0.21
   2   9  14    0.76    0.25
   2   9  14    1.07    0.22
  -3  -9 -14    0.03    0.15
  -3  -9 -14    0.06    0.23
   3   9  14    0.08    0.22
   2 -10 -14    0.53    0.19
  -2  10  14    0.71    0.20
  -2  10  14    0.72    0.24
   1 -10 -14    0.67    0.20
  -1  10  14    0.73    0.22
  -1  10  14    0.98    0.20
  -1  10  14    0.90    0.23
   0 -10 -14    0.47    0.19
   0  10  14    1.05    0.24
  -1 -10 -14    2.63    0.31
  -1 -10 -14    2.97    0.32
   1  10  14    2.88    0.33
  -2 -10 -14    0.09    0.15
  -2 -10 -14   -0.01    0.15
   2  10  14    0.09    0.14
   2  10  14   -0.13    0.18
   2  10  14   -0.25    0.13
  -3 -10 -14    7.93    0.48
   3  10  14    6.88    0.56
   3  10  14    8.07    0.72
   1 -11 -14    1.59    0.27
  -1  11  14    1.49    0.23
  -1  11  14    1.04    0.26
   0 -11 -14    1.06    0.23
   0  11  14    0.98    0.24
  -1 -11 -14    0.29    0.17
   1  11  14    0.01    0.17
   1  11  14    0.10    0.16
  -2 -11 -14    8.26    0.48
   2  11  14    6.66    0.46
   2  11  14    7.52    0.49
   0 -12 -14   -0.03    0.15
   0   1 -15    1.82    0.30
   2   0 -15    0.20    0.21
   1   0 -15    3.04    0.55
   0   0 -15    0.21    0.19
  -1   0 -15    1.88    0.32
   2  -1 -15    0.84    0.23
   2  -1 -15    0.92    0.24
   1  -1 -15    3.23    0.38
   0  -1 -15   10.39    0.56
   0  -1 -15   10.21    0.58
  -1  -1 -15   -0.05    0.16
  -1  -1 -15    0.16    0.19
  -2  -1 -15    1.59    0.29
   3  -2 -15    1.66    0.29
   3  -2 -15    1.76    0.30
   2  -2 -15    2.64    0.33
   2  -2 -15    3.01    0.36
   1  -2 -15    1.83    0.31
   0  -2 -15    1.07    0.25
   0  -2 -15    1.19    0.26
  -1  -2 -15    5.76    0.44
  -1  -2 -15    5.84    0.45
   1   2  15    5.50    0.44
  -2  -2 -15    5.17    0.44
  -2  -2 -15    4.21    0.42
   2   2  15    4.17    0.45
   3  -3 -15   19.07    0.74
   3  -3 -15   16.94    0.72
   2  -3 -15    1.41    0.25
   2  -3 -15    1.18    0.25
   1  -3 -15    8.38    0.44
   1  -3 -15    8.65    0.52
   0  -3 -15    8.14    0.50
   0  -3 -15    7.84    0.48
   0   3  15    7.74    0.46
  -1  -3 -15    0.31    0.17
  -1  -3 -15    0.72    0.20
   1   3  15    0.37    0.19
  -2  -3 -15    0.31    0.19
  -2  -3 -15    0.45    0.20
   2   3  15    0.52    0.22
  -3  -3 -15    0.05    0.15
   3   3  15    0.10    0.21
   3  -4 -15    0.26    0.18
   3  -4 -15    0.29    0.19
   2  -4 -15    2.42    0.29
   2  -4 -15    3.11    0.35
   1  -4 -15    2.50    0.30
   1  -4 -15    2.74    0.28
   0  -4 -15    0.82    0.22
   0  -4 -15    0.70    0.21
   0   4  15    0.69    0.21
  -1  -4 -15    0.10    0.14
  -1  -4 -15    0.15    0.16
   1   4  15    0.30    0.19
  -2  -4 -15    5.80    0.43
  -2  -4 -15    5.67    0.43
   2   4  15    5.42    0.47
  -3  -4 -15    0.20    0.18
   3   4  15    0.27    0.22
   3  -5 -15   12.94    0.59
   3  -5 -15   11.00    0.57
   2  -5 -15    0.01    0.15
   1  -5 -15    3.84    0.38
  -1   5  15    3.25    0.33
   0  -5 -15    2.36    0.30
   0  -5 -15    2.32    0.29
   0   5  15    2.29    0.30
  -1  -5 -15    0.13    0.16
  -1  -5 -15   -0.01    0.15
   1   5  15   -0.07    0.15
  -2  -5 -15   -0.07    0.14
  -2  -5 -15    0.08    0.16
   2   5  15   -0.06    0.18
  -3  -5 -15    5.58    0.55
  -3  -5 -15    4.67    0.42
   3   5  15    4.94    0.48
   3  -6 -15    0.75    0.22
   2  -6 -15    0.64    0.19
   1  -6 -15    1.49    0.25
  -1   6  15    1.78    0.26
   0  -6 -15    9.06    0.49
   0  -6 -15    9.29    0.51
   0   6  15    8.06    0.49
  -1  -6 -15    1.87    0.26
  -1  -6 -15    2.19    0.29
   1   6  15    1.72    0.29
  -2  -6 -15    1.89    0.28
  -2  -6 -15    1.63    0.27
   2   6  15    1.58    0.31
  -3  -6 -15    4.03    0.40
   3   6  15    4.00    0.47
   2  -7 -15    1.40    0.25
   1  -7 -15    0.12    0.15
   0  -7 -15    1.31    0.25
   0  -7 -15    1.68    0.27
   0   7  15    1.35    0.25
  -1  -7 -15    4.80    0.39
  -1  -7 -15    5.06    0.42
   1   7  15    4.83    0.44
  -2  -7 -15    2.75    0.32
  -2  -7 -15    3.04    0.35
   2   7  15    2.41    0.37
  -3  -7 -15    7.61    0.48
   3   7  15    7.94    0.60
   2  -8 -15    1.53    0.24
  -2   8  15    1.46    0.26
   1  -8 -15    0.69    0.20
  -1   8  15    0.46    0.19
   0  -8 -15   11.30    0.56
   0   8  15   10.49    0.56
  -1  -8 -15    8.78    0.50
  -1  -8 -15    8.41    0.48
   1   8  15    7.77    0.53
  -2  -8 -15    3.11    0.34
  -2  -8 -15    2.88    0.33
   2   8  15    3.23    0.41
  -3  -8 -15    1.86    0.28
   3   8  15    1.16    0.31
   2  -9 -15    2.35    0.30
  -2   9  15    2.06    0.29
   1  -9 -15    0.06    0.15
  -1   9  15    0.12    0.18
   0  -9 -15    0.96    0.23
   0   9  15    0.83    0.22
  -1  -9 -15    0.68    0.21
  -1  -9 -15    0.92    0.21
   1   9  15    0.93    0.25
   1   9  15    0.72    0.22
  -2  -9 -15    0.99    0.23
   2   9  15    0.77    0.20
   2   9  15    0.60    0.25
   1 -10 -15    1.06    0.23
  -1  10  15    1.18    0.23
   0 -10 -15    1.39    0.25
   0  10  15    1.66    0.29
   1  10  15    2.89    0.34
  -2 -10 -15    0.23    0.17
   2  10  15    0.03    0.21
   2  10  15   -0.05    0.16
   0  -2 -16    0.60    0.23
  -1  -2 -16    2.31    0.33
   1   2  16    2.68    0.38
   1  -3 -16   13.98    0.74
   1  -3 -16   12.46    0.70
   0  -3 -16    1.37    0.27
  -1  -3 -16    1.48    0.29
   1   3  16    1.23    0.28
   2  -4 -16    4.57    0.44
   1  -4 -16    1.08    0.25
   0  -4 -16    0.44    0.21
   0  -4 -16    0.98    0.24
   0   4  16    0.59    0.22
  -1  -4 -16    8.58    0.53
   1   4  16    7.94    0.53
  -2  -4 -16    6.33    0.48
   2   4  16    5.73    0.50
   2  -5 -16    1.02    0.26
   1  -5 -16    2.17    0.32
   0  -5 -16    8.44    0.53
   0  -5 -16    7.62    0.51
   0   5  16    7.74    0.50
  -1  -5 -16    0.17    0.17
   1   5  16    0.68    0.24
  -2  -5 -16    0.15    0.19
   2   5  16    0.11    0.21
   2  -6 -16    0.13    0.18
   1  -6 -16    4.89    0.43
  -1   6  16    4.64    0.57
   0  -6 -16    0.32    0.19
   0   6  16    0.17    0.18
  -1  -6 -16    0.15    0.17
   1   6  16    0.09    0.20
  -2  -6 -16    8.96    0.54
   2   6  16    9.46    0.62
   1  -7 -16    0.47    0.21
  -1   7  16    0.77    0.22
   0  -7 -16    0.43    0.20
   0   7  16    0.51    0.21
  -1  -7 -16    3.00    0.34
   1   7  16    3.80    0.43
  -2  -7 -16    7.57    0.51
   2   7  16    7.65    0.58
   1  -8 -16    9.15    0.54
   0  -8 -16    7.66    0.54
   0   8  16    7.07    0.50
  -1  -8 -16    2.05    0.29
   1   8  16    1.82    0.33
   1   9  16    1.22    0.28
   0   0   0    0.00    0.00
;
_shelx_hkl_checksum              92550
loop_
_space_group_symop_operation_xyz
'x, y, z'
'-x, -y, -z'
loop_
_atom_site_label
_atom_site_type_symbol
_atom_site_fract_x
_atom_site_fract_y
_atom_site_fract_z
_atom_site_U_iso_or_equiv
_atom_site_adp_type
_atom_site_occupancy
_atom_site_site_symmetry_order
_atom_site_calc_flag
_atom_site_refinement_flags_posn
_atom_site_refinement_flags_adp
_atom_site_refinement_flags_occupancy
_atom_site_disorder_assembly
_atom_site_disorder_group
C1 C 0.3022(4) 0.4772(2) 0.15300(19) 0.0491(5) Uani 1 1 d . . . . .
H1 H 0.1923 0.4576 0.1135 0.059 Uiso 1 1 calc R U . . .
C2 C 0.2673(5) 0.5813(2) 0.1821(2) 0.0606(6) Uani 1 1 d . . . . .
H2 H 0.1352 0.6326 0.1609 0.073 Uiso 1 1 calc R U . . .
C3 C 0.4268(5) 0.6096(2) 0.2425(2) 0.0618(7) Uani 1 1 d . . . . .
H3 H 0.4021 0.6794 0.2627 0.074 Uiso 1 1 calc R U . . .
C4 C 0.6225(5) 0.5345(3) 0.2729(2) 0.0608(7) Uani 1 1 d . . . . .
H4 H 0.7298 0.5530 0.3144 0.073 Uiso 1 1 calc R U . . .
C5 C 0.6606(4) 0.4326(2) 0.24234(19) 0.0508(6) Uani 1 1 d . . . . .
H5 H 0.7951 0.3835 0.2620 0.061 Uiso 1 1 calc R U . . .
C6 C 0.5006(3) 0.4016(2) 0.18238(16) 0.0388(5) Uani 1 1 d . . . . .
C7 C 0.5529(3) 0.2881(2) 0.15337(16) 0.0396(5) Uani 1 1 d . . . . .
C8 C 0.3676(3) 0.20653(19) 0.14441(15) 0.0346(4) Uani 1 1 d . . . . .
C9 C 0.4554(4) 0.0748(2) 0.1489(2) 0.0515(6) Uani 1 1 d . . . . .
H9A H 0.5927 0.0798 0.1091 0.062 Uiso 1 1 calc R U . . .
H9B H 0.4811 0.0153 0.2250 0.062 Uiso 1 1 calc R U . . .
C10 C 0.2712(5) 0.0355(3) 0.0929(2) 0.0627(7) Uani 1 1 d . . . . .
H10A H 0.3266 -0.0300 0.0669 0.075 Uiso 1 1 calc R U . . .
H10B H 0.1513 0.0038 0.1435 0.075 Uiso 1 1 calc R U . . .
C11 C 0.1942(5) 0.1558(3) -0.0027(2) 0.0725(8) Uani 1 1 d . . . . .
H11A H 0.0360 0.1578 -0.0168 0.087 Uiso 1 1 calc R U . . .
H11B H 0.2720 0.1609 -0.0693 0.087 Uiso 1 1 calc R U . . .
C12 C 0.2447(3) 0.2660(2) 0.02953(16) 0.0416(5) Uani 1 1 d . . . . .
H12A H 0.1082 0.3139 0.0343 0.050 Uiso 1 1 calc R U . . .
H12B H 0.3378 0.3229 -0.0251 0.050 Uiso 1 1 calc R U . . .
C13 C 0.2844(3) 0.15492(18) 0.33797(16) 0.0362(4) Uani 1 1 d . . . . .
C14 C 0.1700(4) 0.1183(2) 0.52096(17) 0.0472(5) Uani 1 1 d . . . . .
H14A H 0.3305 0.1110 0.5306 0.057 Uiso 1 1 calc R U . . .
H14B H 0.1140 0.0384 0.5688 0.057 Uiso 1 1 calc R U . . .
C15 C 0.0700(3) 0.2257(2) 0.55119(16) 0.0411(5) Uani 1 1 d . . . . .
Cl1 Cl -0.22004(11) 0.24284(11) 0.53487(7) 0.0963(3) Uani 1 1 d . . . . .
Cl2 Cl 0.14028(12) 0.18860(6) 0.69296(5) 0.06045(19) Uani 1 1 d . . . . .
Cl3 Cl 0.18185(13) 0.36941(6) 0.46865(6) 0.0669(2) Uani 1 1 d . . . . .
N1 N 0.2097(3) 0.19328(17) 0.23261(13) 0.0355(4) Uani 1 1 d . . . . .
O1 O 0.7435(2) 0.26013(19) 0.13531(15) 0.0614(5) Uani 1 1 d . . . . .
O2 O 0.4770(3) 0.13246(15) 0.36830(12) 0.0493(4) Uani 1 1 d . . . . .
O3 O 0.1109(2) 0.14492(15) 0.40756(11) 0.0457(4) Uani 1 1 d . . . . .
H1N H 0.084(4) 0.207(2) 0.2190(19) 0.039(6) Uiso 1 1 d . . . . .
loop_
_atom_site_aniso_label
_atom_site_aniso_U_11
_atom_site_aniso_U_22
_atom_site_aniso_U_33
_atom_site_aniso_U_23
_atom_site_aniso_U_13
_atom_site_aniso_U_12
C1 0.0431(13) 0.0505(13) 0.0520(13) -0.0179(11) -0.0048(10) -0.0021(10)
C2 0.0635(16) 0.0486(14) 0.0649(16) -0.0180(12) -0.0022(13) 0.0064(12)
C3 0.085(2) 0.0475(14) 0.0547(15) -0.0199(12) 0.0109(14) -0.0147(13)
C4 0.0694(17) 0.0625(16) 0.0550(15) -0.0253(13) -0.0053(13) -0.0166(13)
C5 0.0426(13) 0.0595(14) 0.0502(13) -0.0200(11) -0.0041(10) -0.0093(11)
C6 0.0338(11) 0.0464(11) 0.0333(10) -0.0108(9) 0.0037(8) -0.0093(9)
C7 0.0255(10) 0.0575(13) 0.0347(10) -0.0169(10) -0.0007(8) -0.0009(9)
C8 0.0257(9) 0.0480(11) 0.0313(10) -0.0170(9) 0.0010(8) 0.0016(8)
C9 0.0518(14) 0.0564(14) 0.0498(13) -0.0265(11) -0.0022(11) 0.0099(11)
C10 0.0681(17) 0.0661(16) 0.0688(17) -0.0410(14) 0.0114(13) -0.0141(13)
C11 0.077(2) 0.083(2) 0.0688(18) -0.0425(16) -0.0235(15) 0.0001(15)
C12 0.0324(11) 0.0610(13) 0.0305(10) -0.0164(10) 0.0004(8) -0.0043(9)
C13 0.0418(12) 0.0343(10) 0.0334(10) -0.0132(8) 0.0032(9) -0.0074(8)
C14 0.0688(15) 0.0428(12) 0.0299(11) -0.0123(9) 0.0052(10) -0.0139(11)
C15 0.0404(12) 0.0526(12) 0.0318(10) -0.0167(9) 0.0004(8) -0.0084(9)
Cl1 0.0378(4) 0.1936(10) 0.0682(5) -0.0626(6) 0.0032(3) -0.0064(5)
Cl2 0.0775(4) 0.0726(4) 0.0348(3) -0.0250(3) -0.0065(3) -0.0023(3)
Cl3 0.0943(5) 0.0411(3) 0.0611(4) -0.0134(3) 0.0059(3) -0.0126(3)
N1 0.0251(9) 0.0500(10) 0.0315(9) -0.0158(8) 0.0001(7) -0.0026(7)
O1 0.0229(8) 0.1006(14) 0.0745(12) -0.0493(11) 0.0050(7) -0.0020(8)
O2 0.0430(9) 0.0595(10) 0.0390(8) -0.0131(7) -0.0094(7) 0.0041(7)
O3 0.0502(9) 0.0610(9) 0.0328(7) -0.0231(7) 0.0084(6) -0.0190(7)
loop_
_atom_type_symbol
_atom_type_description
_atom_type_scat_dispersion_real
_atom_type_scat_dispersion_imag
_atom_type_scat_source
C C 0.0033 0.0016 'International Tables Vol C Tables 4.2.6.8 and 6.1.1.4'
H H 0.0000 0.0000 'International Tables Vol C Tables 4.2.6.8 and 6.1.1.4'
N N 0.0061 0.0033 'International Tables Vol C Tables 4.2.6.8 and 6.1.1.4'
O O 0.0106 0.0060 'International Tables Vol C Tables 4.2.6.8 and 6.1.1.4'
Cl Cl 0.1484 0.1585 'International Tables Vol C Tables 4.2.6.8 and 6.1.1.4'
loop_
_geom_angle_atom_site_label_1
_geom_angle_atom_site_label_2
_geom_angle_atom_site_label_3
_geom_angle
_geom_angle_site_symmetry_1
_geom_angle_site_symmetry_3
C2 C1 C6 120.2(2) . .
C2 C1 H1 119.9 . .
C6 C1 H1 119.9 . .
C3 C2 C1 120.3(2) . .
C3 C2 H2 119.8 . .
C1 C2 H2 119.8 . .
C4 C3 C2 119.8(2) . .
C4 C3 H3 120.1 . .
C2 C3 H3 120.1 . .
C5 C4 C3 120.3(2) . .
C5 C4 H4 119.8 . .
C3 C4 H4 119.8 . .
C4 C5 C6 120.8(2) . .
C4 C5 H5 119.6 . .
C6 C5 H5 119.6 . .
C1 C6 C5 118.5(2) . .
C1 C6 C7 123.75(19) . .
C5 C6 C7 117.73(19) . .
O1 C7 C6 120.04(19) . .
O1 C7 C8 119.35(19) . .
C6 C7 C8 120.61(17) . .
N1 C8 C9 110.17(17) . .
N1 C8 C7 109.37(15) . .
C9 C8 C7 113.10(17) . .
N1 C8 C12 109.84(15) . .
C9 C8 C12 102.69(16) . .
C7 C8 C12 111.50(16) . .
C10 C9 C8 103.67(19) . .
C10 C9 H9A 111.0 . .
C8 C9 H9A 111.0 . .
C10 C9 H9B 111.0 . .
C8 C9 H9B 111.0 . .
H9A C9 H9B 109.0 . .
C11 C10 C9 104.1(2) . .
C11 C10 H10A 110.9 . .
C9 C10 H10A 110.9 . .
C11 C10 H10B 110.9 . .
C9 C10 H10B 110.9 . .
H10A C10 H10B 109.0 . .
C10 C11 C12 107.0(2) . .
C10 C11 H11A 110.3 . .
C12 C11 H11A 110.3 . .
C10 C11 H11B 110.3 . .
C12 C11 H11B 110.3 . .
H11A C11 H11B 108.6 . .
C11 C12 C8 106.39(19) . .
C11 C12 H12A 110.5 . .
C8 C12 H12A 110.5 . .
C11 C12 H12B 110.5 . .
C8 C12 H12B 110.5 . .
H12A C12 H12B 108.6 . .
O2 C13 N1 125.47(19) . .
O2 C13 O3 124.10(18) . .
N1 C13 O3 110.43(18) . .
O3 C14 C15 108.37(18) . .
O3 C14 H14A 110.0 . .
C15 C14 H14A 110.0 . .
O3 C14 H14B 110.0 . .
C15 C14 H14B 110.0 . .
H14A C14 H14B 108.4 . .
C14 C15 Cl1 111.69(16) . .
C14 C15 Cl3 109.96(15) . .
Cl1 C15 Cl3 109.65(12) . .
C14 C15 Cl2 107.47(15) . .
Cl1 C15 Cl2 108.67(11) . .
Cl3 C15 Cl2 109.34(11) . .
C13 N1 C8 119.60(17) . .
C13 N1 H1N 120.0(17) . .
C8 N1 H1N 120.4(17) . .
C13 O3 C14 115.73(17) . .
loop_
_geom_bond_atom_site_label_1
_geom_bond_atom_site_label_2
_geom_bond_distance
_geom_bond_site_symmetry_2
C1 C2 1.379(3) .
C1 C6 1.388(3) .
C1 H1 0.9300 .
C2 C3 1.375(4) .
C2 H2 0.9300 .
C3 C4 1.372(4) .
C3 H3 0.9300 .
C4 C5 1.368(4) .
C4 H4 0.9300 .
C5 C6 1.389(3) .
C5 H5 0.9300 .
C6 C7 1.493(3) .
C7 O1 1.217(2) .
C7 C8 1.536(3) .
C8 N1 1.460(2) .
C8 C9 1.534(3) .
C8 C12 1.553(3) .
C9 C10 1.514(3) .
C9 H9A 0.9700 .
C9 H9B 0.9700 .
C10 C11 1.503(4) .
C10 H10A 0.9700 .
C10 H10B 0.9700 .
C11 C12 1.517(3) .
C11 H11A 0.9700 .
C11 H11B 0.9700 .
C12 H12A 0.9700 .
C12 H12B 0.9700 .
C13 O2 1.206(2) .
C13 N1 1.340(3) .
C13 O3 1.365(2) .
C14 O3 1.431(2) .
C14 C15 1.509(3) .
C14 H14A 0.9700 .
C14 H14B 0.9700 .
C15 Cl1 1.752(2) .
C15 Cl3 1.762(2) .
C15 Cl2 1.776(2) .
N1 H1N 0.77(2) .
loop_
_geom_hbond_atom_site_label_D
_geom_hbond_atom_site_label_H
_geom_hbond_atom_site_label_A
_geom_hbond_distance_DH
_geom_hbond_distance_HA
_geom_hbond_distance_DA
_geom_hbond_angle_DHA
_geom_hbond_site_symmetry_A
C12 H12A O1 0.97 2.55 3.315(2) 135.5 1_455
C14 H14B O3 0.97 2.49 3.365(3) 149.6 2_556
N1 H1N O1 0.77(2) 2.26(2) 3.014(2) 166(2) 1_455
loop_
_geom_torsion_atom_site_label_1
_geom_torsion_atom_site_label_2
_geom_torsion_atom_site_label_3
_geom_torsion_atom_site_label_4
_geom_torsion
_geom_torsion_site_symmetry_1
_geom_torsion_site_symmetry_2
_geom_torsion_site_symmetry_3
_geom_torsion_site_symmetry_4
C6 C1 C2 C3 -1.3(4) . . . .
C1 C2 C3 C4 0.6(4) . . . .
C2 C3 C4 C5 0.7(4) . . . .
C3 C4 C5 C6 -1.4(4) . . . .
C2 C1 C6 C5 0.7(3) . . . .
C2 C1 C6 C7 -179.4(2) . . . .
C4 C5 C6 C1 0.7(3) . . . .
C4 C5 C6 C7 -179.2(2) . . . .
C1 C6 C7 O1 147.4(2) . . . .
C5 C6 C7 O1 -32.7(3) . . . .
C1 C6 C7 C8 -31.8(3) . . . .
C5 C6 C7 C8 148.1(2) . . . .
O1 C7 C8 N1 141.3(2) . . . .
C6 C7 C8 N1 -39.5(2) . . . .
O1 C7 C8 C9 18.1(3) . . . .
C6 C7 C8 C9 -162.73(18) . . . .
O1 C7 C8 C12 -97.0(2) . . . .
C6 C7 C8 C12 82.1(2) . . . .
N1 C8 C9 C10 79.8(2) . . . .
C7 C8 C9 C10 -157.42(18) . . . .
C12 C8 C9 C10 -37.1(2) . . . .
C8 C9 C10 C11 40.0(3) . . . .
C9 C10 C11 C12 -26.8(3) . . . .
C10 C11 C12 C8 3.5(3) . . . .
N1 C8 C12 C11 -96.5(2) . . . .
C9 C8 C12 C11 20.7(2) . . . .
C7 C8 C12 C11 142.1(2) . . . .
O3 C14 C15 Cl1 59.6(2) . . . .
O3 C14 C15 Cl3 -62.4(2) . . . .
O3 C14 C15 Cl2 178.67(14) . . . .
O2 C13 N1 C8 2.1(3) . . . .
O3 C13 N1 C8 -178.11(16) . . . .
C9 C8 N1 C13 73.8(2) . . . .
C7 C8 N1 C13 -51.1(2) . . . .
C12 C8 N1 C13 -173.75(17) . . . .
O2 C13 O3 C14 6.4(3) . . . .
N1 C13 O3 C14 -173.37(17) . . . .
C15 C14 O3 C13 120.1(2) . . . .
