#------------------------------------------------------------------------------
#$Date: 2015-06-16 10:53:26 +0300 (Tue, 16 Jun 2015) $
#$Revision: 139259 $
#$URL: svn://www.crystallography.net/cod/cif/7/11/73/7117308.cif $
#------------------------------------------------------------------------------
#
# This file is available in the Crystallography Open Database (COD),
# http://www.crystallography.net/
#
# All data on this site have been placed in the public domain by the
# contributors.
#
data_7117308
loop_
_publ_author_name
'Zongjun Qiao'
'Nanyang Ge'
'Xuefeng Jiang'
_publ_section_title
;
 CO2-promoted oxidative cross-coupling reaction for C-S bond formation via
 masked strategy in an odourless way
;
_journal_name_full               Chem.Commun.
_journal_page_first              10295
_journal_paper_doi               10.1039/C5cc03038B
_journal_volume                  51
_journal_year                    2015
_chemical_formula_sum            'C16 H13 Cl Fe S'
_chemical_formula_weight         328.62
_chemical_name_systematic
; 
 ? 
;
_space_group_crystal_system      triclinic
_space_group_IT_number           2
_space_group_name_Hall           '-P 1'
_space_group_name_H-M_alt        'P -1'
_symmetry_space_group_name_Hall  '-P 1'
_symmetry_space_group_name_H-M   'P -1'
_atom_sites_solution_hydrogens   geom
_audit_creation_method           SHELXL-2013
_audit_update_record
;
2014-11-14 deposited with the CCDC.
2015-05-12 downloaded from the CCDC.
;
_cell_angle_alpha                99.114(2)
_cell_angle_beta                 99.532(2)
_cell_angle_gamma                94.734(2)
_cell_formula_units_Z            2
_cell_length_a                   5.7825(6)
_cell_length_b                   8.6085(9)
_cell_length_c                   14.0430(14)
_cell_measurement_reflns_used    2797
_cell_measurement_temperature    293(2)
_cell_measurement_theta_max      56.569
_cell_measurement_theta_min      4.823
_cell_volume                     676.43(12)
_computing_cell_refinement       'Bruker SMART'
_computing_data_collection       'Bruker SMART'
_computing_data_reduction        'Bruker SHELXTL'
_computing_molecular_graphics    'Bruker SHELXTL'
_computing_publication_material  'Bruker SHELXTL'
_computing_structure_refinement  'SHELXL-2013 (Sheldrick, 2013)'
_computing_structure_solution    'Bruker SHELXTL'
_diffrn_ambient_temperature      293(2)
_diffrn_measured_fraction_theta_full 0.998
_diffrn_measured_fraction_theta_max 0.998
_diffrn_measurement_device_type  'CCD area detector'
_diffrn_measurement_method       'phi and omega scans'
_diffrn_radiation_type           MoK\a
_diffrn_radiation_wavelength     0.71073
_diffrn_reflns_av_R_equivalents  0.0172
_diffrn_reflns_av_unetI/netI     0.0302
_diffrn_reflns_laue_measured_fraction_full 0.998
_diffrn_reflns_laue_measured_fraction_max 0.998
_diffrn_reflns_limit_h_max       7
_diffrn_reflns_limit_h_min       -6
_diffrn_reflns_limit_k_max       10
_diffrn_reflns_limit_k_min       -10
_diffrn_reflns_limit_l_max       17
_diffrn_reflns_limit_l_min       -11
_diffrn_reflns_number            4135
_diffrn_reflns_point_group_measured_fraction_full 0.998
_diffrn_reflns_point_group_measured_fraction_max 0.998
_diffrn_reflns_theta_full        25.242
_diffrn_reflns_theta_max         25.999
_diffrn_reflns_theta_min         1.493
_exptl_absorpt_coefficient_mu    1.446
_exptl_absorpt_correction_T_max  0.7457
_exptl_absorpt_correction_T_min  0.6326
_exptl_absorpt_correction_type   multi-scan
_exptl_absorpt_process_details   sadabs
_exptl_crystal_colour            yellow
_exptl_crystal_density_diffrn    1.613
_exptl_crystal_description       prismatic
_exptl_crystal_F_000             336
_exptl_crystal_size_max          0.198
_exptl_crystal_size_mid          0.166
_exptl_crystal_size_min          0.123
_refine_diff_density_max         0.221
_refine_diff_density_min         -0.389
_refine_diff_density_rms         0.067
_refine_ls_extinction_coef       .
_refine_ls_extinction_method     none
_refine_ls_goodness_of_fit_ref   1.057
_refine_ls_hydrogen_treatment    constr
_refine_ls_matrix_type           full
_refine_ls_number_parameters     172
_refine_ls_number_reflns         2653
_refine_ls_number_restraints     0
_refine_ls_restrained_S_all      1.057
_refine_ls_R_factor_all          0.0300
_refine_ls_R_factor_gt           0.0280
_refine_ls_shift/su_max          0.001
_refine_ls_shift/su_mean         0.000
_refine_ls_structure_factor_coef Fsqd
_refine_ls_weighting_details
'w=1/[\s^2^(Fo^2^)+(0.0410P)^2^+0.2130P] where P=(Fo^2^+2Fc^2^)/3'
_refine_ls_weighting_scheme      calc
_refine_ls_wR_factor_gt          0.0755
_refine_ls_wR_factor_ref         0.0773
_reflns_Friedel_coverage         0.000
_reflns_friedel_fraction_full    .
_reflns_friedel_fraction_max     .
_reflns_number_gt                2476
_reflns_number_total             2653
_reflns_threshold_expression     'I > 2\s(I)'
_cod_data_source_file            c5cc03038b2.cif
_cod_data_source_block           cd214544
_cod_database_code               7117308
_shelx_space_group_comment
; 
The symmetry employed for this shelxl refinement is uniquely defined 
by the following loop, which should always be used as a source of 
symmetry information in preference to the above space-group names. 
They are only intended as comments. 
;
_shelxl_version_number           2013-4
_shelx_res_file
; 
TITL cd214544 in P-1 
CELL 0.71073   5.7825   8.6085  14.0430  99.114  99.532  94.734 
ZERR    2.00   0.0006   0.0009   0.0014   0.002   0.002   0.002 
LATT 1 
SFAC C  H  S  Cl Fe 
UNIT 32 26 2 2 2 
OMIT  -3.00  52.00 
L.S. 10 
ACTA 
BOND $H 
FMAP 2 
PLAN 20 
conf 
htab 
mpla 5 c1 > c5 fe1 
mpla 5 c6 > c10 fe1 
mpla c11 > c16 
wpdb -1 
WGHT    0.041000    0.213000 
FVAR       0.30297 
FE1   5    0.733653    0.703496    0.820407    11.00000    0.02876    0.03007 = 
         0.02723    0.00870    0.00324    0.00620 
S1    3    0.530452    1.053663    0.821599    11.00000    0.05545    0.04220 = 
         0.03453    0.00563    0.00085    0.02144 
CL1   4   -0.176147    1.301273    0.506745    11.00000    0.05743    0.05832 = 
         0.04492    0.01576   -0.00470    0.01854 
C1    1    0.993028    0.590826    0.888249    11.00000    0.04018    0.04287 = 
         0.03821    0.01038   -0.00048    0.01527 
AFIX  13 
H1    2    1.105736    0.532556    0.856062    11.00000   -1.20000 
AFIX   0 
C2    1    1.025908    0.752900    0.928670    11.00000    0.03866    0.04376 = 
         0.03577    0.00487   -0.00460    0.00454 
AFIX  13 
H2    2    1.165121    0.826935    0.930119    11.00000   -1.20000 
AFIX   0 
C3    1    0.821281    0.789967    0.966908    11.00000    0.05913    0.04887 = 
         0.02770    0.00445    0.00357    0.01893 
AFIX  13 
H3    2    0.793943    0.894374    0.999606    11.00000   -1.20000 
AFIX   0 
C4    1    0.664670    0.650412    0.949952    11.00000    0.04567    0.06696 = 
         0.03418    0.02423    0.00998    0.01366 
AFIX  13 
H4    2    0.508895    0.640779    0.968675    11.00000   -1.20000 
AFIX   0 
C5    1    0.770567    0.526261    0.900730    11.00000    0.05328    0.03891 = 
         0.04022    0.01987   -0.00259    0.00284 
AFIX  13 
H5    2    0.702013    0.415686    0.879674    11.00000   -1.20000 
AFIX   0 
C6    1    0.528044    0.608197    0.687499    11.00000    0.04620    0.03755 = 
         0.03235    0.00643   -0.00582    0.00400 
AFIX  13 
H6    2    0.461682    0.497173    0.666490    11.00000   -1.20000 
AFIX   0 
C7    1    0.749403    0.673800    0.674140    11.00000    0.04905    0.04473 = 
         0.03160    0.01071    0.00919    0.01700 
AFIX  13 
H7    2    0.863165    0.616027    0.642343    11.00000   -1.20000 
AFIX   0 
C8    1    0.781507    0.836114    0.715951    11.00000    0.03977    0.04178 = 
         0.03580    0.01768    0.01143    0.01090 
AFIX  13 
H8    2    0.919691    0.911034    0.717374    11.00000   -1.20000 
AFIX   0 
C9    1    0.577587    0.871112    0.756192    11.00000    0.03704    0.03513 = 
         0.03225    0.01190    0.00508    0.01207 
C10   1    0.420292    0.728848    0.737881    11.00000    0.03067    0.04680 = 
         0.03484    0.01456   -0.00027    0.00749 
AFIX  13 
H10   2    0.265168    0.716996    0.756995    11.00000   -1.20000 
AFIX   0 
C11   1    0.340336    1.127136    0.730679    11.00000    0.03874    0.02912 = 
         0.03486    0.00759    0.00414    0.00716 
C12   1    0.362972    1.103441    0.633442    11.00000    0.04795    0.05014 = 
         0.04007    0.01089    0.01226    0.02076 
AFIX  43 
H12   2    0.484857    1.049500    0.613955    11.00000   -1.20000 
AFIX   0 
C13   1    0.206808    1.158854    0.564651    11.00000    0.05441    0.05583 = 
         0.03184    0.01020    0.01119    0.01758 
AFIX  43 
H13   2    0.222754    1.142360    0.499100    11.00000   -1.20000 
AFIX   0 
C14   1    0.027065    1.238863    0.594173    11.00000    0.04113    0.03230 = 
         0.03659    0.00957   -0.00168    0.00582 
C15   1    0.004782    1.267285    0.690153    11.00000    0.04584    0.03873 = 
         0.04082    0.00662    0.00792    0.01750 
AFIX  43 
H15   2   -0.114901    1.323896    0.709342    11.00000   -1.20000 
AFIX   0 
C16   1    0.161456    1.211386    0.759122    11.00000    0.05106    0.03858 = 
         0.03350    0.00581    0.00936    0.01478 
AFIX  43 
H16   2    0.146640    1.230429    0.824777    11.00000   -1.20000 
AFIX   0 
HKLF 4 
  
REM  cd214544 in P-1 
REM R1 =  0.0280 for    2476 Fo > 4sig(Fo)  and  0.0300 for all    2653 data 
REM    172 parameters refined using      0 restraints 
  
END 
  
WGHT      0.0410      0.2130 
  
REM No hydrogen bonds found for HTAB generation 
  
REM Highest difference peak  0.221,  deepest hole -0.389,  1-sigma level  0.067 
Q1    1   0.6755  1.0285  0.5617  11.00000  0.05    0.22 
Q2    1   0.1535  1.0859  0.4662  11.00000  0.05    0.20 
Q3    1   0.0296  1.1785  0.8218  11.00000  0.05    0.20 
Q4    1   0.5132  0.4236  0.5517  11.00000  0.05    0.20 
Q5    1   0.6112  0.6416  0.6652  11.00000  0.05    0.20 
Q6    1  -0.2212  1.2777  0.7298  11.00000  0.05    0.18 
Q7    1   0.4984  0.5550  0.6687  11.00000  0.05    0.18 
Q8    1   0.4478  0.6612  0.6902  11.00000  0.05    0.18 
Q9    1  -0.1748  1.2376  0.4690  11.00000  0.05    0.18 
Q10   1   0.7796  0.7553  0.6834  11.00000  0.05    0.17 
Q11   1   0.8218  0.9377  0.6268  11.00000  0.05    0.17 
Q12   1   0.0732  1.2527  0.7277  11.00000  0.05    0.17 
Q13   1   0.5379  0.3835  0.8446  11.00000  0.05    0.16 
Q14   1   0.7325  0.2776  0.8612  11.00000  0.05    0.16 
Q15   1   0.7550  0.6201  0.7760  11.00000  0.05    0.16 
Q16   1   0.9562  0.9463  0.7668  11.00000  0.05    0.16 
Q17   1   0.8559  0.7762  0.8192  11.00000  0.05    0.16 
Q18   1   0.5757  0.9392  0.5561  11.00000  0.05    0.16 
Q19   1   0.9397  0.7730  0.9639  11.00000  0.05    0.16 
Q20   1   0.8497  1.1754  0.9054  11.00000  0.05    0.16 
;
_shelx_res_checksum              67372
_shelx_hkl_file
; 
  -1   0   0    3.44    0.13 
   1   0   0    3.37    0.14 
   1   0   0    3.69    0.13 
  -2   0   0  100.82    2.78 
   2   0   0  100.97    2.84 
   2   0   0   99.73    2.83 
  -3   0   0   12.09    0.41 
   3   0   0   11.99    0.47 
   3   0   0   12.23    0.43 
  -4   0   0  121.38    3.32 
   4   0   0  118.79    3.40 
   4   0   0  115.44    3.42 
   5   0   0    2.62    0.26 
   6   0   0    0.22    0.15 
   7   0   0    3.40    0.39 
   7  -1   0   11.13    0.65 
   6  -1   0    0.07    0.12 
   5  -1   0   17.64    0.74 
  -5   1   0   19.97    0.68 
   4  -1   0    6.74    0.29 
   4  -1   0    6.75    0.35 
  -4   1   0    6.74    0.30 
   3  -1   0  212.97    5.98 
   3  -1   0  216.77    6.00 
   2  -1   0    4.82    0.19 
   2  -1   0    4.81    0.21 
  -2   1   0    4.91    0.20 
  -1   1   0  180.29    4.95 
   0   1   0   -0.55    0.04 
  -1  -1   0  965.00   25.10 
   1   1   0  910.41   25.47 
   1   1   0  895.66   25.13 
  -2  -1   0  140.44    3.85 
   2   1   0  141.51    3.91 
   2   1   0  138.98    3.95 
  -3  -1   0   53.17    1.53 
   3   1   0   53.35    1.60 
   3   1   0   54.59    1.61 
  -4  -1   0   49.13    1.44 
   4   1   0   49.72    1.56 
   4   1   0   49.53    1.52 
   5   1   0   17.38    0.65 
   5   1   0   17.06    0.72 
   6   1   0    3.60    0.34 
   7   1   0    1.58    0.28 
   7  -2   0    2.12    0.33 
   6  -2   0   21.89    0.90 
   5  -2   0   66.17    2.06 
   4  -2   0   63.17    1.83 
   4  -2   0   59.29    1.88 
  -4   2   0   63.92    1.85 
   3  -2   0    2.29    0.14 
   3  -2   0    2.52    0.18 
  -3   2   0    3.21    0.18 
   2  -2   0  407.88   11.36 
  -2   2   0  422.74   11.32 
  -1   2   0  132.86    3.71 
  -1   2   0  131.68    3.66 
   0  -2   0  702.39   19.59 
   0   2   0  691.30   19.03 
   0   2   0  675.14   18.66 
   1   2   0  308.36    8.57 
  -2  -2   0   75.32    2.12 
   2   2   0   76.17    2.17 
   2   2   0   75.94    2.21 
  -3  -2   0   38.23    1.13 
   3   2   0   39.12    1.21 
   3   2   0   38.73    1.22 
  -4  -2   0    0.34    0.06 
   4   2   0    0.18    0.08 
   4   2   0    0.20    0.10 
   5   2   0    7.50    0.42 
   5   2   0    7.41    0.39 
   6   2   0    1.87    0.27 
   7   2   0    7.94    0.53 
   7  -3   0    7.93    0.53 
   6  -3   0    3.61    0.33 
   5  -3   0   62.76    1.94 
  -5   3   0   60.96    1.90 
   4  -3   0   17.16    0.59 
   4  -3   0   14.99    0.62 
  -4   3   0   17.47    0.64 
   3  -3   0   29.80    0.94 
  -3   3   0   29.43    0.96 
   2  -3   0   22.17    0.69 
  -2   3   0   22.30    0.74 
   1  -3   0   28.88    0.81 
  -1   3   0   28.93    0.89 
  -1   3   0   27.57    0.88 
   0   3   0  123.21    3.42 
   0   3   0  122.17    3.49 
  -1  -3   0    6.59    0.27 
   1   3   0    6.56    0.30 
   1   3   0    6.89    0.25 
  -2  -3   0    3.69    0.18 
   2   3   0    3.88    0.22 
   2   3   0    4.42    0.21 
  -3  -3   0   22.39    0.70 
   3   3   0   21.87    0.78 
   3   3   0   21.53    0.75 
   4   3   0   40.13    1.33 
   4   3   0   40.87    1.32 
   5   3   0    0.26    0.13 
   5   3   0    0.25    0.11 
   6   3   0    8.27    0.50 
   7   3   0    0.25    0.16 
   7  -4   0    4.91    0.44 
   6  -4   0    4.46    0.35 
   5  -4   0   10.34    0.49 
  -5   4   0   10.37    0.49 
   4  -4   0  201.54    5.67 
  -4   4   0  202.10    5.68 
   3  -4   0   88.18    2.47 
  -3   4   0   83.01    2.51 
   2  -4   0   53.48    1.56 
  -2   4   0   55.55    1.66 
   1  -4   0   54.16    1.51 
  -1   4   0   53.35    1.63 
  -1   4   0   55.19    1.63 
   0   4   0   19.65    0.69 
   0   4   0   19.62    0.66 
  -1  -4   0   27.99    0.88 
   1   4   0   28.17    0.82 
   1   4   0   27.60    0.93 
  -2  -4   0   12.39    0.45 
  -3  -4   0   34.91    1.06 
   3   4   0   33.72    1.17 
   3   4   0   34.15    1.11 
   4   4   0   10.45    0.49 
   4   4   0   11.47    0.54 
   5   4   0    3.85    0.31 
   5   4   0    4.40    0.33 
   6   4   0    0.51    0.18 
   7  -5   0    5.63    0.45 
   6  -5   0   13.07    0.63 
  -6   5   0   13.55    0.64 
   5  -5   0    0.84    0.16 
  -5   5   0    0.61    0.15 
   4  -5   0    0.46    0.11 
  -4   5   0    0.57    0.14 
   3  -5   0   18.56    0.62 
  -3   5   0   17.93    0.71 
   2  -5   0  249.98    6.84 
  -2   5   0  248.31    6.94 
  -1   5   0    0.61    0.12 
  -1   5   0    0.96    0.13 
   0   5   0  167.46    4.71 
   0   5   0  168.78    4.82 
  -1  -5   0   35.36    1.13 
   1   5   0   36.87    1.05 
   1   5   0   35.37    1.19 
  -2  -5   0   24.26    0.84 
   2   5   0   27.22    0.83 
   2   5   0   26.38    0.94 
  -3  -5   0    0.43    0.09 
   3   5   0    0.50    0.11 
   3   5   0    0.20    0.11 
   4   5   0   18.32    0.79 
   4   5   0   19.04    0.74 
   5   5   0    2.53    0.30 
   5   5   0    2.38    0.27 
   6   5   0    4.14    0.39 
  -6   6   0    0.80    0.20 
   5  -6   0   41.63    1.37 
  -5   6   0   41.72    1.45 
   4  -6   0   16.12    0.58 
  -4   6   0   13.54    0.65 
   3  -6   0    3.45    0.20 
  -3   6   0    4.66    0.31 
  -2   6   0    5.61    0.34 
  -1   6   0   29.09    1.00 
  -1   6   0   29.01    1.01 
   0   6   0    0.33    0.10 
   0   6   0    0.37    0.10 
  -1  -6   0   22.91    0.80 
   1   6   0   22.20    0.85 
  -2  -6   0  139.10    4.02 
   2   6   0  144.18    4.18 
  -3  -6   0   27.74    0.95 
   3   6   0   27.75    1.06 
   3   6   0   28.69    0.94 
   4   6   0    2.95    0.32 
   4   6   0    3.34    0.26 
   5   6   0    8.04    0.52 
  -6   7   0    4.07    0.40 
  -5   7   0    7.98    0.50 
  -4   7   0   20.98    0.88 
  -3   7   0    8.97    0.49 
  -2   7   0   38.93    1.34 
  -1   7   0   10.75    0.51 
  -1   7   0   11.43    0.53 
   0  -7   0   28.88    1.01 
   0   7   0   28.82    1.05 
  -1  -7   0    1.40    0.18 
   1   7   0    0.93    0.18 
  -2  -7   0   27.53    0.96 
   2   7   0   27.17    1.05 
   3   7   0   23.80    0.98 
   4   7   0    1.22    0.25 
   5   7   0    1.51    0.29 
  -5   8   0   16.73    0.81 
  -4   8   0    1.02    0.21 
  -3   8   0    0.79    0.18 
  -2   8   0   10.75    0.55 
  -1   8   0    3.42    0.29 
  -1   8   0    3.70    0.30 
   0  -8   0   16.51    0.69 
   0   8   0   15.33    0.70 
  -1  -8   0    0.05    0.08 
   1   8   0   -0.04    0.08 
  -2  -8   0   17.19    0.70 
   2   8   0   16.41    0.77 
   3   8   0   17.00    0.83 
   4   8   0    8.15    0.56 
  -5   9   0    2.05    0.31 
  -4   9   0   29.34    1.18 
  -3   9   0   16.67    0.78 
  -2   9   0   -0.03    0.09 
  -1   9   0    0.28    0.13 
  -1   9   0    0.22    0.13 
   0  -9   0    9.84    0.52 
   0   9   0   10.10    0.56 
  -1  -9   0    8.38    0.47 
   1   9   0    8.14    0.51 
  -2  -9   0    0.46    0.15 
   2   9   0    0.42    0.17 
   3   9   0    0.69    0.22 
  -4  10   0   -0.07    0.10 
  -3  10   0    3.76    0.40 
  -2  10   0   29.95    1.19 
   1 -10   0    0.89    0.20 
  -1  10   0    1.35    0.24 
   0 -10   0    3.66    0.34 
   0  10   0    3.91    0.38 
  -1 -10   0    0.37    0.15 
   1  10   0    0.50    0.16 
   2  10   0    5.30    0.49 
   2 -11   0    4.72    0.44 
   1 -11   0    7.41    0.50 
  -1  11   0    7.56    0.52 
   0 -11   0    3.15    0.35 
   0  11   0    3.66    0.40 
  -1 -11   0    2.26    0.30 
   1  11   0    2.72    0.35 
   1  11  -1    5.74    0.46 
  -1 -11   1    6.16    0.44 
   0  11  -1    3.68    0.41 
   0 -11   1    4.19    0.39 
   1 -11   1    3.29    0.36 
   2 -11   1    2.30    0.33 
   3  10  -1    1.94    0.34 
   2  10  -1    0.09    0.15 
   1  10  -1    7.97    0.53 
  -1 -10   1    8.05    0.49 
   0  10  -1    0.58    0.17 
   0 -10   1    0.61    0.17 
  -1  10  -1    1.88    0.29 
   1 -10   1    1.56    0.26 
   2 -10   1    0.16    0.14 
  -3  10  -1   21.06    0.94 
  -4  10  -1    0.57    0.18 
   4   9  -1    6.00    0.50 
   3   9  -1    1.73    0.31 
   2   9  -1    9.20    0.57 
  -2  -9   1    8.38    0.48 
   1   9  -1    0.11    0.11 
  -1  -9   1    0.32    0.13 
   0   9  -1   11.81    0.61 
   0  -9   1   12.03    0.59 
  -1   9  -1    0.74    0.19 
   1  -9   1    0.47    0.15 
  -2   9  -1    0.30    0.14 
  -3   9  -1    4.25    0.39 
  -4   9  -1   13.77    0.71 
  -5   9  -1    7.79    0.52 
   4   8  -1    1.15    0.25 
   3   8  -1    4.33    0.40 
   2   8  -1    2.41    0.29 
  -2  -8   1    2.49    0.25 
   1   8  -1   11.68    0.59 
  -1  -8   1   11.81    0.56 
   0   8  -1    5.37    0.36 
   0  -8   1    5.12    0.34 
  -1   8  -1   45.37    1.55 
  -1   8  -1   44.94    1.51 
  -2   8  -1   26.62    1.01 
  -3   8  -1    7.31    0.45 
  -4   8  -1    1.27    0.23 
  -5   8  -1   16.22    0.78 
   5   7  -1   -0.02    0.15 
   4   7  -1    7.74    0.50 
   3   7  -1    1.60    0.25 
  -3  -7   1    1.84    0.22 
   2   7  -1   25.30    0.97 
  -2  -7   1   24.14    0.89 
   1   7  -1   10.99    0.54 
  -1  -7   1   11.34    0.51 
   0   7  -1   -0.03    0.06 
   0  -7   1    0.11    0.08 
  -1   7  -1    1.39    0.19 
  -1   7  -1    1.60    0.20 
  -2   7  -1   42.74    1.43 
  -3   7  -1  126.23    3.73 
  -4   7  -1    1.75    0.24 
  -5   7  -1    9.21    0.53 
  -6   7  -1    3.90    0.38 
   5   6  -1    5.83    0.41 
   5   6  -1    6.22    0.44 
   4   6  -1   16.11    0.74 
   4   6  -1   15.90    0.66 
   3   6  -1    1.12    0.19 
   3   6  -1    0.93    0.14 
   2   6  -1   18.31    0.74 
   2   6  -1   18.18    0.62 
  -2  -6   1   17.41    0.67 
   1   6  -1   76.68    2.40 
  -1  -6   1   80.66    2.34 
   0   6  -1  114.95    3.24 
   0  -6   1  103.31    3.15 
  -1   6  -1   37.07    1.17 
  -1   6  -1   32.84    1.16 
  -2   6  -1    5.76    0.33 
   2  -6   1    5.57    0.22 
  -3   6  -1   79.09    2.44 
   3  -6   1   81.18    2.31 
  -4   6  -1   24.95    0.93 
   4  -6   1   23.29    0.83 
  -5   6  -1    2.67    0.29 
   5  -6   1    2.75    0.26 
  -6   6  -1    6.93    0.45 
   6  -6   1    7.20    0.45 
   6   5  -1    6.35    0.45 
   5   5  -1    0.91    0.20 
   5   5  -1    0.84    0.19 
   4   5  -1   16.01    0.67 
   4   5  -1   17.53    0.72 
   3   5  -1   61.24    1.70 
   3   5  -1   58.46    1.78 
  -3  -5   1   46.76    1.65 
   2   5  -1   15.91    0.53 
   2   5  -1   12.91    0.59 
  -2  -5   1   14.96    0.56 
   1   5  -1   12.49    0.42 
   1   5  -1   13.48    0.54 
  -1  -5   1   12.08    0.49 
   0   5  -1    7.54    0.36 
   0   5  -1    7.30    0.34 
   0  -5   1    7.31    0.34 
  -1   5  -1  258.79    7.14 
  -1   5  -1  256.46    7.26 
  -2   5  -1    0.77    0.13 
  -3   5  -1   91.32    2.74 
   3  -5   1   94.17    2.66 
  -4   5  -1   34.31    1.16 
   4  -5   1   32.83    1.10 
  -5   5  -1   45.97    1.51 
   5  -5   1   45.00    1.49 
   6  -5   1    0.45    0.17 
   7  -5   1    9.57    0.59 
   6   4  -1   12.08    0.63 
   5   4  -1    4.56    0.33 
   5   4  -1    4.52    0.33 
   4   4  -1   25.49    0.92 
   4   4  -1   25.21    0.93 
   3   4  -1    2.16    0.18 
   3   4  -1    2.10    0.20 
  -3  -4   1    2.56    0.17 
   2   4  -1  270.09    7.77 
  -2  -4   1  282.36    7.60 
   1   4  -1   15.13    0.58 
   1   4  -1   15.44    0.49 
  -1  -4   1   16.03    0.55 
   0   4  -1   38.14    1.18 
   0   4  -1   39.49    1.22 
  -1   4  -1   47.67    1.45 
  -1   4  -1   47.36    1.44 
  -2   4  -1  138.11    3.90 
  -3   4  -1   15.35    0.59 
   3  -4   1   15.19    0.55 
  -4   4  -1    0.53    0.12 
   4  -4   1    0.25    0.10 
  -5   4  -1    4.61    0.30 
   5  -4   1    4.21    0.31 
   6  -4   1   14.26    0.67 
   7  -4   1    4.50    0.42 
   7   3  -1    1.35    0.26 
   6   3  -1    4.06    0.37 
   5   3  -1    5.84    0.36 
   5   3  -1    6.01    0.38 
   4   3  -1    0.31    0.10 
   4   3  -1    0.13    0.09 
  -4  -3   1    0.31    0.07 
   3   3  -1    5.03    0.28 
   3   3  -1    5.15    0.27 
  -3  -3   1    5.64    0.25 
   2   3  -1   19.19    0.62 
   2   3  -1   17.50    0.64 
   1   3  -1  516.16   14.18 
   1   3  -1  514.74   13.96 
  -1  -3   1  503.63   13.89 
   0   3  -1   57.61    1.65 
   0   3  -1   56.75    1.69 
  -1   3  -1  213.47    5.88 
  -2   3  -1   76.32    2.20 
  -3   3  -1  150.64    4.21 
   3  -3   1  148.94    4.21 
  -4   3  -1    0.68    0.12 
   4  -3   1    0.55    0.10 
   4  -3   1    0.57    0.13 
  -5   3  -1    2.13    0.21 
   5  -3   1    2.59    0.26 
   6  -3   1   18.70    0.81 
   7  -3   1    0.20    0.17 
   7   2  -1    1.08    0.24 
   6   2  -1    6.14    0.42 
   5   2  -1    7.25    0.42 
   5   2  -1    7.52    0.37 
   4   2  -1   76.83    2.29 
   4   2  -1   77.73    2.32 
  -4  -2   1   77.09    2.22 
   3   2  -1    3.28    0.22 
   3   2  -1    3.94    0.21 
  -3  -2   1    3.84    0.19 
   2   2  -1   35.86    1.07 
   2   2  -1   34.77    1.08 
   1   2  -1  219.13    5.99 
   1   2  -1  206.14    5.88 
  -1  -2   1  218.64    5.87 
   0   2  -1  210.94    5.96 
   0  -2   1  217.26    5.86 
  -1   2  -1   24.81    0.76 
  -2   2  -1   17.58    0.58 
  -3   2  -1  226.02    6.13 
   3  -2   1  221.16    6.18 
   3  -2   1  220.10    6.23 
  -4   2  -1    0.03    0.05 
   4  -2   1    0.12    0.07 
   4  -2   1    0.06    0.05 
  -5   2  -1   42.34    1.33 
   5  -2   1   42.71    1.42 
   6  -2   1    0.58    0.18 
   7  -2   1   13.81    0.72 
   7   1  -1    8.58    0.56 
   6   1  -1    9.81    0.55 
   5   1  -1   -0.08    0.07 
   4   1  -1   18.10    0.62 
   4   1  -1   16.78    0.65 
  -4  -1   1   17.04    0.59 
   3   1  -1   38.86    1.18 
   3   1  -1   40.36    1.22 
  -3  -1   1   38.56    1.16 
   2   1  -1  106.71    2.98 
   2   1  -1  104.62    2.97 
   1   1  -1  724.38   19.88 
   1   1  -1  726.14   19.62 
  -1  -1   1  708.35   19.49 
   0   1  -1  125.31    3.50 
  -1   1  -1   75.27    2.09 
  -2   1  -1   14.81    0.48 
   2  -1   1   15.43    0.50 
  -3   1  -1  214.17    5.94 
   3  -1   1  216.53    6.06 
   3  -1   1  218.77    6.03 
  -4   1  -1   52.88    1.55 
   4  -1   1   52.81    1.60 
   4  -1   1   52.57    1.64 
   5  -1   1   16.21    0.68 
   5  -1   1   16.23    0.61 
   6  -1   1   17.22    0.77 
   7  -1   1    0.39    0.19 
   7   0  -1    0.38    0.18 
   6   0  -1   24.86    1.00 
   5   0  -1   20.51    0.80 
  -5   0   1   20.50    0.71 
   4   0  -1   11.29    0.42 
   4   0  -1   12.06    0.51 
  -4   0   1   11.57    0.43 
   3   0  -1   21.62    0.69 
   3   0  -1   22.89    0.75 
   2   0  -1    5.54    0.20 
   2   0  -1    6.02    0.24 
  -2   0   1    4.85    0.21 
   1   0  -1  122.84    3.70 
   1   0  -1  129.99    3.57 
  -1   0   1  131.54    3.70 
  -1   0   1  133.02    3.56 
   0   0   1    7.31    0.23 
  -1   0  -1  369.03   10.54 
   1   0   1  382.61   10.51 
   1   0   1  391.66   10.56 
  -2   0  -1   14.86    0.45 
   2   0   1   14.82    0.49 
  -3   0  -1  200.08    5.55 
   3   0   1  202.25    5.70 
   3   0   1  206.06    5.66 
  -4   0  -1   28.05    0.86 
   4   0   1   28.14    0.96 
   4   0   1   27.73    0.92 
   5   0   1  103.45    3.08 
   5   0   1  102.56    3.03 
   6   0   1    2.50    0.29 
   7   0   1    5.44    0.43 
   7  -1  -1    1.37    0.27 
   6  -1  -1   13.53    0.66 
   5  -1  -1    0.49    0.13 
  -5   1   1    0.30    0.08 
   4  -1  -1  169.53    4.64 
   4  -1  -1  159.61    4.68 
  -4   1   1  165.72    4.61 
   3  -1  -1   45.94    1.39 
   3  -1  -1   45.90    1.33 
  -3   1   1   45.46    1.36 
   2  -1  -1  397.54   10.91 
   2  -1  -1  390.37   10.77 
  -2   1   1  393.10   10.71 
   1  -1  -1   61.97    1.75 
  -1   1   1   62.62    1.77 
  -1   1   1   63.57    1.76 
   0   1   1  293.27    7.95 
   0   1   1  279.94    7.80 
  -1  -1  -1   -0.01    0.02 
   1   1   1   -0.08    0.04 
  -2  -1  -1  141.20    3.85 
   2   1   1  138.41    3.98 
   2   1   1  142.32    3.93 
  -3  -1  -1   40.58    1.17 
   3   1   1   41.61    1.27 
   3   1   1   40.74    1.27 
  -4  -1  -1    3.25    0.15 
   4   1   1    3.40    0.24 
   4   1   1    3.17    0.22 
   5   1   1    1.26    0.20 
   5   1   1    1.81    0.20 
   6   1   1   36.68    1.34 
   7   1   1    3.47    0.39 
   7  -2  -1    3.89    0.40 
   6  -2  -1    5.73    0.39 
   5  -2  -1    4.03    0.30 
  -5   2   1    4.20    0.27 
   4  -2  -1    0.79    0.13 
   4  -2  -1    0.57    0.07 
  -4   2   1    0.71    0.12 
   3  -2  -1   83.15    2.38 
   3  -2  -1   85.50    2.41 
  -3   2   1   82.47    2.41 
   2  -2  -1    0.49    0.07 
  -2   2   1    0.64    0.09 
   1  -2  -1  481.36   12.83 
  -1   2   1  457.35   12.74 
   0   2   1  573.53   15.99 
   0   2   1  606.80   16.31 
  -1  -2  -1  182.43    4.94 
   1   2   1  178.55    5.07 
  -2  -2  -1    3.29    0.14 
   2   2   1    3.05    0.17 
   2   2   1    4.17    0.21 
  -3  -2  -1  190.52    5.21 
   3   2   1  190.79    5.34 
   3   2   1  190.39    5.41 
   4   2   1   35.66    1.21 
   4   2   1   37.60    1.22 
   5   2   1    1.58    0.21 
   5   2   1    1.58    0.22 
   6   2   1    0.32    0.14 
   7   2   1    3.86    0.40 
   7  -3  -1    0.04    0.15 
   6  -3  -1   19.90    0.84 
  -6   3   1   19.40    0.78 
   5  -3  -1    6.08    0.36 
  -5   3   1    6.04    0.35 
   4  -3  -1  128.98    3.81 
   4  -3  -1  137.93    3.86 
  -4   3   1  137.58    3.85 
   3  -3  -1    7.21    0.31 
  -3   3   1    7.48    0.35 
   2  -3  -1   56.97    1.64 
  -2   3   1   57.71    1.70 
   1  -3  -1  198.03    5.39 
  -1   3   1  196.35    5.43 
  -1   3   1  194.68    5.50 
   0   3   1   61.84    1.83 
   0   3   1   62.56    1.79 
   1   3   1  288.49    8.16 
   1   3   1  295.36    7.99 
  -2  -3  -1   10.39    0.36 
   2   3   1    9.44    0.42 
   2   3   1   10.64    0.39 
  -3  -3  -1   47.19    1.37 
   3   3   1   47.13    1.50 
   3   3   1   47.22    1.45 
   4   3   1    0.03    0.09 
   4   3   1    0.06    0.08 
   5   3   1   29.93    1.10 
   5   3   1   30.60    1.10 
   6   3   1    3.92    0.37 
   7  -4  -1   10.45    0.61 
   6  -4  -1    3.21    0.32 
  -6   4   1    3.41    0.31 
   5  -4  -1    0.08    0.09 
  -5   4   1    0.11    0.09 
   4  -4  -1    2.33    0.19 
  -4   4   1    1.97    0.21 
   3  -4  -1  206.57    5.79 
  -3   4   1  211.21    5.86 
   2  -4  -1  125.31    3.44 
  -2   4   1  123.46    3.53 
  -2   4   1  122.42    3.52 
  -1   4   1   21.56    0.73 
  -1   4   1   20.68    0.71 
   0   4   1    0.12    0.06 
   0   4   1    0.27    0.07 
  -1  -4  -1  151.90    4.25 
   1   4   1  151.63    4.38 
   1   4   1  155.00    4.22 
  -2  -4  -1   45.42    1.34 
   2   4   1   45.43    1.45 
  -3  -4  -1    7.63    0.31 
   3   4   1    7.49    0.40 
   3   4   1    7.44    0.35 
   4   4   1    5.50    0.33 
   4   4   1    6.84    0.39 
   5   4   1    0.76    0.19 
   5   4   1    0.81    0.17 
   6   4   1    3.97    0.37 
   7  -5  -1    0.17    0.17 
   6  -5  -1   38.63    1.36 
  -6   5   1   39.08    1.38 
   5  -5  -1    2.48    0.24 
  -5   5   1    2.59    0.27 
   4  -5  -1    7.09    0.34 
  -4   5   1    7.05    0.40 
   3  -5  -1    6.22    0.28 
  -3   5   1    6.26    0.36 
   2  -5  -1   35.59    1.03 
  -2   5   1   36.29    1.14 
  -2   5   1   34.34    1.17 
  -1   5   1   29.34    0.95 
  -1   5   1   26.92    0.94 
   0   5   1   42.13    1.32 
   0   5   1   43.21    1.37 
  -1  -5  -1   34.48    1.09 
   1   5   1   34.34    1.00 
   1   5   1   34.47    1.16 
  -2  -5  -1   16.64    0.60 
   2   5   1   16.33    0.68 
   2   5   1   17.71    0.58 
   3   5   1   45.85    1.46 
   3   5   1   48.24    1.58 
   4   5   1    0.52    0.16 
   4   5   1    0.69    0.15 
   5   5   1   17.85    0.81 
   5   5   1   17.61    0.76 
   6   5   1    0.50    0.18 
  -6   6   1    2.06    0.29 
  -5   6   1   17.64    0.78 
  -4   6   1   43.75    1.49 
  -3   6   1    0.08    0.08 
  -2   6   1   23.11    0.82 
  -2   6   1   22.10    0.84 
  -1   6   1   32.18    1.05 
  -1   6   1   28.48    1.03 
   0   6   1   52.12    1.62 
   0   6   1   52.93    1.68 
  -1  -6  -1    5.13    0.29 
   1   6   1    5.00    0.32 
   2   6   1    7.33    0.43 
   3   6   1    0.23    0.12 
   4   6   1    2.68    0.31 
   5   6   1    0.32    0.18 
  -6   7   1    0.77    0.20 
  -5   7   1    0.45    0.17 
  -4   7   1    5.73    0.40 
  -3   7   1   22.90    0.91 
  -2   7   1   54.39    1.77 
  -2   7   1   54.92    1.76 
  -1   7   1   16.79    0.68 
  -1   7   1   15.85    0.67 
   0   7   1    8.72    0.44 
   0   7   1    9.62    0.48 
  -1  -7  -1   63.96    1.94 
   1   7   1   62.21    2.04 
  -2  -7  -1    7.52    0.39 
   2   7   1    7.47    0.46 
   3   7   1   13.93    0.69 
   4   7   1    0.87    0.21 
   5   7   1    4.40    0.45 
  -5   8   1    0.78    0.21 
  -4   8   1    5.60    0.42 
  -3   8   1    0.96    0.20 
  -2   8   1   11.36    0.56 
  -2   8   1   11.36    0.57 
  -1   8   1    1.56    0.22 
  -1   8   1    1.82    0.24 
   0  -8  -1   17.00    0.72 
   0   8   1   17.60    0.76 
  -1  -8  -1   16.08    0.66 
   1   8   1   15.08    0.71 
  -2  -8  -1    0.44    0.13 
   2   8   1    0.62    0.18 
   3   8   1    4.00    0.40 
   4   8   1    2.49    0.36 
  -5   9   1    3.76    0.42 
  -4   9   1    6.94    0.50 
  -3   9   1    5.98    0.44 
  -2   9   1   10.77    0.57 
  -2   9   1   10.24    0.56 
  -1   9   1   11.02    0.58 
   0  -9  -1    3.57    0.32 
   0   9   1    3.64    0.35 
  -1  -9  -1   20.90    0.83 
   1   9   1   19.51    0.89 
   2   9   1    1.53    0.27 
   3   9   1    0.47    0.21 
  -4  10   1    4.15    0.44 
  -3  10   1    0.72    0.22 
  -2  10   1    5.95    0.45 
  -2  10   1    5.76    0.43 
   1 -10  -1    4.12    0.38 
  -1  10   1    4.14    0.39 
   0 -10  -1    0.69    0.17 
   0  10   1    0.56    0.18 
  -1 -10  -1    1.43    0.24 
   1  10   1    1.06    0.24 
   2  10   1    2.85    0.38 
  -2  11   1    2.29    0.34 
   1 -11  -1    7.34    0.50 
  -1  11   1    8.44    0.55 
   0 -11  -1    5.32    0.41 
   0  11   1    5.09    0.42 
   1  11  -2   -0.05    0.10 
  -1 -11   2   -0.03    0.13 
   0  11  -2    6.57    0.49 
   0 -11   2    6.55    0.47 
   1 -11   2   19.56    0.90 
   2 -11   2    3.32    0.37 
   3  10  -2    4.11    0.45 
   2  10  -2    2.38    0.34 
  -2 -10   2    2.42    0.31 
   1  10  -2    3.29    0.37 
  -1 -10   2    4.04    0.36 
   0  10  -2    0.43    0.17 
   0 -10   2    0.37    0.15 
   1 -10   2    9.92    0.56 
   2 -10   2   19.83    0.89 
   3 -10   2    0.52    0.20 
  -4  10  -2    6.55    0.47 
   4   9  -2    0.04    0.17 
   3   9  -2    4.67    0.44 
   2   9  -2    3.52    0.37 
  -2  -9   2    3.89    0.34 
   1   9  -2   18.39    0.84 
  -1  -9   2   19.52    0.81 
   0   9  -2    0.68    0.18 
   0  -9   2    0.79    0.18 
   1  -9   2   16.85    0.75 
   2  -9   2   14.82    0.71 
  -3   9  -2   16.12    0.76 
  -4   9  -2    0.15    0.13 
  -5   9  -2    9.11    0.56 
   4   8  -2   11.24    0.65 
   3   8  -2    0.55    0.18 
  -3  -8   2    0.53    0.16 
   2   8  -2    3.53    0.34 
  -2  -8   2    3.66    0.29 
   1   8  -2    4.21    0.32 
  -1  -8   2    3.96    0.30 
   0   8  -2    3.57    0.30 
   0  -8   2    3.44    0.28 
  -1   8  -2    0.07    0.09 
   1  -8   2   -0.03    0.07 
  -2   8  -2   19.17    0.80 
  -3   8  -2   15.07    0.69 
  -4   8  -2   19.71    0.85 
  -5   8  -2    0.10    0.12 
   5   7  -2    1.47    0.28 
   4   7  -2    0.01    0.11 
   3   7  -2   73.54    2.35 
  -3  -7   2   72.90    2.25 
   2   7  -2    0.37    0.13 
  -2  -7   2    0.55    0.14 
   1   7  -2   32.23    1.17 
  -1  -7   2   33.54    1.14 
   0   7  -2   13.17    0.58 
   0  -7   2   12.42    0.55 
  -1   7  -2   26.35    0.94 
  -1   7  -2   25.68    0.96 
   1  -7   2   25.55    0.94 
  -2   7  -2   18.56    0.75 
  -3   7  -2    1.23    0.20 
  -4   7  -2   13.96    0.65 
  -5   7  -2    3.71    0.35 
  -6   7  -2    1.07    0.22 
   6   6  -2    4.63    0.41 
   5   6  -2    0.22    0.15 
   5   6  -2    0.28    0.15 
   4   6  -2   16.47    0.67 
   4   6  -2   14.82    0.70 
   3   6  -2    0.23    0.10 
   3   6  -2    0.01    0.04 
  -3  -6   2    0.25    0.10 
   2   6  -2   31.54    1.09 
   2   6  -2   31.02    0.96 
  -2  -6   2   28.48    1.02 
   1   6  -2   24.76    0.88 
  -1  -6   2   22.43    0.84 
   0   6  -2   60.82    1.91 
   0  -6   2   62.16    1.88 
  -1   6  -2  105.79    3.14 
  -1   6  -2  106.18    3.09 
  -2   6  -2   12.30    0.54 
  -3   6  -2    5.27    0.34 
   3  -6   2    5.25    0.27 
  -4   6  -2   48.56    1.63 
   4  -6   2   50.90    1.56 
  -5   6  -2   16.05    0.71 
   5  -6   2   16.06    0.68 
   6  -6   2    2.41    0.29 
   6   5  -2    0.70    0.21 
   5   5  -2   10.14    0.53 
   5   5  -2   10.36    0.54 
   4   5  -2   21.38    0.85 
   4   5  -2   21.32    0.81 
  -4  -5   2   21.86    0.78 
   3   5  -2   79.28    2.35 
   3   5  -2   77.77    2.44 
  -3  -5   2   82.62    2.37 
   2   5  -2    2.44    0.17 
   2   5  -2    2.48    0.20 
  -2  -5   2    2.32    0.19 
   1   5  -2   29.06    1.00 
  -1  -5   2   30.12    0.98 
   0   5  -2   27.92    0.95 
   0  -5   2   27.69    0.93 
  -1   5  -2  176.46    4.95 
  -2   5  -2   86.29    2.54 
  -3   5  -2   67.12    2.04 
  -4   5  -2   14.57    0.61 
   4  -5   2   14.01    0.57 
  -5   5  -2   18.64    0.75 
   5  -5   2   18.02    0.74 
   6  -5   2   34.52    1.26 
   7  -5   2    0.94    0.25 
   6   4  -2    2.75    0.32 
   5   4  -2    5.97    0.37 
   5   4  -2    5.91    0.38 
   4   4  -2    0.48    0.13 
   4   4  -2    0.66    0.14 
  -4  -4   2    0.35    0.08 
   3   4  -2   30.31    1.02 
   3   4  -2   30.13    0.98 
  -3  -4   2   29.41    0.97 
   2   4  -2    4.14    0.25 
   2   4  -2    3.90    0.22 
  -2  -4   2    4.30    0.23 
   1   4  -2  133.48    3.80 
   1   4  -2  132.02    3.67 
  -1  -4   2  131.53    3.71 
   0   4  -2    5.01    0.26 
   0  -4   2    4.98    0.25 
  -1   4  -2  130.03    3.66 
  -2   4  -2  192.72    5.38 
  -3   4  -2  181.96    5.11 
  -4   4  -2    0.44    0.10 
   4  -4   2    0.41    0.11 
   4  -4   2    0.26    0.09 
  -5   4  -2   12.54    0.54 
   5  -4   2   11.93    0.56 
   6  -4   2    0.16    0.12 
   7  -4   2    3.23    0.38 
   7   3  -2    4.26    0.42 
   6   3  -2    3.64    0.35 
   5   3  -2   18.60    0.77 
   4   3  -2   70.29    2.10 
   4   3  -2   68.14    2.08 
  -4  -3   2   67.89    2.02 
   3   3  -2    2.08    0.16 
   3   3  -2    1.90    0.17 
   2   3  -2   46.48    1.39 
   2   3  -2   46.48    1.43 
  -2  -3   2   47.22    1.39 
   1   3  -2    0.81    0.10 
  -1  -3   2    0.76    0.09 
   0   3  -2  149.26    4.24 
   0  -3   2  150.44    4.16 
  -1   3  -2   56.31    1.64 
  -2   3  -2   38.72    1.18 
  -3   3  -2    7.94    0.35 
  -4   3  -2  207.95    5.80 
   4  -3   2  206.04    5.90 
   4  -3   2  210.52    5.86 
  -5   3  -2   11.81    0.49 
   5  -3   2   11.86    0.50 
   5  -3   2   11.39    0.54 
   6  -3   2   21.67    0.91 
   7  -3   2    0.74    0.22 
   7   2  -2    2.05    0.31 
   6   2  -2    0.03    0.11 
   5   2  -2   12.94    0.60 
   4   2  -2    6.10    0.29 
   4   2  -2    5.68    0.33 
  -4  -2   2    6.03    0.29 
   3   2  -2  174.93    4.90 
   3   2  -2  173.97    4.92 
   2   2  -2  108.08    3.11 
   2   2  -2  109.32    3.08 
  -2  -2   2  110.99    3.06 
   1   2  -2  129.15    3.59 
   1   2  -2  129.19    3.65 
  -1  -2   2  129.26    3.58 
   0  -2   2   28.79    0.86 
  -1   2  -2   37.92    1.11 
  -2   2  -2    0.87    0.09 
  -3   2  -2   18.87    0.63 
   3  -2   2   19.30    0.66 
  -4   2  -2    0.29    0.07 
   4  -2   2    0.18    0.09 
   4  -2   2    0.27    0.08 
   5  -2   2   11.38    0.54 
   5  -2   2   11.55    0.49 
   6  -2   2   23.90    0.97 
   7  -2   2    1.64    0.29 
   7   1  -2    5.50    0.44 
   6   1  -2    9.96    0.55 
   5   1  -2    0.46    0.14 
  -5  -1   2    0.50    0.09 
   4   1  -2   13.13    0.47 
   4   1  -2   12.99    0.54 
   3   1  -2   55.72    1.66 
   3   1  -2   55.25    1.62 
  -3  -1   2   55.82    1.62 
   2   1  -2   38.69    1.16 
   2   1  -2   38.30    1.13 
  -2  -1   2   38.47    1.14 
   1   1  -2  743.25   20.51 
   1   1  -2  751.52   20.23 
  -1  -1   2  732.62   20.10 
   0  -1   2  140.80    3.86 
  -1   1  -2    1.22    0.07 
  -2   1  -2  121.31    3.35 
   2  -1   2  121.91    3.45 
  -3   1  -2  117.91    3.24 
   3  -1   2  115.39    3.34 
  -4   1  -2   82.74    2.28 
   4  -1   2   78.94    2.37 
   4  -1   2   77.99    2.38 
   5  -1   2    1.72    0.18 
   5  -1   2    1.50    0.21 
   6  -1   2    1.04    0.22 
   7  -1   2    1.65    0.29 
   7   0  -2    5.21    0.44 
   6   0  -2    4.32    0.35 
   5   0  -2   51.10    1.66 
   4   0  -2   16.98    0.65 
   4   0  -2   17.10    0.55 
  -4   0   2   16.53    0.60 
   3   0  -2   60.75    1.78 
   3   0  -2   59.40    1.70 
  -3   0   2   59.17    1.74 
   2   0  -2  109.04    3.02 
   2   0  -2  105.32    3.02 
  -2   0   2  108.45    3.00 
   1   0  -2  912.83   26.01 
  -1   0   2 1000.00   25.90 
   0   0   2  234.80    6.62 
   0   0   2  250.65    6.75 
   1   0   2    0.50    0.03 
   1   0   2    0.73    0.04 
   1   0   2    0.43    0.07 
  -2   0  -2   24.30    0.69 
   2   0   2   24.00    0.77 
  -3   0  -2    2.94    0.13 
   3   0   2    2.61    0.18 
   4   0   2   42.35    1.34 
   4   0   2   42.31    1.36 
   5   0   2    0.32    0.11 
   5   0   2    0.39    0.14 
   6   0   2   25.75    1.03 
   7   0   2    0.30    0.16 
   7  -1  -2    0.26    0.19 
   6  -1  -2    0.28    0.13 
   5  -1  -2    5.94    0.37 
  -5   1   2    6.43    0.33 
   4  -1  -2   32.60    0.92 
   4  -1  -2   27.59    1.01 
  -4   1   2   32.15    1.01 
   3  -1  -2   34.58    1.06 
   3  -1  -2   33.20    0.97 
  -3   1   2   33.64    1.04 
   2  -1  -2   24.07    0.74 
  -2   1   2   23.86    0.75 
   1  -1  -2  441.60   11.75 
  -1   1   2  418.36   11.94 
   0   1   2  629.68   17.32 
   0   1   2  623.80   17.01 
  -1  -1  -2  161.66    4.50 
   1   1   2  165.06    4.58 
   1   1   2  162.38    4.52 
   2   1   2   73.39    2.15 
  -3  -1  -2  246.62    6.77 
   3   1   2  247.86    6.91 
   3   1   2  251.11    7.00 
   4   1   2    1.97    0.20 
   4   1   2    1.99    0.20 
   5   1   2    0.36    0.13 
   5   1   2    0.49    0.14 
   6   1   2    0.37    0.17 
   7   1   2    5.61    0.44 
   7  -2  -2   18.65    0.87 
   6  -2  -2   20.59    0.86 
  -6   2   2   21.13    0.81 
   5  -2  -2    2.50    0.25 
  -5   2   2    2.75    0.22 
   4  -2  -2    3.74    0.16 
   4  -2  -2    3.60    0.24 
  -4   2   2    3.55    0.23 
   3  -2  -2   50.55    1.43 
   3  -2  -2   50.38    1.49 
  -3   2   2   48.58    1.50 
   2  -2  -2    0.79    0.08 
  -2   2   2    0.88    0.11 
  -1   2   2    0.06    0.05 
   0   2   2   36.58    1.08 
   0   2   2   35.45    1.05 
   1   2   2    0.14    0.03 
   1   2   2    0.09    0.05 
  -2  -2  -2  131.35    3.55 
   2   2   2  127.39    3.71 
  -3  -2  -2   24.16    0.70 
   3   2   2   25.04    0.82 
   3   2   2   23.13    0.84 
   4   2   2  103.47    2.86 
   4   2   2   88.55    2.86 
   5   2   2    5.90    0.38 
   5   2   2    6.46    0.39 
   6   2   2    9.99    0.56 
   7   2   2    0.70    0.19 
   7  -3  -2    0.18    0.17 
   6  -3  -2    1.70    0.25 
  -6   3   2    1.93    0.24 
   5  -3  -2   20.10    0.78 
  -5   3   2   19.81    0.77 
   4  -3  -2    1.75    0.18 
   4  -3  -2    1.80    0.11 
  -4   3   2    1.80    0.20 
   3  -3  -2  106.33    2.99 
  -3   3   2  104.28    3.03 
   2  -3  -2   19.02    0.59 
  -2   3   2   18.80    0.60 
  -2   3   2   18.03    0.65 
   1  -3  -2  101.50    2.81 
  -1   3   2  103.28    2.91 
  -1   3   2  100.76    2.88 
   0   3   2   74.42    2.13 
   0   3   2   75.41    2.19 
   1   3   2   56.39    1.61 
   1   3   2   56.55    1.70 
  -2  -3  -2    0.42    0.05 
   2   3   2    0.42    0.08 
   2   3   2    0.33    0.09 
  -3  -3  -2   15.29    0.48 
   3   3   2   15.55    0.62 
   3   3   2   14.83    0.57 
   4   3   2    1.78    0.22 
   4   3   2    1.88    0.21 
   5   3   2    5.39    0.36 
   5   3   2    5.83    0.39 
   6   3   2   10.21    0.57 
   7  -4  -2    1.80    0.29 
   6  -4  -2    1.77    0.25 
  -6   4   2    1.82    0.24 
   5  -4  -2   23.02    0.86 
  -5   4   2   23.65    0.90 
   4  -4  -2   12.37    0.51 
  -4   4   2   12.84    0.57 
   3  -4  -2    0.19    0.07 
  -3   4   2    0.15    0.07 
   2  -4  -2   41.33    1.17 
  -2   4   2   39.08    1.27 
  -1   4   2   35.08    1.13 
  -1   4   2   36.85    1.14 
   0   4   2    1.03    0.13 
   0   4   2    0.45    0.08 
   1   4   2   22.65    0.68 
   1   4   2   23.33    0.73 
   1   4   2   21.66    0.79 
  -2  -4  -2  106.33    2.98 
   2   4   2  106.82    3.15 
   3   4   2   41.55    1.42 
   3   4   2   43.86    1.35 
   4   4   2    0.63    0.15 
   4   4   2    0.83    0.16 
   5   4   2    0.53    0.16 
   5   4   2    0.42    0.14 
   6   4   2    7.31    0.48 
   7  -5  -2    5.26    0.42 
   6  -5  -2    2.53    0.29 
  -6   5   2    2.57    0.30 
   5  -5  -2   18.54    0.74 
  -5   5   2   19.25    0.80 
   4  -5  -2    2.23    0.19 
  -4   5   2    2.22    0.25 
   3  -5  -2   65.12    1.89 
  -3   5   2   65.31    2.02 
   2  -5  -2    0.28    0.05 
  -2   5   2    0.17    0.08 
  -2   5   2    0.24    0.08 
  -1   5   2  196.23    5.55 
  -1   5   2  193.99    5.47 
   0   5   2    9.23    0.42 
   0   5   2    8.94    0.39 
   1   5   2    8.98    0.37 
   1   5   2    9.23    0.31 
   1   5   2    8.46    0.42 
  -2  -5  -2    2.01    0.16 
   2   5   2    1.80    0.22 
   2   5   2    2.14    0.15 
   3   5   2    6.78    0.41 
   3   5   2    6.36    0.33 
   4   5   2   10.63    0.58 
   4   5   2   12.23    0.53 
   5   5   2    0.41    0.15 
   5   5   2    0.11    0.15 
   6   5   2    5.21    0.41 
  -6   6   2    1.94    0.28 
  -5   6   2    0.28    0.13 
  -4   6   2    8.23    0.46 
  -3   6   2   42.30    1.43 
  -2   6   2    3.60    0.24 
  -2   6   2    3.18    0.25 
  -1   6   2    5.97    0.33 
  -1   6   2    5.13    0.31 
   0   6   2   93.52    2.85 
   0   6   2   96.05    2.77 
  -1  -6  -2  124.83    3.47 
   1   6   2  116.77    3.58 
  -2  -6  -2    1.39    0.16 
   2   6   2    1.41    0.22 
   3   6   2    1.94    0.27 
   4   6   2    3.21    0.35 
   5   6   2    4.24    0.43 
  -6   7   2    8.12    0.53 
  -5   7   2    7.49    0.49 
  -4   7   2    0.59    0.16 
  -3   7   2   16.17    0.72 
  -2   7   2   23.44    0.86 
  -2   7   2   21.78    0.88 
  -1   7   2    3.52    0.27 
  -1   7   2    4.04    0.28 
   0   7   2    1.82    0.20 
   0   7   2    1.76    0.23 
  -1  -7  -2    0.16    0.09 
   1   7   2    0.18    0.10 
   2   7   2   44.96    1.57 
   3   7   2    1.10    0.24 
   4   7   2    5.54    0.45 
   5   7   2    0.07    0.18 
  -5   8   2   19.22    0.89 
  -4   8   2    0.96    0.21 
  -3   8   2    4.27    0.35 
  -2   8   2    6.82    0.41 
  -2   8   2    7.08    0.44 
  -1   8   2   39.70    1.40 
  -1   8   2   40.69    1.39 
   0   8   2    0.13    0.10 
   0   8   2    0.13    0.10 
  -1  -8  -2    7.16    0.39 
   1   8   2    6.62    0.44 
   2   8   2    0.73    0.20 
   3   8   2    7.38    0.52 
   4   8   2    0.69    0.24 
  -5   9   2    8.45    0.57 
  -4   9   2   11.94    0.67 
  -3   9   2    1.76    0.30 
  -2   9   2    0.02    0.11 
  -2   9   2    0.14    0.11 
  -1   9   2    0.20    0.12 
  -1   9   2    0.54    0.16 
   0  -9  -2   12.39    0.60 
   0   9   2   12.34    0.64 
  -1  -9  -2    6.49    0.40 
   1   9   2    6.30    0.45 
   2   9   2    4.09    0.43 
   3   9   2    0.49    0.21 
  -4  10   2    3.24    0.39 
  -3  10   2   24.06    1.06 
  -2  10   2    0.59    0.20 
  -2  10   2    0.47    0.17 
  -1  10   2    1.43    0.25 
  -1  10   2    1.42    0.25 
   0 -10  -2    0.10    0.11 
   0  10   2    0.06    0.11 
   1  10   2    1.79    0.31 
   2  10   2    0.14    0.18 
   1 -11  -2    5.51    0.42 
  -1  11   2    4.61    0.44 
   0 -11  -2    1.50    0.25 
   0  11   2    1.83    0.29 
   1  11  -3    4.37    0.45 
  -1 -11   3    4.39    0.40 
   0 -11   3    1.66    0.27 
   1 -11   3    3.18    0.36 
   2 -11   3    3.96    0.41 
   3  10  -3   -0.01    0.14 
   2  10  -3   13.57    0.74 
  -2 -10   3   14.45    0.71 
   1  10  -3    7.41    0.52 
  -1 -10   3    7.38    0.48 
   0  10  -3    4.58    0.42 
   0 -10   3    4.25    0.39 
   1 -10   3    1.18    0.23 
   2 -10   3    5.96    0.44 
   3 -10   3   11.41    0.65 
   4 -10   3    0.08    0.16 
   4   9  -3    0.09    0.17 
   3   9  -3    2.20    0.33 
  -3  -9   3    2.48    0.30 
   2   9  -3    0.87    0.21 
  -2  -9   3    1.15    0.22 
   1   9  -3    4.07    0.38 
  -1  -9   3    4.46    0.34 
   0   9  -3   19.72    0.87 
   0  -9   3   19.88    0.84 
   1  -9   3    2.86    0.31 
   2  -9   3   31.12    1.19 
   3  -9   3    0.76    0.20 
  -4   9  -3   27.88    1.12 
  -5   9  -3    0.19    0.14 
   5   8  -3    0.04    0.17 
   4   8  -3   10.71    0.63 
   3   8  -3    5.96    0.43 
  -3  -8   3    6.48    0.41 
   2   8  -3    0.26    0.13 
  -2  -8   3    0.34    0.13 
   1   8  -3    7.73    0.46 
  -1  -8   3    7.57    0.43 
   0   8  -3   20.64    0.85 
   0  -8   3   20.13    0.81 
   1  -8   3   22.94    0.90 
   2  -8   3   25.15    0.98 
  -3   8  -3   24.30    0.96 
  -4   8  -3    0.12    0.11 
  -5   8  -3    7.30    0.47 
   5   7  -3    1.10    0.26 
   4   7  -3    0.35    0.15 
   3   7  -3    1.96    0.26 
  -3  -7   3    1.95    0.23 
   2   7  -3   24.84    0.97 
  -2  -7   3   26.07    0.94 
   1   7  -3   21.97    0.86 
  -1  -7   3   21.62    0.82 
   0   7  -3   29.10    1.05 
   0  -7   3   27.79    1.01 
   1  -7   3    5.54    0.35 
  -2   7  -3  152.64    4.40 
  -3   7  -3    4.03    0.30 
  -4   7  -3   39.50    1.37 
  -5   7  -3    0.37    0.15 
   6   6  -3    2.17    0.32 
   5   6  -3   12.16    0.63 
   5   6  -3   12.67    0.62 
   4   6  -3   -0.02    0.09 
   4   6  -3    0.03    0.10 
  -4  -6   3    0.06    0.10 
   3   6  -3    7.25    0.40 
   3   6  -3    5.57    0.33 
  -3  -6   3    7.42    0.39 
   2   6  -3    7.68    0.34 
   2   6  -3    7.46    0.41 
  -2  -6   3    7.53    0.39 
   1   6  -3   66.24    2.02 
  -1  -6   3   62.90    1.96 
   0   6  -3    9.77    0.47 
   0  -6   3   10.09    0.46 
   1  -6   3    5.54    0.32 
  -2   6  -3   14.13    0.59 
  -3   6  -3   44.45    1.45 
  -4   6  -3    0.18    0.09 
   4  -6   3    0.20    0.10 
  -5   6  -3   33.29    1.22 
   5  -6   3   36.26    1.22 
   6  -6   3   18.51    0.82 
   6   5  -3    3.37    0.36 
   5   5  -3    0.29    0.14 
   5   5  -3    0.51    0.16 
   4   5  -3   45.28    1.47 
   4   5  -3   45.71    1.50 
  -4  -5   3   43.53    1.44 
   3   5  -3   53.53    1.63 
   3   5  -3   52.03    1.68 
  -3  -5   3   52.90    1.64 
   2   5  -3   62.57    1.92 
  -2  -5   3   61.24    1.86 
   1   5  -3   20.66    0.75 
  -1  -5   3   20.39    0.73 
   0   5  -3  213.25    6.05 
   0  -5   3  212.83    5.93 
   1  -5   3    6.96    0.35 
  -2   5  -3   98.53    2.86 
  -3   5  -3   10.79    0.48 
  -4   5  -3   14.62    0.61 
  -5   5  -3    1.23    0.18 
   5  -5   3    1.47    0.21 
   6   4  -3   -0.14    0.12 
   5   4  -3   18.79    0.78 
   4   4  -3    1.83    0.21 
   4   4  -3    1.84    0.19 
  -4  -4   3    1.57    0.17 
   3   4  -3   22.41    0.78 
   3   4  -3   22.66    0.80 
  -3  -4   3   21.99    0.78 
   2   4  -3   32.54    1.01 
   2   4  -3   31.69    1.05 
  -2  -4   3   31.79    1.03 
   1   4  -3   60.33    1.82 
  -1  -4   3   60.86    1.78 
   0   4  -3  149.53    4.31 
   0  -4   3  152.82    4.23 
   1  -4   3    2.58    0.18 
  -2   4  -3  112.21    3.19 
  -3   4  -3   66.55    1.98 
  -4   4  -3    6.77    0.34 
   4  -4   3    6.43    0.36 
   5  -4   3    2.90    0.27 
   5  -4   3    2.87    0.26 
   6  -4   3    5.34    0.40 
   7  -4   3    9.48    0.59 
   7   3  -3    0.01    0.13 
   6   3  -3   10.53    0.57 
   5   3  -3    9.79    0.50 
   4   3  -3   18.94    0.72 
   4   3  -3   19.68    0.69 
  -4  -3   3   17.22    0.67 
   3   3  -3   51.34    1.60 
   3   3  -3   54.13    1.61 
  -3  -3   3   52.54    1.59 
   2   3  -3  145.23    4.02 
   2   3  -3  142.77    4.07 
  -2  -3   3  142.08    4.01 
   1   3  -3   44.19    1.35 
   1   3  -3   45.26    1.31 
  -1  -3   3   45.06    1.33 
   0  -3   3  126.05    3.52 
   1  -3   3   42.26    1.27 
  -2   3  -3    0.28    0.07 
  -3   3  -3    4.54    0.24 
  -4   3  -3    1.02    0.13 
   4  -3   3    0.84    0.14 
   5  -3   3   26.34    0.96 
   5  -3   3   27.19    1.00 
   6  -3   3   15.75    0.74 
   7  -3   3    3.04    0.37 
   7   2  -3    4.57    0.42 
   6   2  -3    0.09    0.12 
   5   2  -3   13.52    0.58 
  -5  -2   3   10.91    0.48 
   4   2  -3    2.73    0.23 
   4   2  -3    2.97    0.18 
  -4  -2   3    3.11    0.20 
   3   2  -3    5.83    0.25 
   3   2  -3    5.28    0.29 
  -3  -2   3    5.91    0.28 
   2   2  -3   87.53    2.49 
   2   2  -3   87.41    2.49 
  -2  -2   3   86.48    2.47 
   1   2  -3    3.84    0.17 
   1   2  -3    3.35    0.16 
  -1  -2   3    3.31    0.17 
   0  -2   3    0.24    0.06 
   1  -2   3    2.65    0.14 
  -3   2  -3    0.10    0.04 
   3  -2   3    0.07    0.06 
  -4   2  -3    0.26    0.07 
   4  -2   3    0.14    0.07 
   5  -2   3    4.08    0.31 
   5  -2   3    4.25    0.29 
   6  -2   3   16.48    0.76 
   7  -2   3    0.34    0.19 
   7   1  -3    7.23    0.50 
   6   1  -3    0.59    0.17 
  -5  -1   3   14.01    0.55 
   4   1  -3   17.27    0.56 
   4   1  -3   16.64    0.65 
  -4  -1   3   16.45    0.61 
   3   1  -3    2.03    0.11 
   3   1  -3    2.02    0.16 
  -3  -1   3    2.17    0.15 
   2   1  -3  117.96    3.31 
   2   1  -3  120.32    3.32 
  -2  -1   3  115.89    3.30 
   1   1  -3   95.05    2.66 
  -1  -1   3   94.14    2.65 
   0  -1   3   13.87    0.44 
   1  -1   3  500.43   13.96 
   1  -1   3  528.65   14.26 
  -2   1  -3   11.91    0.37 
   2  -1   3   11.25    0.43 
  -3   1  -3  165.03    4.54 
   3  -1   3  165.89    4.71 
   4  -1   3  103.58    3.05 
   5  -1   3    7.24    0.41 
   5  -1   3    6.34    0.36 
   6  -1   3   22.55    0.95 
   7  -1   3    8.58    0.56 
   7   0  -3    2.44    0.33 
   6   0  -3    4.03    0.36 
   5   0  -3    1.30    0.20 
  -5   0   3    1.42    0.17 
   4   0  -3   48.55    1.36 
   4   0  -3   47.40    1.49 
  -4   0   3   45.16    1.44 
   3   0  -3   39.46    1.11 
   3   0  -3   37.90    1.20 
  -3   0   3   38.56    1.19 
   2   0  -3   87.73    2.52 
  -2   0   3   89.67    2.51 
   1   0  -3    5.41    0.23 
  -1   0   3    5.27    0.22 
  -1   0   3    5.75    0.19 
   0   0   3  201.93    5.59 
   0   0   3  199.68    5.48 
   1   0   3    1.21    0.05 
   1   0   3    1.15    0.09 
   2   0   3   97.39    2.82 
  -3   0  -3   29.16    0.82 
   3   0   3   28.09    0.95 
   4   0   3   28.56    0.98 
   4   0   3   27.93    0.97 
   5   0   3   30.81    1.09 
   5   0   3   28.75    1.05 
   6   0   3    2.39    0.30 
   7   0   3    4.24    0.41 
   7  -1  -3   13.69    0.72 
   6  -1  -3    3.22    0.32 
  -6   1   3    3.87    0.28 
   5  -1  -3   13.54    0.61 
  -5   1   3   14.65    0.58 
   4  -1  -3    9.75    0.43 
  -4   1   3    9.29    0.41 
   3  -1  -3   87.62    2.56 
  -3   1   3   90.74    2.57 
   2  -1  -3   63.19    1.83 
  -2   1   3   64.50    1.85 
   1  -1  -3   -0.27    0.05 
  -1   1   3   -0.21    0.03 
  -1   1   3   -0.12    0.05 
   0   1   3    8.95    0.30 
   0   1   3    8.88    0.32 
   1   1   3   53.81    1.51 
   1   1   3   55.17    1.61 
   2   1   3  281.79    7.89 
   3   1   3   10.32    0.45 
   4   1   3   14.88    0.63 
   4   1   3   16.93    0.64 
   5   1   3   41.64    1.43 
   5   1   3   43.13    1.44 
   6   1   3   17.54    0.80 
   7   1   3    2.82    0.36 
   7  -2  -3    0.26    0.16 
   6  -2  -3    8.00    0.47 
  -6   2   3    8.20    0.44 
   5  -2  -3   44.06    1.44 
  -5   2   3   42.73    1.40 
   4  -2  -3   32.77    1.10 
  -4   2   3   34.13    1.10 
   3  -2  -3   17.08    0.59 
  -3   2   3   17.17    0.62 
   2  -2  -3  285.85    7.88 
  -2   2   3  290.05    7.96 
  -2   2   3  284.92    7.88 
  -1   2   3   70.85    2.02 
   0   2   3   48.07    1.43 
   0   2   3   48.24    1.38 
   1   2   3    1.23    0.07 
   1   2   3    1.02    0.12 
   2   2   3   77.19    2.30 
   3   2   3   41.57    1.35 
   4   2   3    6.74    0.37 
   4   2   3    7.68    0.41 
   5   2   3   13.72    0.64 
   5   2   3   14.08    0.64 
   6   2   3    1.83    0.27 
   7  -3  -3    3.79    0.38 
   6  -3  -3    0.42    0.15 
  -6   3   3    0.38    0.13 
   5  -3  -3   29.89    1.06 
  -5   3   3   30.98    1.08 
   4  -3  -3   28.65    0.94 
  -4   3   3   26.66    0.96 
   3  -3  -3    3.26    0.19 
  -3   3   3    3.10    0.21 
   2  -3  -3    1.13    0.10 
  -2   3   3    1.26    0.10 
  -2   3   3    1.43    0.15 
  -1   3   3   66.38    1.90 
  -1   3   3   63.41    1.89 
   0   3   3  214.15    6.01 
   0   3   3  223.65    6.16 
   1   3   3    7.02    0.33 
   1   3   3    7.39    0.28 
  -2  -3  -3  161.63    4.41 
   2   3   3  159.90    4.62 
   3   3   3   -0.07    0.07 
   3   3   3    0.15    0.07 
   4   3   3   20.01    0.81 
   4   3   3   19.76    0.76 
   5   3   3    3.91    0.31 
   5   3   3    3.74    0.34 
   6   3   3    5.06    0.39 
   7  -4  -3   11.58    0.63 
   6  -4  -3    1.96    0.26 
  -6   4   3    2.27    0.28 
   5  -4  -3    0.28    0.12 
  -5   4   3    0.35    0.13 
   4  -4  -3  113.16    3.27 
  -4   4   3  114.34    3.34 
   3  -4  -3   80.15    2.29 
  -3   4   3   78.91    2.38 
   2  -4  -3   26.18    0.80 
  -2   4   3   26.60    0.91 
  -1   4   3   42.96    1.31 
  -1   4   3   41.75    1.31 
   0   4   3   11.80    0.48 
   0   4   3   11.64    0.45 
   1   4   3   34.38    1.13 
   1   4   3   33.81    1.04 
  -2  -4  -3    0.10    0.05 
   2   4   3    0.08    0.08 
   2   4   3    0.12    0.05 
   3   4   3   16.13    0.60 
   3   4   3   15.36    0.68 
   4   4   3   29.62    1.13 
   4   4   3   29.98    1.05 
   5   4   3   11.54    0.62 
   5   4   3   11.77    0.58 
   6   4   3    0.15    0.13 
   7  -5  -3    3.94    0.38 
  -7   5   3    4.57    0.37 
   6  -5  -3    9.97    0.52 
  -6   5   3    9.13    0.53 
   5  -5  -3    2.23    0.22 
  -5   5   3    2.59    0.28 
   4  -5  -3    0.11    0.07 
  -4   5   3    0.17    0.09 
   3  -5  -3    1.88    0.16 
  -3   5   3    1.66    0.21 
  -2   5   3   65.35    1.95 
  -2   5   3   64.06    1.98 
  -1   5   3    2.85    0.22 
  -1   5   3    3.29    0.23 
   0   5   3   48.68    1.55 
   0   5   3   48.78    1.50 
   1   5   3    0.81    0.11 
   1   5   3    0.84    0.15 
   1   5   3    1.11    0.08 
  -2  -5  -3   40.42    1.26 
   2   5   3   44.43    1.28 
   2   5   3   39.86    1.40 
   3   5   3    3.00    0.30 
   3   5   3    2.19    0.20 
   4   5   3    7.80    0.42 
   4   5   3    7.89    0.48 
   5   5   3    4.42    0.34 
   5   5   3    4.16    0.41 
  -6   6   3    5.65    0.42 
  -5   6   3   15.07    0.72 
  -4   6   3    7.16    0.44 
  -3   6   3    0.74    0.15 
  -2   6   3    3.64    0.24 
  -2   6   3    2.80    0.26 
  -1   6   3    7.96    0.40 
  -1   6   3    7.45    0.40 
   0   6   3   19.62    0.76 
   0   6   3   19.03    0.72 
   1   6   3   15.31    0.58 
   1   6   3   14.90    0.66 
  -2  -6  -3   17.14    0.64 
   2   6   3   17.77    0.77 
   3   6   3    5.74    0.42 
   4   6   3    3.20    0.37 
   5   6   3   11.11    0.67 
  -6   7   3    3.81    0.40 
  -5   7   3    0.14    0.12 
  -4   7   3    4.86    0.38 
  -3   7   3   11.54    0.59 
  -3   7   3   11.83    0.53 
  -2   7   3   38.28    1.33 
  -2   7   3   38.55    1.30 
  -1   7   3    8.02    0.43 
  -1   7   3    8.09    0.43 
   0   7   3   18.41    0.72 
   0   7   3   18.05    0.76 
  -1  -7  -3    5.79    0.33 
   1   7   3    5.64    0.38 
   2   7   3   13.19    0.66 
   3   7   3    5.18    0.41 
   4   7   3    0.04    0.16 
  -5   8   3    2.75    0.36 
  -4   8   3    1.21    0.23 
  -3   8   3    2.01    0.28 
  -2   8   3    7.61    0.46 
  -2   8   3    8.01    0.45 
  -1   8   3   14.47    0.65 
  -1   8   3   14.12    0.66 
   0   8   3   66.80    2.17 
   0   8   3   66.06    2.08 
  -1  -8  -3   -0.01    0.07 
   1   8   3    0.14    0.11 
   2   8   3    5.74    0.44 
   3   8   3    4.01    0.42 
   4   8   3    7.99    0.59 
  -5   9   3    2.96    0.38 
  -4   9   3    8.43    0.56 
  -3   9   3   20.14    0.92 
  -2   9   3    0.57    0.19 
  -2   9   3    0.62    0.16 
  -1   9   3    2.08    0.27 
  -1   9   3    1.88    0.26 
   0   9   3    6.40    0.44 
   0   9   3    7.01    0.42 
  -1  -9  -3    9.90    0.52 
   1   9   3   10.16    0.60 
   2   9   3    0.44    0.21 
   3   9   3    3.26    0.42 
  -3  10   3    4.16    0.44 
  -2  10   3   30.12    1.21 
  -2  10   3   29.80    1.19 
  -1  10   3    0.43    0.17 
  -1  10   3    0.93    0.22 
   0 -10  -3    5.29    0.39 
   0  10   3    4.97    0.40 
   1  10   3    3.79    0.41 
  -1 -11   4    4.23    0.41 
   0 -11   4    9.54    0.58 
   1 -11   4    0.31    0.14 
   2 -11   4    8.11    0.55 
   3  10  -4    3.68    0.43 
   2  10  -4    0.78    0.23 
  -2 -10   4    0.73    0.20 
   1  10  -4    3.97    0.41 
  -1 -10   4    4.54    0.36 
   0 -10   4    0.37    0.15 
   1 -10   4   36.76    1.37 
   2 -10   4    1.09    0.23 
   3 -10   4   19.18    0.90 
   4 -10   4    2.63    0.37 
   4   9  -4    5.59    0.48 
   3   9  -4    0.12    0.14 
  -3  -9   4    0.29    0.15 
   2   9  -4    6.60    0.46 
  -2  -9   4    6.45    0.43 
   1   9  -4    0.22    0.14 
  -1  -9   4    0.25    0.13 
   0  -9   4   15.30    0.71 
   1  -9   4    0.94    0.19 
   2  -9   4    4.01    0.34 
   3  -9   4    1.65    0.26 
   4  -9   4    6.69    0.48 
   5  -9   4   16.92    0.84 
   4   8  -4    3.34    0.37 
   3   8  -4    4.37    0.36 
  -3  -8   4    4.96    0.36 
   2   8  -4   12.29    0.61 
  -2  -8   4   11.58    0.58 
   1   8  -4    0.09    0.10 
  -1  -8   4    0.23    0.10 
   0  -8   4    8.15    0.46 
   1  -8   4   68.98    2.18 
   2  -8   4   24.72    0.97 
   3  -8   4    0.04    0.10 
  -4   8  -4    0.18    0.12 
  -5   8  -4    6.01    0.42 
   4   7  -4   11.45    0.60 
  -4  -7   4   11.90    0.59 
   3   7  -4   -0.09    0.08 
  -3  -7   4    0.08    0.10 
   2   7  -4    5.72    0.37 
  -2  -7   4    5.23    0.34 
   1   7  -4   38.98    1.33 
  -1  -7   4   36.90    1.28 
   0  -7   4    6.95    0.39 
   1  -7   4    1.10    0.17 
   2  -7   4    0.17    0.09 
  -3   7  -4   51.40    1.68 
  -4   7  -4    3.21    0.31 
  -5   7  -4    9.91    0.53 
   6   6  -4    0.13    0.16 
   5   6  -4    1.97    0.27 
   4   6  -4   25.12    0.92 
   4   6  -4   24.31    0.95 
  -4  -6   4   23.46    0.91 
   3   6  -4    9.05    0.42 
   3   6  -4    8.96    0.46 
  -3  -6   4    7.91    0.43 
   2   6  -4   13.98    0.61 
  -2  -6   4   14.49    0.60 
   1   6  -4   25.38    0.92 
  -1  -6   4   25.12    0.90 
   0  -6   4  220.25    6.18 
   1  -6   4    2.11    0.21 
   2  -6   4    8.50    0.43 
  -3   6  -4    1.22    0.18 
  -4   6  -4   16.04    0.67 
  -5   6  -4    8.73    0.47 
   5  -6   4    8.96    0.48 
   6  -6   4    0.08    0.15 
   6   5  -4    2.22    0.31 
   5   5  -4    3.72    0.33 
   4   5  -4    3.46    0.28 
   4   5  -4    3.54    0.28 
  -4  -5   4    3.95    0.28 
   3   5  -4   19.82    0.74 
   3   5  -4   20.80    0.78 
  -3  -5   4   20.92    0.77 
   2   5  -4    0.01    0.05 
   2   5  -4   -0.10    0.05 
  -2  -5   4    0.08    0.06 
   1   5  -4   62.84    1.92 
  -1  -5   4   62.07    1.88 
   0  -5   4    0.27    0.08 
   1  -5   4  289.09    8.00 
   2  -5   4   59.80    1.82 
  -3   5  -4   11.92    0.51 
  -4   5  -4    2.01    0.21 
   5  -5   4   41.59    1.40 
   5  -5   4   40.70    1.42 
   6  -5   4    0.13    0.14 
   6   4  -4   11.09    0.61 
   5   4  -4    3.35    0.31 
   4   4  -4   52.21    1.68 
   4   4  -4   54.78    1.66 
  -4  -4   4   50.98    1.64 
   3   4  -4   13.33    0.54 
   3   4  -4   14.08    0.55 
  -3  -4   4   14.23    0.56 
   2   4  -4  192.59    5.50 
   2   4  -4  198.53    5.42 
  -2  -4   4  190.81    5.41 
   1   4  -4    0.48    0.09 
  -1  -4   4    0.33    0.08 
   0  -4   4   75.36    2.20 
   1  -4   4   72.16    2.11 
  -2   4  -4   31.90    1.03 
   2  -4   4   32.75    1.04 
  -3   4  -4   28.84    0.95 
  -4   4  -4    4.24    0.25 
   4  -4   4    4.14    0.29 
   5  -4   4   22.26    0.88 
   5  -4   4   23.31    0.89 
   6  -4   4    3.26    0.34 
   7   3  -4    2.18    0.32 
   6   3  -4    0.85    0.20 
   5   3  -4   42.37    1.42 
  -5  -3   4   40.91    1.35 
   4   3  -4   38.04    1.18 
   4   3  -4   35.35    1.22 
  -4  -3   4   37.29    1.20 
   3   3  -4    7.71    0.36 
   3   3  -4    6.95    0.31 
  -3  -3   4    6.82    0.33 
   2   3  -4    5.30    0.26 
   2   3  -4    5.23    0.25 
  -2  -3   4    5.30    0.27 
  -1  -3   4  343.74    9.41 
   0  -3   4  105.53    2.97 
   1  -3   4  100.93    2.85 
   2  -3   4    0.33    0.07 
   3  -3   4   79.31    2.39 
  -4   3  -4    2.43    0.17 
   4  -3   4    2.20    0.22 
   5  -3   4   10.66    0.52 
   5  -3   4   10.42    0.52 
   6  -3   4    3.44    0.35 
   7  -3   4    0.15    0.17 
   7   2  -4    1.29    0.26 
   6   2  -4   11.06    0.58 
   5   2  -4    0.28    0.12 
  -5  -2   4    0.35    0.11 
   4   2  -4  154.77    4.31 
   4   2  -4  150.75    4.36 
  -4  -2   4  151.65    4.31 
   3   2  -4    3.80    0.24 
   3   2  -4    4.29    0.20 
  -3  -2   4    4.23    0.24 
   2   2  -4   34.04    1.05 
   2   2  -4   33.50    1.02 
  -2  -2   4   33.29    1.04 
  -1  -2   4    3.46    0.18 
   0  -2   4   46.99    1.37 
   1  -2   4   35.00    1.04 
   2  -2   4    7.00    0.28 
   2  -2   4    6.93    0.33 
  -3   2  -4   95.31    2.68 
   3  -2   4   95.66    2.82 
  -4   2  -4    0.89    0.09 
   4  -2   4    0.90    0.15 
   5  -2   4   28.58    1.04 
   5  -2   4   28.38    1.05 
   6  -2   4    5.02    0.39 
   7  -2   4   10.20    0.63 
   7   1  -4    8.24    0.54 
   6   1  -4    9.60    0.53 
   5   1  -4   16.80    0.70 
  -5  -1   4   17.42    0.66 
   4   1  -4    1.21    0.17 
   4   1  -4    1.50    0.09 
  -4  -1   4    1.45    0.16 
   3   1  -4  110.52    3.11 
   3   1  -4  108.72    3.04 
  -3  -1   4  105.26    3.07 
   2   1  -4  151.24    4.21 
  -2  -1   4  149.67    4.19 
  -1  -1   4   80.73    2.28 
   0  -1   4  111.41    3.08 
   2  -1   4    0.46    0.05 
   2  -1   4    0.53    0.10 
   3  -1   4    3.71    0.24 
   3  -1   4    3.52    0.15 
   4  -1   4    5.10    0.31 
   5  -1   4   11.92    0.57 
   5  -1   4   12.22    0.56 
   6  -1   4    1.72    0.27 
   7  -1   4    0.02    0.15 
   7   0  -4    2.12    0.31 
   6   0  -4   20.35    0.84 
  -6   0   4   19.50    0.77 
   5   0  -4    6.95    0.40 
  -5   0   4    7.78    0.39 
   4   0  -4   48.27    1.55 
  -4   0   4   51.39    1.54 
   3   0  -4   28.37    0.93 
  -3   0   4   29.04    0.93 
   2   0  -4    1.64    0.14 
  -2   0   4    1.81    0.14 
  -2   0   4    1.87    0.08 
  -1   0   4   24.41    0.75 
  -1   0   4   24.15    0.72 
   0   0   4   56.23    1.62 
   0   0   4   55.37    1.58 
   1   0   4   11.79    0.44 
   1   0   4   12.45    0.37 
   2   0   4  128.07    3.68 
   3   0   4   87.55    2.60 
   4   0   4    7.78    0.40 
   5   0   4   40.40    1.37 
   5   0   4   39.53    1.37 
   6   0   4    3.58    0.36 
   7   0   4    0.67    0.19 
   7  -1  -4    2.16    0.32 
   6  -1  -4   10.05    0.54 
  -6   1   4   10.36    0.50 
   5  -1  -4   12.27    0.56 
  -5   1   4   12.63    0.54 
   4  -1  -4   50.43    1.57 
  -4   1   4   50.70    1.56 
   3  -1  -4   18.37    0.64 
  -3   1   4   17.85    0.64 
   2  -1  -4   54.63    1.62 
  -2   1   4   57.36    1.57 
  -2   1   4   53.80    1.63 
  -1   1   4    4.31    0.20 
  -1   1   4    4.04    0.17 
   0   1   4    0.82    0.09 
   0   1   4    0.81    0.07 
   1   1   4   25.62    0.74 
   1   1   4   26.10    0.84 
   2   1   4  122.28    3.53 
   3   1   4   89.90    2.68 
   4   1   4    2.05    0.22 
   5   1   4    1.49    0.22 
   5   1   4    1.39    0.22 
   6   1   4   12.72    0.65 
   7  -2  -4    5.13    0.41 
   6  -2  -4    1.23    0.22 
  -6   2   4    0.83    0.17 
   5  -2  -4    3.90    0.29 
  -5   2   4    3.91    0.28 
   4  -2  -4    3.99    0.26 
  -4   2   4    4.36    0.27 
   3  -2  -4    3.14    0.20 
  -3   2   4    2.83    0.20 
   2  -2  -4   69.62    1.98 
  -2   2   4   68.69    1.96 
  -2   2   4   68.29    2.01 
  -1   2   4  200.50    5.53 
   0   2   4  295.55    8.10 
   0   2   4  298.47    8.28 
   1   2   4  211.86    5.86 
   1   2   4  203.18    5.66 
   2   2   4   13.02    0.53 
   3   2   4  149.62    4.35 
   4   2   4    5.06    0.34 
   4   2   4    5.48    0.33 
   5   2   4   12.33    0.59 
   5   2   4   12.27    0.61 
   6   2   4    1.48    0.25 
   7  -3  -4    0.04    0.14 
   6  -3  -4    7.36    0.44 
  -6   3   4    7.28    0.43 
   5  -3  -4    1.70    0.21 
  -5   3   4    1.47    0.21 
   4  -3  -4   59.45    1.80 
  -4   3   4   58.96    1.84 
   3  -3  -4   38.96    1.20 
  -3   3   4   38.93    1.26 
   2  -3  -4    6.62    0.27 
  -2   3   4    6.70    0.27 
  -2   3   4    6.48    0.32 
  -1   3   4   10.40    0.41 
  -1   3   4   10.58    0.40 
   0   3   4   97.47    2.75 
   0   3   4   97.03    2.82 
   1   3   4  173.92    4.85 
   1   3   4  165.05    4.66 
  -2  -3  -4   11.89    0.38 
   2   3   4   11.45    0.52 
   3   3   4   26.42    0.98 
   4   3   4   24.83    0.91 
   4   3   4   24.83    0.97 
   5   3   4   26.57    0.99 
   5   3   4   23.42    0.99 
   6   3   4    1.21    0.26 
   6   3   4    1.18    0.23 
   7  -4  -4    3.30    0.36 
  -7   4   4    3.42    0.35 
   6  -4  -4    1.60    0.23 
  -6   4   4    1.57    0.25 
   5  -4  -4    0.08    0.09 
  -5   4   4    0.16    0.11 
   4  -4  -4   20.54    0.74 
  -4   4   4   21.23    0.82 
   3  -4  -4   39.62    1.21 
  -3   4   4   39.40    1.19 
  -3   4   4   38.52    1.29 
  -2   4   4  143.46    3.76 
  -2   4   4  118.61    3.71 
  -1   4   4   27.08    0.90 
  -1   4   4   27.02    0.90 
   0   4   4   21.37    0.77 
   0   4   4   22.17    0.73 
   1   4   4  230.63    6.51 
   1   4   4  226.49    6.29 
  -2  -4  -4   39.43    1.16 
   2   4   4   39.44    1.34 
   3   4   4    2.52    0.20 
   3   4   4    1.82    0.24 
   4   4   4    0.49    0.17 
   4   4   4    0.34    0.12 
   5   4   4    1.24    0.26 
   5   4   4    2.18    0.26 
   6   4   4    2.64    0.32 
   6   4   4    2.66    0.36 
  -7   5   4    1.64    0.27 
   6  -5  -4   15.80    0.71 
  -6   5   4   16.73    0.77 
   5  -5  -4    4.42    0.30 
  -5   5   4    4.34    0.34 
   4  -5  -4    1.31    0.16 
  -4   5   4    0.61    0.15 
   3  -5  -4    2.89    0.19 
  -3   5   4    2.70    0.27 
  -3   5   4    2.71    0.18 
  -2   5   4   57.28    1.73 
  -2   5   4   55.44    1.76 
  -1   5   4   64.57    1.93 
  -1   5   4   63.01    1.95 
   0   5   4   10.38    0.43 
   0   5   4    9.00    0.45 
   1   5   4   24.60    0.75 
   1   5   4   24.63    0.91 
   1   5   4   23.90    0.81 
   2   5   4   36.48    1.11 
   2   5   4   34.04    1.24 
   3   5   4   21.31    0.86 
   3   5   4   18.57    0.72 
   4   5   4   -0.04    0.08 
   4   5   4    0.29    0.16 
   5   5   4    6.82    0.50 
   5   5   4    6.48    0.42 
  -6   6   4    5.98    0.45 
  -5   6   4   12.06    0.63 
  -4   6   4   71.91    2.30 
  -3   6   4    1.50    0.23 
  -3   6   4    1.48    0.17 
  -2   6   4   19.12    0.75 
  -2   6   4   17.94    0.70 
  -1   6   4   96.35    2.94 
  -1   6   4  100.47    2.91 
   0   6   4   51.47    1.63 
   0   6   4   53.57    1.71 
   1   6   4    0.70    0.12 
   1   6   4    0.62    0.15 
   2   6   4    0.38    0.14 
   3   6   4    0.63    0.18 
   4   6   4    1.29    0.27 
   5   6   4    2.99    0.41 
  -6   7   4    0.11    0.14 
  -5   7   4    0.09    0.12 
  -4   7   4    5.24    0.39 
  -3   7   4   40.91    1.40 
  -3   7   4   44.34    1.50 
  -2   7   4    1.01    0.19 
  -2   7   4    0.96    0.17 
  -1   7   4   32.89    1.18 
  -1   7   4   35.12    1.21 
   0   7   4    1.88    0.24 
   0   7   4    1.49    0.20 
   1   7   4   28.67    0.98 
   1   7   4   27.53    1.08 
   2   7   4    0.76    0.20 
   3   7   4    7.71    0.53 
   4   7   4    2.23    0.35 
  -5   8   4    2.02    0.32 
  -4   8   4    4.79    0.39 
  -3   8   4    7.11    0.47 
  -2   8   4   23.67    0.92 
  -2   8   4   23.13    0.95 
  -1   8   4    0.40    0.14 
  -1   8   4    0.54    0.15 
   0   8   4    5.07    0.34 
   0   8   4    5.71    0.40 
  -1  -8  -4    3.86    0.29 
   1   8   4    3.94    0.37 
   2   8   4    1.21    0.25 
   3   8   4    9.15    0.62 
  -4   9   4    5.67    0.48 
  -3   9   4    4.45    0.43 
  -2   9   4    1.56    0.26 
  -2   9   4    1.40    0.23 
  -1   9   4    9.54    0.53 
  -1   9   4    8.57    0.52 
   0   9   4    4.28    0.34 
   0   9   4    4.07    0.39 
   1   9   4    7.40    0.51 
   2   9   4    5.52    0.47 
  -3  10   4    1.10    0.27 
  -2  10   4    0.16    0.13 
  -2  10   4    0.16    0.17 
  -1  10   4    4.88    0.39 
  -1  10   4    4.86    0.40 
   0 -10  -4    0.06    0.12 
   0  10   4    0.02    0.12 
   1  10   4    1.12    0.23 
  -1 -11   5    1.58    0.27 
   0 -11   5    6.66    0.48 
   1 -11   5    8.92    0.57 
   2 -11   5    0.18    0.17 
   3  10  -5    4.38    0.45 
  -3 -10   5    4.99    0.45 
   2  10  -5    8.67    0.58 
  -2 -10   5    8.10    0.53 
  -1 -10   5    1.04    0.22 
   0 -10   5    0.07    0.11 
   1 -10   5    2.34    0.32 
   2 -10   5    9.38    0.57 
   3 -10   5    0.81    0.22 
   4   9  -5    0.13    0.18 
   3   9  -5    4.13    0.41 
  -3  -9   5    3.87    0.38 
   2   9  -5    1.09    0.23 
  -2  -9   5    1.14    0.22 
  -1  -9   5   38.77    1.39 
   0  -9   5    5.26    0.38 
   1  -9   5   16.22    0.75 
   2  -9   5    0.74    0.18 
   3  -9   5    9.41    0.55 
   4  -9   5    3.53    0.38 
   4   8  -5    8.86    0.54 
   3   8  -5    0.09    0.12 
  -3  -8   5    0.07    0.11 
   2   8  -5    2.06    0.27 
  -2  -8   5    1.95    0.26 
   1   8  -5    0.93    0.19 
  -1  -8   5    0.82    0.17 
   0  -8   5   21.67    0.87 
   1  -8   5   14.15    0.65 
   2  -8   5   16.08    0.72 
   3  -8   5   22.82    0.93 
   4  -8   5    8.96    0.52 
   5  -8   5    1.71    0.29 
   4   7  -5    0.17    0.12 
  -4  -7   5    0.29    0.14 
   3   7  -5   19.99    0.82 
  -3  -7   5   19.18    0.82 
   2   7  -5    1.48    0.22 
  -2  -7   5    2.00    0.24 
   1   7  -5   38.96    1.33 
  -1  -7   5   37.05    1.29 
   0  -7   5   10.62    0.52 
   1  -7   5    8.36    0.44 
   2  -7   5    6.30    0.38 
   3  -7   5   10.00    0.51 
   4  -7   5   16.41    0.72 
   5  -7   5   14.19    0.68 
   6   6  -5    2.81    0.35 
   5   6  -5    0.32    0.16 
   4   6  -5    3.66    0.30 
   4   6  -5    4.07    0.31 
  -4  -6   5    3.93    0.30 
   3   6  -5    1.99    0.23 
   3   6  -5    1.88    0.20 
  -3  -6   5    2.25    0.24 
   2   6  -5   14.52    0.62 
  -2  -6   5   13.76    0.60 
   1   6  -5   29.97    1.06 
  -1  -6   5   29.99    1.04 
   0  -6   5   15.46    0.63 
   1  -6   5   39.98    1.31 
   2  -6   5    1.10    0.17 
   3  -6   5    6.88    0.38 
   4  -6   5   47.12    1.55 
   5  -6   5   26.30    0.99 
   5  -6   5   25.59    1.03 
   6  -6   5    4.81    0.39 
   6   5  -5    0.42    0.18 
   5   5  -5   17.10    0.75 
   4   5  -5    6.77    0.40 
   4   5  -5    7.19    0.39 
  -4  -5   5    6.53    0.38 
   3   5  -5   52.00    1.64 
   3   5  -5   50.83    1.60 
  -3  -5   5   51.91    1.64 
   2   5  -5    4.12    0.26 
  -2  -5   5    4.25    0.28 
  -1  -5   5   28.90    0.98 
   0  -5   5    1.07    0.14 
   1  -5   5    0.04    0.05 
   2  -5   5   35.21    1.16 
   3  -5   5   10.58    0.47 
   4  -5   5    6.53    0.40 
   4  -5   5    6.64    0.36 
   5  -5   5    0.01    0.11 
   6  -5   5   30.66    1.18 
   6   4  -5    3.94    0.38 
   5   4  -5   12.38    0.59 
  -5  -4   5   11.39    0.55 
   4   4  -5    1.08    0.19 
   4   4  -5    0.97    0.14 
  -4  -4   5    1.03    0.17 
   3   4  -5   19.04    0.73 
   3   4  -5   20.91    0.72 
  -3  -4   5   20.33    0.75 
   2   4  -5   64.95    1.94 
   2   4  -5   64.49    1.97 
  -2  -4   5   67.06    1.98 
  -1  -4   5  297.39    8.20 
   0  -4   5    7.37    0.34 
   1  -4   5   67.58    2.00 
   2  -4   5   51.56    1.56 
   3  -4   5   39.00    1.23 
   4  -4   5    0.15    0.09 
   4  -4   5    0.32    0.09 
   5  -4   5    0.19    0.13 
   6  -4   5    2.41    0.31 
   7   3  -5    3.78    0.40 
   6   3  -5    7.84    0.49 
   5   3  -5   19.06    0.80 
  -5  -3   5   19.35    0.75 
   4   3  -5   29.60    0.96 
   4   3  -5   28.69    1.03 
  -4  -3   5   29.72    1.01 
   3   3  -5    2.41    0.20 
   3   3  -5    2.12    0.16 
  -3  -3   5    2.28    0.19 
   2   3  -5   18.46    0.64 
  -2  -3   5   18.36    0.66 
  -1  -3   5    9.03    0.37 
   0  -3   5   77.58    2.23 
   1  -3   5  298.92    8.19 
   2  -3   5  104.57    2.96 
   3  -3   5    1.41    0.13 
   3  -3   5    1.23    0.17 
   4  -3   5   58.99    1.74 
   4  -3   5   58.07    1.87 
   5  -3   5   16.53    0.72 
   6  -3   5   13.95    0.69 
   7   2  -5    2.91    0.36 
   6   2  -5    0.27    0.15 
   5   2  -5   25.93    0.99 
  -5  -2   5   26.55    0.95 
   4   2  -5    2.46    0.24 
   4   2  -5    2.21    0.14 
  -4  -2   5    2.15    0.20 
   3   2  -5  163.33    4.68 
   3   2  -5  171.24    4.72 
  -3  -2   5  165.60    4.68 
   2   2  -5   57.56    1.70 
  -2  -2   5   56.22    1.69 
  -1  -2   5   91.75    2.61 
   0  -2   5   76.08    2.17 
   1  -2   5  289.27    7.90 
   2  -2   5   71.44    2.01 
   2  -2   5   69.63    2.12 
   3  -2   5    0.91    0.09 
   3  -2   5    1.10    0.15 
   4  -2   5    2.05    0.22 
   5  -2   5    1.60    0.23 
   6  -2   5    6.49    0.46 
   7   1  -5    2.03    0.31 
   6   1  -5   11.30    0.59 
  -6  -1   5   11.09    0.53 
   5   1  -5    4.41    0.32 
  -5  -1   5    4.25    0.29 
   4   1  -5    3.92    0.27 
  -4  -1   5    3.67    0.24 
   3   1  -5    0.19    0.08 
  -3  -1   5    0.26    0.08 
   2   1  -5  133.36    3.76 
  -2  -1   5  133.11    3.74 
  -1  -1   5  393.34   10.72 
   0  -1   5   89.07    2.50 
   1  -1   5   31.56    1.02 
   1  -1   5   33.30    0.95 
   2  -1   5  393.96   10.88 
   2  -1   5  407.97   11.19 
   3  -1   5   48.59    1.54 
   3  -1   5   48.57    1.37 
   4  -1   5    6.08    0.36 
   5  -1   5    8.58    0.47 
   6  -1   5    3.19    0.35 
   7   0  -5    2.86    0.35 
   6   0  -5    0.76    0.19 
  -6   0   5    0.68    0.14 
   5   0  -5   88.53    2.67 
  -5   0   5   87.55    2.62 
   4   0  -5    9.44    0.45 
  -4   0   5    9.54    0.43 
   3   0  -5   35.47    1.14 
  -3   0   5   36.09    1.14 
   2   0  -5    2.46    0.17 
  -2   0   5    2.56    0.11 
  -2   0   5    2.42    0.17 
  -1   0   5  310.88    8.50 
   0   0   5    1.35    0.09 
   0   0   5    1.19    0.10 
   1   0   5    2.98    0.19 
   1   0   5    3.20    0.13 
   2   0   5    8.59    0.39 
   3   0   5    2.12    0.20 
   4   0   5   15.21    0.64 
   5   0   5   -0.01    0.08 
   5   0   5    0.12    0.11 
   6   0   5   17.26    0.79 
   7  -1  -5    2.29    0.33 
   6  -1  -5    0.17    0.14 
  -6   1   5    0.12    0.10 
   5  -1  -5    0.92    0.17 
  -5   1   5    1.12    0.17 
   4  -1  -5   32.14    1.09 
  -4   1   5   33.68    1.11 
   3  -1  -5  124.88    3.59 
  -3   1   5  127.39    3.59 
   2  -1  -5    0.38    0.08 
  -2   1   5    0.39    0.04 
  -2   1   5    0.42    0.08 
  -1   1   5  221.80    6.11 
   0   1   5  171.79    4.81 
   0   1   5  169.21    4.69 
   1   1   5  179.27    4.99 
   1   1   5  172.13    4.80 
   2   1   5   44.35    1.41 
   3   1   5    2.01    0.21 
   4   1   5   11.94    0.56 
   5   1   5    6.47    0.42 
   5   1   5    7.83    0.44 
   6   1   5    0.20    0.14 
   6   1   5   -0.05    0.13 
   7  -2  -5   10.10    0.60 
   6  -2  -5   27.62    1.05 
  -6   2   5   26.65    1.01 
   5  -2  -5    8.69    0.45 
  -5   2   5    9.09    0.46 
   4  -2  -5   11.63    0.50 
  -4   2   5   11.59    0.51 
   3  -2  -5   10.77    0.44 
  -3   2   5   10.45    0.45 
   2  -2  -5   37.60    1.17 
  -2   2   5   39.67    1.22 
  -2   2   5   39.58    1.14 
  -1   2   5    0.40    0.07 
  -1   2   5    0.27    0.07 
   0   2   5   63.02    1.81 
   0   2   5   63.35    1.88 
   1   2   5    2.48    0.12 
   1   2   5    2.43    0.19 
   2   2   5   56.51    1.77 
   3   2   5    5.40    0.34 
   4   2   5   49.66    1.66 
   5   2   5    0.55    0.16 
   5   2   5    0.73    0.20 
   6   2   5    6.84    0.46 
   6   2   5    6.36    0.48 
   7  -3  -5    0.76    0.22 
  -7   3   5    0.63    0.18 
   6  -3  -5    1.83    0.25 
  -6   3   5    1.72    0.24 
   5  -3  -5   71.58    2.20 
  -5   3   5   71.62    2.23 
   4  -3  -5   19.11    0.74 
  -4   3   5   21.92    0.80 
   3  -3  -5   56.44    1.68 
  -3   3   5   54.97    1.73 
  -3   3   5   56.08    1.61 
  -2   3   5    1.38    0.11 
  -2   3   5    1.52    0.17 
  -1   3   5  172.68    4.86 
  -1   3   5  171.15    4.80 
   0   3   5    3.46    0.22 
   0   3   5    2.95    0.18 
   1   3   5  124.81    3.57 
   1   3   5  119.83    3.40 
   2   3   5    1.87    0.21 
   3   3   5    0.24    0.11 
   4   3   5    0.67    0.15 
   4   3   5    0.78    0.19 
   5   3   5   16.98    0.78 
   5   3   5   15.53    0.71 
   6   3   5    6.77    0.51 
   6   3   5    7.20    0.48 
   7  -4  -5   -0.17    0.14 
  -7   4   5    0.16    0.15 
   6  -4  -5    5.05    0.36 
  -6   4   5    4.60    0.36 
   5  -4  -5    7.64    0.41 
  -5   4   5    8.02    0.46 
   4  -4  -5   27.34    0.93 
  -4   4   5   26.64    0.99 
   3  -4  -5   27.50    0.87 
  -3   4   5   26.13    0.84 
  -3   4   5   25.54    0.94 
  -2   4   5   17.14    0.62 
  -2   4   5   18.44    0.69 
  -1   4   5   47.71    1.45 
  -1   4   5   45.76    1.45 
   0   4   5   16.73    0.58 
   0   4   5   14.75    0.60 
   1   4   5   18.89    0.73 
   1   4   5   17.79    0.62 
   2   4   5   81.05    2.50 
   3   4   5   41.29    1.43 
   3   4   5   40.21    1.30 
   4   4   5    7.18    0.41 
   4   4   5    7.56    0.49 
   5   4   5    1.54    0.28 
   5   4   5    1.59    0.24 
  -7   5   5    5.17    0.42 
   6  -5  -5    4.16    0.35 
  -6   5   5    3.72    0.38 
   5  -5  -5   24.38    0.89 
  -5   5   5   23.60    0.97 
   4  -5  -5    6.64    0.33 
  -4   5   5    5.99    0.39 
   3  -5  -5   59.89    1.76 
  -3   5   5   58.82    1.80 
  -3   5   5   60.62    1.90 
  -2   5   5    1.58    0.17 
  -2   5   5    1.42    0.20 
  -1   5   5   72.61    2.19 
  -1   5   5   71.64    2.17 
   0   5   5   24.23    0.83 
   0   5   5   23.54    0.87 
   1   5   5   -0.05    0.08 
   1   5   5    0.04    0.05 
   2   5   5    0.08    0.11 
   2   5   5    0.20    0.07 
   3   5   5    3.60    0.35 
   3   5   5    3.38    0.25 
   4   5   5   31.36    1.12 
   4   5   5   31.68    1.26 
   5   5   5    0.26    0.18 
  -6   6   5    3.66    0.38 
  -5   6   5    0.23    0.14 
  -4   6   5    4.42    0.35 
  -3   6   5   43.86    1.51 
  -3   6   5   44.55    1.41 
  -2   6   5   23.54    0.90 
  -2   6   5   23.06    0.85 
  -1   6   5   14.02    0.60 
  -1   6   5   13.72    0.59 
   0   6   5   25.31    0.94 
   0   6   5   24.42    0.88 
   1   6   5   39.42    1.39 
   1   6   5   39.61    1.25 
   2   6   5    8.89    0.51 
   3   6   5    3.13    0.36 
   4   6   5    2.81    0.37 
   5   6   5    5.52    0.52 
  -6   7   5   20.71    0.96 
  -5   7   5    4.36    0.42 
  -4   7   5    0.12    0.12 
  -3   7   5   20.63    0.88 
  -2   7   5   22.63    0.89 
  -2   7   5   21.08    0.83 
  -1   7   5    0.42    0.12 
  -1   7   5    0.32    0.12 
   0   7   5    0.32    0.12 
   0   7   5    0.19    0.10 
   1   7   5    1.96    0.27 
   1   7   5    1.52    0.19 
   2   7   5   27.62    1.13 
   3   7   5    1.57    0.30 
   4   7   5    5.69    0.53 
  -5   8   5   16.81    0.85 
  -4   8   5    3.36    0.40 
  -3   8   5    7.51    0.50 
  -2   8   5   11.85    0.60 
  -2   8   5   10.46    0.55 
  -1   8   5   37.91    1.39 
  -1   8   5   40.16    1.38 
   0   8   5    1.48    0.24 
   0   8   5    1.38    0.21 
   1   8   5    1.68    0.28 
   2   8   5    0.53    0.18 
   3   8   5    7.05    0.54 
  -4   9   5    9.21    0.62 
  -3   9   5    8.31    0.56 
  -2   9   5    0.16    0.13 
  -2   9   5    0.03    0.12 
  -1   9   5    0.09    0.11 
  -1   9   5    0.17    0.13 
   0   9   5    9.47    0.57 
   0   9   5    9.42    0.52 
   1   9   5    8.84    0.57 
   2   9   5    4.25    0.45 
  -3  10   5   15.09    0.81 
  -2  10   5    4.52    0.44 
  -2  10   5    4.06    0.39 
  -1  10   5    0.42    0.18 
  -1  10   5    0.34    0.17 
   0  10   5    0.78    0.22 
  -1 -11   6    0.51    0.18 
   0 -11   6    0.50    0.17 
   1 -11   6    6.87    0.49 
   2 -11   6    6.74    0.52 
   3  10  -6   -0.06    0.16 
  -3 -10   6    0.24    0.17 
  -2 -10   6   10.50    0.62 
  -1 -10   6    1.80    0.29 
   0 -10   6   13.08    0.69 
   1 -10   6    1.13    0.25 
   2 -10   6   16.25    0.80 
   3 -10   6    1.32    0.27 
   4   9  -6    1.78    0.32 
   3   9  -6    1.29    0.27 
  -3  -9   6    1.48    0.26 
  -2  -9   6    0.10    0.13 
  -1  -9   6   10.29    0.57 
   0  -9   6   19.66    0.86 
   1  -9   6    0.50    0.17 
   2  -9   6    8.94    0.53 
   3  -9   6   17.49    0.81 
   4  -9   6   19.97    0.89 
   4   8  -6    5.26    0.42 
  -4  -8   6    5.37    0.42 
   3   8  -6    7.03    0.46 
  -3  -8   6    6.41    0.44 
   2   8  -6    0.71    0.17 
  -2  -8   6    0.73    0.18 
  -1  -8   6    1.33    0.22 
   0  -8   6   41.22    1.43 
   1  -8   6   24.77    0.98 
   2  -8   6    4.10    0.32 
   3  -8   6    0.30    0.14 
   4   7  -6    1.19    0.22 
   4   7  -6    1.13    0.21 
  -4  -7   6    1.51    0.24 
   3   7  -6    2.65    0.28 
  -3  -7   6    2.95    0.30 
   2   7  -6   27.27    1.03 
  -2  -7   6   27.79    1.04 
  -1  -7   6   18.01    0.75 
   0  -7   6   19.02    0.77 
   1  -7   6    6.40    0.39 
   2  -7   6   59.23    1.89 
   3  -7   6    0.59    0.15 
   4  -7   6    9.77    0.52 
   5  -7   6    0.15    0.16 
   6   6  -6    1.73    0.30 
   5   6  -6   13.70    0.67 
   4   6  -6    1.26    0.21 
   4   6  -6    1.71    0.22 
  -4  -6   6    1.55    0.23 
   3   6  -6    1.80    0.22 
  -3  -6   6    1.64    0.22 
   2   6  -6    8.58    0.44 
  -2  -6   6    9.18    0.46 
  -1  -6   6   44.59    1.46 
   0  -6   6    9.57    0.46 
   1  -6   6    0.46    0.12 
   2  -6   6   12.23    0.54 
   3  -6   6   16.19    0.67 
   4  -6   6   41.05    1.38 
   5  -6   6    4.61    0.40 
   6  -6   6    4.41    0.40 
   6   5  -6    1.29    0.26 
   5   5  -6    0.02    0.12 
  -5  -5   6    0.05    0.10 
   4   5  -6   19.53    0.78 
   4   5  -6   19.99    0.77 
  -4  -5   6   19.47    0.79 
   3   5  -6    4.30    0.28 
   3   5  -6    4.70    0.30 
  -3  -5   6    4.47    0.30 
  -2  -5   6   75.62    2.29 
  -1  -5   6   14.01    0.57 
   0  -5   6  170.84    4.82 
   1  -5   6    3.45    0.24 
   2  -5   6   14.78    0.59 
   3  -5   6    0.65    0.13 
   4  -5   6    1.00    0.19 
   4  -5   6    0.83    0.14 
   5  -5   6    3.09    0.32 
   6  -5   6    0.37    0.18 
   6   4  -6    0.77    0.21 
   5   4  -6    8.54    0.49 
  -5  -4   6    8.75    0.47 
   4   4  -6    0.53    0.11 
   4   4  -6    0.66    0.16 
  -4  -4   6    0.59    0.14 
   3   4  -6   60.04    1.87 
   3   4  -6   61.69    1.89 
  -3  -4   6   62.70    1.90 
  -2  -4   6   34.49    1.14 
  -1  -4   6   19.95    0.72 
   0  -4   6   68.05    2.02 
   1  -4   6   41.59    1.29 
   2  -4   6   93.64    2.71 
   3  -4   6   19.89    0.71 
   4  -4   6   72.98    2.15 
   4  -4   6   72.39    2.30 
   5  -4   6    3.02    0.31 
   6  -4   6    0.18    0.15 
   7   3  -6    1.77    0.29 
   6   3  -6    9.28    0.55 
   5   3  -6   26.78    1.02 
  -5  -3   6   26.53    0.98 
   4   3  -6   13.70    0.50 
   4   3  -6   12.26    0.57 
  -4  -3   6   12.73    0.56 
   3   3  -6   44.06    1.46 
  -3  -3   6   48.94    1.48 
  -2  -3   6  260.49    7.22 
  -1  -3   6   66.14    1.96 
   0  -3   6  107.08    3.04 
   1  -3   6  105.33    2.98 
   2  -3   6    0.10    0.06 
   3  -3   6    0.62    0.14 
   4  -3   6    0.61    0.15 
   5  -3   6   42.23    1.48 
   6  -3   6    1.89    0.29 
   7   2  -6    0.30    0.16 
   6   2  -6    1.75    0.27 
  -6  -2   6    1.89    0.24 
   5   2  -6   20.52    0.83 
  -5  -2   6   20.13    0.79 
   4   2  -6   22.10    0.83 
  -4  -2   6   22.07    0.82 
   3   2  -6    0.23    0.10 
  -3  -2   6    0.21    0.08 
   2   2  -6  225.42    6.26 
  -2  -2   6  224.07    6.24 
  -1  -2   6    0.13    0.06 
   0  -2   6   94.60    2.69 
   1  -2   6   19.10    0.63 
   2  -2   6  399.59   11.04 
   2  -2   6  411.85   11.35 
   3  -2   6    6.83    0.28 
   3  -2   6    7.15    0.38 
   4  -2   6    4.48    0.32 
   5  -2   6    4.59    0.35 
   6  -2   6   10.02    0.58 
   7   1  -6   11.00    0.65 
   6   1  -6    4.76    0.39 
  -6  -1   6    4.96    0.34 
   5   1  -6   31.17    1.13 
  -5  -1   6   31.45    1.10 
   4   1  -6   18.13    0.73 
  -4  -1   6   19.95    0.73 
   3   1  -6   70.80    2.12 
  -3  -1   6   70.49    2.10 
   2   1  -6   32.80    1.04 
  -2  -1   6   32.32    1.04 
  -1  -1   6   14.71    0.52 
   0  -1   6   16.85    0.56 
   0  -1   6   16.97    0.59 
   1  -1   6    6.57    0.26 
   1  -1   6    6.51    0.31 
   2  -1   6   37.27    1.22 
   2  -1   6   37.71    1.09 
   3  -1   6   36.13    1.22 
   4  -1   6   69.45    2.19 
   5  -1   6    7.51    0.45 
   6  -1   6    0.68    0.19 
   7   0  -6    0.13    0.16 
   6   0  -6    9.29    0.54 
  -6   0   6   10.57    0.52 
   5   0  -6    5.32    0.36 
  -5   0   6    5.54    0.34 
   4   0  -6   54.73    1.73 
  -4   0   6   55.70    1.72 
   3   0  -6   51.53    1.58 
  -3   0   6   50.77    1.58 
   2   0  -6  143.17    4.02 
  -2   0   6  136.29    4.00 
  -2   0   6  147.47    3.99 
  -1   0   6    1.36    0.13 
   0   0   6  140.13    3.91 
   0   0   6  142.02    4.01 
   1   0   6   73.18    2.05 
   1   0   6   72.92    2.17 
   2   0   6   12.86    0.39 
   2   0   6   13.29    0.54 
   3   0   6   11.24    0.51 
   4   0   6   19.47    0.79 
   5   0   6   16.87    0.75 
   6   0   6    0.76    0.22 
   6   0   6    0.72    0.19 
   7  -1  -6   11.14    0.64 
   6  -1  -6    1.37    0.24 
  -6   1   6    1.28    0.21 
   5  -1  -6   38.27    1.29 
  -5   1   6   36.04    1.26 
   4  -1  -6    2.50    0.23 
  -4   1   6    2.84    0.22 
   3  -1  -6   66.26    1.97 
  -3   1   6   65.07    1.97 
  -2   1   6   57.71    1.72 
  -2   1   6   57.09    1.65 
  -1   1   6    6.20    0.28 
   0   1   6   75.42    2.23 
   0   1   6   76.72    2.16 
   1   1   6   56.01    1.60 
   1   1   6   57.54    1.74 
   2   1   6  209.23    5.97 
   3   1   6    2.75    0.23 
   4   1   6    8.81    0.47 
   5   1   6   19.63    0.83 
   5   1   6   17.48    0.77 
   6   1   6    6.33    0.45 
   6   1   6    6.22    0.47 
   7  -2  -6    0.46    0.20 
  -7   2   6    0.49    0.16 
   6  -2  -6   13.86    0.67 
  -6   2   6   14.59    0.67 
   5  -2  -6   31.23    1.10 
  -5   2   6   31.00    1.11 
   4  -2  -6   12.45    0.53 
  -4   2   6   12.37    0.55 
   3  -2  -6   14.12    0.53 
  -3   2   6   12.63    0.54 
  -2   2   6  287.82    8.05 
  -2   2   6  291.67    8.00 
  -1   2   6  258.51    7.01 
  -1   2   6  249.89    7.10 
   0   2   6    0.10    0.05 
   0   2   6    0.15    0.06 
   1   2   6   14.62    0.47 
   1   2   6   14.48    0.58 
   2   2   6    9.55    0.46 
   3   2   6   14.57    0.65 
   4   2   6    0.40    0.15 
   5   2   6   12.98    0.65 
   5   2   6   11.54    0.59 
   6   2   6    1.51    0.30 
   6   2   6    1.08    0.23 
   7  -3  -6    2.82    0.35 
  -7   3   6    2.55    0.31 
   6  -3  -6    0.18    0.14 
  -6   3   6    0.08    0.11 
   5  -3  -6    9.02    0.46 
  -5   3   6    9.47    0.50 
   4  -3  -6   78.01    2.29 
  -4   3   6   74.54    2.33 
   3  -3  -6   14.29    0.55 
  -3   3   6   15.21    0.48 
  -3   3   6   14.44    0.61 
  -2   3   6   10.53    0.49 
  -2   3   6   13.19    0.45 
  -1   3   6    5.05    0.27 
  -1   3   6    5.37    0.27 
   0   3   6  513.18   14.12 
   0   3   6  501.19   13.81 
   1   3   6    0.91    0.15 
   1   3   6    1.20    0.11 
   2   3   6   55.06    1.78 
   3   3   6    2.79    0.28 
   4   3   6   32.07    1.21 
   4   3   6   31.26    1.11 
   5   3   6    1.23    0.22 
   5   3   6    1.41    0.26 
   6   3   6    1.51    0.26 
   6   3   6    1.48    0.30 
   7  -4  -6   14.75    0.74 
  -7   4   6   14.43    0.73 
   6  -4  -6    0.14    0.14 
  -6   4   6    0.22    0.13 
   5  -4  -6   12.22    0.55 
  -5   4   6   11.79    0.60 
   4  -4  -6    5.56    0.32 
  -4   4   6    6.05    0.38 
   3  -4  -6   82.85    2.41 
  -3   4   6   84.20    2.40 
  -3   4   6   81.17    2.49 
  -2   4   6    1.48    0.15 
  -2   4   6    1.26    0.18 
  -1   4   6    3.82    0.24 
  -1   4   6    3.84    0.24 
   0   4   6    0.08    0.07 
   0   4   6    0.16    0.06 
   1   4   6   75.17    2.17 
   1   4   6   75.40    2.32 
   2   4   6    4.03    0.31 
   3   4   6   12.29    0.62 
   4   4   6   11.17    0.54 
   4   4   6   12.08    0.64 
   5   4   6    8.04    0.57 
   5   4   6    9.40    0.52 
  -6   5   6   12.23    0.65 
  -5   5   6   12.74    0.64 
   4  -5  -6   21.02    0.76 
  -4   5   6   21.13    0.87 
  -3   5   6    0.12    0.10 
  -2   5   6   76.98    2.27 
  -2   5   6   73.60    2.30 
  -1   5   6   28.83    1.06 
  -1   5   6   33.24    1.07 
   0   5   6   36.36    1.26 
   0   5   6   38.34    1.21 
   1   5   6    9.13    0.39 
   1   5   6    8.98    0.48 
   2   5   6   22.51    0.92 
   3   5   6    1.21    0.24 
   4   5   6    6.17    0.48 
   5   5   6    2.98    0.39 
  -6   6   6    3.37    0.38 
  -5   6   6   22.94    0.99 
  -4   6   6    7.24    0.46 
  -3   6   6   15.92    0.72 
  -2   6   6    0.04    0.08 
  -2   6   6    0.35    0.11 
  -1   6   6    1.11    0.18 
  -1   6   6    1.16    0.18 
   0   6   6   21.83    0.81 
   0   6   6   21.98    0.87 
   1   6   6    9.83    0.44 
   1   6   6   10.70    0.55 
   2   6   6    4.24    0.35 
   3   6   6    0.62    0.20 
   4   6   6    4.70    0.46 
  -6   7   6    1.48    0.27 
  -5   7   6    1.09    0.25 
  -4   7   6   29.80    1.20 
  -3   7   6   10.01    0.56 
  -2   7   6   30.61    1.09 
  -2   7   6   29.66    1.12 
  -1   7   6   18.63    0.77 
  -1   7   6   18.22    0.76 
   0   7   6    2.45    0.25 
   0   7   6    2.41    0.28 
   1   7   6    0.34    0.15 
   2   7   6    3.07    0.37 
   3   7   6    6.62    0.53 
   4   7   6    0.70    0.25 
  -5   8   6    0.23    0.16 
  -4   8   6    1.77    0.30 
  -3   8   6    2.31    0.32 
  -2   8   6    6.19    0.40 
  -2   8   6    5.69    0.41 
  -1   8   6    2.64    0.30 
  -1   8   6    2.08    0.27 
   0   8   6   33.61    1.29 
   0   8   6   35.26    1.23 
   1   8   6    0.00    0.11 
   2   8   6    5.50    0.46 
   3   8   6   -0.01    0.17 
  -4   9   6    3.70    0.44 
  -3   9   6    1.58    0.29 
  -2   9   6    0.32    0.14 
  -2   9   6    0.21    0.15 
  -1   9   6    2.07    0.29 
  -1   9   6    2.30    0.30 
   0   9   6    3.75    0.39 
   1   9   6    7.81    0.54 
   2   9   6    6.96    0.52 
  -2  10   6    2.92    0.38 
  -2  10   6    3.12    0.35 
  -1  10   6    2.45    0.33 
  -1  10   6    2.67    0.34 
   0  10   6    2.97    0.36 
  -1 -11   7    0.86    0.22 
   0 -11   7    7.72    0.53 
   1 -11   7   -0.03    0.15 
  -3 -10   7    3.76    0.41 
  -2 -10   7    1.67    0.29 
  -1 -10   7    8.45    0.55 
   0 -10   7    0.51    0.18 
   1 -10   7   10.28    0.60 
   2 -10   7   -0.03    0.13 
   3 -10   7   18.47    0.90 
  -4  -9   7    4.96    0.45 
  -3  -9   7    0.18    0.15 
  -2  -9   7   21.40    0.94 
  -1  -9   7    0.69    0.19 
   0  -9   7   21.63    0.92 
   1  -9   7    3.87    0.36 
   2  -9   7    0.49    0.17 
   3  -9   7    1.35    0.25 
   4  -9   7    4.05    0.40 
  -4  -8   7    6.01    0.45 
  -3  -8   7    6.38    0.44 
  -2  -8   7   16.48    0.76 
  -1  -8   7   35.44    1.29 
   0  -8   7    1.75    0.25 
   1  -8   7   39.96    1.40 
   2  -8   7   20.68    0.87 
   3  -8   7    9.85    0.54 
   4  -8   7    2.23    0.29 
   5  -8   7    0.05    0.16 
   5   7  -7    4.10    0.37 
   4   7  -7   13.04    0.64 
  -4  -7   7   12.70    0.65 
  -3  -7   7    0.74    0.18 
  -2  -7   7   14.26    0.66 
  -1  -7   7    8.39    0.46 
   0  -7   7    0.44    0.12 
   1  -7   7    0.90    0.16 
   2  -7   7    2.01    0.25 
   3  -7   7   80.10    2.47 
   4  -7   7   11.55    0.58 
   5  -7   7    4.32    0.41 
   6   6  -7    1.77    0.30 
   5   6  -7    2.13    0.29 
  -5  -6   7    2.14    0.29 
   4   6  -7    7.36    0.43 
   4   6  -7    7.85    0.44 
  -4  -6   7    7.72    0.46 
  -3  -6   7   18.43    0.77 
  -2  -6   7   22.87    0.88 
  -1  -6   7   32.44    1.14 
   0  -6   7   19.88    0.77 
   1  -6   7    0.19    0.09 
   2  -6   7    0.33    0.11 
   3  -6   7    3.36    0.26 
   4  -6   7   24.28    1.00 
   4  -6   7   24.48    0.91 
   5  -6   7   38.78    1.45 
   6   5  -7    1.08    0.24 
   5   5  -7    2.16    0.28 
  -5  -5   7    2.29    0.28 
   4   5  -7   16.96    0.71 
  -4  -5   7   16.70    0.72 
  -3  -5   7    7.69    0.42 
  -2  -5   7    1.96    0.22 
  -1  -5   7    1.10    0.17 
   0  -5   7    0.05    0.06 
   1  -5   7  112.67    3.26 
   2  -5   7   66.20    2.01 
   3  -5   7   33.01    1.11 
   4  -5   7    4.49    0.35 
   4  -5   7    5.08    0.31 
   5  -5   7   28.84    1.15 
   6  -5   7    1.66    0.27 
   6   4  -7   11.16    0.63 
   5   4  -7    1.54    0.25 
  -5  -4   7    1.92    0.25 
   4   4  -7    9.50    0.49 
  -4  -4   7    9.55    0.48 
   3   4  -7   36.72    1.20 
  -3  -4   7   34.51    1.20 
  -2  -4   7  100.16    2.93 
  -1  -4   7    8.85    0.41 
   0  -4   7    0.66    0.11 
   1  -4   7    2.29    0.18 
   2  -4   7   30.24    0.99 
   3  -4   7   74.41    2.19 
   3  -4   7   73.44    2.33 
   4  -4   7    3.04    0.30 
   5  -4   7   23.10    0.97 
   6  -4   7    9.58    0.58 
   7   3  -7    2.39    0.34 
   6   3  -7    0.07    0.13 
  -6  -3   7    0.12    0.12 
   5   3  -7   17.89    0.78 
  -5  -3   7   18.47    0.76 
   4   3  -7   24.88    0.93 
  -4  -3   7   25.04    0.93 
   3   3  -7    3.36    0.25 
  -3  -3   7    3.40    0.25 
  -2  -3   7   30.51    1.02 
  -1  -3   7  121.50    3.46 
   0  -3   7  256.43    7.08 
   1  -3   7  213.95    5.92 
   2  -3   7   64.15    1.85 
   2  -3   7   62.01    1.97 
   3  -3   7   56.28    1.66 
   3  -3   7   56.42    1.82 
   4  -3   7   16.98    0.75 
   5  -3   7   14.43    0.70 
   6  -3   7    0.50    0.19 
   7   2  -7    1.68    0.29 
   6   2  -7    9.19    0.55 
  -6  -2   7   10.62    0.54 
   5   2  -7    0.92    0.19 
  -5  -2   7    0.74    0.16 
   4   2  -7   57.77    1.83 
  -4  -2   7   57.48    1.81 
   3   2  -7   71.01    2.03 
  -3  -2   7   61.77    2.00 
  -2  -2   7    0.12    0.07 
  -1  -2   7   22.87    0.77 
   0  -2   7   28.56    0.91 
   1  -2   7  552.12   15.60 
   1  -2   7  597.52   15.99 
   2  -2   7    0.34    0.10 
   2  -2   7    0.43    0.08 
   3  -2   7   85.65    2.41 
   3  -2   7   85.03    2.62 
   4  -2   7    2.60    0.28 
   5  -2   7   31.16    1.19 
   6  -2   7   11.61    0.63 
   6  -2   7   10.74    0.63 
   7   1  -7    0.11    0.17 
   6   1  -7    6.17    0.44 
  -6  -1   7    7.15    0.42 
   5   1  -7    9.98    0.52 
  -5  -1   7   11.15    0.52 
   4   1  -7   26.37    0.95 
  -4  -1   7   25.58    0.93 
   3   1  -7   27.70    1.00 
  -3  -1   7   31.82    1.02 
  -2  -1   7  460.36   12.60 
  -1  -1   7   20.14    0.67 
  -1  -1   7   20.35    0.69 
   0  -1   7  157.16    4.48 
   0  -1   7  158.33    4.38 
   1  -1   7   57.87    1.78 
   1  -1   7   58.36    1.67 
   2  -1   7   77.55    2.35 
   2  -1   7   77.61    2.18 
   3  -1   7    4.40    0.31 
   4  -1   7   11.84    0.58 
   5  -1   7    6.86    0.46 
   6  -1   7    0.18    0.13 
   6  -1   7   -0.01    0.16 
   7   0  -7    0.74    0.22 
  -7   0   7    0.56    0.18 
   6   0  -7   12.59    0.64 
  -6   0   7   12.92    0.62 
   5   0  -7   13.73    0.62 
  -5   0   7   13.46    0.61 
   4   0  -7    4.54    0.31 
  -4   0   7    4.64    0.30 
   3   0  -7   13.12    0.55 
  -3   0   7   13.65    0.56 
  -3   0   7   13.86    0.42 
  -2   0   7    0.65    0.07 
  -2   0   7    0.67    0.12 
  -1   0   7  256.58    7.14 
  -1   0   7  254.55    7.04 
   0   0   7   10.88    0.40 
   0   0   7   10.49    0.43 
   1   0   7  274.91    7.38 
   1   0   7  265.26    7.60 
   2   0   7   24.44    0.92 
   2   0   7   26.76    0.75 
   3   0   7   29.57    1.06 
   4   0   7    2.42    0.27 
   5   0   7   14.58    0.70 
   6   0   7    2.19    0.31 
   6   0   7    2.32    0.34 
   7  -1  -7    1.03    0.25 
  -7   1   7    1.09    0.22 
   6  -1  -7   11.71    0.61 
  -6   1   7   12.60    0.60 
   5  -1  -7    9.09    0.47 
  -5   1   7    8.97    0.47 
   4  -1  -7   52.58    1.60 
  -4   1   7   46.67    1.57 
   3  -1  -7    6.35    0.33 
  -3   1   7    5.76    0.32 
  -2   1   7  198.18    5.57 
  -2   1   7  200.66    5.57 
  -1   1   7   18.71    0.63 
  -1   1   7   17.83    0.64 
   0   1   7   42.45    1.32 
   0   1   7   41.57    1.26 
   1   1   7    2.84    0.15 
   1   1   7    2.55    0.21 
   2   1   7    5.52    0.33 
   3   1   7   19.06    0.77 
   4   1   7    0.32    0.14 
   5   1   7    9.81    0.57 
   6   1   7    0.21    0.13 
   6   1   7    0.14    0.19 
   7  -2  -7    5.69    0.46 
  -7   2   7    5.52    0.42 
   6  -2  -7    1.09    0.22 
  -6   2   7    0.78    0.18 
   5  -2  -7   15.87    0.70 
  -5   2   7   18.26    0.74 
   4  -2  -7   10.14    0.48 
  -4   2   7   10.41    0.50 
   3  -2  -7    6.10    0.31 
  -3   2   7    5.86    0.34 
  -2   2   7   28.13    0.94 
  -2   2   7   27.22    0.86 
  -1   2   7  237.85    6.53 
  -1   2   7  233.28    6.62 
   0   2   7   75.71    2.19 
   0   2   7   76.58    2.28 
   1   2   7   23.41    0.84 
   1   2   7   23.17    0.72 
   2   2   7    0.42    0.12 
   3   2   7   42.52    1.46 
   4   2   7    8.46    0.50 
   5   2   7    0.28    0.13 
   5   2   7    0.27    0.18 
   6   2   7    1.45    0.30 
   6   2   7    1.24    0.24 
   7  -3  -7    0.01    0.16 
  -7   3   7    0.05    0.12 
   6  -3  -7   22.34    0.90 
  -6   3   7   20.78    0.90 
   5  -3  -7    7.75    0.44 
  -5   3   7    7.87    0.45 
   4  -3  -7   20.55    0.77 
  -4   3   7   21.17    0.83 
  -3   3   7   18.12    0.72 
  -2   3   7    5.42    0.31 
  -2   3   7    5.81    0.27 
  -1   3   7   18.59    0.69 
  -1   3   7   20.41    0.70 
   0   3   7   12.36    0.51 
   0   3   7   11.11    0.45 
   1   3   7   61.55    1.91 
   1   3   7   59.32    1.74 
   2   3   7   22.87    0.90 
   3   3   7   16.83    0.75 
   4   3   7   13.41    0.68 
   5   3   7   18.84    0.89 
   5   3   7   18.30    0.80 
   7  -4  -7    0.26    0.19 
  -7   4   7    0.50    0.18 
   6  -4  -7    3.46    0.33 
  -6   4   7    3.53    0.36 
   5  -4  -7    3.57    0.29 
  -5   4   7    2.90    0.31 
   4  -4  -7   43.13    1.37 
  -4   4   7   42.34    1.46 
  -3   4   7   20.70    0.81 
  -2   4   7  176.57    4.63 
  -2   4   7  147.11    4.59 
  -1   4   7    0.08    0.07 
  -1   4   7    0.04    0.06 
   0   4   7   12.31    0.51 
   0   4   7   14.24    0.58 
   1   4   7   28.56    0.91 
   1   4   7   27.82    1.03 
   2   4   7   31.46    1.17 
   3   4   7    7.09    0.46 
   4   4   7    3.34    0.28 
   4   4   7    3.02    0.36 
   5   4   7    0.01    0.18 
   5   4   7    0.04    0.11 
  -6   5   7    5.27    0.42 
  -5   5   7    6.61    0.45 
  -4   5   7    0.35    0.14 
  -3   5   7   11.10    0.56 
  -2   5   7    7.96    0.44 
  -2   5   7    8.93    0.41 
  -1   5   7   95.12    2.79 
  -1   5   7   92.87    2.82 
   0   5   7   37.75    1.31 
   0   5   7   38.92    1.24 
   1   5   7   11.57    0.47 
   1   5   7   12.23    0.59 
   2   5   7    0.68    0.19 
   3   5   7   34.82    1.34 
   4   5   7    2.58    0.37 
   5   5   7    2.18    0.37 
  -6   6   7    4.21    0.43 
  -5   6   7    4.14    0.41 
  -4   6   7   45.03    1.60 
  -3   6   7   -0.02    0.10 
  -2   6   7   16.37    0.72 
  -2   6   7   16.55    0.67 
  -1   6   7   13.30    0.60 
  -1   6   7   13.15    0.59 
   0   6   7    9.63    0.51 
   0   6   7   10.06    0.47 
   1   6   7    2.59    0.30 
   2   6   7    2.92    0.33 
   3   6   7    4.66    0.44 
   4   6   7    1.67    0.33 
  -5   7   7    0.18    0.13 
  -4   7   7    0.09    0.14 
  -3   7   7   29.46    1.16 
  -2   7   7    6.31    0.39 
  -2   7   7    6.77    0.43 
  -1   7   7    1.83    0.24 
  -1   7   7    1.84    0.24 
   0   7   7    0.15    0.12 
   0   7   7    0.10    0.10 
   1   7   7   17.30    0.82 
   2   7   7    5.57    0.44 
   3   7   7    3.53    0.43 
  -5   8   7    1.48    0.27 
  -4   8   7    0.91    0.24 
  -3   8   7    0.06    0.13 
  -2   8   7    9.31    0.51 
  -2   8   7    8.99    0.53 
  -1   8   7    0.55    0.17 
  -1   8   7    0.95    0.20 
   0   8   7    1.62    0.24 
   0   8   7    1.77    0.27 
   1   8   7    3.58    0.39 
   2   8   7    1.20    0.26 
  -3   9   7    0.15    0.16 
  -2   9   7    1.79    0.27 
  -2   9   7    1.28    0.26 
  -1   9   7    1.83    0.29 
  -1   9   7    1.94    0.30 
   0   9   7    2.84    0.36 
   1   9   7    0.04    0.12 
   0 -11   8    1.76    0.30 
  -2 -10   8    6.62    0.49 
  -1 -10   8    0.48    0.18 
   0 -10   8    0.32    0.16 
   1 -10   8    0.45    0.19 
   2 -10   8    4.16    0.41 
   3 -10   8    2.34    0.34 
  -4  -9   8    0.14    0.15 
  -3  -9   8    4.48    0.43 
  -2  -9   8    2.30    0.32 
  -1  -9   8   35.38    1.34 
   0  -9   8    0.57    0.17 
   1  -9   8    6.27    0.44 
   2  -9   8    3.06    0.34 
   3  -9   8   11.69    0.64 
   4  -9   8    1.75    0.30 
  -4  -8   8    5.85    0.45 
  -3  -8   8    1.28    0.24 
  -2  -8   8    5.36    0.40 
  -1  -8   8    0.85    0.19 
   0  -8   8   20.23    0.86 
   1  -8   8   36.87    1.33 
   2  -8   8   23.66    0.95 
   3  -8   8    8.95    0.52 
   4  -8   8   16.27    0.76 
  -5  -7   8    8.05    0.53 
  -4  -7   8    0.04    0.11 
  -3  -7   8   20.16    0.86 
  -2  -7   8   18.85    0.81 
  -1  -7   8   19.41    0.81 
   0  -7   8    1.16    0.20 
   1  -7   8   17.79    0.74 
   2  -7   8    8.89    0.47 
   3  -7   8   14.15    0.65 
   4  -7   8   20.69    0.86 
   5  -7   8    0.42    0.20 
   6   6  -8    8.26    0.54 
   5   6  -8    2.63    0.31 
  -5  -6   8    2.48    0.31 
  -4  -6   8    1.57    0.24 
  -3  -6   8    6.81    0.43 
  -2  -6   8    1.65    0.23 
  -1  -6   8   32.24    1.15 
   0  -6   8    8.49    0.45 
   1  -6   8   66.14    2.05 
   2  -6   8   23.36    0.87 
   3  -6   8   30.33    1.08 
   4  -6   8   15.84    0.76 
   5  -6   8    7.07    0.51 
   6   5  -8    2.82    0.35 
   5   5  -8   13.38    0.66 
  -5  -5   8   13.47    0.67 
   4   5  -8    2.89    0.28 
  -4  -5   8    2.63    0.29 
  -3  -5   8   16.53    0.70 
  -2  -5   8   21.79    0.84 
  -1  -5   8    0.19    0.10 
   0  -5   8    0.30    0.09 
   1  -5   8    1.16    0.16 
   2  -5   8   44.50    1.42 
   3  -5   8   16.57    0.65 
   4  -5   8   20.66    0.90 
   5  -5   8    0.05    0.15 
   6   4  -8    2.47    0.33 
  -6  -4   8    2.35    0.30 
   5   4  -8    1.41    0.24 
  -5  -4   8    1.40    0.23 
   4   4  -8    0.41    0.14 
  -4  -4   8    0.45    0.13 
  -3  -4   8   52.96    1.70 
  -2  -4   8    3.22    0.25 
  -1  -4   8  108.06    3.15 
   0  -4   8    1.19    0.15 
   1  -4   8   81.63    2.40 
   2  -4   8   29.17    0.97 
   3  -4   8   31.12    1.02 
   3  -4   8   31.80    1.17 
   4  -4   8    9.54    0.54 
   5  -4   8    0.09    0.14 
   7   3  -8    0.58    0.19 
   6   3  -8    6.08    0.45 
  -6  -3   8    5.93    0.42 
   5   3  -8    2.19    0.28 
  -5  -3   8    2.08    0.26 
   4   3  -8    4.17    0.32 
  -4  -3   8    4.24    0.31 
  -3  -3   8    0.05    0.07 
  -2  -3   8   21.27    0.78 
  -1  -3   8    0.38    0.10 
   0  -3   8  189.04    5.29 
   1  -3   8  235.06    6.51 
   2  -3   8   19.08    0.66 
   2  -3   8   18.37    0.75 
   3  -3   8    4.51    0.24 
   3  -3   8    4.87    0.34 
   4  -3   8   81.32    2.59 
   5  -3   8   15.84    0.77 
   6  -3   8    3.64    0.41 
   7   2  -8    2.01    0.32 
   6   2  -8    0.20    0.15 
  -6  -2   8    0.28    0.13 
   5   2  -8    2.83    0.30 
  -5  -2   8    3.36    0.28 
   4   2  -8   20.11    0.80 
  -4  -2   8   20.49    0.80 
  -3  -2   8  134.90    3.89 
  -2  -2   8   10.79    0.47 
  -1  -2   8   44.34    1.38 
   0  -2   8    0.64    0.11 
   1  -2   8  426.80   11.69 
   1  -2   8  408.51   11.39 
   2  -2   8   62.91    2.02 
   2  -2   8   65.92    1.88 
   3  -2   8    8.41    0.46 
   4  -2   8   14.39    0.68 
   5  -2   8    4.00    0.38 
   6  -2   8   13.23    0.73 
   7   1  -8    0.38    0.19 
  -7  -1   8    0.46    0.17 
   6   1  -8    7.84    0.51 
  -6  -1   8    8.42    0.48 
   5   1  -8    7.39    0.45 
  -5  -1   8    8.06    0.45 
   4   1  -8    4.58    0.32 
  -4  -1   8    4.25    0.30 
   3   1  -8   42.09    1.39 
  -3  -1   8   42.33    1.39 
  -3  -1   8   44.75    1.27 
  -2  -1   8   63.59    1.91 
  -2  -1   8   63.08    1.85 
  -1  -1   8  126.53    3.61 
  -1  -1   8  126.22    3.58 
   0  -1   8   13.72    0.54 
   0  -1   8   14.23    0.51 
   1  -1   8  208.87    5.83 
   1  -1   8  214.62    6.03 
   2  -1   8  139.78    4.19 
   2  -1   8  146.71    3.97 
   3  -1   8   65.38    2.09 
   4  -1   8    1.87    0.26 
   5  -1   8    9.34    0.55 
   6  -1   8    1.25    0.28 
   6  -1   8    1.05    0.22 
   7   0  -8    0.64    0.22 
  -7   0   8    0.85    0.20 
   6   0  -8    1.85    0.28 
  -6   0   8    1.71    0.25 
   5   0  -8   23.80    0.95 
  -5   0   8   26.17    0.97 
   4   0  -8   89.18    2.71 
  -4   0   8   91.58    2.72 
  -3   0   8   19.06    0.75 
  -3   0   8   20.34    0.61 
  -2   0   8    2.40    0.19 
  -2   0   8    2.72    0.16 
  -1   0   8   42.01    1.27 
  -1   0   8   40.33    1.27 
   0   0   8   65.56    1.96 
   0   0   8   64.62    1.89 
   1   0   8    2.84    0.16 
   1   0   8    2.60    0.21 
   2   0   8    3.81    0.16 
   2   0   8    2.86    0.25 
   3   0   8    0.07    0.10 
   4   0   8   60.57    2.00 
   5   0   8    7.06    0.48 
   6   0   8    6.95    0.48 
   6   0   8    7.21    0.53 
   7  -1  -8    3.30    0.39 
  -7   1   8    3.69    0.37 
   6  -1  -8    1.39    0.25 
  -6   1   8    1.48    0.23 
   5  -1  -8    6.83    0.42 
  -5   1   8    7.41    0.43 
   4  -1  -8   10.10    0.48 
  -4   1   8    9.35    0.48 
  -3   1   8  195.90    5.53 
  -2   1   8    8.77    0.34 
  -2   1   8    8.85    0.41 
  -1   1   8   87.25    2.56 
  -1   1   8   89.92    2.59 
   0   1   8   12.70    0.51 
   0   1   8   12.58    0.47 
   1   1   8   84.50    2.34 
   1   1   8   81.14    2.50 
   2   1   8    2.43    0.24 
   3   1   8    1.63    0.23 
   4   1   8    0.41    0.15 
   5   1   8    0.83    0.23 
   6   1   8    1.63    0.33 
   6   1   8    1.32    0.24 
   7  -2  -8    2.98    0.37 
  -7   2   8    3.65    0.38 
   6  -2  -8   14.29    0.69 
  -6   2   8   14.33    0.69 
   5  -2  -8    1.13    0.20 
  -5   2   8    0.80    0.18 
   4  -2  -8   10.95    0.51 
  -4   2   8   11.16    0.54 
  -3   2   8  111.20    3.26 
  -2   2   8  102.83    2.92 
  -2   2   8  100.50    2.97 
  -1   2   8   42.41    1.33 
  -1   2   8   43.07    1.34 
   0   2   8   20.64    0.76 
   0   2   8   21.34    0.71 
   1   2   8   18.13    0.71 
   1   2   8   17.92    0.59 
   2   2   8    1.84    0.23 
   3   2   8   12.38    0.61 
   4   2   8   21.51    0.93 
   5   2   8    5.89    0.47 
   7  -3  -8    2.18    0.33 
  -7   3   8    2.56    0.33 
   6  -3  -8    0.77    0.20 
  -6   3   8    0.76    0.19 
   5  -3  -8   35.53    1.24 
  -5   3   8   35.25    1.29 
   4  -3  -8    3.35    0.26 
  -4   3   8    3.43    0.28 
  -3   3   8   46.16    1.51 
  -2   3   8   29.23    0.93 
  -2   3   8   26.87    0.97 
  -1   3   8   96.70    2.84 
  -1   3   8   96.13    2.81 
   0   3   8    4.41    0.24 
   0   3   8    3.94    0.27 
   1   3   8   21.00    0.69 
   1   3   8   20.92    0.82 
   2   3   8   12.34    0.60 
   3   3   8    2.39    0.29 
   4   3   8    5.62    0.43 
   5   3   8    0.50    0.17 
   5   3   8    0.56    0.22 
   6  -4  -8    0.81    0.21 
  -6   4   8    0.75    0.19 
   5  -4  -8    0.21    0.13 
  -5   4   8    0.22    0.12 
  -4   4   8   12.31    0.60 
  -3   4   8    0.48    0.14 
  -2   4   8    0.56    0.10 
  -2   4   8    0.76    0.15 
  -1   4   8   57.02    1.69 
  -1   4   8   50.61    1.68 
   0   4   8   14.74    0.63 
   0   4   8   15.39    0.58 
   1   4   8   18.43    0.78 
   2   4   8    8.78    0.52 
   3   4   8   57.08    1.96 
   4   4   8    1.33    0.28 
   4   4   8    1.81    0.24 
   5   4   8    1.03    0.21 
   5   4   8    0.46    0.24 
  -6   5   8    0.79    0.21 
  -5   5   8    5.51    0.42 
  -4   5   8    9.15    0.53 
  -3   5   8   10.08    0.53 
  -2   5   8    0.32    0.11 
  -2   5   8    0.32    0.12 
  -1   5   8    5.94    0.35 
  -1   5   8    5.88    0.35 
   0   5   8   12.57    0.58 
   0   5   8   11.24    0.51 
   1   5   8   -0.06    0.09 
   2   5   8    7.06    0.47 
   3   5   8    0.86    0.23 
   4   5   8   23.16    1.07 
  -6   6   8    1.69    0.29 
  -5   6   8    3.30    0.38 
  -4   6   8    2.43    0.32 
  -3   6   8   21.83    0.92 
  -2   6   8   17.96    0.72 
  -2   6   8   17.35    0.76 
  -1   6   8   17.72    0.74 
  -1   6   8   18.30    0.76 
   0   6   8    2.65    0.25 
   0   6   8    2.03    0.26 
   1   6   8   22.53    0.95 
   2   6   8    1.29    0.26 
   3   6   8    2.05    0.35 
   4   6   8    1.60    0.33 
  -5   7   8    2.63    0.36 
  -4   7   8    3.81    0.41 
  -3   7   8    5.10    0.41 
  -2   7   8   14.10    0.69 
  -2   7   8   15.46    0.68 
  -1   7   8   28.59    1.08 
  -1   7   8   28.57    1.09 
   0   7   8    2.36    0.30 
   0   7   8    2.24    0.25 
   1   7   8    0.00    0.13 
   2   7   8   10.35    0.64 
   3   7   8    2.95    0.41 
  -4   8   8    0.48    0.21 
  -3   8   8    3.30    0.38 
  -2   8   8    0.64    0.19 
  -2   8   8    0.82    0.19 
  -1   8   8   40.09    1.48 
  -1   8   8   41.60    1.46 
   0   8   8    1.98    0.29 
   1   8   8    1.28    0.26 
   2   8   8    0.17    0.13 
  -3   9   8    3.08    0.40 
  -2   9   8   -0.01    0.15 
  -1   9   8    0.34    0.17 
  -1   9   8    0.42    0.19 
   0   9   8   17.95    0.88 
  -2 -10   9    5.30    0.48 
  -1 -10   9    6.19    0.48 
   0 -10   9    0.62    0.21 
   1 -10   9    1.45    0.29 
   2 -10   9    9.59    0.59 
  -3  -9   9    0.67    0.21 
  -2  -9   9    3.77    0.40 
  -1  -9   9    2.11    0.31 
   0  -9   9   28.62    1.16 
   1  -9   9    3.10    0.35 
   2  -9   9    4.84    0.40 
   3  -9   9   10.52    0.60 
  -4  -8   9    1.32    0.26 
  -3  -8   9   23.66    1.01 
  -2  -8   9    0.06    0.12 
  -1  -8   9    4.04    0.38 
   0  -8   9    6.70    0.44 
   1  -8   9   21.75    0.91 
   2  -8   9    2.03    0.27 
   3  -8   9    0.38    0.16 
   4  -8   9    1.13    0.22 
  -5  -7   9    0.00    0.12 
  -4  -7   9    7.80    0.51 
  -3  -7   9    1.11    0.22 
  -2  -7   9   45.55    1.59 
  -1  -7   9   22.19    0.91 
   0  -7   9   22.34    0.90 
   1  -7   9    0.12    0.10 
   2  -7   9   69.31    2.18 
   3  -7   9    3.83    0.31 
   4  -7   9    1.07    0.25 
   5  -7   9    0.48    0.22 
  -5  -6   9   12.26    0.66 
  -4  -6   9    0.19    0.12 
  -3  -6   9   11.32    0.58 
  -2  -6   9    1.77    0.24 
  -1  -6   9   13.52    0.62 
   0  -6   9   26.54    0.99 
   1  -6   9    0.00    0.07 
   2  -6   9   20.89    0.81 
   3  -6   9   14.38    0.63 
   4  -6   9   43.37    1.60 
   5  -6   9    4.69    0.46 
   6   5  -9    0.37    0.17 
  -6  -5   9    0.30    0.15 
   5   5  -9    0.99    0.22 
  -5  -5   9    1.09    0.22 
  -4  -5   9   19.13    0.82 
  -3  -5   9   17.46    0.75 
  -2  -5   9    2.04    0.24 
  -1  -5   9    6.41    0.38 
   0  -5   9  105.36    3.11 
   1  -5   9   18.31    0.72 
   2  -5   9    1.83    0.20 
   3  -5   9   10.79    0.49 
   3  -5   9   10.46    0.58 
   4  -5   9    0.04    0.12 
   5  -5   9    3.89    0.42 
   6   4  -9    3.89    0.40 
  -6  -4   9    4.82    0.38 
   5   4  -9    0.38    0.15 
  -5  -4   9    0.31    0.15 
  -4  -4   9    0.15    0.10 
  -3  -4   9    9.87    0.50 
  -2  -4   9   16.60    0.68 
  -1  -4   9    9.35    0.45 
   0  -4   9   48.62    1.54 
   1  -4   9    7.08    0.36 
   2  -4   9   46.25    1.58 
   2  -4   9   46.83    1.46 
   3  -4   9    3.60    0.23 
   3  -4   9    3.61    0.33 
   4  -4   9   74.44    2.44 
   5  -4   9    0.84    0.24 
   6   3  -9    4.72    0.42 
  -6  -3   9    4.30    0.39 
   5   3  -9   38.25    1.37 
  -5  -3   9   38.41    1.36 
   4   3  -9    0.42    0.15 
  -4  -3   9    0.28    0.12 
  -3  -3   9   14.30    0.62 
  -2  -3   9   15.16    0.62 
  -1  -3   9   13.64    0.56 
   0  -3   9   34.15    1.11 
   1  -3   9   18.10    0.68 
   1  -3   9   19.57    0.75 
   2  -3   9    6.06    0.30 
   2  -3   9    5.82    0.37 
   3  -3   9    4.16    0.33 
   4  -3   9    1.07    0.23 
   5  -3   9   27.69    1.17 
   6  -3   9   12.44    0.74 
   7   2  -9    0.68    0.21 
  -7  -2   9    0.38    0.15 
   6   2  -9    4.87    0.40 
  -6  -2   9    5.48    0.40 
   5   2  -9    0.40    0.15 
  -5  -2   9    0.24    0.12 
   4   2  -9   32.83    1.17 
  -4  -2   9   33.44    1.17 
  -3  -2   9   12.36    0.55 
  -2  -2   9   45.44    1.45 
  -1  -2   9   11.94    0.50 
   0  -2   9  195.66    5.45 
   0  -2   9  195.62    5.58 
   1  -2   9    0.08    0.07 
   1  -2   9    0.14    0.07 
   2  -2   9   62.99    2.00 
   2  -2   9   62.59    1.83 
   3  -2   9    1.68    0.24 
   4  -2   9   17.88    0.82 
   5  -2   9    2.22    0.32 
   6  -2   9    3.32    0.42 
   7   1  -9    3.24    0.40 
  -7  -1   9    3.02    0.35 
   6   1  -9    0.40    0.17 
  -6  -1   9    0.48    0.15 
   5   1  -9   23.98    0.97 
  -5  -1   9   25.72    0.98 
   4   1  -9    1.28    0.20 
  -4  -1   9    1.16    0.19 
  -3  -1   9   35.99    1.23 
  -3  -1   9   37.38    1.11 
  -2  -1   9    0.04    0.06 
  -2  -1   9    0.10    0.06 
  -1  -1   9   37.72    1.19 
  -1  -1   9   36.57    1.17 
   0  -1   9   52.37    1.55 
   0  -1   9   50.79    1.61 
   1  -1   9    0.61    0.10 
   1  -1   9    0.64    0.13 
   2  -1   9   30.91    1.10 
   2  -1   9   30.28    0.93 
   3  -1   9   37.26    1.34 
   4  -1   9   66.07    2.18 
   5  -1   9    0.68    0.21 
   6  -1   9    0.92    0.27 
   7   0  -9    0.56    0.21 
  -7   0   9    1.13    0.23 
   6   0  -9    5.44    0.41 
  -6   0   9    5.65    0.41 
   5   0  -9    1.47    0.23 
  -5   0   9    1.03    0.20 
   4   0  -9    9.11    0.48 
  -4   0   9    9.02    0.47 
  -3   0   9   14.08    0.60 
  -2   0   9   73.22    1.99 
  -2   0   9   60.78    2.01 
  -1   0   9    6.32    0.32 
  -1   0   9    6.38    0.31 
   0   0   9  163.98    4.53 
   0   0   9  160.07    4.64 
   1   0   9   63.95    1.86 
   1   0   9   65.04    2.01 
   2   0   9    0.05    0.09 
   3   0   9    2.10    0.25 
   4   0   9    2.17    0.29 
   5   0   9   10.75    0.63 
   7  -1  -9    2.06    0.33 
  -7   1   9    2.64    0.33 
   6  -1  -9    1.34    0.24 
  -6   1   9    1.66    0.26 
   5  -1  -9    4.85    0.35 
  -5   1   9    4.31    0.34 
   4  -1  -9   13.57    0.60 
  -4   1   9   14.32    0.63 
  -3   1   9   13.52    0.59 
  -2   1   9   47.35    1.41 
  -2   1   9   45.67    1.48 
  -1   1   9    1.39    0.16 
  -1   1   9    1.36    0.15 
   0   1   9    1.30    0.14 
   1   1   9    9.67    0.48 
   1   1   9   11.27    0.40 
   2   1   9  161.41    4.73 
   3   1   9    0.96    0.19 
   4   1   9   14.91    0.73 
   5   1   9    0.24    0.19 
   7  -2  -9    4.15    0.42 
  -7   2   9    4.23    0.41 
   6  -2  -9    7.41    0.48 
  -6   2   9    8.26    0.50 
   5  -2  -9   18.75    0.78 
  -5   2   9   18.33    0.80 
  -4   2   9    0.86    0.18 
  -3   2   9    0.32    0.12 
  -2   2   9   77.06    2.31 
  -2   2   9   76.24    2.26 
  -1   2   9   57.86    1.79 
  -1   2   9   58.58    1.77 
   0   2   9    2.07    0.16 
   0   2   9    1.83    0.20 
   1   2   9    6.79    0.29 
   1   2   9    6.84    0.39 
   2   2   9    0.81    0.17 
   3   2   9   37.27    1.36 
   4   2   9    5.38    0.42 
   5   2   9    0.92    0.25 
   7  -3  -9    2.04    0.32 
  -7   3   9    2.14    0.32 
   6  -3  -9    1.50    0.25 
  -6   3   9    1.82    0.28 
   5  -3  -9    5.45    0.37 
  -5   3   9    6.67    0.43 
  -4   3   9   12.05    0.59 
  -3   3   9   14.20    0.63 
  -2   3   9   26.36    0.87 
  -2   3   9   24.54    0.92 
  -1   3   9    1.32    0.17 
  -1   3   9    1.44    0.17 
   0   3   9   72.45    2.28 
   0   3   9   75.39    2.18 
   1   3   9    7.66    0.44 
   2   3   9   15.45    0.71 
   3   3   9    5.58    0.42 
   4   3   9    6.78    0.50 
   5   3   9    0.61    0.18 
   5   3   9    0.56    0.24 
   6  -4  -9    1.05    0.23 
  -6   4   9    1.11    0.23 
  -5   4   9    4.94    0.38 
  -4   4   9   12.95    0.64 
  -3   4   9   41.17    1.41 
  -2   4   9   17.39    0.72 
  -1   4   9    1.50    0.20 
  -1   4   9    1.49    0.19 
   0   4   9    0.79    0.13 
   0   4   9    0.90    0.17 
   1   4   9   10.11    0.54 
   2   4   9   41.83    1.51 
   3   4   9    3.55    0.39 
   4   4   9    0.99    0.26 
  -6   5   9    2.38    0.34 
  -5   5   9    1.80    0.29 
  -4   5   9    2.93    0.34 
  -3   5   9    0.14    0.11 
  -2   5   9   66.95    2.02 
  -2   5   9   61.33    2.03 
  -1   5   9   21.19    0.84 
  -1   5   9   22.20    0.84 
   0   5   9   13.39    0.64 
   0   5   9   14.12    0.58 
   1   5   9    5.22    0.39 
   2   5   9    3.30    0.37 
   3   5   9    1.71    0.31 
   4   5   9    0.10    0.18 
  -5   6   9    6.62    0.49 
  -4   6   9    2.68    0.34 
  -3   6   9    0.85    0.21 
  -2   6   9    0.65    0.17 
  -2   6   9    0.63    0.15 
  -1   6   9    3.01    0.29 
  -1   6   9    2.67    0.28 
   0   6   9   10.01    0.55 
   0   6   9   10.15    0.50 
   1   6   9    2.60    0.32 
   2   6   9   25.78    1.11 
   3   6   9    0.00    0.18 
  -5   7   9    0.07    0.17 
  -4   7   9    4.42    0.45 
  -3   7   9   10.22    0.60 
  -2   7   9    7.88    0.50 
  -2   7   9    8.26    0.47 
  -1   7   9    0.36    0.15 
  -1   7   9    0.05    0.10 
   0   7   9    1.76    0.28 
   1   7   9    3.69    0.39 
   2   7   9    1.06    0.26 
  -4   8   9    2.84    0.39 
  -3   8   9    0.05    0.16 
  -2   8   9    7.56    0.52 
  -1   8   9    1.21    0.25 
  -1   8   9    1.15    0.23 
   0   8   9    5.04    0.42 
   1   8   9    0.21    0.14 
  -2   9   9    0.43    0.19 
  -1   9   9    0.98    0.23 
  -2 -10  10    4.42    0.47 
  -1 -10  10    1.80    0.31 
   0 -10  10    7.68    0.54 
   1 -10  10    0.67    0.22 
   2 -10  10    3.27    0.40 
  -3  -9  10    0.49    0.20 
  -2  -9  10   13.58    0.75 
  -1  -9  10    1.99    0.31 
   0  -9  10    0.41    0.17 
   1  -9  10   13.64    0.72 
   2  -9  10    0.17    0.17 
   3  -9  10    5.57    0.44 
  -4  -8  10    1.83    0.30 
  -3  -8  10    1.74    0.30 
  -2  -8  10   17.89    0.84 
  -1  -8  10   13.41    0.69 
   0  -8  10   24.16    1.00 
   1  -8  10    5.91    0.43 
   2  -8  10   29.42    1.14 
   3  -8  10    0.04    0.12 
   4  -8  10    0.12    0.18 
  -5  -7  10    2.49    0.34 
  -4  -7  10    1.73    0.29 
  -3  -7  10   15.01    0.74 
  -2  -7  10    0.53    0.17 
  -1  -7  10    5.75    0.40 
   0  -7  10    2.95    0.31 
   1  -7  10   37.45    1.33 
   2  -7  10    0.70    0.18 
   3  -7  10   62.26    2.00 
   4  -7  10    4.33    0.44 
  -5  -6  10    0.44    0.18 
  -4  -6  10   19.78    0.88 
  -3  -6  10    5.40    0.39 
  -2  -6  10   19.83    0.83 
  -1  -6  10   11.61    0.58 
   0  -6  10   31.25    1.13 
   1  -6  10    3.05    0.29 
   2  -6  10    3.68    0.29 
   3  -6  10    2.12    0.25 
   3  -6  10    2.13    0.30 
   4  -6  10    7.79    0.54 
   5  -6  10    9.83    0.64 
   6   5 -10    1.97    0.30 
  -6  -5  10    2.41    0.33 
  -5  -5  10    4.11    0.39 
  -4  -5  10    0.04    0.10 
  -3  -5  10   25.91    1.01 
  -2  -5  10   37.76    1.32 
  -1  -5  10    1.69    0.22 
   0  -5  10    9.00    0.46 
   1  -5  10   63.31    1.97 
   2  -5  10   19.30    0.75 
   3  -5  10   13.51    0.69 
   4  -5  10    0.11    0.17 
   5  -5  10   11.06    0.68 
   6   4 -10    9.99    0.60 
  -6  -4  10    9.54    0.58 
   5   4 -10    0.13    0.14 
  -5  -4  10    0.18    0.12 
  -4  -4  10   12.55    0.62 
  -3  -4  10    0.30    0.12 
  -2  -4  10   36.46    1.26 
  -1  -4  10   13.08    0.57 
   0  -4  10    9.22    0.45 
   1  -4  10    0.12    0.08 
   2  -4  10    0.08    0.08 
   2  -4  10    0.01    0.08 
   3  -4  10   26.67    1.07 
   4  -4  10    0.45    0.18 
   5  -4  10    8.85    0.60 
   6   3 -10    0.59    0.20 
  -6  -3  10    0.95    0.22 
   5   3 -10    0.60    0.19 
  -5  -3  10    0.85    0.20 
  -4  -3  10   16.27    0.72 
  -3  -3  10    5.84    0.36 
  -2  -3  10    0.90    0.16 
  -1  -3  10   53.84    1.69 
   0  -3  10  187.54    5.28 
   1  -3  10    4.44    0.26 
   1  -3  10    4.34    0.31 
   2  -3  10    7.03    0.42 
   2  -3  10    7.06    0.34 
   3  -3  10   12.75    0.64 
   4  -3  10    9.48    0.58 
   5  -3  10    0.14    0.19 
   6   2 -10    3.52    0.37 
  -6  -2  10    4.32    0.36 
   5   2 -10    0.39    0.16 
  -5  -2  10    0.37    0.15 
  -4  -2  10    1.79    0.24 
  -3  -2  10   15.04    0.65 
  -2  -2  10    0.29    0.07 
  -2  -2  10    0.71    0.14 
  -1  -2  10    1.05    0.14 
  -1  -2  10    0.83    0.14 
   0  -2  10    5.27    0.31 
   0  -2  10    5.04    0.29 
   1  -2  10  161.22    4.53 
   1  -2  10  161.93    4.71 
   2  -2  10    4.67    0.24 
   2  -2  10    4.64    0.34 
   3  -2  10   33.87    1.26 
   4  -2  10    1.57    0.27 
   5  -2  10   15.41    0.81 
   7   1 -10    2.77    0.38 
  -7  -1  10    2.66    0.35 
   6   1 -10    9.47    0.57 
  -6  -1  10   10.44    0.58 
   5   1 -10   17.37    0.77 
  -5  -1  10   18.00    0.78 
  -4  -1  10   23.94    0.93 
  -3  -1  10    9.58    0.47 
  -2  -1  10   57.58    1.80 
  -2  -1  10   58.38    1.75 
  -1  -1  10    0.50    0.10 
  -1  -1  10    0.63    0.12 
   0  -1  10   55.72    1.58 
   0  -1  10   47.08    1.61 
   1  -1  10   41.73    1.42 
   1  -1  10   44.01    1.31 
   2  -1  10    9.37    0.49 
   3  -1  10    2.10    0.28 
   4  -1  10   11.38    0.63 
   5  -1  10   11.14    0.67 
   7   0 -10    1.39    0.30 
  -7   0  10    1.71    0.28 
   6   0 -10    4.52    0.41 
  -6   0  10    4.97    0.39 
   5   0 -10   13.05    0.63 
  -5   0  10   12.51    0.63 
  -4   0  10   21.15    0.85 
  -3   0  10   18.32    0.74 
  -2   0  10    3.93    0.23 
  -2   0  10    3.78    0.27 
  -1   0  10   10.85    0.46 
  -1   0  10   10.34    0.44 
   0   0  10   18.73    0.75 
   0   0  10   22.06    0.72 
   1   0  10   87.23    2.70 
   1   0  10   89.41    2.53 
   2   0  10    0.07    0.08 
   3   0  10   33.43    1.25 
   4   0  10    5.80    0.44 
   5   0  10    9.11    0.59 
   7  -1 -10    0.62    0.23 
  -7   1  10    0.26    0.15 
   6  -1 -10    6.09    0.44 
  -6   1  10    4.82    0.40 
   5  -1 -10    0.00    0.12 
  -5   1  10   -0.03    0.09 
  -4   1  10   68.41    2.16 
  -3   1  10    0.15    0.10 
  -2   1  10   31.69    1.11 
  -2   1  10   33.12    1.05 
  -1   1  10    0.33    0.10 
  -1   1  10    0.39    0.10 
   0   1  10    0.91    0.13 
   0   1  10    1.14    0.17 
   1   1  10    1.95    0.23 
   1   1  10    2.37    0.16 
   2   1  10    1.02    0.18 
   3   1  10   24.86    1.01 
   4   1  10    0.63    0.21 
   5   1  10    5.99    0.51 
   6  -2 -10    0.46    0.19 
  -6   2  10    0.54    0.17 
   5  -2 -10    1.61    0.24 
  -5   2  10    1.54    0.24 
  -4   2  10    0.30    0.13 
  -3   2  10   72.48    2.25 
  -2   2  10   17.23    0.70 
  -2   2  10   17.84    0.65 
  -1   2  10   26.33    0.97 
  -1   2  10   31.06    1.00 
   0   2  10   21.07    0.73 
   0   2  10   20.34    0.79 
   1   2  10    5.00    0.34 
   2   2  10    0.09    0.10 
   3   2  10    8.21    0.51 
   4   2  10    6.67    0.49 
   5   2  10    2.07    0.35 
   6  -3 -10    6.00    0.43 
  -6   3  10    5.98    0.45 
  -5   3  10    1.66    0.26 
  -4   3  10   30.13    1.13 
  -3   3  10    6.31    0.39 
  -2   3  10    3.73    0.24 
  -2   3  10    3.29    0.27 
  -1   3  10    0.50    0.12 
  -1   3  10    0.58    0.13 
   0   3  10   17.46    0.65 
   0   3  10   16.78    0.71 
   1   3  10   38.34    1.36 
   2   3  10   24.75    1.01 
   3   3  10   10.47    0.61 
   4   3  10    0.93    0.24 
  -6   4  10    1.86    0.30 
  -5   4  10    0.20    0.14 
  -4   4  10    2.91    0.32 
  -3   4  10   22.12    0.89 
  -2   4  10   11.53    0.55 
  -1   4  10    0.79    0.16 
  -1   4  10    0.60    0.14 
   0   4  10    4.20    0.28 
   0   4  10    5.73    0.37 
   1   4  10   15.01    0.71 
   2   4  10   19.36    0.87 
   3   4  10    7.50    0.54 
   4   4  10    1.32    0.29 
  -6   5  10    3.05    0.38 
  -5   5  10    8.92    0.56 
  -4   5  10    0.19    0.14 
  -3   5  10    3.50    0.34 
  -2   5  10    2.56    0.28 
  -2   5  10    2.58    0.25 
  -1   5  10   23.30    0.89 
  -1   5  10   23.20    0.91 
   0   5  10    4.82    0.36 
   1   5  10   11.88    0.64 
   2   5  10    2.52    0.33 
   3   5  10   22.62    1.05 
  -5   6  10    0.96    0.26 
  -4   6  10   27.80    1.15 
  -3   6  10    2.06    0.30 
  -2   6  10    0.88    0.20 
  -1   6  10   -0.01    0.10 
  -1   6  10    0.01    0.10 
   0   6  10   15.50    0.74 
   1   6  10    6.45    0.47 
   2   6  10    0.05    0.14 
   3   6  10    1.71    0.35 
  -4   7  10    0.07    0.17 
  -3   7  10   14.92    0.76 
  -2   7  10   26.30    1.08 
  -1   7  10    2.13    0.28 
  -1   7  10    2.09    0.29 
   0   7  10    1.61    0.27 
   1   7  10    7.67    0.53 
   2   7  10    2.82    0.37 
  -3   8  10    1.05    0.26 
  -2   8  10   12.22    0.68 
  -1   8  10   12.89    0.69 
   0   8  10    0.02    0.13 
  -1 -10  11    2.38    0.35 
   0 -10  11    0.39    0.19 
   1 -10  11   -0.07    0.14 
  -3  -9  11    1.88    0.32 
  -2  -9  11    0.36    0.18 
  -1  -9  11    7.01    0.51 
   0  -9  11    8.19    0.55 
   1  -9  11    3.02    0.37 
   2  -9  11    1.64    0.29 
  -4  -8  11    4.30    0.44 
  -3  -8  11    4.28    0.43 
  -2  -8  11    0.40    0.16 
  -1  -8  11    3.98    0.40 
   0  -8  11    8.34    0.53 
   1  -8  11   29.96    1.17 
   2  -8  11    2.65    0.33 
   3  -8  11    6.82    0.47 
  -4  -7  11    2.61    0.34 
  -3  -7  11   13.35    0.70 
  -2  -7  11   21.02    0.91 
  -1  -7  11    6.00    0.42 
   0  -7  11   13.00    0.64 
   1  -7  11    4.52    0.35 
   2  -7  11    4.59    0.35 
   3  -7  11    1.23    0.23 
   4  -7  11    2.09    0.35 
  -5  -6  11    3.68    0.40 
  -4  -6  11    1.72    0.28 
  -3  -6  11   20.21    0.88 
  -2  -6  11    0.16    0.11 
  -1  -6  11   89.82    2.77 
   0  -6  11    9.21    0.50 
   1  -6  11   58.37    1.89 
   2  -6  11    1.31    0.20 
   3  -6  11   10.50    0.62 
   4  -6  11    8.74    0.59 
  -5  -5  11    3.90    0.40 
  -4  -5  11   16.59    0.77 
  -3  -5  11    1.66    0.25 
  -2  -5  11   10.08    0.53 
  -1  -5  11    4.08    0.31 
   0  -5  11   29.08    1.06 
   1  -5  11    0.47    0.13 
   2  -5  11   14.47    0.61 
   2  -5  11   13.60    0.69 
   3  -5  11   25.07    1.06 
   4  -5  11    5.11    0.44 
   5  -5  11    0.07    0.20 
  -6  -4  11    0.37    0.17 
  -5  -4  11    8.65    0.54 
  -4  -4  11    1.09    0.21 
  -3  -4  11   27.00    1.03 
  -2  -4  11    0.24    0.10 
  -1  -4  11   93.94    2.82 
   0  -4  11   10.38    0.49 
   1  -4  11    0.08    0.09 
   1  -4  11    0.28    0.10 
   2  -4  11   17.16    0.68 
   2  -4  11   17.56    0.79 
   3  -4  11   25.98    1.08 
   4  -4  11    7.20    0.52 
   5  -4  11    7.82    0.58 
   6   3 -11   15.66    0.78 
  -6  -3  11   15.13    0.77 
  -5  -3  11    0.26    0.14 
  -4  -3  11   17.44    0.78 
  -3  -3  11    1.29    0.21 
  -2  -3  11    0.01    0.07 
  -1  -3  11    0.01    0.06 
   0  -3  11   21.27    0.84 
   0  -3  11   22.41    0.81 
   1  -3  11    5.19    0.30 
   1  -3  11    6.00    0.37 
   2  -3  11    7.11    0.34 
   2  -3  11    6.91    0.44 
   3  -3  11    4.42    0.37 
   4  -3  11   39.72    1.52 
   5  -3  11    7.84    0.60 
   6   2 -11    1.04    0.25 
  -6  -2  11    1.27    0.25 
  -5  -2  11   19.06    0.85 
  -4  -2  11    0.68    0.16 
  -3  -2  11   56.16    1.82 
  -2  -2  11    3.50    0.23 
  -2  -2  11    3.49    0.27 
  -1  -2  11    8.57    0.42 
  -1  -2  11    7.86    0.39 
   0  -2  11   18.05    0.70 
   0  -2  11   16.84    0.66 
   1  -2  11    0.02    0.06 
   1  -2  11    0.15    0.07 
   2  -2  11    1.27    0.20 
   3  -2  11    4.98    0.39 
   4  -2  11    2.81    0.37 
   5  -2  11    0.31    0.22 
   6   1 -11   11.56    0.64 
  -6  -1  11   10.56    0.61 
  -5  -1  11    3.10    0.33 
  -4  -1  11    2.86    0.30 
  -3  -1  11    1.08    0.18 
  -2  -1  11    7.61    0.40 
  -1  -1  11   95.54    2.79 
  -1  -1  11   93.81    2.81 
   0  -1  11    2.47    0.20 
   0  -1  11    2.58    0.23 
   1  -1  11    7.95    0.44 
   1  -1  11    8.26    0.37 
   2  -1  11    9.54    0.51 
   3  -1  11   57.70    1.97 
   4  -1  11    0.18    0.16 
   5  -1  11    0.08    0.19 
   6   0 -11    2.71    0.34 
  -6   0  11    2.81    0.34 
  -5   0  11   11.05    0.59 
  -4   0  11    5.79    0.39 
  -3   0  11    1.76    0.23 
  -2   0  11    0.11    0.08 
  -2   0  11    0.16    0.08 
  -1   0  11    9.38    0.43 
  -1   0  11    9.04    0.43 
   0   0  11   28.54    0.95 
   0   0  11   27.79    1.01 
   1   0  11   61.40    2.00 
   1   0  11   63.27    1.85 
   2   0  11   28.03    1.07 
   3   0  11    3.61    0.37 
   4   0  11   21.54    0.97 
   5   0  11    2.39    0.37 
   6  -1 -11    0.20    0.17 
  -6   1  11    0.08    0.13 
  -5   1  11    0.29    0.13 
  -4   1  11    2.98    0.31 
  -3   1  11   48.90    1.61 
  -2   1  11   25.86    0.86 
  -2   1  11   24.47    0.92 
  -1   1  11    8.60    0.41 
  -1   1  11    7.24    0.38 
   0   1  11   26.10    0.96 
   0   1  11   26.29    0.89 
   1   1  11   82.92    2.58 
   2   1  11    4.18    0.33 
   3   1  11   23.76    1.00 
   4   1  11    1.08    0.26 
   5   1  11    0.04    0.18 
  -6   2  11   16.93    0.82 
  -5   2  11   -0.06    0.09 
  -4   2  11    0.71    0.18 
  -3   2  11    1.00    0.18 
  -2   2  11   21.46    0.84 
  -2   2  11   22.40    0.79 
  -1   2  11   11.82    0.52 
  -1   2  11   11.04    0.51 
   0   2  11    0.56    0.14 
   0   2  11    0.42    0.10 
   1   2  11   12.09    0.59 
   2   2  11   60.32    2.01 
   3   2  11    3.07    0.35 
   4   2  11    7.74    0.55 
  -6   3  11    0.08    0.11 
  -5   3  11   25.09    1.04 
  -4   3  11    2.49    0.30 
  -3   3  11    8.87    0.49 
  -2   3  11    1.83    0.22 
  -2   3  11    0.80    0.13 
  -1   3  11   48.36    1.57 
  -1   3  11   47.76    1.54 
   0   3  11    1.04    0.15 
   0   3  11    1.11    0.20 
   1   3  11    2.30    0.28 
   2   3  11    2.09    0.29 
   3   3  11    7.64    0.53 
   4   3  11    0.05    0.16 
  -6   4  11    3.56    0.40 
  -5   4  11    0.10    0.14 
  -4   4  11    8.12    0.51 
  -3   4  11   14.38    0.68 
  -2   4  11    2.88    0.29 
  -2   4  11    1.90    0.22 
  -1   4  11   12.83    0.57 
  -1   4  11   12.35    0.58 
   0   4  11   17.08    0.76 
   1   4  11   23.19    0.98 
   2   4  11    9.69    0.58 
   3   4  11    0.75    0.24 
  -5   5  11    4.31    0.44 
  -4   5  11    0.49    0.18 
  -3   5  11    7.88    0.50 
  -2   5  11    7.58    0.46 
  -1   5  11   11.54    0.57 
  -1   5  11   11.54    0.58 
   0   5  11   12.02    0.63 
   1   5  11    3.28    0.36 
   2   5  11    3.42    0.39 
   3   5  11    0.60    0.23 
  -5   6  11    3.23    0.42 
  -4   6  11    0.04    0.16 
  -3   6  11    9.83    0.58 
  -2   6  11    0.25    0.16 
  -1   6  11   10.57    0.56 
  -1   6  11    9.98    0.56 
   0   6  11    5.06    0.40 
   1   6  11   27.82    1.17 
   2   6  11    0.74    0.22 
  -4   7  11    0.80    0.26 
  -3   7  11    0.13    0.18 
  -2   7  11    8.88    0.56 
  -1   7  11    2.08    0.29 
   0   7  11    1.03    0.24 
   1   7  11    0.43    0.17 
  -2   8  11    0.43    0.21 
  -1   8  11    9.40    0.58 
  -2  -9  12    4.20    0.44 
  -1  -9  12    0.11    0.16 
   0  -9  12   14.76    0.78 
   1  -9  12    4.29    0.44 
   2  -9  12    3.27    0.38 
  -3  -8  12   11.05    0.66 
  -2  -8  12    6.61    0.49 
  -1  -8  12    3.02    0.37 
   0  -8  12    0.28    0.16 
   1  -8  12   11.22    0.63 
   2  -8  12   11.18    0.62 
  -4  -7  12    1.82    0.30 
  -3  -7  12    0.90    0.22 
  -2  -7  12   22.24    0.97 
  -1  -7  12    0.19    0.12 
   0  -7  12   15.78    0.76 
   1  -7  12    1.14    0.22 
   2  -7  12   38.14    1.38 
   3  -7  12    2.93    0.38 
  -5  -6  12    7.61    0.54 
  -4  -6  12    5.50    0.44 
  -3  -6  12    2.86    0.34 
  -2  -6  12    2.25    0.29 
  -1  -6  12   14.53    0.69 
   0  -6  12   26.65    1.04 
   1  -6  12    0.54    0.15 
   2  -6  12   10.78    0.55 
   3  -6  12    7.64    0.54 
   4  -6  12   19.91    0.99 
  -5  -5  12    1.35    0.26 
  -4  -5  12   17.75    0.83 
  -3  -5  12   42.98    1.53 
  -2  -5  12    3.48    0.33 
  -1  -5  12    1.78    0.24 
   0  -5  12   14.91    0.66 
   1  -5  12   10.24    0.51 
   2  -5  12    1.07    0.18 
   2  -5  12    1.30    0.24 
   3  -5  12    1.48    0.28 
   4  -5  12    0.46    0.22 
  -6  -4  12    1.44    0.28 
  -5  -4  12    3.29    0.37 
  -4  -4  12    2.46    0.31 
  -3  -4  12   16.52    0.74 
  -2  -4  12   29.68    1.10 
  -1  -4  12   17.46    0.73 
   0  -4  12   32.39    1.14 
   1  -4  12    1.81    0.25 
   1  -4  12    1.96    0.22 
   2  -4  12   26.79    0.95 
   2  -4  12   26.51    1.08 
   3  -4  12    0.54    0.20 
   4  -4  12   14.09    0.78 
  -6  -3  12    4.57    0.44 
  -5  -3  12    9.05    0.55 
  -4  -3  12    9.16    0.53 
  -3  -3  12   12.93    0.63 
  -2  -3  12   28.67    1.06 
  -1  -3  12   35.02    1.20 
  -1  -3  12   34.07    1.19 
   0  -3  12    9.14    0.44 
   0  -3  12    8.05    0.45 
   1  -3  12    0.54    0.12 
   1  -3  12    0.47    0.13 
   2  -3  12    2.31    0.29 
   3  -3  12    2.03    0.31 
   4  -3  12    6.10    0.49 
   5  -3  12    5.16    0.52 
  -6  -2  12    2.97    0.36 
  -5  -2  12    0.06    0.12 
  -4  -2  12   17.21    0.77 
  -3  -2  12    0.31    0.13 
  -2  -2  12   13.12    0.59 
  -2  -2  12   12.22    0.52 
  -1  -2  12    5.08    0.32 
  -1  -2  12    5.79    0.33 
   0  -2  12   92.84    2.75 
   0  -2  12   93.61    2.84 
   1  -2  12    0.28    0.09 
   1  -2  12    0.29    0.11 
   2  -2  12   31.69    1.21 
   3  -2  12    4.84    0.40 
   4  -2  12    0.08    0.18 
   5  -2  12    1.59    0.35 
  -6  -1  12   -0.08    0.10 
  -5  -1  12    5.73    0.42 
  -4  -1  12    0.32    0.14 
  -3  -1  12   18.97    0.79 
  -2  -1  12    0.38    0.12 
  -2  -1  12    0.13    0.05 
  -1  -1  12    2.22    0.22 
  -1  -1  12    1.76    0.20 
   0  -1  12   23.34    0.89 
   0  -1  12   23.20    0.83 
   1  -1  12    6.38    0.40 
   1  -1  12    6.51    0.33 
   2  -1  12    4.98    0.38 
   3  -1  12   13.01    0.69 
   4  -1  12   30.98    1.29 
  -6   0  12    7.18    0.50 
  -5   0  12    7.72    0.49 
  -4   0  12   14.55    0.69 
  -3   0  12   30.07    1.11 
  -2   0  12    1.04    0.18 
  -2   0  12    0.89    0.13 
  -1   0  12    4.10    0.28 
  -1   0  12    4.48    0.29 
   0   0  12   60.73    1.92 
   0   0  12   58.47    1.82 
   1   0  12   14.08    0.65 
   2   0  12    3.83    0.35 
   3   0  12    0.25    0.16 
   4   0  12    0.89    0.25 
  -6   1  12   -0.05    0.11 
  -5   1  12    3.47    0.36 
  -4   1  12    4.90    0.37 
  -3   1  12    2.15    0.26 
  -2   1  12   37.70    1.26 
  -2   1  12   34.94    1.18 
  -1   1  12   19.80    0.76 
  -1   1  12   19.34    0.75 
   0   1  12   16.58    0.65 
   0   1  12   17.18    0.72 
   1   1  12    9.13    0.50 
   2   1  12   50.84    1.75 
   3   1  12    0.03    0.13 
   4   1  12    3.82    0.43 
  -6   2  12    1.18    0.24 
  -5   2  12    7.97    0.51 
  -4   2  12    5.17    0.39 
  -3   2  12   16.27    0.72 
  -2   2  12    3.04    0.22 
  -1   2  12   34.64    1.17 
  -1   2  12   33.91    1.19 
   0   2  12    1.18    0.17 
   0   2  12    1.26    0.20 
   1   2  12    0.17    0.12 
   2   2  12    0.60    0.18 
   3   2  12    9.23    0.58 
   4   2  12    6.60    0.53 
  -6   3  12    1.37    0.26 
  -5   3  12    0.18    0.13 
  -4   3  12   13.77    0.69 
  -3   3  12    6.04    0.40 
  -2   3  12   14.14    0.64 
  -1   3  12    4.14    0.32 
  -1   3  12    4.10    0.30 
   0   3  12   84.78    2.66 
   1   3  12    8.12    0.50 
   2   3  12    3.61    0.37 
   3   3  12    2.05    0.34 
  -5   4  12    6.62    0.50 
  -4   4  12    2.57    0.33 
  -3   4  12   17.52    0.79 
  -2   4  12    5.05    0.36 
  -1   4  12    7.78    0.45 
  -1   4  12    7.18    0.42 
   0   4  12    1.44    0.24 
   1   4  12   10.29    0.59 
   2   4  12   10.94    0.64 
   3   4  12    2.68    0.38 
  -5   5  12   16.03    0.83 
  -4   5  12    3.03    0.37 
  -3   5  12    0.17    0.14 
  -2   5  12   29.63    1.13 
  -1   5  12    5.50    0.39 
  -1   5  12    5.89    0.40 
   0   5  12   14.35    0.72 
   1   5  12    0.07    0.12 
   2   5  12    2.26    0.34 
  -4   6  12    7.25    0.54 
  -3   6  12    0.00    0.14 
  -2   6  12    1.00    0.24 
  -1   6  12    5.07    0.39 
   0   6  12    8.90    0.56 
   1   6  12    0.30    0.17 
  -3   7  12    6.96    0.53 
  -2   7  12    0.65    0.22 
  -1   7  12    0.52    0.19 
   0   7  12    0.20    0.16 
  -2  -9  13    0.95    0.23 
  -1  -9  13    1.40    0.28 
   0  -9  13    0.11    0.16 
   1  -9  13    0.26    0.18 
  -3  -8  13    0.55    0.19 
  -2  -8  13    1.11    0.25 
  -1  -8  13    2.00    0.31 
   0  -8  13   13.18    0.72 
   1  -8  13    5.74    0.44 
   2  -8  13    1.57    0.27 
  -4  -7  13    2.24    0.34 
  -3  -7  13    2.17    0.33 
  -2  -7  13    0.19    0.15 
  -1  -7  13   20.22    0.91 
   0  -7  13    4.58    0.38 
   1  -7  13    4.97    0.40 
   2  -7  13    0.77    0.19 
   3  -7  13   20.97    1.02 
  -4  -6  13   12.70    0.71 
  -3  -6  13    0.04    0.11 
  -2  -6  13   22.89    0.98 
  -1  -6  13    2.61    0.31 
   0  -6  13   51.34    1.74 
   1  -6  13    3.07    0.31 
   2  -6  13   -0.08    0.13 
   2  -6  13    0.03    0.11 
   3  -6  13    0.31    0.19 
  -5  -5  13    4.43    0.44 
  -4  -5  13   -0.07    0.11 
  -3  -5  13    8.15    0.52 
  -2  -5  13   16.01    0.75 
  -1  -5  13   40.56    1.43 
   0  -5  13    4.06    0.32 
   1  -5  13   42.36    1.56 
   1  -5  13   44.34    1.47 
   2  -5  13   46.63    1.69 
   3  -5  13    9.10    0.60 
   4  -5  13    1.16    0.30 
  -5  -4  13    0.74    0.21 
  -4  -4  13   17.23    0.82 
  -3  -4  13    0.03    0.10 
  -2  -4  13   25.40    1.00 
  -1  -4  13   20.21    0.83 
   0  -4  13    0.19    0.11 
   0  -4  13    0.32    0.11 
   1  -4  13    3.01    0.32 
   1  -4  13    2.37    0.25 
   2  -4  13    5.80    0.44 
   3  -4  13   78.10    2.62 
   4  -4  13    3.09    0.42 
  -6  -3  13    1.94    0.31 
  -5  -3  13    7.04    0.49 
  -4  -3  13    8.02    0.50 
  -3  -3  13    1.84    0.26 
  -2  -3  13   18.80    0.74 
  -2  -3  13   18.17    0.78 
  -1  -3  13   37.47    1.31 
  -1  -3  13   39.03    1.32 
   0  -3  13   25.66    0.97 
   0  -3  13   24.02    0.91 
   1  -3  13    0.04    0.09 
   1  -3  13    0.06    0.09 
   2  -3  13    1.54    0.26 
   3  -3  13   10.70    0.65 
   4  -3  13    2.89    0.41 
  -6  -2  13    2.65    0.36 
  -5  -2  13    1.29    0.24 
  -4  -2  13   27.54    1.09 
  -3  -2  13   14.57    0.68 
  -2  -2  13    4.87    0.30 
  -2  -2  13    4.74    0.34 
  -1  -2  13    6.88    0.39 
  -1  -2  13    6.76    0.39 
   0  -2  13   -0.03    0.07 
   0  -2  13    0.03    0.08 
   1  -2  13   11.24    0.50 
   1  -2  13   10.73    0.56 
   2  -2  13   14.25    0.71 
   3  -2  13   22.45    1.02 
   4  -2  13    1.02    0.27 
  -6  -1  13    8.56    0.56 
  -5  -1  13    0.06    0.11 
  -4  -1  13   15.28    0.73 
  -3  -1  13    6.49    0.42 
  -2  -1  13   67.23    2.06 
  -2  -1  13   65.97    2.09 
  -1  -1  13    0.07    0.08 
  -1  -1  13    0.11    0.08 
   0  -1  13    8.38    0.42 
   0  -1  13    8.29    0.45 
   1  -1  13    0.07    0.10 
   2  -1  13    6.51    0.45 
   3  -1  13    3.08    0.37 
   4  -1  13   -0.04    0.17 
  -6   0  13    1.07    0.24 
  -5   0  13   10.88    0.61 
  -4   0  13    4.29    0.39 
  -3   0  13    5.05    0.36 
  -2   0  13    7.20    0.42 
  -1   0  13   48.97    1.60 
  -1   0  13   48.45    1.58 
   0   0  13   37.86    1.23 
   0   0  13   35.86    1.29 
   1   0  13   26.40    1.03 
   2   0  13   19.13    0.86 
   3   0  13    9.91    0.61 
   4   0  13    0.09    0.18 
  -6   1  13    3.61    0.40 
  -5   1  13   -0.07    0.11 
  -4   1  13   28.81    1.13 
  -3   1  13   20.59    0.85 
  -2   1  13    3.34    0.28 
  -1   1  13    0.19    0.11 
  -1   1  13    0.07    0.10 
   0   1  13    5.32    0.32 
   0   1  13    4.55    0.34 
   1   1  13   26.83    1.05 
   2   1  13    6.91    0.47 
   3   1  13   16.03    0.81 
   4   1  13    1.28    0.31 
  -6   2  13    4.62    0.45 
  -5   2  13    1.37    0.25 
  -4   2  13    7.49    0.49 
  -3   2  13    4.06    0.34 
  -2   2  13   34.96    1.24 
  -1   2  13   15.26    0.67 
  -1   2  13   15.18    0.65 
   0   2  13   17.73    0.77 
   1   2  13    1.60    0.26 
   2   2  13    3.64    0.37 
   3   2  13    8.49    0.58 
  -5   3  13    4.28    0.43 
  -4   3  13    3.95    0.39 
  -3   3  13    9.01    0.52 
  -2   3  13    0.07    0.11 
  -1   3  13    2.34    0.26 
  -1   3  13    2.29    0.27 
   0   3  13    0.41    0.16 
   1   3  13   21.21    0.93 
   2   3  13    0.12    0.15 
   3   3  13    2.98    0.39 
  -5   4  13    0.48    0.21 
  -4   4  13    6.72    0.48 
  -3   4  13    1.18    0.23 
  -2   4  13   33.47    1.23 
  -1   4  13    1.26    0.21 
  -1   4  13    1.46    0.23 
   0   4  13    1.19    0.24 
   1   4  13    0.19    0.14 
   2   4  13    3.72    0.42 
  -4   5  13    0.53    0.20 
  -3   5  13    0.62    0.20 
  -2   5  13    0.14    0.14 
  -1   5  13   23.11    0.97 
   0   5  13   14.08    0.73 
   1   5  13    1.79    0.30 
   2   5  13    0.21    0.15 
  -3   6  13    2.49    0.36 
  -2   6  13    0.37    0.20 
  -1   6  13    0.01    0.12 
   0   6  13    6.65    0.49 
   1   6  13    7.53    0.54 
  -2  -8  14    3.14    0.40 
  -1  -8  14    0.38    0.19 
   0  -8  14    3.45    0.39 
   1  -8  14   14.36    0.76 
  -3  -7  14   10.21    0.64 
  -2  -7  14    0.49    0.19 
  -1  -7  14    6.43    0.47 
   0  -7  14    0.36    0.16 
   1  -7  14    2.21    0.30 
   2  -7  14    4.14    0.46 
   2  -7  14    5.28    0.41 
  -4  -6  14    0.24    0.15 
  -3  -6  14    2.49    0.34 
  -2  -6  14    7.42    0.50 
  -1  -6  14   22.31    0.96 
   0  -6  14    0.01    0.11 
   1  -6  14   24.43    0.98 
   1  -6  14   23.74    1.04 
   2  -6  14    4.64    0.45 
   3  -6  14    8.71    0.61 
  -5  -5  14    1.46    0.28 
  -4  -5  14   13.98    0.75 
  -3  -5  14    0.05    0.13 
  -2  -5  14    4.94    0.39 
  -1  -5  14    0.23    0.13 
   0  -5  14    5.41    0.38 
   0  -5  14    5.68    0.40 
   1  -5  14    5.43    0.38 
   1  -5  14    5.58    0.43 
   2  -5  14   38.74    1.49 
   3  -5  14   14.68    0.81 
  -5  -4  14    5.11    0.42 
  -4  -4  14    0.02    0.12 
  -3  -4  14   32.39    1.25 
  -2  -4  14    6.47    0.44 
  -2  -4  14    6.51    0.40 
  -1  -4  14   40.70    1.41 
  -1  -4  14   39.21    1.40 
   0  -4  14    6.00    0.39 
   0  -4  14    6.49    0.43 
   1  -4  14   12.44    0.58 
   1  -4  14   11.59    0.63 
   2  -4  14    0.54    0.19 
   3  -4  14   10.86    0.68 
  -5  -3  14   -0.06    0.11 
  -4  -3  14   15.51    0.76 
  -3  -3  14    1.25    0.24 
  -2  -3  14    5.60    0.35 
  -2  -3  14    5.63    0.40 
  -1  -3  14   24.25    0.95 
  -1  -3  14   24.90    0.96 
   0  -3  14   12.15    0.57 
   0  -3  14   11.86    0.60 
   1  -3  14   47.37    1.69 
   1  -3  14   49.44    1.58 
   2  -3  14    5.00    0.41 
   3  -3  14   12.06    0.71 
   4  -3  14    8.85    0.66 
  -5  -2  14   10.16    0.61 
  -4  -2  14    0.81    0.21 
  -3  -2  14   29.87    1.14 
  -2  -2  14    7.92    0.41 
  -2  -2  14    7.47    0.45 
  -1  -2  14    9.71    0.51 
  -1  -2  14    9.88    0.50 
   0  -2  14    1.20    0.20 
   0  -2  14    1.35    0.20 
   1  -2  14    7.91    0.49 
   2  -2  14   21.09    0.94 
   3  -2  14   12.20    0.73 
   4  -2  14    0.80    0.27 
  -6  -1  14    3.16    0.39 
  -5  -1  14    3.51    0.40 
  -4  -1  14    4.35    0.41 
  -3  -1  14    4.12    0.34 
  -2  -1  14    4.48    0.34 
  -2  -1  14    4.92    0.31 
  -1  -1  14   66.66    2.12 
  -1  -1  14   67.22    2.09 
   0  -1  14   -0.14    0.07 
   0  -1  14    0.00    0.08 
   1  -1  14   14.61    0.71 
   2  -1  14   11.14    0.64 
   3  -1  14   15.01    0.81 
   4  -1  14    0.15    0.19 
  -6   0  14    2.01    0.32 
  -5   0  14    6.93    0.49 
  -4   0  14   16.48    0.78 
  -3   0  14    0.88    0.19 
  -2   0  14    0.17    0.11 
  -1   0  14    3.39    0.30 
  -1   0  14    3.39    0.28 
   0   0  14   45.77    1.45 
   0   0  14   42.44    1.51 
   1   0  14   20.02    0.87 
   2   0  14    2.44    0.32 
   3   0  14    1.64    0.30 
  -5   1  14    1.76    0.31 
  -4   1  14    0.38    0.17 
  -3   1  14   33.73    1.25 
  -2   1  14   18.89    0.79 
  -1   1  14   11.24    0.55 
  -1   1  14   11.39    0.55 
   0   1  14    0.23    0.13 
   1   1  14   31.72    1.21 
   2   1  14    1.59    0.27 
   3   1  14    0.03    0.12 
  -5   2  14    1.43    0.29 
  -4   2  14    0.17    0.15 
  -3   2  14    6.74    0.45 
  -2   2  14   12.54    0.61 
  -1   2  14   33.25    1.22 
  -1   2  14   34.26    1.20 
   0   2  14    0.63    0.18 
   1   2  14   13.37    0.69 
   2   2  14   11.11    0.65 
   3   2  14    6.50    0.51 
  -5   3  14    6.17    0.49 
  -4   3  14   15.08    0.76 
  -3   3  14    3.58    0.36 
  -2   3  14    3.80    0.35 
  -1   3  14   20.79    0.87 
  -1   3  14   20.80    0.85 
   0   3  14   10.27    0.57 
   1   3  14    0.20    0.15 
   2   3  14    0.29    0.18 
  -4   4  14    2.27    0.33 
  -3   4  14   25.93    1.07 
  -2   4  14    2.03    0.29 
  -1   4  14   11.28    0.60 
   0   4  14    1.58    0.28 
   1   4  14    4.93    0.46 
   2   4  14    3.67    0.42 
  -4   5  14    1.89    0.32 
  -3   5  14    5.94    0.46 
  -2   5  14    6.80    0.48 
  -1   5  14    1.45    0.27 
   0   5  14    2.60    0.34 
   1   5  14    0.99    0.24 
  -2   6  14    0.42    0.22 
  -1  -8  15    1.23    0.28 
   0  -8  15    0.28    0.18 
  -3  -7  15    0.32    0.17 
  -2  -7  15   10.79    0.66 
  -1  -7  15    9.45    0.60 
   0  -7  15    1.11    0.25 
   1  -7  15    0.35    0.16 
   1  -7  15    0.60    0.20 
   2  -7  15    9.29    0.62 
  -4  -6  15    0.34    0.16 
  -3  -6  15    0.38    0.19 
  -2  -6  15    0.14    0.17 
  -1  -6  15    6.53    0.47 
   0  -6  15   15.34    0.77 
   0  -6  15   15.73    0.76 
   1  -6  15    3.57    0.40 
   1  -6  15    2.99    0.34 
   2  -6  15   17.52    0.89 
  -4  -5  15    3.16    0.39 
  -3  -5  15    8.23    0.55 
  -2  -5  15    0.43    0.17 
  -1  -5  15    5.31    0.39 
  -1  -5  15    5.90    0.43 
   0  -5  15   10.99    0.59 
   0  -5  15   11.47    0.63 
   1  -5  15   25.58    1.02 
   1  -5  15   26.29    1.10 
   2  -5  15    2.84    0.38 
   3  -5  15    5.09    0.52 
  -5  -4  15    0.11    0.12 
  -4  -4  15    0.48    0.17 
  -3  -4  15    0.89    0.24 
  -2  -4  15   28.72    1.07 
  -2  -4  15   27.54    1.11 
  -1  -4  15    8.70    0.51 
  -1  -4  15    9.29    0.52 
   0  -4  15   12.52    0.62 
   0  -4  15   13.65    0.67 
   1  -4  15    0.22    0.14 
   2  -4  15  102.86    3.32 
   3  -4  15    1.08    0.28 
  -5  -3  15    5.49    0.45 
  -4  -3  15    0.10    0.15 
  -3  -3  15    4.02    0.39 
  -2  -3  15    0.54    0.15 
  -2  -3  15    0.50    0.17 
  -1  -3  15   27.65    1.07 
  -1  -3  15   28.05    1.07 
   0  -3  15    3.88    0.33 
   0  -3  15    3.59    0.30 
   1  -3  15    4.78    0.39 
   2  -3  15   12.24    0.70 
   3  -3  15   10.68    0.68 
  -5  -2  15   -0.07    0.10 
  -4  -2  15   10.49    0.62 
  -3  -2  15   16.49    0.78 
  -2  -2  15   18.22    0.74 
  -2  -2  15   17.01    0.77 
  -1  -2  15    9.85    0.51 
  -1  -2  15    8.73    0.50 
   0  -2  15   35.23    1.30 
   0  -2  15   34.75    1.23 
   1  -2  15    3.81    0.37 
   2  -2  15   21.50    0.99 
   3  -2  15    0.20    0.19 
  -5  -1  15    3.17    0.39 
  -4  -1  15    0.60    0.20 
  -3  -1  15    8.49    0.52 
  -2  -1  15    6.19    0.42 
  -1  -1  15   16.30    0.73 
  -1  -1  15   17.15    0.73 
   0  -1  15   19.94    0.79 
   0  -1  15   19.49    0.85 
   1  -1  15    0.19    0.14 
   2  -1  15    6.73    0.49 
   3  -1  15    2.05    0.35 
  -5   0  15   10.60    0.65 
  -4   0  15    5.70    0.45 
  -3   0  15   13.98    0.70 
  -2   0  15   20.99    0.87 
  -1   0  15    8.38    0.47 
  -1   0  15    8.64    0.48 
   0   0  15   19.04    0.83 
   1   0  15    8.61    0.54 
   2   0  15    0.17    0.16 
   3   0  15    1.41    0.27 
  -5   1  15    2.93    0.39 
  -4   1  15   10.01    0.59 
  -3   1  15    0.17    0.14 
  -2   1  15   10.77    0.57 
  -1   1  15    0.11    0.12 
  -1   1  15    0.10    0.11 
   0   1  15   10.81    0.58 
   1   1  15    0.43    0.17 
   2   1  15   15.18    0.78 
   3   1  15    4.23    0.45 
  -5   2  15    6.45    0.50 
  -4   2  15    0.80    0.22 
  -3   2  15    7.26    0.48 
  -2   2  15    6.40    0.43 
  -1   2  15    6.39    0.43 
  -1   2  15    7.17    0.43 
   0   2  15   10.95    0.60 
   1   2  15    0.63    0.20 
   2   2  15    0.10    0.13 
  -4   3  15    5.52    0.45 
  -3   3  15    4.43    0.41 
  -2   3  15    2.57    0.31 
  -1   3  15    0.42    0.16 
   0   3  15    7.38    0.50 
   1   3  15    7.30    0.52 
   2   3  15    0.67    0.20 
  -4   4  15    2.38    0.35 
  -3   4  15    4.64    0.43 
  -2   4  15    4.44    0.41 
  -1   4  15    1.73    0.27 
   0   4  15    1.93    0.31 
   1   4  15    0.52    0.20 
  -2   5  15    4.99    0.45 
  -2  -7  16    0.20    0.18 
  -1  -7  16    2.80    0.38 
   0  -7  16    5.92    0.47 
   0  -7  16    5.73    0.46 
  -3  -6  16    0.24    0.18 
  -2  -6  16    7.81    0.55 
  -1  -6  16    0.08    0.14 
  -1  -6  16   -0.10    0.10 
   0  -6  16    4.44    0.42 
   0  -6  16    5.05    0.42 
   1  -6  16    1.47    0.27 
  -4  -5  16    3.52    0.41 
  -3  -5  16    1.03    0.25 
  -2  -5  16   10.70    0.63 
  -2  -5  16    9.86    0.56 
  -1  -5  16    3.39    0.35 
  -1  -5  16    3.45    0.37 
   0  -5  16    2.62    0.32 
   0  -5  16    3.22    0.35 
   1  -5  16   30.04    1.25 
   2  -5  16   17.13    0.89 
  -4  -4  16    1.09    0.26 
  -3  -4  16    3.61    0.40 
  -2  -4  16    4.43    0.42 
  -1  -4  16    6.50    0.44 
  -1  -4  16    6.92    0.47 
   0  -4  16    0.79    0.20 
   0  -4  16    0.56    0.18 
   1  -4  16    5.25    0.44 
   2  -4  16    1.06    0.24 
  -4  -3  16    9.91    0.62 
  -3  -3  16    2.07    0.31 
  -2  -3  16   11.50    0.63 
  -1  -3  16   10.24    0.56 
  -1  -3  16    9.88    0.55 
   0  -3  16   18.10    0.84 
   0  -3  16   19.32    0.82 
   1  -3  16   -0.01    0.11 
   2  -3  16    3.32    0.40 
  -4  -2  16    1.96    0.31 
  -3  -2  16    5.65    0.43 
  -2  -2  16    2.83    0.32 
  -1  -2  16    2.07    0.27 
  -1  -2  16    1.60    0.25 
   0  -2  16    0.74    0.19 
   1  -2  16   17.90    0.85 
   2  -2  16   14.27    0.80 
  -5  -1  16    0.18    0.18 
  -4  -1  16    3.97    0.42 
  -3  -1  16    2.67    0.33 
  -2  -1  16   27.99    1.10 
  -1  -1  16    0.97    0.20 
  -1  -1  16    1.05    0.21 
   0  -1  16    0.39    0.16 
   1  -1  16    0.16    0.13 
   2  -1  16    0.89    0.24 
  -5   0  16    4.26    0.45 
  -4   0  16    2.55    0.35 
  -3   0  16    0.28    0.16 
  -2   0  16    0.40    0.17 
  -1   0  16   24.02    0.95 
  -1   0  16   23.39    0.96 
   0   0  16   26.25    1.07 
   1   0  16    3.20    0.37 
   2   0  16    2.13    0.34 
  -4   1  16    5.40    0.48 
  -3   1  16    1.77    0.29 
  -2   1  16    2.44    0.31 
  -1   1  16    0.16    0.13 
  -1   1  16    0.06    0.13 
   0   1  16    0.32    0.15 
   1   1  16    7.87    0.52 
   2   1  16   -0.04    0.10 
  -4   2  16    1.87    0.31 
  -3   2  16    1.74    0.29 
  -2   2  16    6.73    0.46 
  -1   2  16    0.58    0.18 
   0   2  16    7.59    0.50 
   1   2  16    2.04    0.32 
  -3   3  16    2.84    0.36 
  -2   3  16    0.21    0.16 
   0   3  16    4.58    0.43 
   1   3  16    7.33    0.53 
  -2  -6  17    0.42    0.20 
  -1  -6  17    5.69    0.44 
  -1  -6  17    5.74    0.47 
   0  -6  17    1.63    0.29 
   0  -6  17    1.41    0.29 
  -3  -5  17    0.83    0.25 
  -2  -5  17    0.11    0.17 
  -1  -5  17    0.22    0.17 
  -1  -5  17    0.02    0.11 
   0  -5  17    0.99    0.22 
   0  -5  17    0.94    0.22 
   1  -5  17   11.41    0.68 
  -3  -4  17    3.67    0.42 
  -2  -4  17    4.98    0.46 
  -1  -4  17    4.35    0.42 
  -1  -4  17    4.19    0.38 
   0  -4  17    1.78    0.28 
   0  -4  17    1.64    0.27 
   1  -4  17    7.95    0.55 
  -4  -3  17    0.02    0.16 
  -3  -3  17    4.19    0.42 
  -2  -3  17    0.31    0.17 
  -1  -3  17   11.20    0.60 
  -1  -3  17   10.69    0.60 
   0  -3  17    2.15    0.31 
   1  -3  17   28.00    1.19 
   2  -3  17    2.60    0.37 
  -4  -2  17    3.01    0.39 
  -3  -2  17    2.18    0.33 
  -2  -2  17    5.58    0.43 
  -1  -2  17    1.10    0.23 
  -1  -2  17    1.28    0.23 
   0  -2  17    0.48    0.17 
   1  -2  17    2.21    0.34 
   2  -2  17    9.06    0.61 
  -4  -1  17    0.03    0.17 
  -3  -1  17    0.66    0.21 
  -2  -1  17    3.59    0.38 
  -1  -1  17   28.47    1.09 
  -1  -1  17   25.74    1.06 
   0  -1  17   -0.06    0.10 
   1  -1  17    0.90    0.22 
  -4   0  17    5.52    0.49 
  -3   0  17    0.88    0.23 
  -2   0  17    0.13    0.16 
  -1   0  17    1.04    0.23 
   0   0  17    6.55    0.47 
   1   0  17    1.69    0.28 
  -4   1  17    0.05    0.16 
  -3   1  17   10.81    0.63 
  -2   1  17    0.41    0.18 
  -1   1  17    2.09    0.29 
   0   1  17    1.13    0.23 
   1   1  17    6.00    0.46 
  -3   2  17    0.76    0.23 
  -2   2  17    3.72    0.38 
   0   2  17   -0.08    0.12 
  -1  -5  18    0.18    0.15 
  -2  -4  18    8.55    0.58 
  -1  -4  18    0.44    0.20 
  -1  -4  18    0.13    0.13 
   0  -4  18    1.55    0.28 
  -3  -3  18    0.43    0.21 
  -2  -3  18    0.62    0.21 
  -1  -3  18    1.27    0.24 
  -1  -3  18    1.61    0.28 
   0  -3  18    0.76    0.22 
  -3  -2  18    9.98    0.63 
  -2  -2  18    3.16    0.38 
  -1  -2  18    1.46    0.26 
  -1  -2  18    1.40    0.26 
   0  -2  18    1.23    0.26 
  -3  -1  18    3.94    0.43 
  -2  -1  18    5.51    0.45 
  -1  -1  18    0.91    0.22 
   0  -1  18    3.19    0.37 
  -3   0  18    2.08    0.33 
  -2   0  18   11.47    0.65 
   0   0  18    0.50    0.19 
  -2   1  18    3.42    0.39 
   0   0   0    0.00    0.00 
;
_shelx_hkl_checksum              18915
loop_
_space_group_symop_operation_xyz
'x, y, z'
'-x, -y, -z'
loop_
_atom_site_label
_atom_site_type_symbol
_atom_site_fract_x
_atom_site_fract_y
_atom_site_fract_z
_atom_site_U_iso_or_equiv
_atom_site_adp_type
_atom_site_occupancy
_atom_site_site_symmetry_order
_atom_site_calc_flag
_atom_site_refinement_flags_posn
_atom_site_refinement_flags_adp
_atom_site_refinement_flags_occupancy
_atom_site_disorder_assembly
_atom_site_disorder_group
Fe1 Fe 0.73365(4) 0.70350(3) 0.82041(2) 0.02832(11) Uani 1 1 d . . . . .
S1 S 0.53045(10) 1.05366(7) 0.82160(4) 0.04412(15) Uani 1 1 d . . . . .
Cl1 Cl -0.17615(11) 1.30127(8) 0.50675(4) 0.05375(17) Uani 1 1 d . . . . .
C1 C 0.9930(4) 0.5908(3) 0.88825(16) 0.0403(5) Uani 1 1 d . . . . .
H1 H 1.1057 0.5326 0.8561 0.048 Uiso 1 1 calc R U . . .
C2 C 1.0259(4) 0.7529(3) 0.92867(15) 0.0409(5) Uani 1 1 d . . . . .
H2 H 1.1651 0.8269 0.9301 0.049 Uiso 1 1 calc R U . . .
C3 C 0.8213(4) 0.7900(3) 0.96691(15) 0.0452(5) Uani 1 1 d . . . . .
H3 H 0.7939 0.8944 0.9996 0.054 Uiso 1 1 calc R U . . .
C4 C 0.6647(4) 0.6504(3) 0.94995(16) 0.0465(5) Uani 1 1 d . . . . .
H4 H 0.5089 0.6408 0.9687 0.056 Uiso 1 1 calc R U . . .
C5 C 0.7706(4) 0.5263(3) 0.90073(16) 0.0441(5) Uani 1 1 d . . . . .
H5 H 0.7020 0.4157 0.8797 0.053 Uiso 1 1 calc R U . . .
C6 C 0.5280(4) 0.6082(3) 0.68750(15) 0.0402(5) Uani 1 1 d . . . . .
H6 H 0.4617 0.4972 0.6665 0.048 Uiso 1 1 calc R U . . .
C7 C 0.7494(4) 0.6738(3) 0.67414(15) 0.0405(5) Uani 1 1 d . . . . .
H7 H 0.8632 0.6160 0.6423 0.049 Uiso 1 1 calc R U . . .
C8 C 0.7815(4) 0.8361(3) 0.71595(15) 0.0370(4) Uani 1 1 d . . . . .
H8 H 0.9197 0.9110 0.7174 0.044 Uiso 1 1 calc R U . . .
C9 C 0.5776(3) 0.8711(2) 0.75619(14) 0.0338(4) Uani 1 1 d . . . . .
C10 C 0.4203(3) 0.7288(3) 0.73788(15) 0.0372(4) Uani 1 1 d . . . . .
H10 H 0.2652 0.7170 0.7570 0.045 Uiso 1 1 calc R U . . .
C11 C 0.3403(3) 1.1271(2) 0.73068(15) 0.0341(4) Uani 1 1 d . . . . .
C12 C 0.3630(4) 1.1034(3) 0.63344(16) 0.0443(5) Uani 1 1 d . . . . .
H12 H 0.4849 1.0495 0.6140 0.053 Uiso 1 1 calc R U . . .
C13 C 0.2068(4) 1.1589(3) 0.56465(16) 0.0460(5) Uani 1 1 d . . . . .
H13 H 0.2228 1.1424 0.4991 0.055 Uiso 1 1 calc R U . . .
C14 C 0.0271(4) 1.2389(2) 0.59417(15) 0.0372(4) Uani 1 1 d . . . . .
C15 C 0.0048(4) 1.2673(3) 0.69015(16) 0.0411(5) Uani 1 1 d . . . . .
H15 H -0.1149 1.3239 0.7093 0.049 Uiso 1 1 calc R U . . .
C16 C 0.1615(4) 1.2114(3) 0.75912(15) 0.0403(5) Uani 1 1 d . . . . .
H16 H 0.1466 1.2304 0.8248 0.048 Uiso 1 1 calc R U . . .
loop_
_atom_site_aniso_label
_atom_site_aniso_U_11
_atom_site_aniso_U_22
_atom_site_aniso_U_33
_atom_site_aniso_U_23
_atom_site_aniso_U_13
_atom_site_aniso_U_12
Fe1 0.02876(16) 0.03007(16) 0.02723(16) 0.00870(11) 0.00324(11) 0.00620(11)
S1 0.0554(3) 0.0422(3) 0.0345(3) 0.0056(2) 0.0008(2) 0.0214(2)
Cl1 0.0574(3) 0.0583(4) 0.0449(3) 0.0158(3) -0.0047(3) 0.0185(3)
C1 0.0402(11) 0.0429(11) 0.0382(11) 0.0104(9) -0.0005(9) 0.0153(9)
C2 0.0387(11) 0.0438(11) 0.0358(11) 0.0049(9) -0.0046(9) 0.0045(9)
C3 0.0591(14) 0.0489(13) 0.0277(10) 0.0045(9) 0.0036(9) 0.0189(11)
C4 0.0457(12) 0.0670(15) 0.0342(11) 0.0242(11) 0.0100(9) 0.0137(11)
C5 0.0533(13) 0.0389(11) 0.0402(11) 0.0199(9) -0.0026(10) 0.0028(10)
C6 0.0462(12) 0.0375(11) 0.0323(10) 0.0064(8) -0.0058(9) 0.0040(9)
C7 0.0491(12) 0.0447(12) 0.0316(10) 0.0107(9) 0.0092(9) 0.0170(9)
C8 0.0398(11) 0.0418(11) 0.0358(10) 0.0177(9) 0.0114(9) 0.0109(9)
C9 0.0370(10) 0.0351(10) 0.0322(10) 0.0119(8) 0.0051(8) 0.0121(8)
C10 0.0307(10) 0.0468(11) 0.0348(10) 0.0146(9) -0.0003(8) 0.0075(8)
C11 0.0387(10) 0.0291(9) 0.0349(10) 0.0076(8) 0.0041(8) 0.0072(8)
C12 0.0479(12) 0.0501(12) 0.0401(11) 0.0109(10) 0.0123(10) 0.0208(10)
C13 0.0544(13) 0.0558(14) 0.0318(11) 0.0102(10) 0.0112(10) 0.0176(11)
C14 0.0411(11) 0.0323(10) 0.0366(11) 0.0096(8) -0.0017(9) 0.0058(8)
C15 0.0458(12) 0.0387(11) 0.0408(11) 0.0066(9) 0.0079(9) 0.0175(9)
C16 0.0511(12) 0.0386(11) 0.0335(10) 0.0058(9) 0.0094(9) 0.0148(9)
loop_
_atom_type_symbol
_atom_type_description
_atom_type_scat_dispersion_real
_atom_type_scat_dispersion_imag
_atom_type_scat_source
C C 0.0033 0.0016 'International Tables Vol C Tables 4.2.6.8 and 6.1.1.4'
H H 0.0000 0.0000 'International Tables Vol C Tables 4.2.6.8 and 6.1.1.4'
S S 0.1246 0.1234 'International Tables Vol C Tables 4.2.6.8 and 6.1.1.4'
Cl Cl 0.1484 0.1585 'International Tables Vol C Tables 4.2.6.8 and 6.1.1.4'
Fe Fe 0.3463 0.8444 'International Tables Vol C Tables 4.2.6.8 and 6.1.1.4'
loop_
_geom_angle_atom_site_label_1
_geom_angle_atom_site_label_2
_geom_angle_atom_site_label_3
_geom_angle
_geom_angle_site_symmetry_1
_geom_angle_site_symmetry_3
C9 Fe1 C10 41.24(8) . .
C9 Fe1 C8 41.12(8) . .
C10 Fe1 C8 68.92(8) . .
C9 Fe1 C3 107.33(9) . .
C10 Fe1 C3 123.07(9) . .
C8 Fe1 C3 123.06(10) . .
C9 Fe1 C4 122.29(9) . .
C10 Fe1 C4 107.20(9) . .
C8 Fe1 C4 158.84(10) . .
C3 Fe1 C4 40.39(10) . .
C9 Fe1 C1 159.55(9) . .
C10 Fe1 C1 158.13(9) . .
C8 Fe1 C1 123.41(9) . .
C3 Fe1 C1 67.95(9) . .
C4 Fe1 C1 67.91(9) . .
C9 Fe1 C5 158.36(9) . .
C10 Fe1 C5 122.04(9) . .
C8 Fe1 C5 159.09(9) . .
C3 Fe1 C5 68.25(9) . .
C4 Fe1 C5 40.68(10) . .
C1 Fe1 C5 40.37(9) . .
C9 Fe1 C2 123.25(9) . .
C10 Fe1 C2 159.74(9) . .
C8 Fe1 C2 107.94(9) . .
C3 Fe1 C2 40.65(9) . .
C4 Fe1 C2 68.08(9) . .
C1 Fe1 C2 40.27(9) . .
C5 Fe1 C2 68.12(9) . .
C9 Fe1 C6 68.61(8) . .
C10 Fe1 C6 40.45(9) . .
C8 Fe1 C6 68.21(9) . .
C3 Fe1 C6 159.14(10) . .
C4 Fe1 C6 123.18(10) . .
C1 Fe1 C6 122.97(9) . .
C5 Fe1 C6 107.54(9) . .
C2 Fe1 C6 158.65(9) . .
C9 Fe1 C7 68.54(8) . .
C10 Fe1 C7 68.19(8) . .
C8 Fe1 C7 40.45(9) . .
C3 Fe1 C7 159.14(10) . .
C4 Fe1 C7 159.19(10) . .
C1 Fe1 C7 108.35(9) . .
C5 Fe1 C7 123.18(9) . .
C2 Fe1 C7 123.25(9) . .
C6 Fe1 C7 40.27(9) . .
C9 S1 C11 101.35(9) . .
C2 C1 C5 108.8(2) . .
C2 C1 Fe1 70.02(12) . .
C5 C1 Fe1 69.88(12) . .
C2 C1 H1 125.6 . .
C5 C1 H1 125.6 . .
Fe1 C1 H1 125.6 . .
C1 C2 C3 107.6(2) . .
C1 C2 Fe1 69.71(12) . .
C3 C2 Fe1 69.46(12) . .
C1 C2 H2 126.2 . .
C3 C2 H2 126.2 . .
Fe1 C2 H2 126.2 . .
C4 C3 C2 108.0(2) . .
C4 C3 Fe1 69.81(12) . .
C2 C3 Fe1 69.89(12) . .
C4 C3 H3 126.0 . .
C2 C3 H3 126.0 . .
Fe1 C3 H3 126.0 . .
C3 C4 C5 108.2(2) . .
C3 C4 Fe1 69.80(12) . .
C5 C4 Fe1 69.79(12) . .
C3 C4 H4 125.9 . .
C5 C4 H4 125.9 . .
Fe1 C4 H4 125.9 . .
C1 C5 C4 107.4(2) . .
C1 C5 Fe1 69.74(12) . .
C4 C5 Fe1 69.53(12) . .
C1 C5 H5 126.3 . .
C4 C5 H5 126.3 . .
Fe1 C5 H5 126.3 . .
C7 C6 C10 108.37(19) . .
C7 C6 Fe1 69.89(12) . .
C10 C6 Fe1 69.16(11) . .
C7 C6 H6 125.8 . .
C10 C6 H6 125.8 . .
Fe1 C6 H6 125.8 . .
C6 C7 C8 108.48(18) . .
C6 C7 Fe1 69.84(12) . .
C8 C7 Fe1 69.33(12) . .
C6 C7 H7 125.8 . .
C8 C7 H7 125.8 . .
Fe1 C7 H7 125.8 . .
C7 C8 C9 107.66(19) . .
C7 C8 Fe1 70.22(12) . .
C9 C8 Fe1 68.72(11) . .
C7 C8 H8 126.2 . .
C9 C8 H8 126.2 . .
Fe1 C8 H8 126.2 . .
C8 C9 C10 107.75(18) . .
C8 C9 S1 126.71(16) . .
C10 C9 S1 125.49(16) . .
C8 C9 Fe1 70.16(11) . .
C10 C9 Fe1 69.91(11) . .
S1 C9 Fe1 123.33(11) . .
C6 C10 C9 107.75(18) . .
C6 C10 Fe1 70.38(11) . .
C9 C10 Fe1 68.85(11) . .
C6 C10 H10 126.1 . .
C9 C10 H10 126.1 . .
Fe1 C10 H10 126.1 . .
C12 C11 C16 119.0(2) . .
C12 C11 S1 122.69(16) . .
C16 C11 S1 118.30(16) . .
C11 C12 C13 120.7(2) . .
C11 C12 H12 119.6 . .
C13 C12 H12 119.6 . .
C14 C13 C12 119.2(2) . .
C14 C13 H13 120.4 . .
C12 C13 H13 120.4 . .
C15 C14 C13 121.07(19) . .
C15 C14 Cl1 119.80(16) . .
C13 C14 Cl1 119.12(17) . .
C14 C15 C16 119.60(19) . .
C14 C15 H15 120.2 . .
C16 C15 H15 120.2 . .
C15 C16 C11 120.29(19) . .
C15 C16 H16 119.9 . .
C11 C16 H16 119.9 . .
loop_
_geom_bond_atom_site_label_1
_geom_bond_atom_site_label_2
_geom_bond_distance
_geom_bond_site_symmetry_2
Fe1 C9 2.0167(19) .
Fe1 C10 2.0308(19) .
Fe1 C8 2.036(2) .
Fe1 C3 2.037(2) .
Fe1 C4 2.037(2) .
Fe1 C1 2.039(2) .
Fe1 C5 2.041(2) .
Fe1 C2 2.043(2) .
Fe1 C6 2.047(2) .
Fe1 C7 2.047(2) .
S1 C9 1.756(2) .
S1 C11 1.773(2) .
Cl1 C14 1.736(2) .
C1 C2 1.405(3) .
C1 C5 1.408(3) .
C1 H1 0.9800 .
C2 C3 1.417(3) .
C2 H2 0.9800 .
C3 C4 1.407(4) .
C3 H3 0.9800 .
C4 C5 1.417(3) .
C4 H4 0.9800 .
C5 H5 0.9800 .
C6 C7 1.409(3) .
C6 C10 1.410(3) .
C6 H6 0.9800 .
C7 C8 1.412(3) .
C7 H7 0.9800 .
C8 C9 1.423(3) .
C8 H8 0.9800 .
C9 C10 1.426(3) .
C10 H10 0.9800 .
C11 C12 1.378(3) .
C11 C16 1.387(3) .
C12 C13 1.380(3) .
C12 H12 0.9300 .
C13 C14 1.377(3) .
C13 H13 0.9300 .
C14 C15 1.361(3) .
C15 C16 1.385(3) .
C15 H15 0.9300 .
C16 H16 0.9300 .
loop_
_geom_torsion_atom_site_label_1
_geom_torsion_atom_site_label_2
_geom_torsion_atom_site_label_3
_geom_torsion_atom_site_label_4
_geom_torsion
_geom_torsion_site_symmetry_1
_geom_torsion_site_symmetry_2
_geom_torsion_site_symmetry_3
_geom_torsion_site_symmetry_4
C5 C1 C2 C3 0.0(2) . . . .
Fe1 C1 C2 C3 59.34(15) . . . .
C5 C1 C2 Fe1 -59.32(15) . . . .
C1 C2 C3 C4 0.2(2) . . . .
Fe1 C2 C3 C4 59.66(15) . . . .
C1 C2 C3 Fe1 -59.49(15) . . . .
C2 C3 C4 C5 -0.3(2) . . . .
Fe1 C3 C4 C5 59.43(15) . . . .
C2 C3 C4 Fe1 -59.71(15) . . . .
C2 C1 C5 C4 -0.2(2) . . . .
Fe1 C1 C5 C4 -59.59(14) . . . .
C2 C1 C5 Fe1 59.40(15) . . . .
C3 C4 C5 C1 0.3(2) . . . .
Fe1 C4 C5 C1 59.73(14) . . . .
C3 C4 C5 Fe1 -59.44(15) . . . .
C10 C6 C7 C8 -0.1(2) . . . .
Fe1 C6 C7 C8 -58.72(14) . . . .
C10 C6 C7 Fe1 58.62(14) . . . .
C6 C7 C8 C9 0.3(2) . . . .
Fe1 C7 C8 C9 -58.72(14) . . . .
C6 C7 C8 Fe1 59.03(14) . . . .
C7 C8 C9 C10 -0.4(2) . . . .
Fe1 C8 C9 C10 -60.07(14) . . . .
C7 C8 C9 S1 177.02(15) . . . .
Fe1 C8 C9 S1 117.36(16) . . . .
C7 C8 C9 Fe1 59.66(14) . . . .
C11 S1 C9 C8 102.08(18) . . . .
C11 S1 C9 C10 -80.94(19) . . . .
C11 S1 C9 Fe1 -168.87(12) . . . .
C7 C6 C10 C9 -0.2(2) . . . .
Fe1 C6 C10 C9 58.92(13) . . . .
C7 C6 C10 Fe1 -59.07(14) . . . .
C8 C9 C10 C6 0.3(2) . . . .
S1 C9 C10 C6 -177.12(15) . . . .
Fe1 C9 C10 C6 -59.88(14) . . . .
C8 C9 C10 Fe1 60.23(13) . . . .
S1 C9 C10 Fe1 -117.24(16) . . . .
C9 S1 C11 C12 -36.7(2) . . . .
C9 S1 C11 C16 143.12(17) . . . .
C16 C11 C12 C13 -1.7(4) . . . .
S1 C11 C12 C13 178.12(18) . . . .
C11 C12 C13 C14 0.1(4) . . . .
C12 C13 C14 C15 1.6(4) . . . .
C12 C13 C14 Cl1 -177.38(19) . . . .
C13 C14 C15 C16 -1.7(3) . . . .
Cl1 C14 C15 C16 177.27(17) . . . .
C14 C15 C16 C11 0.1(3) . . . .
C12 C11 C16 C15 1.6(3) . . . .
S1 C11 C16 C15 -178.24(17) . . . .
