#------------------------------------------------------------------------------
#$Date: 2015-08-31 10:42:51 +0300 (Mon, 31 Aug 2015) $
#$Revision: 153815 $
#$URL: svn://www.crystallography.net/cod/cif/7/11/76/7117697.cif $
#------------------------------------------------------------------------------
#
# This file is available in the Crystallography Open Database (COD),
# http://www.crystallography.net/
#
# All data on this site have been placed in the public domain by the
# contributors.
#
data_7117697
loop_
_publ_author_name
'Te-Fang Yang'
'Sheng-Han Huang'
'Yi-Pang Chiu'
'Bo-Hsiang Chen'
'Yu-Wei Shih'
'Yu-Chang Chang'
'Jie-Yi Yao'
'Yao-Jen Lee'
'Ming-Yu Kuo'
_publ_section_title
;
 Pyromellitic dithioimides: thionation improves air-stability and electron
 mobility of N-type organic field-effect transistors
;
_journal_name_full               Chem.Commun.
_journal_page_first              13772
_journal_paper_doi               10.1039/C5cc04674B
_journal_volume                  51
_journal_year                    2015
_chemical_formula_sum            'C26 H36 N2 S4'
_chemical_formula_weight         504.81
_chemical_name_systematic        PyDTI-C8
_space_group_crystal_system      triclinic
_space_group_IT_number           2
_space_group_name_Hall           '-P 1'
_space_group_name_H-M_alt        'P -1'
_symmetry_space_group_name_Hall  '-P 1'
_symmetry_space_group_name_H-M   'P -1'
_atom_sites_solution_hydrogens   geom
_audit_creation_method           SHELXL-2014/6
_audit_update_record
;
2015-06-06 deposited with the CCDC.
2015-07-21 downloaded from the CCDC.
;
_cell_angle_alpha                81.405(2)
_cell_angle_beta                 86.591(2)
_cell_angle_gamma                82.721(2)
_cell_formula_units_Z            1
_cell_length_a                   4.5302(2)
_cell_length_b                   10.3934(5)
_cell_length_c                   14.1186(6)
_cell_measurement_reflns_used    4100
_cell_measurement_temperature    100(2)
_cell_measurement_theta_max      26.0013
_cell_measurement_theta_min      2.6368
_cell_volume                     651.44(5)
_computing_cell_refinement       'SAINT V8.34A (Bruker AXS Inc., 2013)'
_computing_data_collection       'APEX2 (Bruker AXS, 2010)'
_computing_data_reduction        'SAINT V8.34A (Bruker AXS Inc., 2013)'
_computing_molecular_graphics    'SHELXTL (Sheldrick, 2008)'
_computing_publication_material  SHELXTL
_computing_structure_refinement  'SHELXL-2014/6 (Sheldrick, 2014)'
_diffrn_ambient_temperature      100(2)
_diffrn_detector_area_resol_mean 8.3333
_diffrn_measured_fraction_theta_full 0.999
_diffrn_measured_fraction_theta_max 0.998
_diffrn_measurement_device_type  'Bruker APEX-II CCD'
_diffrn_measurement_method       '\f and \w scans'
_diffrn_radiation_type           MoK\a
_diffrn_radiation_wavelength     0.71073
_diffrn_reflns_av_R_equivalents  0.0443
_diffrn_reflns_av_unetI/netI     0.0401
_diffrn_reflns_laue_measured_fraction_full 0.999
_diffrn_reflns_laue_measured_fraction_max 0.998
_diffrn_reflns_limit_h_max       5
_diffrn_reflns_limit_h_min       -5
_diffrn_reflns_limit_k_max       12
_diffrn_reflns_limit_k_min       -12
_diffrn_reflns_limit_l_max       17
_diffrn_reflns_limit_l_min       0
_diffrn_reflns_number            2650
_diffrn_reflns_point_group_measured_fraction_full 0.999
_diffrn_reflns_point_group_measured_fraction_max 0.998
_diffrn_reflns_theta_full        25.242
_diffrn_reflns_theta_max         26.348
_diffrn_reflns_theta_min         1.996
_exptl_absorpt_coefficient_mu    0.382
_exptl_absorpt_correction_T_max  0.9485
_exptl_absorpt_correction_T_min  0.7810
_exptl_absorpt_correction_type   multi-scan
_exptl_absorpt_process_details   'SADABS V2014/4 (Bruker AXS Inc.)'
_exptl_crystal_colour            'Dark Red'
_exptl_crystal_density_diffrn    1.287
_exptl_crystal_density_meas      ?
_exptl_crystal_density_method    'not measured'
_exptl_crystal_description       Columnar
_exptl_crystal_F_000             270
_exptl_crystal_recrystallization_method 'solvent diffusion'
_exptl_crystal_size_max          0.20
_exptl_crystal_size_mid          0.05
_exptl_crystal_size_min          0.05
_refine_diff_density_max         0.275
_refine_diff_density_min         -0.221
_refine_diff_density_rms         0.052
_refine_ls_extinction_coef       .
_refine_ls_extinction_method     none
_refine_ls_goodness_of_fit_ref   1.047
_refine_ls_hydrogen_treatment    constr
_refine_ls_matrix_type           full
_refine_ls_number_parameters     147
_refine_ls_number_reflns         2650
_refine_ls_number_restraints     0
_refine_ls_restrained_S_all      1.047
_refine_ls_R_factor_all          0.0409
_refine_ls_R_factor_gt           0.0339
_refine_ls_shift/su_max          0.001
_refine_ls_shift/su_mean         0.000
_refine_ls_structure_factor_coef Fsqd
_refine_ls_weighting_details
'w=1/[\s^2^(Fo^2^)+(0.0273P)^2^+0.1606P] where P=(Fo^2^+2Fc^2^)/3'
_refine_ls_weighting_scheme      calc
_refine_ls_wR_factor_gt          0.0755
_refine_ls_wR_factor_ref         0.0785
_reflns_Friedel_coverage         0.000
_reflns_friedel_fraction_full    .
_reflns_friedel_fraction_max     .
_reflns_number_gt                2279
_reflns_number_total             2650
_reflns_threshold_expression     'I > 2\s(I)'
_cod_data_source_file            c5cc04674b2.cif
_cod_data_source_block           twin5
_cod_depositor_comments
;
The following automatic conversions were performed:

'_exptl_crystal_density_meas' value 'not measured' was changed to '?'
- the value is perceived as not measured.

Automatic conversion script
Id: cif_fix_values 3392 2015-05-12 13:50:21Z andrius 
;
_cod_database_code               7117697
_shelx_space_group_comment
;
The symmetry employed for this shelxl refinement is uniquely defined
by the following loop, which should always be used as a source of
symmetry information in preference to the above space-group names.
They are only intended as comments.
;
_shelxl_version_number           2014/6
_shelx_res_file
;
TITL twin4_a.res in P-1
CELL  0.71073   4.5302  10.3934  14.1186   81.405   86.591   82.721
ZERR    1.000   0.0002   0.0005   0.0006    0.002    0.002    0.002
LATT 1
SFAC C  N  H  S
UNIT 26  2  36  4
MERG 0
L.S. 4
ACTA
BOND $H
FMAP 2
PLAN 5
TEMP -173.000
WGHT    0.027300    0.160600
BASF   0.42748
FVAR       1.30132
C1    1    1.188002   -0.013090    0.422142    11.00000    0.01858    0.01631 =
         0.01493   -0.00429   -0.00356   -0.00642
C2    1    0.984106    0.098548    0.416137    11.00000    0.02060    0.01402 =
         0.01561   -0.00160   -0.00387   -0.00554
AFIX  43
H2    3    0.973210    0.163297    0.360916    11.00000   -1.20000
AFIX   0
C3    1    0.797285    0.108900    0.496497    11.00000    0.01834    0.01306 =
         0.01804   -0.00472   -0.00516   -0.00429
C4    1    0.559407    0.213010    0.514822    11.00000    0.01933    0.01709 =
         0.01777   -0.00626   -0.00410   -0.00414
C5    1    0.211569    0.256472    0.654837    11.00000    0.01818    0.02016 =
         0.02374   -0.00845    0.00064    0.00013
AFIX  23
H5A   3    0.090078    0.200117    0.699946    11.00000   -1.20000
H5B   3    0.077953    0.309921    0.607131    11.00000   -1.20000
AFIX   0
C6    1    0.353779    0.346009    0.709416    11.00000    0.01941    0.01900 =
         0.02069   -0.00600   -0.00204   -0.00148
AFIX  23
H6A   3    0.488872    0.396240    0.664843    11.00000   -1.20000
H6B   3    0.475753    0.291716    0.759938    11.00000   -1.20000
AFIX   0
C7    1    0.128519    0.441562    0.755609    11.00000    0.01808    0.01972 =
         0.02250   -0.00659   -0.00131   -0.00136
AFIX  23
H7A   3    0.016619    0.500574    0.704833    11.00000   -1.20000
H7B   3   -0.015590    0.391961    0.796755    11.00000   -1.20000
AFIX   0
C8    1    0.274538    0.523358    0.815702    11.00000    0.01914    0.02019 =
         0.01998   -0.00568   -0.00048   -0.00270
AFIX  23
H8A   3    0.409330    0.576632    0.773365    11.00000   -1.20000
H8B   3    0.397980    0.463669    0.863228    11.00000   -1.20000
AFIX   0
C9    1    0.056760    0.614287    0.868551    11.00000    0.01921    0.01994 =
         0.02115   -0.00504   -0.00035   -0.00245
AFIX  23
H9A   3   -0.060245    0.677180    0.821130    11.00000   -1.20000
H9B   3   -0.083816    0.561898    0.909020    11.00000   -1.20000
AFIX   0
C10   1    0.209579    0.689948    0.931292    11.00000    0.01962    0.01887 =
         0.02150   -0.00498   -0.00083   -0.00359
AFIX  23
H10A  3    0.341604    0.745892    0.890070    11.00000   -1.20000
H10B  3    0.336392    0.626859    0.975858    11.00000   -1.20000
AFIX   0
C11   1   -0.003563    0.775832    0.989398    11.00000    0.02388    0.02160 =
         0.02460   -0.00788   -0.00202    0.00093
AFIX  23
H11A  3   -0.140223    0.720673    1.029208    11.00000   -1.20000
H11B  3   -0.125345    0.841381    0.944973    11.00000   -1.20000
AFIX   0
C12   1    0.154964    0.846789    1.054152    11.00000    0.03227    0.02551 =
         0.02625   -0.01091   -0.00386    0.00040
AFIX 137
H12A  3    0.282816    0.782713    1.096468    11.00000   -1.50000
H12B  3    0.007253    0.895833    1.092908    11.00000   -1.50000
H12C  3    0.277054    0.907579    1.014839    11.00000   -1.50000
AFIX   0
C13   1    0.584113    0.055617    0.649147    11.00000    0.01798    0.01641 =
         0.02067   -0.00631   -0.00399   -0.00389
S1    4    0.453763    0.348226    0.444481    11.00000    0.03112    0.01763 =
         0.02594   -0.00005   -0.00267    0.00251
S2    4    0.512711   -0.018580    0.756433    11.00000    0.03191    0.02532 =
         0.01851   -0.00146    0.00401   -0.00245
N1    2    0.439600    0.174164    0.605848    11.00000    0.01830    0.01613 =
         0.01841   -0.00511   -0.00165   -0.00165
HKLF 5

REM  twin4_a.res in P-1
REM R1 =  0.0339 for    2279 Fo > 4sig(Fo)  and  0.0409 for all    2650 data
REM    147 parameters refined using      0 restraints

END

WGHT      0.0273      0.1606

REM Highest difference peak  0.275,  deepest hole -0.221,  1-sigma level  0.052
Q1    1   1.3031 -0.0224  0.3852  11.00000  0.05    0.28
Q2    1   0.8167  0.0547  0.5332  11.00000  0.05    0.26
Q3    1   0.4873  0.2006  0.5564  11.00000  0.05    0.26
Q4    1   0.4308  0.2574  0.4828  11.00000  0.05    0.25
Q5    1   0.2471  0.3899  0.7414  11.00000  0.05    0.24
;
_shelx_res_checksum              15401
_shelx_hkl_file
;
   1   0   0 1004.07 19.0166   1
   2   0   0 1577.56 43.4974   1
   3   0   0 704.287 13.1678   1
   4   0   0 264.546 5.56670   1
   5   0   0 26.1716 3.00573   1
   5   4   2 42.4134 4.12107  -2
  -5   1   0 42.4134 4.12107   1
  -4   1   0 9.26179 1.09983   1
  -3   1   0 19.4137 1.35889   1
  -2   1   0 1.10398 0.39721   1
  -1   1   0 279.296 4.21777   1
   0   1   0 744.452 11.2261  -2
   0   1   0 744.452 11.2261   1
   1   1   0 157.716 6.16447   1
   2   1   0 813.243 24.9367   1
   3   1   0 625.832 21.5766   1
   4   1   0 189.792 10.1084   1
   5   5   2 110.244 8.41538  -2
  -5   2   0 110.244 8.41538   1
  -4   2   0 183.192 7.30429   1
  -3   2   0 309.424 7.74621   1
  -2   2   0 75.2438 2.51536   1
  -1   2   0 1120.96 14.4673   1
   0   2   0 48.9853 1.49100  -2
   0   2   0 48.9853 1.49100   1
   1   2   0 205.627 4.27658   1
   2   2   0 -0.2549 0.28662   1
   3   2   0 3.56916 1.95493   1
   4   2   0 50.5624 6.61615   1
   5   6   2 27.2402 5.90690  -2
  -5   3   0 27.2402 5.90690   1
  -4   3   0 34.7377 3.92662   1
  -3   3   0 102.186 4.83425   1
  -2   3   0 113.098 3.48304   1
  -1   3   0 2684.73 43.8569   1
   0   3   0 1866.27 31.5077  -2
   0   3   0 1866.27 31.5077   1
   1   3   0 750.578 17.3282   1
   2   3   0 774.743 14.4809   1
   3   3   0 502.306 10.1363   1
   4   3   0 113.903 3.46963   1
   5   0   2 254.284 9.53062  -2
   5   3   0 254.284 9.53062   1
   5   7   2 41.5650 7.57902  -2
  -5   4   0 41.5650 7.57902   1
  -4   4   0 81.3107 6.43123   1
  -3   4   0 8.97173 2.20211   1
  -2   4   0 216.587 6.45262   1
  -1   4   0 126.794 3.97631   1
   0   4   0 0.13660 0.99567  -2
   0   4   0 0.13660 0.99567   1
   1   4   0 29.5705 1.95515   1
   2   4   0 34.1441 2.55788   1
   3  -2   1 147.169 7.48318  -2
   3   4   0 147.169 7.48318   1
   4   4   0 48.1245 2.85683   1
   5  -1   2 93.7379 5.10360  -2
   5   4   0 93.7379 5.10360   1
  -4   5   0 70.2468 6.25242   1
  -3   5   0 401.892 12.8672   1
  -2   5   0 2333.00 33.4881   1
  -1   5   0 401.868 9.40858   1
   0   5   0 454.100 10.5177  -2
   0   5   0 454.100 10.5177   1
   1   5   0 250.429 7.12092   1
   2   5   0 22.3786 1.85518   1
   3   5   0 2.14143 0.98578   1
   4   5   0 16.4788 3.08525   1
   5  -2   2 4.22242 2.96706  -2
   5   5   0 4.22242 2.96706   1
  -4   6   0 -1.0529 1.41269   1
   3   8   1 349.302 17.3403  -2
  -3   6   0 349.302 17.3403   1
  -2   6   0 53.8160 2.28460   1
  -1   6   0 752.282 15.7500   1
   0   6   0 1321.08 25.2279  -2
   0   6   0 1321.08 25.2279   1
   1   6   0 1531.84 28.8325   1
   2   6   0 237.330 6.12451   1
   3   6   0 115.921 7.49687   1
   4   6   0 66.8338 6.45197   1
   5  -3   2 145.711 8.18378  -2
   5   6   0 145.711 8.18378   1
  -4   7   0 4.87314 3.48204   1
   3   9   1 224.791 13.2267  -2
  -3   7   0 224.791 13.2267   1
  -2   7   0 200.107 5.96747   1
  -1   7   0 95.9582 4.62033   1
   0   7   0 104.598 4.99217  -2
   0   7   0 104.598 4.99217   1
   1   7   0 115.052 5.80193   1
   2   7   0 60.3587 6.12970   1
   3   7   0 773.018 23.0195   1
   4   7   0 1.62410 2.10528   1
   5  -4   2 58.0147 8.37062  -2
   5   7   0 58.0147 8.37062   1
   3  10   1 124.325 11.0680  -2
  -3   8   0 124.325 11.0680   1
  -2   8   0 27.6157 6.00685   1
  -1   8   0 10.2983 1.96318   1
   0   8   0 188.668 7.16757  -2
   0   8   0 188.668 7.16757   1
   1   8   0 5.91939 1.79412   1
   2   8   0 2.02424 1.74724   1
   3   8   0 8.23732 2.99356   1
   4   8   0 56.4078 6.96439   1
  -3   9   0 5.99268 3.85068   1
  -2   9   0 4.41895 2.95116   1
  -1   9   0 4.55428 1.77895   1
   0   9   0 591.245 15.3544  -2
   0   9   0 591.245 15.3544   1
   1   9   0 84.3847 6.21013   1
   2   9   0 217.612 11.5289   1
   3   9   0 153.416 11.6625   1
   4   9   0 176.510 18.4203   1
  -2  10   0 8.36052 4.25526   1
  -1  10   0 91.9897 6.24646   1
   0  10   0 49.0556 4.32028  -2
   0  10   0 49.0556 4.32028   1
   1  10   0 127.433 7.39179   1
   2  10   0 -1.0534 2.21470   1
   3  10   0 -1.2536 3.78968   1
   4  10   0 -2.2072 3.53065   1
  -2  11   0 36.0751 7.78918   1
  -1  11   0 312.741 19.5850   1
   0  11   0 133.776 7.58138  -2
   0  11   0 133.776 7.58138   1
   1  11   0 68.0076 8.22664   1
   2  11   0 12.0292 6.49012   1
   3  11   0 8.32348 6.53361   1
  -1  12   0 19.1151 6.54011   1
   0  12   0 45.9559 4.99964  -2
   0  12   0 45.9559 4.99964   1
   1  12   0 196.871 23.6050   1
   2  12   0 54.0374 12.4540   1
  -2 -12   1 2.91486 5.23515   1
  -1 -12   1 204.552 24.2288   1
   0 -12   1 6.79234 3.33172  -2
   0 -12   1 6.79234 3.33172   1
   1 -12   1 24.8206 7.12435   1
  -3 -11   1 48.6891 11.0891   1
  -2 -11   1 30.2686 9.24859   1
  -1 -11   1 208.670 12.4343   1
   0 -11   1 17.8845 3.28204  -2
   0 -11   1 17.8845 3.28204   1
   1 -11   1 19.2834 5.81907   1
   2 -11   1 5.98208 4.21631   1
  -3 -10   1 179.186 20.0139   1
  -2 -10   1 247.822 13.1024   1
  -1 -10   1 648.231 22.1537   1
   0 -10   1 284.129 10.1538  -2
   0 -10   1 284.129 10.1538   1
   1 -10   1 395.272 12.0541   1
   2 -10   1 178.830 14.3964   1
  -4  -9   1 0.78683 3.62148   1
  -3  -9   1 23.4935 4.84054   1
  -2  -9   1 20.3594 3.98507   1
  -1  -9   1 79.7289 5.91229   1
   0  -9   1 12.0263 2.45521  -2
   0  -9   1 12.0263 2.45521   1
   1  -9   1 146.485 6.58779   1
   2  -9   1 211.843 14.7299   1
   3  -9   1 28.5523 6.54518   1
  -4  -8   1 20.9759 5.07663   1
  -3  -8   1 16.5188 3.96895   1
  -2  -8   1 572.787 19.2912   1
  -1  -8   1 83.1127 5.75945   1
   0  -8   1 9.18096 2.08462  -2
   0  -8   1 9.18096 2.08462   1
   1  -8   1 67.8328 4.80801   1
   2  -8   1 11.5610 4.10792   1
   3  10   0 20.6082 6.12988  -2
   3  -8   1 20.6082 6.12988   1
   5  -4   3 40.0237 7.29450  -2
  -5  -7   1 40.0237 7.29450   1
  -4  -7   1 72.6589 7.14552   1
  -3  -7   1 364.195 14.0845   1
  -2  -7   1 62.5655 6.13764   1
  -1  -7   1 460.027 12.0803   1
   0  -7   1 679.070 15.5673  -2
   0  -7   1 679.070 15.5673   1
   1  -7   1 1059.99 21.3952   1
   2  -7   1 149.258 5.00950   1
   3   9   0 255.614 14.5127  -2
   3  -7   1 255.614 14.5127   1
   4  -7   1 80.1192 10.2901   1
   5  -3   3 5.75309 3.77317  -2
  -5  -6   1 5.75309 3.77317   1
  -4  -6   1 -0.1327 1.68177   1
  -3  -6   1 2.47885 1.90097   1
  -2  -6   1 32.2704 2.49508   1
  -1  -6   1 141.471 5.48456   1
   0  -6   1 9.15755 1.71184  -2
   0  -6   1 9.15755 1.71184   1
   1  -6   1 103.137 4.43544   1
   2  -6   1 78.5197 2.87122   1
   3   8   0 184.222 11.9734  -2
   3  -6   1 184.222 11.9734   1
   4  -6   1 22.7477 4.03563   1
   5  -2   3 107.745 6.22840  -2
  -5  -5   1 107.745 6.22840   1
  -4  -5   1 207.497 9.03153   1
  -3  -5   1 108.934 4.67396   1
  -2  -5   1 330.064 7.10387   1
  -1  -5   1 0.15492 0.79616   1
   0  -5   1 -0.2312 1.10213  -2
   0  -5   1 -0.2312 1.10213   1
   1  -5   1 80.3589 3.49072   1
   2  -5   1 1.67774 0.47085   1
   3  -5   1 821.357 21.2963   1
   4  -5   1 9.96860 2.53923   1
  -5  -4   1 -0.0791 1.75083   1
  -4  -4   1 75.5158 3.41135   1
  -3  -4   1 3.01802 1.02248   1
  -2  -4   1 322.207 7.95401   1
  -1  -4   1 390.561 7.66902   1
   0  -4   1 1543.79 27.1931  -2
   0  -4   1 1543.79 27.1931   1
   1  -4   1 170.187 4.76385   1
   2  -4   1 1019.39 14.4890   1
   3  -4   1 379.157 11.9443   1
   4  -4   1 150.279 8.06302   1
   5   7   1 69.4178 9.08724  -2
   5  -4   1 69.4178 9.08724   1
  -4  -3   1 23.1338 1.67873   1
  -3  -3   1 311.147 7.01010   1
  -2  -3   1 103.847 3.41192   1
  -1  -3   1 9.87790 1.29037   1
   0  -3   1 69.9539 2.29848  -2
   0  -3   1 69.9539 2.29848   1
   1  -3   1 59.6491 1.80426   1
   2  -3   1 160.088 3.36537   1
   3  -3   1 97.0327 4.71469   1
   4  -3   1 178.838 7.74974   1
   5   6   1 123.779 10.2287  -2
   5  -3   1 123.779 10.2287   1
  -4  -2   1 3.30912 2.22301   1
  -3  -2   1 13.0488 3.23729   1
  -2  -2   1 41.7775 1.47510   1
  -1  -2   1 1426.45 20.7440   1
   0  -2   1 196.408 3.22835  -2
   0  -2   1 196.408 3.22835   1
   1  -2   1 123.016 2.13074   1
   2  -2   1 31.0632 1.11709   1
   3  -2   1 21.0756 2.20408   1
   4  -2   1 1.55108 1.11535   1
   5   5   1 1.47949 2.94620  -2
   5  -2   1 1.47949 2.94620   1
  -4  -1   1 13.8428 3.09010   1
  -3  -1   1 50.6496 5.33107   1
  -2  -1   1 188.230 6.08809   1
  -1  -1   1 1761.96 21.4894   1
   0  -1   1 2520.06 31.7642  -2
   0  -1   1 2520.06 31.7642   1
   1  -1   1 3709.26 44.0635   1
   2  -1   1 438.954 7.64780   1
   3  -1   1 108.387 3.72635   1
   4  -1   1 164.232 4.82971   1
   5   4   1 160.075 7.59220  -2
   5  -1   1 160.075 7.59220   1
  -5   0   1 4.65457 1.35684   1
  -4   0   1 155.389 3.77701   1
  -3   0   1 407.423 10.8502   1
  -2   0   1 739.836 15.8336   1
  -1   0   1 747.037 10.3929   1
   1   0   1 6367.61 78.3921   1
   2   0   1 129.222 2.89134   1
   3   0   1 101.118 3.24947   1
   4   0   1 40.0754 2.12781   1
   5   3   1 66.3587 5.43655  -2
   5   0   1 66.3587 5.43655   1
   5   4   3 115.971 6.14787  -2
  -5   1   1 115.971 6.14787   1
  -4   1   1 2.44605 0.67619   1
  -3   1   1 29.6356 1.47358   1
  -2   1   1 15.3775 0.88940   1
  -1   1   1 166.466 2.30882   1
   0   1   1 358.866 5.87935  -2
   0   1   1 358.866 5.87935   1
   1   1   1 1133.45 22.9964   1
   2   1   1 22.8420 3.55706   1
   3   1   1 5.28432 0.68442   1
   4   1   1 161.937 4.33865   1
   5   1   1 1.08477 0.99516   1
   5   5   3 52.9602 6.03852  -2
  -5   2   1 52.9602 6.03852   1
  -4   2   1 174.941 7.10238   1
  -3   2   1 8.26088 1.34395   1
  -2   2   1 1.11642 0.59116   1
  -1   2   1 100.556 3.02490   1
   0   2   1 62.3119 1.98888  -2
   0   2   1 62.3119 1.98888   1
   1   2   1 4260.47 71.5433   1
   2   2   1 535.120 9.80632   1
   3   2   1 294.460 6.92568   1
   4   2   1 315.329 6.89533   1
   5   1   1 202.432 8.65841  -2
   5   2   1 202.432 8.65841   1
   5   6   3 57.1920 7.00999  -2
  -5   3   1 57.1920 7.00999   1
  -4   3   1 366.784 12.0368   1
  -3   3   1 49.1337 3.26306   1
  -2   3   1 83.4527 2.92097   1
  -1   3   1 691.306 11.3874   1
   0   3   1 1858.60 39.8212  -2
   0   3   1 1858.60 39.8212   1
   1   3   1 43.4740 1.96682   1
   2   3   1 114.670 3.98752   1
   3   3   1 72.1447 2.99407   1
   4   3   1 4.86805 0.95865   1
   5   0   1 58.0252 4.95502  -2
   5   3   1 58.0252 4.95502   1
   5   7   3 30.4116 6.95097  -2
  -5   4   1 30.4116 6.95097   1
  -4   4   1 67.9878 5.83520   1
  -3   4   1 340.552 11.0228   1
  -2   4   1 15.4696 1.69698   1
  -1   4   1 127.595 4.02537   1
   0   4   1 1.97505 1.45222  -2
   0   4   1 1.97505 1.45222   1
   1   4   1 42.2819 2.40633   1
   2   4   1 0.30635 0.45223   1
   3   4   1 91.4879 4.06727   1
   4   4   1 1.45031 0.89979   1
   5  -1   1 146.100 6.86489  -2
   5   4   1 146.100 6.86489   1
  -4   5   1 193.451 9.06502   1
  -3   5   1 214.153 8.68492   1
  -2   5   1 36.4054 3.07161   1
  -1   5   1 1964.37 34.3244   1
   0   5   1 7.64465 2.05979  -2
   0   5   1 7.64465 2.05979   1
   1   5   1 98.0611 4.91211   1
   2   5   1 206.198 5.67295   1
   3   5   1 34.7825 3.01984   1
   4   5   1 157.934 7.69347   1
   5  -2   1 8.89367 3.25003  -2
   5   5   1 8.89367 3.25003   1
  -4   6   1 92.4815 7.68335   1
   3   8   2 180.524 11.7368  -2
  -3   6   1 180.524 11.7368   1
  -2   6   1 303.187 6.40285   1
  -1   6   1 489.059 11.4463   1
   0   6   1 430.488 10.7782  -2
   0   6   1 430.488 10.7782   1
   1   6   1 230.204 8.83711   1
   2   6   1 1288.90 24.6041   1
   3   6   1 189.208 8.96286   1
   4   6   1 18.8963 3.70535   1
   5  -3   1 123.364 7.55654  -2
   5   6   1 123.364 7.55654   1
  -4   7   1 -1.2512 1.87284   1
   3   9   2 44.6550 6.80126  -2
  -3   7   1 44.6550 6.80126   1
  -2   7   1 119.477 4.30249   1
  -1   7   1 145.935 5.69633   1
   0   7   1 247.551 8.08593  -2
   0   7   1 247.551 8.08593   1
   1   7   1 5.52925 1.57292   1
   2   7   1 85.4622 4.75760   1
   3   7   1 20.7764 4.02405   1
   4   7   1 376.878 14.8079   1
   5  -4   1 82.1408 9.43297  -2
   5   7   1 82.1408 9.43297   1
   3  10   2 135.260 11.5753  -2
  -3   8   1 135.260 11.5753   1
  -2   8   1 16.0603 2.34079   1
  -1   8   1 7.13758 1.75616   1
   0   8   1 29.4456 3.08939  -2
   0   8   1 29.4456 3.08939   1
   1   8   1 5.52825 1.79536   1
   2   8   1 74.4337 7.44231   1
   3   8   1 25.0370 4.55128   1
   4   8   1 8.55956 3.22588   1
  -3   9   1 53.2864 8.96663   1
  -2   9   1 90.6613 11.0987   1
  -1   9   1 130.612 6.19578   1
   0   9   1 810.484 19.1906  -2
   0   9   1 810.484 19.1906   1
   1   9   1 336.096 10.9471   1
   2   9   1 256.570 12.5644   1
   3   9   1 332.569 14.9782   1
   4   9   1 54.0986 10.2544   1
  -3  10   1 5.76604 4.01671   1
  -2  10   1 1.04236 2.54951   1
  -1  10   1 32.1743 3.89192   1
   0  10   1 1.19925 2.04537  -2
   0  10   1 1.19925 2.04537   1
   1  10   1 42.4603 4.75422   1
   2  10   1 40.2994 6.10219   1
   3  10   1 48.6985 10.5412   1
   4  10   1 3.81176 4.69948   1
  -2  11   1 55.4434 9.88709   1
  -1  11   1 43.8084 8.21396   1
   0  11   1 1249.63 27.9686  -2
   0  11   1 1249.63 27.9686   1
   1  11   1 2.99042 2.59194   1
   2  11   1 19.4089 7.74355   1
   3  11   1 10.4498 6.47664   1
  -1  12   1 142.777 15.6897   1
   0  12   1 128.962 7.39166  -2
   0  12   1 128.962 7.39166   1
   1  12   1 53.3559 12.6964   1
   2  12   1 717.695 40.7900   1
  -2 -12   2 4.29026 5.99943   1
  -1 -12   2 70.3179 14.4326   1
   0 -12   2 84.5438 6.85930  -2
   0 -12   2 84.5438 6.85930   1
  -3 -11   2 4.20470 5.71598   1
  -2 -11   2 19.0459 7.34003   1
  -1 -11   2 -1.3020 2.20073   1
   0 -11   2 36.2853 4.09894  -2
   0 -11   2 36.2853 4.09894   1
   1 -11   2 54.1394 9.62553   1
   2 -11   2 59.5551 10.0948   1
  -3 -10   2 86.6388 13.7388   1
  -2 -10   2 402.624 16.9773   1
  -1 -10   2 241.013 12.1791   1
   0 -10   2 32.2329 3.59358  -2
   0 -10   2 32.2329 3.59358   1
   1 -10   2 91.0490 6.08953   1
   2 -10   2 12.8795 5.34979   1
  -4  -9   2 197.098 16.6757   1
  -3  -9   2 27.8134 5.39456   1
  -2  -9   2 6.81769 2.98448   1
  -1  -9   2 17.4269 2.79660   1
   0  -9   2 55.6042 4.10975  -2
   0  -9   2 55.6042 4.10975   1
   1  -9   2 126.310 6.10118   1
   2  -9   2 38.7709 7.43548   1
  -3 -11   1 90.7954 13.9621  -2
   3  -9   2 90.7954 13.9621   1
  -4  -8   2 58.3677 9.81172   1
  -3  -8   2 16.3105 3.92206   1
  -2  -8   2 22.6799 4.29719   1
  -1  -8   2 29.6389 3.52474   1
   0  -8   2 242.129 8.35288  -2
   0  -8   2 242.129 8.35288   1
   1  -8   2 0.28903 1.04863   1
  -2  -9   1 89.7021 5.16097  -2
   2  -8   2 89.7021 5.16097   1
  -3 -10   1 142.603 8.98700  -2
   3  -8   2 142.603 8.98700   1
  -4  -7   2 94.7045 8.17125   1
  -3  -7   2 418.261 15.4122   1
  -2  -7   2 638.822 19.7789   1
  -1  -7   2 212.289 7.40622   1
   0  -7   2 266.107 8.38853  -2
   0  -7   2 266.107 8.38853   1
   1  -7   2 132.730 5.49561   1
   2  -7   2 367.618 8.03131   1
  -3  -9   1 22.2798 5.66551  -2
   3  -7   2 22.2798 5.66551   1
   4  -7   2 15.6427 3.89495   1
   5  -3   4 14.7040 5.15115  -2
  -5  -6   2 14.7040 5.15115   1
  -4  -6   2 8.78326 2.64350   1
  -3  -6   2 17.2267 3.49278   1
  -2  -6   2 92.5082 3.78101   1
  -1  -6   2 13.9374 2.08430   1
   0  -6   2 37.4851 2.76038  -2
   0  -6   2 37.4851 2.76038   1
   1  -6   2 212.571 6.58608   1
  -2  -7   1 145.670 5.80719  -2
   2  -6   2 145.670 5.80719   1
   3  -6   2 41.4052 4.67147   1
   4  -6   2 243.597 11.0242   1
   5  -2   4 328.126 11.0196  -2
  -5  -5   2 328.126 11.0196   1
  -4  -5   2 223.817 9.50704   1
  -3  -5   2 126.544 4.88392   1
  -2  -5   2 219.142 5.46013   1
  -1  -5   2 0.27975 0.75734   1
   0  -5   2 62.3512 2.85288  -2
   0  -5   2 62.3512 2.85288   1
   1  -5   2 15.8775 1.56043   1
   2  -5   2 27.4238 1.59319   1
   3  -5   2 22.1151 3.27041   1
   4  -5   2 102.858 7.81920   1
  -5  -4   2 168.806 8.99816   1
  -4  -4   2 168.382 7.34044   1
  -3  -4   2 133.411 4.62850   1
  -2  -4   2 668.853 13.8486   1
  -1  -4   2 706.524 11.0041   1
   0  -4   2 2498.44 35.9883  -2
   0  -4   2 2498.44 35.9883   1
   1  -4   2 930.338 14.7910   1
   2  -4   2 536.912 8.16434   1
   3  -4   2 503.343 14.5730   1
   4  -4   2 272.236 10.7471   1
   5   7   0 64.1121 8.89406  -2
   5  -4   2 64.1121 8.89406   1
  -4  -3   2 32.5094 1.97358   1
  -3  -3   2 74.9872 2.97125   1
  -2  -3   2 33.4068 2.05921   1
  -1  -3   2 25.7333 1.53772   1
   0  -3   2 1000.93 15.3913  -2
   0  -3   2 1000.93 15.3913   1
   1  -3   2 234.972 4.69600   1
   2  -3   2 498.241 8.84119   1
   3  -3   2 285.065 8.13397   1
   4  -3   2 408.616 13.1381   1
   5   6   0 130.760 10.9577  -2
   5  -3   2 130.760 10.9577   1
  -4  -2   2 318.650 14.5265   1
  -3  -2   2 68.1454 2.24245   1
  -2  -2   2 321.629 5.97629   1
  -1  -2   2 727.386 10.2420   1
   0  -2   2 6952.92 87.5501  -2
   0  -2   2 6952.92 87.5501   1
   1  -2   2 4.61855 0.51322   1
   2  -2   2 238.168 4.33266   1
   3  -2   2 10.6208 0.98979   1
   4  -2   2 6.66828 1.91529   1
   5   5   0 5.30514 3.56910  -2
   5  -2   2 5.30514 3.56910   1
  -4  -1   2 92.6916 6.36651   1
  -3  -1   2 120.276 6.87577   1
  -2  -1   2 823.110 17.8798   1
  -1  -1   2 5866.02 66.1574   1
   0  -1   2 1788.33 20.8513  -2
   0  -1   2 1788.33 20.8513   1
   1  -1   2 270.671 3.82492   1
   2  -1   2 2057.68 25.4665   1
   3  -1   2 220.867 4.66915   1
   4  -1   2 145.093 4.73024   1
   5   4   0 99.1501 8.25659  -2
   5  -1   2 99.1501 8.25659   1
   5   3   4 72.0322 4.46858  -2
  -5   0   2 72.0322 4.46858   1
  -4   0   2 26.6646 1.58597   1
  -3   0   2 12.2542 1.31345   1
  -2   0   2 13.0923 0.85544   1
  -1   0   2 111.709 1.93817   1
   0   0   2 584.261 7.13096  -2
   0   0   2 584.261 7.13096   1
   1   0   2 887.765 12.6364   1
   2   0   2 93.7017 2.59731   1
   3   0   2 8.27829 1.17694   1
   4   0   2 7.45407 1.45267   1
   5   3   0 385.429 15.9241  -2
   5   0   2 385.429 15.9241   1
   5   4   4 365.477 14.8036  -2
  -5   1   2 365.477 14.8036   1
  -4   1   2 57.6454 3.15652   1
  -3   1   2 449.536 7.77115   1
  -2   1   2 730.362 9.98966   1
  -1   1   2 973.806 10.3508   1
   0   1   2 364.065 6.25834  -2
   0   1   2 364.065 6.25834   1
   1   1   2 4016.62 68.0009   1
   2   1   2 148.180 3.70043   1
   3   1   2 9.31487 1.02561   1
   4   1   2 137.352 4.92451   1
   5   2   0 123.412 7.81719  -2
   5   1   2 123.412 7.81719   1
   5   5   4 3.01056 3.90957  -2
  -5   2   2 3.01056 3.90957   1
  -4   2   2 3.96653 1.29073   1
  -3   2   2 384.092 9.03250   1
  -2   2   2 1417.32 24.5273   1
  -1   2   2 1373.56 19.3283   1
   0   2   2 5251.66 76.8210  -2
   0   2   2 5251.66 76.8210   1
   1   2   2 9999.99 205.434   1
   2   2   2 1561.03 25.9538   1
   3   2   2 730.490 16.2338   1
   4   2   2 495.531 12.0835   1
   5   1   0 228.010 10.5027  -2
   5   2   2 228.010 10.5027   1
   5   6   4 32.1957 5.84542  -2
  -5   3   2 32.1957 5.84542   1
  -4   3   2 101.680 6.01224   1
  -3   3   2 94.6602 4.30597   1
  -2   3   2 670.324 11.6489   1
  -1   3   2 11.4751 1.46480   1
   0   3   2 163.546 5.86344  -2
   0   3   2 163.546 5.86344   1
   1   3   2 1669.20 28.9156   1
   2   3   2 6.43714 1.14577   1
   3   3   2 93.6438 3.72902   1
   4   3   2 86.7965 3.77391   1
   5   0   0 62.5674 5.84172  -2
   5   3   2 62.5674 5.84172   1
   5   7   4 127.458 10.7412  -2
  -5   4   2 127.458 10.7412   1
  -4   4   2 126.726 7.04226   1
  -3   4   2 973.649 23.5794   1
  -2   4   2 11.1809 1.50404   1
  -1   4   2 45.0054 3.82576   1
   0   4   2 1549.79 34.8555  -2
   0   4   2 1549.79 34.8555   1
   1   4   2 641.728 12.9915   1
   2   4   2 9.10330 1.09115   1
   3   4   2 33.0617 2.91236   1
   4   4   2 1.92309 1.62149   1
  -5   1   0 40.8402 4.30126  -2
   5   4   2 40.8402 4.30126   1
  -4   5   2 10.5762 2.61369   1
  -3   5   2 63.0298 5.53875   1
  -2   5   2 140.493 5.19710   1
  -1   5   2 266.184 9.55203   1
   0   5   2 1845.45 41.6792  -2
   0   5   2 1845.45 41.6792   1
   1   5   2 136.279 5.92202   1
   2   5   2 0.91502 0.66406   1
   3   5   2 1010.75 24.3119   1
   4   5   2 216.982 9.29157   1
  -5   2   0 95.1751 6.48349  -2
   5   5   2 95.1751 6.48349   1
  -4   6   2 5.13479 2.44111   1
  -3   6   2 7.31704 2.21453   1
  -2   6   2 46.4071 2.19422   1
  -1   6   2 16.2900 2.12224   1
   0   6   2 148.946 7.24973  -2
   0   6   2 148.946 7.24973   1
   1   6   2 2.96879 1.47340   1
   2   6   2 316.707 10.8912   1
   3   6   2 322.944 16.9756   1
   4   6   2 20.2669 3.63072   1
  -5   3   0 42.4775 5.31285  -2
   5   6   2 42.4775 5.31285   1
  -4   7   2 202.109 13.9188   1
  -3   7   2 159.442 9.00377   1
  -2   7   2 857.206 17.3581   1
  -1   7   2 566.819 13.5141   1
   0   7   2 1301.77 32.9769  -2
   0   7   2 1301.77 32.9769   1
   1   7   2 242.296 9.63908   1
   2   7   2 240.751 9.27749   1
   3   7   2 6.51241 3.42148   1
   4   7   2 13.5833 3.57190   1
  -5   4   0 60.9530 8.77057  -2
   5   7   2 60.9530 8.77057   1
   3  10   3 6.32297 5.11629  -2
  -3   8   2 6.32297 5.11629   1
  -2   8   2 143.030 11.0411   1
  -1   8   2 211.128 7.63745   1
   0   8   2 424.232 11.9128  -2
   0   8   2 424.232 11.9128   1
   1   8   2 236.666 8.39433   1
   2   8   2 247.608 11.5747   1
   3   8   2 138.662 10.4429   1
   4   8   2 138.265 10.7780   1
  -3   9   2 -0.3017 2.22092   1
  -2   9   2 55.3442 8.71302   1
  -1   9   2 53.2634 4.54097   1
   0   9   2 104.453 5.79328  -2
   0   9   2 104.453 5.79328   1
   1   9   2 23.3811 3.14564   1
   2   9   2 79.9647 8.11621   1
   3   9   2 21.0695 4.61980   1
   4   9   2 7.85558 4.93564   1
  -3  10   2 149.226 15.8468   1
  -2  10   2 171.165 13.5816   1
  -1  10   2 4.75779 1.87236   1
   0  10   2 23.9956 3.31473  -2
   0  10   2 23.9956 3.31473   1
   1  10   2 318.185 11.0863   1
   2  10   2 2.78211 2.92946   1
   3  10   2 -0.2401 3.56603   1
   4  10   2 32.6287 8.98286   1
  -2  11   2 -3.8938 2.26314   1
  -1  11   2 1.64719 3.36889   1
   0  11   2 140.832 7.60745  -2
   0  11   2 140.832 7.60745   1
   1  11   2 3.02938 2.41762   1
   2  11   2 8.56461 6.11388   1
   3  11   2 39.9213 10.0483   1
  -1  12   2 -0.2618 2.76250   1
   0  12   2 88.3361 6.34315  -2
   0  12   2 88.3361 6.34315   1
   1  12   2 -0.5458 3.13806   1
   2  12   2 84.9540 15.7935   1
  -1 -12   3 4.54194 6.27811   1
   0 -12   3 33.4712 9.12555  -2
   0 -12   3 33.4712 9.12555   1
  -2 -11   3 47.6731 11.4344   1
  -1 -11   3 157.410 12.3030   1
   0 -11   3 467.050 14.3675  -2
   0 -11   3 467.050 14.3675   1
   1 -11   3 242.527 16.9979   1
  -3 -10   3 14.1843 6.59017   1
  -2 -10   3 0.89101 2.53441   1
  -1 -10   3 7.79054 3.05069   1
   0 -10   3 139.287 7.19703  -2
   0 -10   3 139.287 7.19703   1
   1 -10   3 40.2007 4.09883   1
   2 -10   3 14.7307 5.33135   1
  -4  -9   3 115.657 15.3249   1
  -3  -9   3 708.517 35.3058   1
  -2  -9   3 15.7744 4.14519   1
  -1  -9   3 71.2017 5.60489   1
   0  -9   3 421.419 12.3832  -2
   0  -9   3 421.419 12.3832   1
   1  -9   3 9.60259 2.13136   1
   2  -9   3 27.9405 6.30772   1
  -3 -11   2 16.8449 9.61590  -2
   3  -9   3 16.8449 9.61590   1
  -4  -8   3 90.7839 12.4894   1
  -3  -8   3 32.2802 5.20026   1
  -2  -8   3 426.929 16.0067   1
  -1  -8   3 655.988 16.2453   1
   0  -8   3 2126.87 39.6641  -2
   0  -8   3 2126.87 39.6641   1
   1  -8   3 131.823 5.84547   1
  -2  -9   2 261.907 10.3894  -2
   2  -8   3 261.907 10.3894   1
  -3 -10   2 337.182 13.9094  -2
   3  -8   3 337.182 13.9094   1
  -4  -7   3 16.3853 4.04873   1
  -3  -7   3 79.4947 7.18434   1
  -2  -7   3 78.4895 7.15874   1
  -1  -7   3 8.50014 1.89471   1
   0  -7   3 82.3430 4.36175  -2
   0  -7   3 82.3430 4.36175   1
   1  -7   3 29.1967 2.93180   1
  -2  -8   2 730.023 22.1159  -2
   2  -7   3 730.023 22.1159   1
  -3  -9   2 16.1632 5.80940  -2
   3  -7   3 16.1632 5.80940   1
   4  -7   3 17.5195 3.84863   1
   5  -3   5 54.7592 6.71291  -2
  -5  -6   3 54.7592 6.71291   1
  -4  -6   3 161.918 8.69186   1
  -3  -6   3 42.6356 5.01122   1
  -2  -6   3 69.6184 3.62324   1
  -1  -6   3 394.143 10.4459   1
   0  -6   3 375.052 8.43967  -2
   0  -6   3 375.052 8.43967   1
   1  -6   3 0.67068 0.73735   1
   2  -6   3 5.43155 0.86487   1
   3  -6   3 115.245 7.19709   1
   4  -6   3 11.9562 3.14274   1
   5  -2   5 29.5049 3.87837  -2
  -5  -5   3 29.5049 3.87837   1
  -4  -5   3 19.0002 3.45064   1
  -3  -5   3 30.2659 3.89946   1
  -2  -5   3 110.770 3.68066   1
  -1  -5   3 916.757 15.9795   1
   0  -5   3 827.168 14.2921  -2
   0  -5   3 827.168 14.2921   1
   1  -5   3 695.553 12.3107   1
   2  -5   3 517.290 8.47983   1
   3  -5   3 117.159 6.96273   1
   4  -5   3 82.3236 6.93156   1
  -5  -4   3 304.434 13.6933   1
  -4  -4   3 52.3276 4.82429   1
  -3  -4   3 2.98128 0.98422   1
  -2  -4   3 30.1433 2.61743   1
  -1  -4   3 19.9063 1.61126   1
   0  -4   3 948.029 15.3755  -2
   0  -4   3 948.029 15.3755   1
   1  -4   3 16.5051 1.41695   1
   2  -4   3 31.3902 1.50448   1
   3  -4   3 8.72805 1.35684   1
   4  -4   3 19.9194 3.28046   1
  -5  -7   1 38.5463 8.21753  -2
   5  -4   3 38.5463 8.21753   1
  -4  -3   3 306.123 7.40334   1
  -3  -3   3 516.205 10.9105   1
  -2  -3   3 1500.20 20.2149   1
  -1  -3   3 155.098 3.58700   1
   0  -3   3 50.5729 2.06294  -2
   0  -3   3 50.5729 2.06294   1
   1  -3   3 30.6026 1.58147   1
   2  -3   3 139.459 3.45976   1
   3  -3   3 22.7283 1.76857   1
   4  -3   3 79.7895 6.29869   1
  -5  -6   1 9.53267 6.16031  -2
   5  -3   3 9.53267 6.16031   1
   5   1   5 20.1779 1.91141  -2
  -5  -2   3 20.1779 1.91141   1
  -4  -2   3 12.2238 1.28132   1
  -3  -2   3 70.0545 2.59643   1
  -2  -2   3 171.985 3.69207   1
  -1  -2   3 496.998 8.62659   1
   0  -2   3 9807.08 136.668  -2
   0  -2   3 9807.08 136.668   1
   1  -2   3 13.8258 0.85103   1
   2  -2   3 198.786 3.97405   1
   3  -2   3 452.775 8.42275   1
   4  -2   3 161.013 7.19082   1
  -5  -5   1 114.660 7.41816  -2
   5  -2   3 114.660 7.41816   1
  -4  -1   3 35.2964 1.77166   1
  -3  -1   3 12.3418 1.22195   1
  -2  -1   3 639.109 9.24156   1
  -1  -1   3 232.577 3.61762   1
   0  -1   3 3355.50 42.2691  -2
   0  -1   3 3355.50 42.2691   1
   1  -1   3 207.752 2.92199   1
   2  -1   3 12.2783 0.79997   1
   3  -1   3 191.977 4.39035   1
   4  -1   3 1.91386 1.23374   1
  -5  -4   1 34.5836 6.32126  -2
   5  -1   3 34.5836 6.32126   1
   5   3   5 18.6911 2.98792  -2
  -5   0   3 18.6911 2.98792   1
  -4   0   3 106.666 3.03028   1
  -3   0   3 144.263 3.08318   1
  -2   0   3 20.9162 1.16036   1
  -1   0   3 962.671 10.4500   1
   0   0   3 29.7037 0.74256  -2
   0   0   3 29.7037 0.74256   1
   1   0   3 18.6561 0.82952   1
   2   0   3 18.9812 1.13196   1
   3   0   3 13.1219 1.56188   1
   4   0   3 0.25822 1.11243   1
  -5  -3   1 200.680 11.7084  -2
   5   0   3 200.680 11.7084   1
   5   4   5 45.1538 4.82650  -2
  -5   1   3 45.1538 4.82650   1
  -4   1   3 2.48835 1.17306   1
  -3   1   3 155.555 3.61721   1
  -2   1   3 240.407 3.81285   1
  -1   1   3 54.7718 1.21301   1
   0   1   3 2.81868 0.48269  -2
   0   1   3 2.81868 0.48269   1
   1   1   3 427.808 8.48615   1
   2   1   3 203.646 5.00798   1
   3   1   3 187.829 6.10973   1
   4   1   3 38.2948 3.31363   1
  -5  -2   1 143.040 10.0211  -2
   5   1   3 143.040 10.0211   1
   5   5   5 9.15258 4.15480  -2
  -5   2   3 9.15258 4.15480   1
  -4   2   3 237.522 8.71024   1
  -3   2   3 533.099 11.6778   1
  -2   2   3 994.933 15.1757   1
  -1   2   3 983.760 13.1239   1
   0   2   3 2293.15 39.7071  -2
   0   2   3 2293.15 39.7071   1
   1   2   3 4658.72 76.6855   1
   2   2   3 165.683 4.44755   1
   3   2   3 127.077 4.58860   1
   4   2   3 19.4355 2.21283   1
  -5  -1   1 25.8144 4.84560  -2
   5   2   3 25.8144 4.84560   1
   5   6   5 20.3586 5.33951  -2
  -5   3   3 20.3586 5.33951   1
  -4   3   3 -0.3101 1.14735   1
  -3   3   3 14.8733 2.03156   1
  -2   3   3 1073.52 17.2853   1
  -1   3   3 658.357 13.6177   1
   0   3   3 336.293 9.84293  -2
   0   3   3 336.293 9.84293   1
   1   3   3 289.309 6.77285   1
   2   3   3 217.167 5.18777   1
   3   3   3 4.55979 1.16422   1
   4   3   3 -0.5026 1.12693   1
  -5   0   1 4.96279 4.06773  -2
   5   3   3 4.96279 4.06773   1
   5   7   5 97.0010 9.43858  -2
  -5   4   3 97.0010 9.43858   1
  -4   4   3 188.664 8.52941   1
  -3   4   3 328.852 10.9605   1
  -2   4   3 558.463 10.7711   1
  -1   4   3 396.253 11.8935   1
   0   4   3 17.1082 2.25156  -2
   0   4   3 17.1082 2.25156   1
   1   4   3 1522.78 27.8595   1
   2   4   3 295.188 7.05404   1
   3   4   3 114.580 4.97269   1
   4   4   3 101.590 7.23700   1
  -5   1   1 121.103 7.12816  -2
   5   4   3 121.103 7.12816   1
  -4   5   3 31.5693 4.43236   1
  -3   5   3 178.307 7.89996   1
  -2   5   3 377.156 6.03620   1
  -1   5   3 95.3660 5.62203   1
   0   5   3 1118.35 27.4489  -2
   0   5   3 1118.35 27.4489   1
   1   5   3 1359.92 31.4783   1
   2   5   3 77.5642 3.32554   1
   3   5   3 39.2601 3.80323   1
   4   5   3 296.899 15.0416   1
  -5   2   1 42.3577 5.19733  -2
   5   5   3 42.3577 5.19733   1
  -4   6   3 -1.3909 1.55729   1
  -3   6   3 0.76273 1.39722   1
  -2   6   3 2.79716 0.85758   1
  -1   6   3 18.6980 2.71157   1
   0   6   3 22.0394 3.02265  -2
   0   6   3 22.0394 3.02265   1
   1   6   3 -0.8884 0.84119   1
   2   6   3 20.2050 4.85093   1
   3   6   3 145.359 10.7166   1
   4   6   3 42.2406 6.87927   1
  -5   3   1 36.9106 5.49853  -2
   5   6   3 36.9106 5.49853   1
  -4   7   3 347.583 19.2852   1
  -3   7   3 263.613 10.9823   1
  -2   7   3 440.551 11.9405   1
  -1   7   3 334.171 12.5005   1
   0   7   3 661.135 19.8368  -2
   0   7   3 661.135 19.8368   1
   1   7   3 6.41453 2.08203   1
   2   7   3 8.02133 2.16661   1
   3   7   3 -0.0384 2.38825   1
   4   7   3 10.4556 3.27697   1
  -5   4   1 36.7590 7.92553  -2
   5   7   3 36.7590 7.92553   1
   3  10   4 178.563 12.9832  -2
  -3   8   3 178.563 12.9832   1
  -2   8   3 143.850 10.9577   1
  -1   8   3 237.921 8.15548   1
   0   8   3 888.593 25.6368  -2
   0   8   3 888.593 25.6368   1
   1   8   3 93.5239 6.78785   1
   2   8   3 258.347 17.5455   1
   3   8   3 71.5134 10.5187   1
   4   8   3 101.304 9.08288   1
  -3   9   3 16.4828 5.33038   1
  -2   9   3 11.6658 4.42081   1
  -1   9   3 531.543 14.2433   1
   0   9   3 12.9439 2.72720  -2
   0   9   3 12.9439 2.72720   1
   1   9   3 37.3202 4.92780   1
   2   9   3 10.1373 5.02113   1
   3   9   3 23.4364 5.03919   1
   4   9   3 32.2529 8.38330   1
  -2  10   3 105.671 12.2901   1
  -1  10   3 236.048 9.09330   1
   0  10   3 22.8017 3.32552  -2
   0  10   3 22.8017 3.32552   1
   1  10   3 4.78552 1.88493   1
   2  10   3 92.5196 9.38655   1
   3  10   3 14.6055 6.47493   1
   4  10   3 26.7101 8.35832   1
  -2  11   3 38.5947 7.94152   1
  -1  11   3 69.2692 10.2553   1
   0  11   3 130.051 7.31446  -2
   0  11   3 130.051 7.31446   1
   1  11   3 583.649 21.8624   1
   2  11   3 10.0585 4.76166   1
   3  11   3 112.151 16.3114   1
  -1  12   3 7.69825 4.63920   1
   0  12   3 8.51411 3.19230  -2
   0  12   3 8.51411 3.19230   1
   1  12   3 32.8743 6.41394   1
   2  12   3 26.5687 9.41601   1
  -1 -12   4 3.53682 6.18221   1
  -2 -11   4 -0.0666 4.73625   1
  -1 -11   4 109.093 17.1523   1
   0 -11   4 174.294 8.59004  -2
   0 -11   4 174.294 8.59004   1
   1 -11   4 87.0257 12.0699   1
  -3 -10   4 3.36178 4.36811   1
  -2 -10   4 119.484 16.7135   1
  -1 -10   4 13.7971 3.58278   1
   0 -10   4 53.4212 4.43364  -2
   0 -10   4 53.4212 4.43364   1
   1 -10   4 0.95669 1.64899   1
   2 -10   4 2.87600 2.27972   1
   3  -7   5 88.4625 12.1113  -2
  -3  -9   4 88.4625 12.1113   1
  -2  -9   4 284.524 13.3671   1
  -1  -9   4 22.8235 4.46950   1
   0  -9   4 38.9564 3.72637  -2
   0  -9   4 38.9564 3.72637   1
   1  -9   4 162.164 6.90866   1
   2  -9   4 13.3765 3.06253   1
   3  -9   4 104.565 8.88232   1
  -4  -8   4 189.489 15.8451   1
   3  -6   5 483.974 24.0470  -2
  -3  -8   4 483.974 24.0470   1
  -2  -8   4 185.080 9.81683   1
  -1  -8   4 579.513 14.8514   1
   0  -8   4 807.711 18.4978  -2
   0  -8   4 807.711 18.4978   1
   1  -8   4 327.586 9.91350   1
   2  -8   4 86.0369 6.84019   1
  -3 -10   3 12.4689 5.04237  -2
   3  -8   4 12.4689 5.04237   1
  -4  -7   4 20.6256 4.20331   1
   3  -5   5 60.6235 8.75907  -2
  -3  -7   4 60.6235 8.75907   1
  -2  -7   4 42.8964 5.14923   1
  -1  -7   4 -0.5317 0.91638   1
   0  -7   4 13.1486 2.14311  -2
   0  -7   4 13.1486 2.14311   1
   1  -7   4 106.471 4.46548   1
  -2  -8   3 357.276 12.4660  -2
   2  -7   4 357.276 12.4660   1
   3  -7   4 360.066 13.2470   1
   4  -7   4 0.27571 1.96319   1
  -4  -6   4 148.818 8.38897   1
   3  -4   5 119.366 10.0201  -2
  -3  -6   4 119.366 10.0201   1
  -2  -6   4 75.2452 4.31267   1
  -1  -6   4 76.2229 4.44898   1
   0  -6   4 23.3856 2.10343  -2
   0  -6   4 23.3856 2.10343   1
   1  -6   4 84.5847 3.68559   1
  -2  -7   3 63.6513 3.95958  -2
   2  -6   4 63.6513 3.95958   1
   3  -6   4 84.8888 6.71392   1
   4  -6   4 0.03801 1.88175   1
   5  -2   6 64.1363 6.76337  -2
  -5  -5   4 64.1363 6.76337   1
  -4  -5   4 56.5051 5.61869   1
  -3  -5   4 165.038 7.96119   1
  -2  -5   4 652.370 12.2871   1
  -1  -5   4 582.676 11.5413   1
   0  -5   4 1041.70 17.4283  -2
   0  -5   4 1041.70 17.4283   1
   1  -5   4 219.203 5.55863   1
  -2  -6   3 666.238 22.4332  -2
   2  -5   4 666.238 22.4332   1
   3  -5   4 38.7940 4.41855   1
   4  -5   4 7.12923 2.48046   1
   5  -1   6 61.5072 5.82222  -2
  -5  -4   4 61.5072 5.82222   1
  -4  -4   4 245.600 9.55815   1
  -3  -4   4 59.4326 3.48119   1
  -2  -4   4 87.9772 2.99667   1
  -1  -4   4 15.0896 1.64571   1
   0  -4   4 8.15537 1.22681  -2
   0  -4   4 8.15537 1.22681   1
   1  -4   4 202.704 4.90768   1
  -2  -5   3 128.476 6.43624  -2
   2  -4   4 128.476 6.43624   1
   3  -4   4 0.04428 0.73499   1
   4  -4   4 2.38251 1.72305   1
  -5  -3   4 274.333 12.0210   1
  -4  -3   4 277.354 9.48089   1
  -3  -3   4 559.709 11.9471   1
  -2  -3   4 103.910 3.08269   1
  -1  -3   4 3734.89 53.4878   1
   0  -3   4 122.680 3.39963  -2
   0  -3   4 122.680 3.39963   1
   1  -3   4 116.486 3.20845   1
   2  -3   4 3.57031 0.71055   1
   3  -3   4 37.6840 2.59661   1
   4  -3   4 88.7582 6.72454   1
  -5  -6   2 6.38632 6.02407  -2
   5  -3   4 6.38632 6.02407   1
   5   1   6 43.1820 3.56374  -2
  -5  -2   4 43.1820 3.56374   1
  -4  -2   4 13.0229 1.54386   1
  -3  -2   4 245.084 6.18590   1
   2  -1   5 161.483 8.65327  -2
  -2  -2   4 161.483 8.65327   1
  -1  -2   4 337.382 5.85412   1
   0  -2   4 1250.44 18.6487  -2
   0  -2   4 1250.44 18.6487   1
   1  -2   4 5512.93 66.8160   1
   2  -2   4 317.077 6.34009   1
   3  -2   4 562.825 10.2252   1
   4  -2   4 120.345 6.70787   1
  -5  -5   2 390.243 14.3533  -2
   5  -2   4 390.243 14.3533   1
   5   2   6 3.69118 2.04841  -2
  -5  -1   4 3.69118 2.04841   1
  -4  -1   4 1.37376 0.78691   1
  -3  -1   4 0.18128 0.55302   1
   2   0   5 328.816 12.5528  -2
  -2  -1   4 328.816 12.5528   1
  -1  -1   4 19.0262 1.17109   1
   0  -1   4 482.631 7.93692  -2
   0  -1   4 482.631 7.93692   1
   1  -1   4 62.3726 1.58783   1
   2  -1   4 138.880 2.64777   1
   3  -1   4 216.206 4.96930   1
   4  -1   4 566.383 15.9170   1
  -5  -4   2 187.305 13.2527  -2
   5  -1   4 187.305 13.2527   1
   5   3   6 119.902 6.71766  -2
  -5   0   4 119.902 6.71766   1
  -4   0   4 323.059 6.71722   1
  -3   0   4 319.986 6.34205   1
   2   1   5 449.391 14.2932  -2
  -2   0   4 449.391 14.2932   1
  -1   0   4 1021.49 12.0028   1
   0   0   4 1198.83 14.2496  -2
   0   0   4 1198.83 14.2496   1
   1   0   4 98.1428 2.08902   1
   2   0   4 31.4460 1.69091   1
   3   0   4 128.864 5.48041   1
   4   0   4 44.2617 2.71308   1
  -5  -3   2 101.992 9.78507  -2
   5   0   4 101.992 9.78507   1
   5   4   6 37.6502 4.55133  -2
  -5   1   4 37.6502 4.55133   1
  -4   1   4 212.236 7.84452   1
  -3   1   4 -0.3143 0.49625   1
  -2   1   4 131.334 2.65576   1
  -1   1   4 674.652 8.49246   1
   0   1   4 3071.83 50.4218  -2
   0   1   4 3071.83 50.4218   1
   1   1   4 369.658 7.06339   1
   2   1   4 548.248 8.44279   1
   3   1   4 846.115 20.3008   1
   4   1   4 93.0415 6.26563   1
  -5  -2   2 183.272 12.1132  -2
   5   1   4 183.272 12.1132   1
   5   5   6 8.23126 4.06366  -2
  -5   2   4 8.23126 4.06366   1
  -4   2   4 38.0756 4.00285   1
  -3   2   4 280.413 5.59333   1
  -2   2   4 327.119 5.30464   1
  -1   2   4 230.594 4.14144   1
   0   2   4 0.44437 1.01688  -2
   0   2   4 0.44437 1.01688   1
   1   2   4 401.481 8.66841   1
   2   2   4 3.71755 0.71586   1
   3   2   4 84.1239 4.06901   1
   4   2   4 3.26341 1.76822   1
  -5  -1   2 165.169 10.9964  -2
   5   2   4 165.169 10.9964   1
   5   6   6 141.640 10.3668  -2
  -5   3   4 141.640 10.3668   1
  -4   3   4 371.244 12.4440   1
  -3   3   4 1.81418 1.08246   1
  -2   3   4 965.996 13.7227   1
  -1   3   4 4098.68 58.4817   1
   0   3   4 2141.43 46.3585  -2
   0   3   4 2141.43 46.3585   1
   1   3   4 245.084 6.28750   1
   2   3   4 661.333 13.0361   1
   3   3   4 135.618 5.56279   1
   4   3   4 0.87094 1.57873   1
  -5   0   2 77.0463 7.98685  -2
   5   3   4 77.0463 7.98685   1
  -4   4   4 10.6879 2.74607   1
  -3   4   4 124.041 6.80837   1
  -2   4   4 299.476 5.54861   1
  -1   4   4 489.856 14.0349   1
   0   4   4 1795.93 40.3023  -2
   0   4   4 1795.93 40.3023   1
   1   4   4 569.876 15.1203   1
   2   4   4 8359.02 137.290   1
   3   4   4 200.915 7.44302   1
   4   4   4 239.524 12.4198   1
  -5   1   2 379.711 18.6432  -2
   5   4   4 379.711 18.6432   1
  -4   5   4 21.3795 3.65161   1
  -3   5   4 31.5562 3.95313   1
  -2   5   4 20.8166 1.34083   1
  -1   5   4 3.14459 1.52501   1
   0   5   4 13.9383 2.40561  -2
   0   5   4 13.9383 2.40561   1
   1   5   4 23.0552 2.89769   1
   2   5   4 20.1834 2.86424   1
   3   5   4 11.6122 2.23985   1
   4   5   4 203.532 12.3092   1
  -5   2   2 1.26839 4.92682  -2
   5   5   4 1.26839 4.92682   1
  -4   6   4 59.3181 6.20841   1
  -3   6   4 209.378 9.21930   1
  -2   6   4 419.726 8.19807   1
  -1   6   4 480.955 15.3888   1
   0   6   4 299.453 11.2261  -2
   0   6   4 299.453 11.2261   1
   1   6   4 642.474 18.0846   1
   2   6   4 78.6115 4.95429   1
   3   6   4 -0.7780 2.02713   1
   4   6   4 0.01660 2.21517   1
  -5   3   2 18.2118 4.93669  -2
   5   6   4 18.2118 4.93669   1
  -4   7   4 125.653 10.9341   1
  -3   7   4 1.35814 1.57116   1
  -2   7   4 4.18591 1.44414   1
  -1   7   4 32.3963 3.91758   1
   0   7   4 26.1845 3.59112  -2
   0   7   4 26.1845 3.59112   1
   1   7   4 627.573 18.5614   1
   2   7   4 199.589 8.59554   1
   3   7   4 130.796 11.2713   1
   4   7   4 76.9806 10.3209   1
  -5   4   2 145.921 12.9946  -2
   5   7   4 145.921 12.9946   1
  -3   8   4 43.3639 5.44631   1
  -2   8   4 24.7942 5.56901   1
  -1   8   4 21.0847 3.66980   1
   0   8   4 177.405 9.33788  -2
   0   8   4 177.405 9.33788   1
   1   8   4 20.9665 3.63906   1
   2   8   4 0.97447 2.78039   1
   3   8   4 2.32571 3.06042   1
   4   8   4 1.75051 3.35203   1
  -3   9   4 171.698 13.6185   1
  -2   9   4 134.146 11.3185   1
  -1   9   4 572.434 15.1348   1
   0   9   4 2851.56 66.7167  -2
   0   9   4 2851.56 66.7167   1
   1   9   4 173.102 9.19902   1
   2   9   4 125.935 15.4110   1
   3   9   4 99.4674 13.5184   1
   4   9   4 2.77379 3.85873   1
  -2  10   4 8.97454 4.21386   1
  -1  10   4 94.3729 6.62988   1
   0  10   4 5.40728 2.19229  -2
   0  10   4 5.40728 2.19229   1
   1  10   4 184.493 11.0233   1
   2  10   4 236.143 19.1981   1
   3  10   4 107.642 15.3559   1
   4  10   4 13.8728 6.59194   1
  -2  11   4 2.22157 3.17751   1
  -1  11   4 0.52134 2.62477   1
   0  11   4 224.803 9.70956  -2
   0  11   4 224.803 9.70956   1
   1  11   4 49.6003 7.10520   1
   2  11   4 49.8576 11.3895   1
   3  11   4 29.5505 9.21435   1
  -1  12   4 91.7680 12.1529   1
   0  12   4 30.1121 4.36282  -2
   0  12   4 30.1121 4.36282   1
   1  12   4 1.92559 4.99682   1
   2  12   4 76.9302 14.8769   1
  -2 -11   5 -0.6724 4.50305   1
  -1 -11   5 -3.8508 4.00385   1
   0 -11   5 12.9524 7.05315  -2
   0 -11   5 12.9524 7.05315   1
   1 -11   5 -2.3399 2.65186   1
  -3 -10   5 28.5122 8.78985   1
  -2 -10   5 61.2881 12.2590   1
  -1 -10   5 50.4182 6.29262   1
   0 -10   5 85.6132 5.64509  -2
   0 -10   5 85.6132 5.64509   1
   1 -10   5 0.69227 1.52878   1
   2 -10   5 20.8694 4.04440   1
  -3  -9   5 23.1960 7.46865   1
  -2  -9   5 56.8932 6.99159   1
  -1  -9   5 15.0575 3.44891   1
   0  -9   5 231.177 8.60369  -2
   0  -9   5 231.177 8.60369   1
   1  -9   5 186.545 7.76074   1
   2  -9   5 705.528 20.6145   1
  -4  -8   5 54.1646 10.0445   1
  -3  -8   5 2.22516 2.19366   1
  -2  -8   5 6.13022 2.61203   1
  -1  -8   5 20.9510 2.81541   1
   0  -8   5 17.8718 2.55522  -2
   0  -8   5 17.8718 2.55522   1
   1  -8   5 146.131 6.35831   1
   2  -8   5 60.4210 3.53521   1
   3  -8   5 6.68032 2.50425   1
  -4  -7   5 21.1908 6.64920   1
   3  -5   6 362.387 14.0540  -2
  -3  -7   5 362.387 14.0540   1
  -2  -7   5 399.818 14.7084   1
  -1  -7   5 345.214 10.2879   1
   0  -7   5 240.901 8.09045  -2
   0  -7   5 240.901 8.09045   1
   1  -7   5 499.260 10.9394   1
  -2  -8   4 165.983 7.67494  -2
   2  -7   5 165.983 7.67494   1
  -3  -9   4 67.6321 7.94465  -2
   3  -7   5 67.6321 7.94465   1
  -4  -6   5 24.1974 4.25552   1
   3  -4   6 164.995 12.6422  -2
  -3  -6   5 164.995 12.6422   1
  -2  -6   5 139.286 7.58477   1
  -1  -6   5 332.879 9.58154   1
   0  -6   5 873.918 15.8563  -2
   0  -6   5 873.918 15.8563   1
   1  -6   5 1023.41 17.8723   1
  -2  -7   4 175.994 5.55583  -2
   2  -6   5 175.994 5.55583   1
   3  -6   5 493.777 15.7806   1
   4  -6   5 177.447 10.4125   1
  -4  -5   5 33.7470 4.50462   1
  -3  -5   5 2.23427 1.62827   1
  -2  -5   5 -0.0554 0.92164   1
  -1  -5   5 168.009 5.26587   1
   0  -5   5 51.4708 2.84235  -2
   0  -5   5 51.4708 2.84235   1
   1  -5   5 30.6805 2.36129   1
  -2  -6   4 156.978 8.56634  -2
   2  -5   5 156.978 8.56634   1
   3  -5   5 46.0713 4.85685   1
   4  -5   5 72.2568 6.78196   1
   5  -1   7 12.2044 4.00562  -2
  -5  -4   5 12.2044 4.00562   1
  -4  -4   5 14.4554 2.89746   1
  -3  -4   5 270.182 10.0407   1
  -2  -4   5 7.22735 1.02181   1
  -1  -4   5 10.6231 1.51376   1
   0  -4   5 3441.51 49.1077  -2
   0  -4   5 3441.51 49.1077   1
   1  -4   5 90.7107 3.17104   1
   2  -4   5 65.2724 2.41796   1
   3  -4   5 97.7392 4.19069   1
   4  -4   5 17.0300 3.32061   1
   5   0   7 39.4556 4.64341  -2
  -5  -3   5 39.4556 4.64341   1
  -4  -3   5 3.98025 1.75538   1
  -3  -3   5 -0.3613 0.68826   1
   2  -2   6 138.671 8.95036  -2
  -2  -3   5 138.671 8.95036   1
  -1  -3   5 521.859 9.82875   1
   0  -3   5 -0.7209 0.58620  -2
   0  -3   5 -0.7209 0.58620   1
   1  -3   5 560.252 8.49102   1
   2  -3   5 761.173 12.8701   1
   3  -3   5 509.719 10.9521   1
   4  -3   5 78.8716 6.33395   1
  -5  -6   3 80.6147 10.5062  -2
   5  -3   5 80.6147 10.5062   1
   5   1   7 2.75112 2.63639  -2
  -5  -2   5 2.75112 2.63639   1
  -4  -2   5 39.7884 3.71922   1
  -3  -2   5 0.29404 0.72390   1
   2  -1   6 29.0731 4.29683  -2
  -2  -2   5 29.0731 4.29683   1
  -1  -2   5 23.3049 1.32338   1
   0  -2   5 109.184 3.03435  -2
   0  -2   5 109.184 3.03435   1
   1  -2   5 392.398 6.21345   1
   2  -2   5 392.830 7.48190   1
   3  -2   5 128.678 4.21763   1
   4  -2   5 79.9263 6.23647   1
  -5  -5   3 15.4410 6.97869  -2
   5  -2   5 15.4410 6.97869   1
   5   2   7 102.066 6.41790  -2
  -5  -1   5 102.066 6.41790   1
  -4  -1   5 217.805 7.25991   1
  -3  -1   5 242.862 5.57398   1
   2   0   6 1568.75 43.9946  -2
  -2  -1   5 1568.75 43.9946   1
  -1  -1   5 407.795 5.96440   1
   0  -1   5 1852.13 26.5932  -2
   0  -1   5 1852.13 26.5932   1
   1  -1   5 174.821 3.28164   1
   2  -1   5 26.1564 1.36275   1
   3  -1   5 19.2788 1.64745   1
   4  -1   5 4.03124 1.69083   1
  -5  -4   3 579.394 26.1771  -2
   5  -1   5 579.394 26.1771   1
   5   3   7 70.8699 5.69323  -2
  -5   0   5 70.8699 5.69323   1
  -4   0   5 7.58675 1.28345   1
  -3   0   5 70.2541 2.48593   1
  -2   0   5 95.2043 2.39520   1
  -1   0   5 201.195 3.15297   1
   0   0   5 271.379 5.12180  -2
   0   0   5 271.379 5.12180   1
   1   0   5 170.592 3.34583   1
   2   0   5 358.612 6.77985   1
   3   0   5 53.7442 2.71303   1
   4   0   5 342.077 9.61398   1
  -5  -3   3 166.926 12.3260  -2
   5   0   5 166.926 12.3260   1
   5   4   7 31.4038 4.76223  -2
  -5   1   5 31.4038 4.76223   1
  -4   1   5 278.861 9.77063   1
  -3   1   5 100.811 2.78522   1
  -2   1   5 247.199 4.19363   1
  -1   1   5 1138.98 12.8816   1
   0   1   5 206.422 5.06073  -2
   0   1   5 206.422 5.06073   1
   1   1   5 43.1508 2.90717   1
   2   1   5 77.3330 2.68142   1
   3   1   5 76.3470 4.64230   1
   4   1   5 5.03077 2.14811   1
  -5  -2   3 39.9844 6.72406  -2
   5   1   5 39.9844 6.72406   1
   5   5   7 14.7486 4.47496  -2
  -5   2   5 14.7486 4.47496   1
  -4   2   5 3.32897 1.77217   1
  -3   2   5 402.697 6.80498   1
  -2   2   5 386.570 5.76878   1
  -1   2   5 332.102 5.64889   1
   0   2   5 749.351 14.1293  -2
   0   2   5 749.351 14.1293   1
   1   2   5 1140.84 25.9627   1
   2   2   5 9.00735 1.13376   1
   3   2   5 69.4967 3.77264   1
   4   2   5 13.4326 3.21709   1
  -5  -1   3 35.4984 6.82013  -2
   5   2   5 35.4984 6.82013   1
   5   6   7 61.2440 7.36791  -2
  -5   3   5 61.2440 7.36791   1
  -4   3   5 90.4202 5.95980   1
  -3   3   5 -0.1045 1.14058   1
   2   4   6 230.702 8.12380  -2
  -2   3   5 230.702 8.12380   1
  -1   3   5 408.986 8.63116   1
   0   3   5 71.7352 4.41742  -2
   0   3   5 71.7352 4.41742   1
   1   3   5 1443.69 32.4148   1
   2   3   5 361.116 8.49683   1
   3   3   5 282.111 9.39711   1
   4   3   5 19.7888 4.00240   1
  -5   0   3 24.5057 6.04224  -2
   5   3   5 24.5057 6.04224   1
  -4   4   5 0.71569 1.49611   1
  -3   4   5 15.2845 2.66795   1
  -2   4   5 116.538 3.15865   1
  -1   4   5 469.799 9.89449   1
   0   4   5 1100.79 26.8353  -2
   0   4   5 1100.79 26.8353   1
   1   4   5 269.016 9.05012   1
   2   4   5 786.559 20.0937   1
   3   4   5 911.095 22.8044   1
   4   4   5 11.0520 3.33877   1
  -5   1   3 43.2121 7.63670  -2
   5   4   5 43.2121 7.63670   1
  -4   5   5 0.81710 1.60734   1
  -3   5   5 15.2327 2.92313   1
  -2   5   5 1.73869 0.60460   1
  -1   5   5 27.7692 3.45398   1
   0   5   5 63.7410 4.52034  -2
   0   5   5 63.7410 4.52034   1
   1   5   5 107.590 6.05160   1
   2   5   5 3.46816 1.33265   1
   3   5   5 291.717 15.2292   1
   4   5   5 -0.0154 1.99999   1
  -5   2   3 18.9201 6.49518  -2
   5   5   5 18.9201 6.49518   1
  -4   6   5 25.8146 5.50315   1
  -3   6   5 265.553 10.7932   1
  -2   6   5 504.404 9.59712   1
  -1   6   5 143.919 7.41584   1
   0   6   5 120.057 6.74574  -2
   0   6   5 120.057 6.74574   1
   1   6   5 19.4313 3.17165   1
   2   6   5 11.2955 2.05189   1
   3   6   5 360.784 18.8082   1
   4   6   5 51.9024 8.17399   1
  -5   3   3 36.1335 7.70134  -2
   5   6   5 36.1335 7.70134   1
  -4   7   5 82.8979 10.3185   1
   3   9   6 30.1274 6.74983  -2
  -3   7   5 30.1274 6.74983   1
  -2   7   5 175.214 8.14777   1
  -1   7   5 26.1612 4.05805   1
   0   7   5 66.2856 5.35438  -2
   0   7   5 66.2856 5.35438   1
   1   7   5 226.849 9.69350   1
   2   7   5 211.079 9.01803   1
   3   7   5 2.05105 2.71897   1
   4   7   5 41.3461 7.77648   1
  -5   4   3 94.2631 11.1997  -2
   5   7   5 94.2631 11.1997   1
  -3   8   5 17.6608 3.67923   1
  -2   8   5 2.46771 2.37662   1
  -1   8   5 325.129 13.2868   1
   0   8   5 24.5194 3.94388  -2
   0   8   5 24.5194 3.94388   1
   1   8   5 36.3243 4.72335   1
   2   8   5 -0.8467 2.51182   1
   3   8   5 13.4143 4.67945   1
   4   8   5 1.43514 3.13855   1
  -3   9   5 297.637 18.4830   1
  -2   9   5 302.843 17.9694   1
  -1   9   5 316.429 13.7539   1
   0   9   5 272.991 12.7793  -2
   0   9   5 272.991 12.7793   1
   1   9   5 1216.21 33.1397   1
   2   9   5 0.14240 3.34705   1
   3   9   5 31.1287 7.98362   1
   4   9   5 7.19178 4.90885   1
  -2  10   5 39.6472 8.03542   1
  -1  10   5 36.6590 4.21467   1
   0  10   5 124.054 8.94697  -2
   0  10   5 124.054 8.94697   1
   1  10   5 73.2898 7.58685   1
   2  10   5 39.5294 9.64621   1
   3  10   5 91.1485 14.2458   1
   4  10   5 182.349 20.2893   1
  -2  11   5 2.96477 3.48229   1
  -1  11   5 0.12301 2.49299   1
   0  11   5 96.6248 6.76696  -2
   0  11   5 96.6248 6.76696   1
   1  11   5 90.7911 14.6615   1
   2  11   5 40.3109 10.3397   1
   3  11   5 12.7364 6.83762   1
  -1  12   5 144.950 16.1001   1
   0  12   5 73.9395 6.12445  -2
   0  12   5 73.9395 6.12445   1
   1  12   5 11.5798 7.00555   1
   2  12   5 56.5896 13.0078   1
  -1 -11   6 38.2984 11.5450   1
   0 -11   6 0.24869 5.62677  -2
   0 -11   6 0.24869 5.62677   1
  -2 -10   6 7.43404 6.04181   1
  -1 -10   6 31.1803 9.23772   1
   0 -10   6 53.3259 5.13526  -2
   0 -10   6 53.3259 5.13526   1
   1 -10   6 4.28593 1.60029   1
   2 -10   6 27.1597 7.53100   1
  -3  -9   6 23.6576 7.47735   1
  -2  -9   6 127.515 16.5828   1
  -1  -9   6 11.8939 3.51774   1
   0  -9   6 326.511 10.7238  -2
   0  -9   6 326.511 10.7238   1
   1  -9   6 56.9931 4.81292   1
   2  -9   6 13.2670 3.20145   1
   3  -6   7 10.2293 6.88941  -2
  -3  -8   6 10.2293 6.88941   1
  -2  -8   6 5.93261 2.82066   1
  -1  -8   6 19.7182 3.94345   1
   0  -8   6 0.23699 1.15381  -2
   0  -8   6 0.23699 1.15381   1
   1  -8   6 49.7199 4.35018   1
   2  -8   6 19.0741 3.51314   1
  -3 -10   5 95.8497 9.66272  -2
   3  -8   6 95.8497 9.66272   1
  -4  -7   6 26.3333 6.87161   1
   3  -5   7 367.799 21.9435  -2
  -3  -7   6 367.799 21.9435   1
  -2  -7   6 311.487 12.7931   1
  -1  -7   6 113.817 5.66909   1
   0  -7   6 275.176 8.77498  -2
   0  -7   6 275.176 8.77498   1
   1  -7   6 24.4049 2.78725   1
  -2  -8   5 2.93995 2.28688  -2
   2  -7   6 2.93995 2.28688   1
  -3  -9   5 16.2785 5.72689  -2
   3  -7   6 16.2785 5.72689   1
  -4  -6   6 69.1089 6.76103   1
  -3  -6   6 357.582 13.5372   1
  -2  -6   6 170.462 8.60469   1
  -1  -6   6 306.432 9.19814   1
   0  -6   6 1441.78 27.8092  -2
   0  -6   6 1441.78 27.8092   1
   1  -6   6 461.278 10.0266   1
  -2  -7   5 318.287 8.08991  -2
   2  -6   6 318.287 8.08991   1
   3  -6   6 162.817 8.32473   1
   4  -6   6 71.7283 7.07797   1
  -4  -5   6 75.0791 6.70552   1
  -3  -5   6 26.1982 3.90687   1
  -2  -5   6 446.858 14.4999   1
  -1  -5   6 47.3824 3.76369   1
   0  -5   6 26.3623 2.13429  -2
   0  -5   6 26.3623 2.13429   1
   1  -5   6 6.17830 1.07459   1
  -2  -6   5 149.665 11.2633  -2
   2  -5   6 149.665 11.2633   1
   3  -5   6 20.5153 3.42553   1
   4  -5   6 4.11498 2.26917   1
  -4  -4   6 121.229 6.81614   1
  -3  -4   6 388.625 12.8820   1
   2  -3   7 514.438 22.5674  -2
  -2  -4   6 514.438 22.5674   1
  -1  -4   6 6.44213 1.23409   1
   0  -4   6 13.4921 1.51571  -2
   0  -4   6 13.4921 1.51571   1
   1  -4   6 698.982 12.5142   1
   2  -4   6 94.7904 2.97326   1
   3  -4   6 10.7028 1.92360   1
   4  -4   6 16.6658 3.27856   1
   5   0   8 13.2974 3.92377  -2
  -5  -3   6 13.2974 3.92377   1
  -4  -3   6 98.8718 5.64398   1
  -3  -3   6 175.006 7.46465   1
   2  -2   7 517.359 14.9651  -2
  -2  -3   6 517.359 14.9651   1
  -1  -3   6 883.966 15.0878   1
   0  -3   6 2458.39 40.4507  -2
   0  -3   6 2458.39 40.4507   1
   1  -3   6 8.25343 0.95611   1
   2  -3   6 200.468 4.30819   1
   3  -3   6 286.176 7.48331   1
   4  -3   6 223.168 9.58745   1
   5   1   8 31.9212 4.68259  -2
  -5  -2   6 31.9212 4.68259   1
  -4  -2   6 186.878 7.34063   1
  -3  -2   6 87.3043 3.48100   1
   2  -1   7 164.222 9.82354  -2
  -2  -2   6 164.222 9.82354   1
  -1  -2   6 19.5122 1.41586   1
   0  -2   6 487.089 8.80559  -2
   0  -2   6 487.089 8.80559   1
   1  -2   6 42.9150 1.70288   1
   2  -2   6 113.680 3.47736   1
   3  -2   6 10.2854 1.51403   1
   4  -2   6 118.779 7.11326   1
  -5  -5   4 74.6035 10.1274  -2
   5  -2   6 74.6035 10.1274   1
   5   2   8 256.416 12.1965  -2
  -5  -1   6 256.416 12.1965   1
  -4  -1   6 547.607 14.3435   1
  -3  -1   6 683.579 12.1774   1
   2   0   7 1358.89 39.0920  -2
  -2  -1   6 1358.89 39.0920   1
  -1  -1   6 591.891 8.19598   1
   0  -1   6 1798.30 26.2584  -2
   0  -1   6 1798.30 26.2584   1
   1  -1   6 76.9969 2.11093   1
   2  -1   6 42.7803 1.78789   1
   3  -1   6 1.22181 0.77173   1
   4  -1   6 0.46114 1.66828   1
  -5  -4   4 75.8861 10.6064  -2
   5  -1   6 75.8861 10.6064   1
   5   3   8 40.5955 5.10449  -2
  -5   0   6 40.5955 5.10449   1
  -4   0   6 41.3236 2.88834   1
  -3   0   6 325.146 5.71696   1
  -2   0   6 185.352 3.69041   1
  -1   0   6 136.163 2.52714   1
   0   0   6 1296.34 19.3382  -2
   0   0   6 1296.34 19.3382   1
   1   0   6 433.992 6.83435   1
   2   0   6 854.109 12.4394   1
   3   0   6 390.409 9.22980   1
   4   0   6 264.100 13.6048   1
  -5  -3   4 444.042 22.7197  -2
   5   0   6 444.042 22.7197   1
   5   4   8 49.4641 5.84821  -2
  -5   1   6 49.4641 5.84821   1
  -4   1   6 119.261 6.59885   1
  -3   1   6 218.811 4.67766   1
   2   2   7 675.550 21.0930  -2
  -2   1   6 675.550 21.0930   1
  -1   1   6 56.7719 1.68736   1
   0   1   6 -0.7401 0.42533  -2
   0   1   6 -0.7401 0.42533   1
   1   1   6 58.0922 2.47085   1
   2   1   6 91.5805 3.16206   1
   3   1   6 15.3843 2.61924   1
   4   1   6 81.6569 8.21501   1
  -5  -2   4 53.0488 7.95897  -2
   5   1   6 53.0488 7.95897   1
   5   5   8 141.734 9.80818  -2
  -5   2   6 141.734 9.80818   1
  -4   2   6 246.919 9.69139   1
  -3   2   6 616.702 10.6053   1
   2   3   7 1327.49 37.5972  -2
  -2   2   6 1327.49 37.5972   1
  -1   2   6 6.38241 0.86624   1
   0   2   6 1626.14 28.3075  -2
   0   2   6 1626.14 28.3075   1
   1   2   6 5.75065 1.53411   1
   2   2   6 1067.49 15.5538   1
   3   2   6 15.7109 2.61882   1
   4   2   6 99.0901 7.68692   1
  -5  -1   4 0.83292 4.96118  -2
   5   2   6 0.83292 4.96118   1
  -4   3   6 -0.7380 1.29723   1
  -3   3   6 194.823 5.86713   1
  -2   3   6 108.806 3.09689   1
  -1   3   6 23.9420 1.64408   1
   0   3   6 719.479 18.9801  -2
   0   3   6 719.479 18.9801   1
   1   3   6 1813.79 40.3268   1
   2   3   6 188.467 5.79889   1
   3   3   6 126.930 6.16331   1
   4   3   6 708.091 27.4748   1
  -5   0   4 124.974 11.6648  -2
   5   3   6 124.974 11.6648   1
  -4   4   6 9.64578 2.55869   1
  -3   4   6 172.197 7.87671   1
  -2   4   6 11.7640 1.38148   1
  -1   4   6 -0.1560 0.45458   1
   0   4   6 27.9331 3.17143  -2
   0   4   6 27.9331 3.17143   1
   1   4   6 11.7737 2.24001   1
   2   4   6 102.256 5.05527   1
   3   4   6 81.4913 8.59018   1
   4   4   6 52.7869 6.91995   1
  -5   1   4 18.0505 6.49111  -2
   5   4   6 18.0505 6.49111   1
  -4   5   6 60.1718 6.22399   1
  -3   5   6 384.305 13.1401   1
  -2   5   6 67.2020 2.80482   1
  -1   5   6 736.459 20.4580   1
   0   5   6 1412.19 34.2790  -2
   0   5   6 1412.19 34.2790   1
   1   5   6 590.611 16.8495   1
   2   5   6 166.283 7.18495   1
   3   5   6 845.030 32.5266   1
   4   5   6 79.3638 9.32354   1
  -5   2   4 13.7858 6.60229  -2
   5   5   6 13.7858 6.60229   1
  -4   6   6 32.7454 6.58636   1
  -3   6   6 16.9023 3.41114   1
  -2   6   6 92.1396 3.64193   1
  -1   6   6 185.028 8.73845   1
   0   6   6 967.879 25.9811  -2
   0   6   6 967.879 25.9811   1
   1   6   6 267.239 10.4605   1
   2   6   6 364.026 12.2744   1
   3   6   6 1126.09 42.5990   1
   4   6   6 243.674 15.7123   1
  -5   3   4 163.793 14.1482  -2
   5   6   6 163.793 14.1482   1
  -4   7   6 74.5714 10.0895   1
   3   9   7 68.6633 8.73513  -2
  -3   7   6 68.6633 8.73513   1
  -2   7   6 22.2662 3.47058   1
  -1   7   6 29.4877 4.05407   1
   0   7   6 809.382 23.5784  -2
   0   7   6 809.382 23.5784   1
   1   7   6 16.5626 3.24075   1
   2   7   6 7.54048 2.31674   1
   3   7   6 91.6756 11.2746   1
   4   7   6 1.13539 3.11320   1
  -3   8   6 62.1026 8.98799   1
  -2   8   6 177.285 8.74548   1
  -1   8   6 779.778 24.0023   1
   0   8   6 13.8476 3.34983  -2
   0   8   6 13.8476 3.34983   1
   1   8   6 92.7970 6.91434   1
   2   8   6 446.542 24.7114   1
   3   8   6 81.8199 11.6465   1
   4   8   6 4.00357 3.60087   1
  -3   9   6 58.4904 9.46941   1
  -2   9   6 0.72627 2.60290   1
  -1   9   6 0.43325 1.78102   1
   0   9   6 41.3941 5.32802  -2
   0   9   6 41.3941 5.32802   1
   1   9   6 27.7698 4.61559   1
   2   9   6 32.1651 8.37503   1
   3   9   6 36.2407 8.74019   1
   4   9   6 0.80110 3.75951   1
  -2  10   6 24.5211 6.25608   1
  -1  10   6 -2.2851 1.94408   1
   0  10   6 123.102 9.04645  -2
   0  10   6 123.102 9.04645   1
   1  10   6 -0.8915 1.82788   1
   2  10   6 17.3085 6.75234   1
   3  10   6 -0.5242 3.63758   1
  -2  11   6 162.295 16.5989   1
  -1  11   6 102.674 12.9256   1
   0  11   6 860.173 28.5499  -2
   0  11   6 860.173 28.5499   1
   1  11   6 240.091 24.4610   1
   2  11   6 269.154 22.0962   1
   3  11   6 73.7959 13.9006   1
  -1  12   6 7.11929 4.44428   1
   0  12   6 36.6577 4.72509  -2
   0  12   6 36.6577 4.72509   1
   1  12   6 11.0637 6.81033   1
   2  12   6 25.6770 9.23635   1
   2  -9   8 85.4439 13.7006  -2
  -2 -10   7 85.4439 13.7006   1
  -1 -10   7 292.419 23.9796   1
   0 -10   7 202.605 17.9517  -2
   0 -10   7 202.605 17.9517   1
   1 -10   7 671.258 19.8324   1
   3  -7   8 95.4684 12.5109  -2
  -3  -9   7 95.4684 12.5109   1
   2  -8   8 53.0625 10.8235  -2
  -2  -9   7 53.0625 10.8235   1
  -1  -9   7 7.35488 3.00207   1
   0  -9   7 34.0155 3.65577  -2
   0  -9   7 34.0155 3.65577   1
   1  -9   7 4.18506 1.59667   1
   2  -9   7 5.28107 3.87290   1
   3  -6   8 131.830 13.8903  -2
  -3  -8   7 131.830 13.8903   1
   2  -7   8 198.979 16.3399  -2
  -2  -8   7 198.979 16.3399   1
  -1  -8   7 151.654 9.09246   1
   0  -8   7 113.629 5.93055  -2
   0  -8   7 113.629 5.93055   1
   1  -8   7 49.4512 4.31242   1
   2  -8   7 2.12392 1.77213   1
   3  -8   7 19.7680 6.01139   1
  -4  -7   7 0.57449 3.12986   1
   3  -5   8 24.1169 7.54734  -2
  -3  -7   7 24.1169 7.54734   1
  -2  -7   7 9.60610 2.93645   1
  -1  -7   7 11.6731 2.29510   1
   0  -7   7 170.882 6.83472  -2
   0  -7   7 170.882 6.83472   1
   1  -7   7 152.734 6.37201   1
  -2  -8   6 375.224 14.4021  -2
   2  -7   7 375.224 14.4021   1
   3  -7   7 164.587 8.77895   1
  -4  -6   7 63.2345 10.1341   1
   3  -4   8 118.736 10.7244  -2
  -3  -6   7 118.736 10.7244   1
  -2  -6   7 6.18481 2.51562   1
  -1  -6   7 14.3855 2.44301   1
   0  -6   7 -0.5526 1.05777  -2
   0  -6   7 -0.5526 1.05777   1
   1  -6   7 96.6368 4.90530   1
  -2  -7   6 295.173 11.6987  -2
   2  -6   7 295.173 11.6987   1
   3  -6   7 3.71585 2.02220   1
  -4  -5   7 138.142 7.89519   1
  -3  -5   7 47.7362 5.29523   1
   2  -4   8 1102.16 41.4437  -2
  -2  -5   7 1102.16 41.4437   1
  -1  -5   7 1874.47 34.6493   1
   0  -5   7 128.054 5.38065  -2
   0  -5   7 128.054 5.38065   1
   1  -5   7 248.596 6.60065   1
  -2  -6   6 626.597 28.1946  -2
   2  -5   7 626.597 28.1946   1
   3  -5   7 21.4419 3.51264   1
   4  -5   7 1.22215 1.64483   1
  -4  -4   7 6.12597 2.32388   1
  -3  -4   7 32.9830 4.20303   1
   2  -3   8 88.9180 9.13696  -2
  -2  -4   7 88.9180 9.13696   1
  -1  -4   7 3.29578 1.20673   1
   0  -4   7 869.683 15.2134  -2
   0  -4   7 869.683 15.2134   1
   1  -4   7 1005.89 14.5367   1
  -2  -5   6 696.411 30.7135  -2
   2  -4   7 696.411 30.7135   1
   3  -4   7 52.3342 5.10430   1
   4  -4   7 157.033 8.41042   1
  -4  -3   7 2.72595 1.71690   1
  -3  -3   7 50.3215 4.72913   1
   2  -2   8 105.062 8.83255  -2
  -2  -3   7 105.062 8.83255   1
  -1  -3   7 150.002 3.81973   1
   0  -3   7 376.164 7.83441  -2
   0  -3   7 376.164 7.83441   1
   1  -3   7 -0.3943 0.40019   1
  -2  -4   6 424.291 22.2367  -2
   2  -3   7 424.291 22.2367   1
   3  -3   7 65.0581 3.94955   1
   4  -3   7 217.581 9.53751   1
  -5  -2   7 8.29941 2.81782   1
  -4  -2   7 -1.4311 1.06746   1
  -3  -2   7 3.09984 1.44288   1
   2  -1   8 614.736 15.8889  -2
  -2  -2   7 614.736 15.8889   1
  -1  -2   7 138.212 3.45726   1
   0  -2   7 470.707 7.18698  -2
   0  -2   7 470.707 7.18698   1
   1  -2   7 438.214 7.06261   1
   2  -2   7 286.948 6.34002   1
   3  -2   7 30.9956 2.62950   1
   4  -2   7 24.8091 3.73902   1
   5   2   9 14.7630 4.15927  -2
  -5  -1   7 14.7630 4.15927   1
  -4  -1   7 201.063 6.24654   1
  -3  -1   7 104.514 4.29546   1
   2   0   8 4.21841 2.26231  -2
  -2  -1   7 4.21841 2.26231   1
  -1  -1   7 3.91623 0.69405   1
   0  -1   7 148.763 3.92263  -2
   0  -1   7 148.763 3.92263   1
   1  -1   7 424.231 7.99279   1
   2  -1   7 104.214 2.92156   1
   3  -1   7 241.961 7.86578   1
   4  -1   7 132.543 9.98646   1
  -5  -4   5 98.6964 12.1774  -2
   5  -1   7 98.6964 12.1774   1
   5   3   9 8.69837 4.03886  -2
  -5   0   7 8.69837 4.03886   1
  -4   0   7 20.7243 4.07730   1
  -3   0   7 747.787 11.8193   1
   2   1   8 185.850 9.54917  -2
  -2   0   7 185.850 9.54917   1
  -1   0   7 61.6825 2.11186   1
   0   0   7 1.55460 0.52011  -2
   0   0   7 1.55460 0.52011   1
   1   0   7 4.48363 0.63106   1
   2   0   7 327.092 6.55212   1
   3   0   7 25.6843 2.31884   1
   4   0   7 63.8573 7.73366   1
  -5  -3   5 51.7559 9.11674  -2
   5   0   7 51.7559 9.11674   1
  -5   1   7 14.0708 3.69332   1
  -4   1   7 23.7585 3.55309   1
  -3   1   7 33.0155 2.24925   1
  -2   1   7 827.894 10.4898   1
  -1   1   7 1587.59 19.1069   1
   0   1   7 966.154 13.4255  -2
   0   1   7 966.154 13.4255   1
   1   1   7 208.630 4.43700   1
   2   1   7 30.8652 2.02962   1
   3   1   7 48.2460 3.29230   1
   4   1   7 24.8243 4.83896   1
  -5  -2   5 -0.9627 5.71342  -2
   5   1   7 -0.9627 5.71342   1
  -4   2   7 59.6340 5.55045   1
  -3   2   7 272.256 6.03283   1
  -2   2   7 133.840 3.08794   1
  -1   2   7 1.75631 0.63419   1
   0   2   7 429.695 9.65084  -2
   0   2   7 429.695 9.65084   1
   1   2   7 77.2518 3.18689   1
   2   2   7 839.398 16.1722   1
   3   2   7 35.1539 5.40353   1
   4   2   7 21.3741 4.46328   1
  -5  -1   5 125.667 11.8303  -2
   5   2   7 125.667 11.8303   1
  -4   3   7 1.19409 1.48866   1
  -3   3   7 44.0357 3.71710   1
  -2   3   7 10.9003 1.27444   1
  -1   3   7 14.8863 1.45122   1
   0   3   7 650.599 13.4193  -2
   0   3   7 650.599 13.4193   1
   1   3   7 89.7236 4.94688   1
   2   3   7 311.114 10.1780   1
   3   3   7 26.5699 4.91503   1
   4   3   7 6.63180 3.16324   1
  -5   0   5 57.0548 9.37190  -2
   5   3   7 57.0548 9.37190   1
  -4   4   7 0.91535 1.59208   1
  -3   4   7 3.10259 1.73342   1
  -2   4   7 156.473 4.87564   1
  -1   4   7 90.9949 3.72510   1
   0   4   7 35.7700 3.74503  -2
   0   4   7 35.7700 3.74503   1
   1   4   7 391.476 12.4885   1
   2   4   7 46.9734 4.31148   1
   3   4   7 0.66407 1.90062   1
   4   4   7 6.45648 3.06697   1
  -5   1   5 47.2876 8.72882  -2
   5   4   7 47.2876 8.72882   1
  -4   5   7 219.827 10.4577   1
  -3   5   7 153.796 7.90131   1
  -2   5   7 14.6913 1.67901   1
  -1   5   7 393.138 9.42468   1
   0   5   7 745.270 21.1743  -2
   0   5   7 745.270 21.1743   1
   1   5   7 41.0880 4.15632   1
   2   5   7 28.3662 3.48286   1
   3   5   7 171.083 12.0800   1
   4   5   7 -1.6661 1.70291   1
  -5   2   5 15.1241 7.01667  -2
   5   5   7 15.1241 7.01667   1
  -4   6   7 91.6625 10.9211   1
  -3   6   7 0.36574 1.42952   1
  -2   6   7 104.651 4.03173   1
  -1   6   7 375.898 13.7194   1
   0   6   7 685.136 20.5174  -2
   0   6   7 685.136 20.5174   1
   1   6   7 274.651 10.9178   1
   2   6   7 208.249 9.01080   1
   3   6   7 590.903 27.0478   1
   4   6   7 38.8126 7.39710   1
  -5   3   5 80.5229 11.0636  -2
   5   6   7 80.5229 11.0636   1
   3   9   8 5.91535 6.00364  -2
  -3   7   7 5.91535 6.00364   1
  -2   7   7 -0.7865 1.05715   1
  -1   7   7 13.6037 3.12205   1
   0   7   7 860.475 24.8915  -2
   0   7   7 860.475 24.8915   1
   1   7   7 118.800 7.56669   1
   2   7   7 70.3072 6.20571   1
   3   7   7 5.49806 3.72579   1
   4   7   7 85.5095 11.5289   1
  -3   8   7 131.198 13.6739   1
  -2   8   7 268.842 11.1436   1
  -1   8   7 455.620 17.0250   1
   0   8   7 1096.39 30.8803  -2
   0   8   7 1096.39 30.8803   1
   1   8   7 40.2503 5.23550   1
   2   8   7 10.3505 4.63025   1
   3   8   7 3.11043 3.59259   1
   4   8   7 27.5638 7.44605   1
  -3   9   7 4.25374 3.39926   1
  -2   9   7 8.66618 2.83865   1
  -1   9   7 49.9820 6.23978   1
   0   9   7 222.835 11.5847  -2
   0   9   7 222.835 11.5847   1
   1   9   7 9.65333 3.17249   1
   2   9   7 161.072 18.1343   1
   3   9   7 99.7062 14.2484   1
   4   9   7 10.1167 5.60909   1
  -2  10   7 18.6685 5.56592   1
  -1  10   7 6.53739 3.98877   1
   0  10   7 23.2157 4.83169  -2
   0  10   7 23.2157 4.83169   1
   1  10   7 -0.1214 1.91325   1
   2  10   7 10.8324 5.85908   1
   3  10   7 2.92901 4.22513   1
  -1  11   7 231.778 17.0087   1
   0  11   7 540.081 21.4550  -2
   0  11   7 540.081 21.4550   1
   1  11   7 199.600 22.4214   1
   2  11   7 203.916 23.1134   1
   3  11   7 5.11685 4.94930   1
   0  12   7 47.2121 7.04830  -2
   0  12   7 47.2121 7.04830   1
   1  12   7 19.3053 8.90781   1
   2  12   7 54.7570 12.6204   1
  -1 -10   8 54.7902 12.5381   1
   0 -10   8 93.2854 12.7585  -2
   0 -10   8 93.2854 12.7585   1
   1 -10   8 160.204 17.0711   1
   2  -8   9 225.196 18.8513  -2
  -2  -9   8 225.196 18.8513   1
  -1  -9   8 46.7611 11.2359   1
   0  -9   8 62.1666 4.81601  -2
   0  -9   8 62.1666 4.81601   1
   1  -9   8 38.9203 4.23063   1
   2  -9   8 43.1131 8.84916   1
   3  -6   9 51.7227 10.2986  -2
  -3  -8   8 51.7227 10.2986   1
   2  -7   9 4.26407 7.02929  -2
  -2  -8   8 4.26407 7.02929   1
  -1  -8   8 28.2024 4.44921   1
   0  -8   8 2.81904 1.98957  -2
   0  -8   8 2.81904 1.98957   1
   1  -8   8 0.88739 1.23416   1
  -2  -9   7 41.9774 11.5822  -2
   2  -8   8 41.9774 11.5822   1
   3  -5   9 98.9345 11.1100  -2
  -3  -7   8 98.9345 11.1100   1
   2  -6   9 38.4560 4.91364  -2
  -2  -7   8 38.4560 4.91364   1
  -1  -7   8 227.871 10.4230   1
   0  -7   8 1.75567 1.55852  -2
   0  -7   8 1.75567 1.55852   1
   1  -7   8 194.085 7.35111   1
  -2  -8   7 238.594 9.49758  -2
   2  -7   8 238.594 9.49758   1
   3  -7   8 122.184 14.0334   1
  -4  -6   8 7.60747 4.65231   1
   3  -4   9 74.9130 9.64321  -2
  -3  -6   8 74.9130 9.64321   1
   2  -5   9 173.331 8.59211  -2
  -2  -6   8 173.331 8.59211   1
  -1  -6   8 1.16365 1.19054   1
   0  -6   8 350.563 10.1894  -2
   0  -6   8 350.563 10.1894   1
   1  -6   8 18.9229 2.44303   1
   2  -6   8 -0.9074 0.73636   1
   3  -6   8 -2.1358 1.45475   1
  -4  -5   8 136.065 8.39092   1
  -3  -5   8 99.6227 7.66861   1
   2  -4   9 517.010 25.5696  -2
  -2  -5   8 517.010 25.5696   1
  -1  -5   8 434.242 11.5386   1
   0  -5   8 1968.37 36.1816  -2
   0  -5   8 1968.37 36.1816   1
   1  -5   8 36.8635 2.50939   1
  -2  -6   7 75.8645 4.82596  -2
   2  -5   8 75.8645 4.82596   1
   3  -5   8 23.2483 3.71778   1
   4  -5   8 -1.2737 2.03136   1
  -4  -4   8 4.20916 2.02349   1
  -3  -4   8 3.85089 1.73214   1
   2  -3   9 582.523 25.9724  -2
  -2  -4   8 582.523 25.9724   1
  -1  -4   8 61.5694 4.16771   1
   0  -4   8 387.249 10.0004  -2
   0  -4   8 387.249 10.0004   1
   1  -4   8 838.649 12.9087   1
  -2  -5   7 1080.93 29.3910  -2
   2  -4   8 1080.93 29.3910   1
   3  -4   8 124.350 6.69161   1
   4  -4   8 56.9866 5.85644   1
  -4  -3   8 -0.1966 1.30519   1
  -3  -3   8 0.15531 1.24911   1
   2  -2   9 225.960 13.8548  -2
  -2  -3   8 225.960 13.8548   1
  -1  -3   8 48.1658 2.75033   1
   0  -3   8 151.651 4.53942  -2
   0  -3   8 151.651 4.53942   1
   1  -3   8 37.5836 1.88222   1
  -2  -4   7 74.6054 9.99808  -2
   2  -3   8 74.6054 9.99808   1
   3  -3   8 99.6535 4.42401   1
   4  -3   8 15.2498 3.09717   1
  -4  -2   8 19.9421 3.03591   1
  -3  -2   8 347.300 11.3027   1
   2  -1   9 489.121 17.7583  -2
  -2  -2   8 489.121 17.7583   1
  -1  -2   8 350.628 6.46356   1
   0  -2   8 636.141 11.4188  -2
   0  -2   8 636.141 11.4188   1
   1  -2   8 317.549 5.55519   1
   2  -2   8 84.2488 3.28521   1
   3  -2   8 1.11855 0.91427   1
   4  -2   8 1.29656 2.06922   1
  -4  -1   8 223.527 6.99121   1
  -3  -1   8 10.9493 2.03559   1
   2   0   9 891.586 27.5042  -2
  -2  -1   8 891.586 27.5042   1
  -1  -1   8 309.601 5.71703   1
   0  -1   8 866.329 14.4557  -2
   0  -1   8 866.329 14.4557   1
   1  -1   8 687.486 12.0032   1
   2  -1   8 307.075 7.17019   1
   3  -1   8 99.4875 3.88147   1
   4  -1   8 297.027 16.4618   1
  -4   0   8 21.1154 4.57234   1
   3   2   9 449.648 18.9595  -2
  -3   0   8 449.648 18.9595   1
   2   1   9 1121.12 32.9071  -2
  -2   0   8 1121.12 32.9071   1
  -1   0   8 32.0200 1.78663   1
   0   0   8 87.7658 2.94682  -2
   0   0   8 87.7658 2.94682   1
   1   0   8 10.1070 1.36663   1
   2   0   8 7.20635 1.09576   1
   3   0   8 155.459 5.07919   1
   4   0   8 1.96580 2.32063   1
  -5  -3   6 15.8015 7.46937  -2
   5   0   8 15.8015 7.46937   1
  -4   1   8 173.335 8.99170   1
  -3   1   8 588.540 10.8928   1
  -2   1   8 634.227 8.71028   1
  -1   1   8 1601.45 19.5701   1
   0   1   8 1177.11 16.2089  -2
   0   1   8 1177.11 16.2089   1
   1   1   8 2256.73 32.0092   1
   2   1   8 0.67553 0.54295   1
   3   1   8 0.17266 1.20292   1
   4   1   8 26.1380 5.37433   1
  -5  -2   6 21.8354 7.79879  -2
   5   1   8 21.8354 7.79879   1
  -4   2   8 -0.8175 1.38696   1
  -3   2   8 18.9110 1.74941   1
  -2   2   8 6.10576 0.82819   1
  -1   2   8 154.818 4.17242   1
   0   2   8 50.5438 2.77320  -2
   0   2   8 50.5438 2.77320   1
   1   2   8 114.849 4.18898   1
   2   2   8 215.107 5.14712   1
   3   2   8 1299.48 44.8912   1
   4   2   8 8.79019 3.43595   1
  -5  -1   6 258.337 17.9150  -2
   5   2   8 258.337 17.9150   1
  -4   3   8 33.3925 4.56802   1
  -3   3   8 70.7523 5.99170   1
  -2   3   8 5.10434 1.09675   1
  -1   3   8 17.7369 1.67729   1
   0   3   8 45.5759 2.72443  -2
   0   3   8 45.5759 2.72443   1
   1   3   8 1.40597 1.07513   1
   2   3   8 64.4754 5.14256   1
   3   3   8 0.63277 2.08919   1
   4   3   8 34.1811 6.13904   1
  -5   0   6 71.7296 10.4765  -2
   5   3   8 71.7296 10.4765   1
  -4   4   8 60.6287 6.21739   1
  -3   4   8 259.696 10.4646   1
  -2   4   8 600.593 12.5988   1
  -1   4   8 487.865 11.0792   1
   0   4   8 838.300 17.1205  -2
   0   4   8 838.300 17.1205   1
   1   4   8 587.485 17.2291   1
   2   4   8 352.101 11.8758   1
   3   4   8 43.6712 6.85450   1
   4   4   8 18.9580 4.96984   1
  -5   1   6 56.5922 9.72962  -2
   5   4   8 56.5922 9.72962   1
  -4   5   8 81.7340 9.97672   1
  -3   5   8 12.1690 3.04457   1
   2   6   9 245.812 9.59006  -2
  -2   5   8 245.812 9.59006   1
  -1   5   8 19.1430 2.08731   1
   0   5   8 19.7038 3.27524  -2
   0   5   8 19.7038 3.27524   1
   1   5   8 65.1000 5.76031   1
   2   5   8 194.626 8.48640   1
   3   5   8 11.7183 4.09083   1
   4   5   8 76.6701 9.92379   1
  -5   2   6 167.335 15.1724  -2
   5   5   8 167.335 15.1724   1
  -4   6   8 44.4866 7.95049   1
  -3   6   8 64.6320 6.39521   1
  -2   6   8 193.906 6.44447   1
  -1   6   8 334.980 8.91040   1
   0   6   8 420.931 15.1117  -2
   0   6   8 420.931 15.1117   1
   1   6   8 24.6228 3.89323   1
   2   6   8 0.80484 1.37038   1
   3   6   8 83.2854 10.6310   1
   4   6   8 4.38034 3.62415   1
  -3   7   8 50.6110 5.91689   1
  -2   7   8 299.284 11.5868   1
  -1   7   8 -0.2788 1.57372   1
   0   7   8 1288.23 34.2702  -2
   0   7   8 1288.23 34.2702   1
   1   7   8 1341.08 34.7875   1
   2   7   8 184.119 9.61031   1
   3   7   8 102.834 12.8889   1
   4   7   8 271.209 18.5193   1
  -3   8   8 23.9764 6.33700   1
  -2   8   8 -0.8200 1.55244   1
  -1   8   8 208.024 10.8757   1
   0   8   8 80.8867 6.71374  -2
   0   8   8 80.8867 6.71374   1
   1   8   8 49.0160 5.91291   1
   2   8   8 138.943 15.7167   1
   3   8   8 105.700 13.7894   1
   4   8   8 809.039 37.9820   1
  -2   9   8 55.2815 6.21029   1
  -1   9   8 0.81805 2.55318   1
   0   9   8 70.8915 6.74541  -2
   0   9   8 70.8915 6.74541   1
   1   9   8 1.20962 2.10033   1
   2   9   8 0.26542 3.60871   1
   3   9   8 -0.4318 3.40787   1
   4   9   8 -2.9759 2.95883   1
  -2  10   8 17.4135 5.66205   1
  -1  10   8 112.728 12.8611   1
   0  10   8 331.600 15.5306  -2
   0  10   8 331.600 15.5306   1
   1  10   8 161.697 10.4213   1
   2  10   8 42.2957 10.0996   1
   3  10   8 141.157 18.8081   1
  -1  11   8 19.3680 5.98290   1
   0  11   8 10.0506 4.70229  -2
   0  11   8 10.0506 4.70229   1
   1  11   8 1.16334 4.31554   1
   2  11   8 -0.0420 4.35829   1
   3  11   8 45.8891 10.9032   1
   0  12   8 4.53590 6.14675  -2
   0  12   8 4.53590 6.14675   1
   1  12   8 29.1631 10.0171   1
   2  -8  10 271.271 22.1059  -2
  -2  -9   9 271.271 22.1059   1
  -1  -9   9 161.674 20.2542   1
   0  -9   9 347.337 23.6166  -2
   0  -9   9 347.337 23.6166   1
   1  -9   9 23.2119 3.51164   1
   3  -6  10 8.90397 8.15373  -2
  -3  -8   9 8.90397 8.15373   1
   2  -7  10 48.4569 10.5838  -2
  -2  -8   9 48.4569 10.5838   1
  -1  -8   9 54.8671 7.05981   1
   0  -8   9 534.551 14.5207  -2
   0  -8   9 534.551 14.5207   1
   1  -8   9 57.3881 4.81931   1
  -2  -9   8 297.499 23.3188  -2
   2  -8   9 297.499 23.3188   1
   3  -5  10 71.9263 10.4221  -2
  -3  -7   9 71.9263 10.4221   1
   2  -6  10 26.4451 8.41337  -2
  -2  -7   9 26.4451 8.41337   1
  -1  -7   9 60.9463 6.12009   1
   0  -7   9 16.2863 2.56983  -2
   0  -7   9 16.2863 2.56983   1
   1  -7   9 0.30136 1.18094   1
  -2  -8   8 12.6345 2.96769  -2
   2  -7   9 12.6345 2.96769   1
   3  -7   9 6.22987 3.88077   1
   3  -4  10 191.531 15.6979  -2
  -3  -6   9 191.531 15.6979   1
   2  -5  10 324.699 12.4888  -2
  -2  -6   9 324.699 12.4888   1
  -1  -6   9 3.63246 1.87583   1
   0  -6   9 446.489 12.1355  -2
   0  -6   9 446.489 12.1355   1
   1  -6   9 288.742 7.11329   1
  -2  -7   8 41.5459 10.3068  -2
   2  -6   9 41.5459 10.3068   1
   3  -6   9 20.1191 6.30293   1
  -4  -5   9 0.54242 3.46681   1
  -3  -5   9 1.33830 1.56657   1
   2  -4  10 23.4197 7.18406  -2
  -2  -5   9 23.4197 7.18406   1
  -1  -5   9 5.80783 1.69853   1
   0  -5   9 20.4744 2.72499  -2
   0  -5   9 20.4744 2.72499   1
   1  -5   9 28.5050 2.26195   1
  -2  -6   8 173.469 7.67543  -2
   2  -5   9 173.469 7.67543   1
   3  -5   9 160.351 12.9989   1
  -4  -4   9 41.8622 5.12257   1
  -3  -4   9 40.3090 4.89309   1
   2  -3  10 242.707 9.54700  -2
  -2  -4   9 242.707 9.54700   1
  -1  -4   9 4.08002 1.09402   1
   0  -4   9 80.6966 4.28234  -2
   0  -4   9 80.6966 4.28234   1
   1  -4   9 11.2121 1.35381   1
  -2  -5   8 376.548 15.0175  -2
   2  -4   9 376.548 15.0175   1
   3  -4   9 51.9243 5.06735   1
   4  -4   9 67.0249 9.67412   1
  -4  -3   9 47.2449 4.97087   1
  -3  -3   9 282.725 10.6825   1
   2  -2  10 371.046 15.2116  -2
  -2  -3   9 371.046 15.2116   1
  -1  -3   9 711.643 12.5427   1
   0  -3   9 1282.21 24.7716  -2
   0  -3   9 1282.21 24.7716   1
   1  -3   9 545.907 9.81270   1
  -2  -4   8 573.906 28.7317  -2
   2  -3   9 573.906 28.7317   1
   3  -3   9 465.165 14.0825   1
   4  -3   9 53.1192 8.69453   1
  -4  -2   9 50.2889 4.77729   1
  -3  -2   9 68.5020 5.57223   1
   2  -1  10 202.133 9.99564  -2
  -2  -2   9 202.133 9.99564   1
  -1  -2   9 127.106 3.70729   1
   0  -2   9 39.7784 2.89324  -2
   0  -2   9 39.7784 2.89324   1
   1  -2   9 59.9512 3.16797   1
   2  -2   9 188.475 9.00432   1
   3  -2   9 386.152 19.7175   1
   4  -2   9 14.8494 4.38103   1
  -4  -1   9 75.3270 5.05385   1
  -3  -1   9 315.714 10.5691   1
   2   0  10 76.7622 5.62457  -2
  -2  -1   9 76.7622 5.62457   1
  -1  -1   9 83.6436 2.63175   1
   0  -1   9 99.0136 3.50387  -2
   0  -1   9 99.0136 3.50387   1
   1  -1   9 123.526 3.85846   1
   2  -1   9 17.3385 2.56321   1
   3  -1   9 5.94194 3.09275   1
   4  -1   9 62.8620 8.70232   1
  -4   0   9 10.3700 3.50105   1
  -3   0   9 3.50188 1.06206   1
   2   1  10 386.498 14.4570  -2
  -2   0   9 386.498 14.4570   1
  -1   0   9 73.3245 3.09590   1
   0   0   9 147.804 4.23436  -2
   0   0   9 147.804 4.23436   1
   1   0   9 135.405 4.48264   1
   2   0   9 1159.32 21.3940   1
   3   0   9 61.9445 4.90722   1
   4   0   9 76.2363 9.46498   1
  -4   1   9 65.5112 6.19429   1
  -3   1   9 116.952 4.10499   1
  -2   1   9 31.7941 2.20951   1
  -1   1   9 57.9639 2.14716   1
   0   1   9 17.2400 1.18884  -2
   0   1   9 17.2400 1.18884   1
   1   1   9 66.3343 2.35807   1
   2   1   9 94.6483 3.92046   1
   3   1   9 124.094 6.14212   1
   4   1   9 168.818 12.3957   1
  -4   2   9 9.95812 2.80950   1
  -3   2   9 23.7542 2.38041   1
  -2   2   9 125.007 3.79128   1
  -1   2   9 41.1327 2.52826   1
   0   2   9 76.2056 3.70166  -2
   0   2   9 76.2056 3.70166   1
   1   2   9 17.0477 2.04275   1
   2   2   9 36.4346 2.96694   1
   3   2   9 151.856 10.9813   1
   4   2   9 188.571 12.9819   1
  -5  -1   7 40.2041 9.16756  -2
   5   2   9 40.2041 9.16756   1
  -4   3   9 1.87723 1.87442   1
  -3   3   9 22.9273 3.67702   1
  -2   3   9 117.204 4.56241   1
  -1   3   9 191.905 5.05331   1
   0   3   9 1145.86 22.2497  -2
   0   3   9 1145.86 22.2497   1
   1   3   9 133.002 4.89612   1
   2   3   9 320.126 11.3138   1
   3   3   9 94.2936 10.2304   1
   4   3   9 24.7309 5.83730   1
  -5   0   7 8.28045 7.13286  -2
   5   3   9 8.28045 7.13286   1
  -4   4   9 12.6208 3.32659   1
  -3   4   9 86.0201 7.02112   1
  -2   4   9 175.985 5.73449   1
  -1   4   9 213.725 5.48495   1
   0   4   9 9.47817 1.49150  -2
   0   4   9 9.47817 1.49150   1
   1   4   9 268.775 10.5695   1
   2   4   9 -0.1385 1.20027   1
   3   4   9 -0.1939 1.75292   1
   4   4   9 24.6672 5.74561   1
  -4   5   9 1.57432 2.64659   1
  -3   5   9 4.06387 2.15418   1
  -2   5   9 118.621 4.60440   1
  -1   5   9 2.71417 1.11311   1
   0   5   9 481.011 11.7282  -2
   0   5   9 481.011 11.7282   1
   1   5   9 267.553 10.9456   1
   2   5   9 9.64812 2.58808   1
   3   5   9 16.1888 4.90651   1
   4   5   9 17.7500 5.37412   1
  -3   6   9 6.25878 2.41089   1
  -2   6   9 4.98549 2.05952   1
  -1   6   9 241.712 7.27468   1
   0   6   9 818.381 24.3224  -2
   0   6   9 818.381 24.3224   1
   1   6   9 153.299 8.17069   1
   2   6   9 132.937 7.45319   1
   3   6   9 90.2789 11.1826   1
   4   6   9 2.25984 2.94641   1
  -3   7   9 41.1983 5.36654   1
  -2   7   9 153.511 8.14836   1
  -1   7   9 1.78086 1.16182   1
   0   7   9 245.948 11.6811  -2
   0   7   9 245.948 11.6811   1
   1   7   9 295.993 12.5695   1
   2   7   9 170.516 14.2896   1
   3   7   9 100.961 13.3796   1
   4   7   9 142.039 16.3805   1
  -3   8   9 7.93815 4.00279   1
  -2   8   9 5.21029 2.29911   1
  -1   8   9 31.7210 5.11548   1
   0   8   9 29.2719 4.54623  -2
   0   8   9 29.2719 4.54623   1
   1   8   9 85.0845 8.07023   1
   2   8   9 90.8399 13.4626   1
   3   8   9 48.2312 9.89420   1
   4   8   9 181.966 18.9992   1
  -2   9   9 18.2249 3.84595   1
  -1   9   9 4.39638 3.61454   1
   0   9   9 31.6529 5.02513  -2
   0   9   9 31.6529 5.02513   1
   1   9   9 2.65282 2.00894   1
   2   9   9 8.85803 5.41178   1
   3   9   9 12.3819 6.14446   1
  -2  10   9 10.8669 4.93695   1
  -1  10   9 219.345 16.4415   1
   0  10   9 493.731 20.0020  -2
   0  10   9 493.731 20.0020   1
   1  10   9 112.708 10.4992   1
   2  10   9 42.4044 10.4697   1
   3  10   9 25.3658 8.65750   1
  -1  11   9 19.7647 6.33953   1
   0  11   9 38.2003 6.33901  -2
   0  11   9 38.2003 6.33901   1
   1  11   9 2.99668 5.06810   1
   2  11   9 1.39940 4.45748   1
   1  12   9 136.816 20.0345   1
  -1  -9  10 120.405 18.1093   1
   0  -9  10 -2.1231 5.31106  -2
   0  -9  10 -2.1231 5.31106   1
   1  -9  10 -0.2115 2.85362   1
   2  -7  11 121.638 14.9526  -2
  -2  -8  10 121.638 14.9526   1
  -1  -8  10 8.36538 5.97913   1
   0  -8  10 75.8129 10.9432  -2
   0  -8  10 75.8129 10.9432   1
   1  -8  10 104.538 6.26374   1
  -2  -9   9 263.613 23.5689  -2
   2  -8  10 263.613 23.5689   1
   3  -5  11 -0.9814 6.69818  -2
  -3  -7  10 -0.9814 6.69818   1
   2  -6  11 71.0061 11.2647  -2
  -2  -7  10 71.0061 11.2647   1
  -1  -7  10 262.422 11.5078   1
   0  -7  10 54.3770 4.73118  -2
   0  -7  10 54.3770 4.73118   1
   1  -7  10 127.985 6.27495   1
  -2  -8   9 35.0231 4.43141  -2
   2  -7  10 35.0231 4.43141   1
   3  -4  11 129.146 13.2512  -2
  -3  -6  10 129.146 13.2512   1
   2  -5  11 143.373 14.4257  -2
  -2  -6  10 143.373 14.4257   1
  -1  -6  10 57.0443 5.95611   1
   0  -6  10 -1.4813 1.27855  -2
   0  -6  10 -1.4813 1.27855   1
   1  -6  10 3.01607 1.25023   1
  -2  -7   9 22.7721 3.83809  -2
   2  -6  10 22.7721 3.83809   1
   3  -6  10 0.36263 2.64804   1
   3  -3  11 14.2514 6.94033  -2
  -3  -5  10 14.2514 6.94033   1
   2  -4  11 63.4738 5.54305  -2
  -2  -5  10 63.4738 5.54305   1
  -1  -5  10 30.0144 3.97380   1
   0  -5  10 275.769 8.96769  -2
   0  -5  10 275.769 8.96769   1
   1  -5  10 3.49191 1.49599   1
  -2  -6   9 294.921 22.3185  -2
   2  -5  10 294.921 22.3185   1
   3  -5  10 61.6604 9.56744   1
  -4  -4  10 20.2448 6.41329   1
  -3  -4  10 53.5419 5.51422   1
   2  -3  11 61.8855 5.28365  -2
  -2  -4  10 61.8855 5.28365   1
  -1  -4  10 8.04059 1.67169   1
   0  -4  10 10.3198 1.82080  -2
   0  -4  10 10.3198 1.82080   1
   1  -4  10 2.01546 0.69504   1
  -2  -5   9 26.4766 9.58750  -2
   2  -4  10 26.4766 9.58750   1
   3  -4  10 15.5733 4.81929   1
  -4  -3  10 292.463 11.4019   1
  -3  -3  10 207.251 9.06390   1
   2  -2  11 180.380 10.0128  -2
  -2  -3  10 180.380 10.0128   1
  -1  -3  10 963.045 16.0877   1
   0  -3  10 933.667 19.8117  -2
   0  -3  10 933.667 19.8117   1
   1  -3  10 337.886 9.50707   1
  -2  -4   9 360.808 21.9305  -2
   2  -3  10 360.808 21.9305   1
   3  -3  10 80.0188 10.3507   1
   4  -3  10 4.21228 3.35075   1
  -4  -2  10 23.3487 3.44895   1
  -3  -2  10 44.9050 4.64731   1
   2  -1  11 176.885 9.58699  -2
  -2  -2  10 176.885 9.58699   1
  -1  -2  10 270.015 6.03745   1
   0  -2  10 167.308 6.02002  -2
   0  -2  10 167.308 6.02002   1
   1  -2  10 172.034 6.15421   1
   2  -2  10 429.729 15.3256   1
   3  -2  10 179.223 13.0370   1
   4  -2  10 20.5999 5.59590   1
  -4  -1  10 90.2144 7.49215   1
  -3  -1  10 65.7792 5.20738   1
   2   0  11 203.361 9.92583  -2
  -2  -1  10 203.361 9.92583   1
  -1  -1  10 94.1739 4.49022   1
   0  -1  10 112.391 4.87571  -2
   0  -1  10 112.391 4.87571   1
   1  -1  10 4.01063 1.20146   1
  -2  -2   9 155.677 11.3729  -2
   2  -1  10 155.677 11.3729   1
   3  -1  10 8.13580 3.59757   1
   4  -1  10 41.3861 7.83631   1
  -4   0  10 103.742 11.1019   1
  -3   0  10 243.276 7.60206   1
   2   1  11 414.480 15.5130  -2
  -2   0  10 414.480 15.5130   1
  -1   0  10 660.731 14.5483   1
   0   0  10 620.969 13.8663  -2
   0   0  10 620.969 13.8663   1
   1   0  10 141.629 6.18129   1
   2   0  10 100.665 3.89279   1
   3   0  10 657.140 28.2766   1
   4   0  10 13.8240 4.64340   1
  -4   1  10 -0.3645 1.74735   1
  -3   1  10 2.98175 1.17282   1
  -2   1  10 105.658 4.32806   1
  -1   1  10 172.348 3.95605   1
   0   1  10 282.088 11.3465  -2
   0   1  10 282.088 11.3465   1
   1   1  10 337.914 12.3193   1
   2   1  10 530.143 11.7133   1
   3   1  10 14.7884 4.48291   1
   4   1  10 49.5511 7.98006   1
  -4   2  10 172.136 9.56629   1
  -3   2  10 147.794 7.67293   1
  -2   2  10 413.854 10.2169   1
  -1   2  10 271.818 6.46461   1
   0   2  10 356.843 7.24990  -2
   0   2  10 356.843 7.24990   1
   1   2  10 17.4790 3.22465   1
   2   2  10 139.959 5.04736   1
   3   2  10 15.1411 4.55681   1
   4   2  10 64.3872 9.29788   1
  -4   3  10 455.292 16.0991   1
  -3   3  10 193.030 8.98674   1
  -2   3  10 734.764 15.3101   1
  -1   3  10 753.198 13.4090   1
   0   3  10 1847.47 44.5598  -2
   0   3  10 1847.47 44.5598   1
   1   3  10 370.695 13.2031   1
   2   3  10 426.861 10.4608   1
   3   3  10 69.1006 9.12948   1
   4   3  10 70.0924 9.95839   1
  -4   4  10 13.9766 3.63674   1
  -3   4  10 -0.5553 1.37640   1
  -2   4  10 14.2372 2.02702   1
  -1   4  10 113.316 3.96545   1
   0   4  10 28.8356 4.02397  -2
   0   4  10 28.8356 4.02397   1
   1   4  10 12.6775 2.98572   1
   2   4  10 86.8285 6.21725   1
   3   4  10 31.5869 6.54231   1
   4   4  10 108.773 12.3191   1
  -3   5  10 68.9863 6.74532   1
  -2   5  10 152.445 5.56113   1
  -1   5  10 81.7016 3.73766   1
   0   5  10 2.16336 2.23535  -2
   0   5  10 2.16336 2.23535   1
   1   5  10 113.582 7.52084   1
   2   5  10 -0.5459 1.28769   1
   3   5  10 2.61930 3.09312   1
   4   5  10 5.12175 3.68135   1
  -3   6  10 96.5923 8.16634   1
  -2   6  10 239.497 10.2188   1
  -1   6  10 599.640 19.9616   1
   0   6  10 1137.85 31.5645  -2
   0   6  10 1137.85 31.5645   1
   1   6  10 0.50740 1.47257   1
   2   6  10 335.429 15.4570   1
   3   6  10 87.1787 11.5288   1
   4   6  10 140.175 15.1089   1
  -3   7  10 3.23480 2.20677   1
  -2   7  10 2.21319 1.75015   1
  -1   7  10 97.9220 8.72493   1
   0   7  10 21.8796 4.09491  -2
   0   7  10 21.8796 4.09491   1
   1   7  10 -0.7764 1.60663   1
   2   7  10 32.9214 7.91567   1
   3   7  10 93.4932 13.1926   1
   4   7  10 84.4921 12.7685   1
  -2   8  10 30.3369 4.37648   1
  -1   8  10 232.045 15.8812   1
   0   8  10 3.10817 3.09944  -2
   0   8  10 3.10817 3.09944   1
   1   8  10 3.84089 2.32460   1
   2   8  10 1.97938 3.47582   1
   3   8  10 -4.1417 2.31938   1
   4   8  10 18.9875 7.21760   1
  -2   9  10 28.5441 4.75507   1
  -1   9  10 186.913 14.9185   1
   0   9  10 5.69514 3.72085  -2
   0   9  10 5.69514 3.72085   1
   1   9  10 224.481 12.1131   1
   2   9  10 235.559 19.3078   1
   3   9  10 119.198 16.4419   1
  -1  10  10 20.5308 6.22267   1
   0  10  10 241.327 13.4824  -2
   0  10  10 241.327 13.4824   1
   2  10  10 66.0958 12.9834   1
   3  10  10 19.9220 8.22273   1
   0  11  10 3.09749 5.22366  -2
   0  11  10 3.09749 5.22366   1
   1  11  10 -1.3095 4.14194   1
   2  11  10 133.574 19.3343   1
  -1  -8  11 8.69761 6.35970   1
   0  -8  11 0.97832 5.28718  -2
   0  -8  11 0.97832 5.28718   1
   1  -8  11 1.64915 3.57433   1
   2  -6  12 134.411 15.3783  -2
  -2  -7  11 134.411 15.3783   1
  -1  -7  11 518.556 30.9799   1
   0  -7  11 968.320 43.2290  -2
   0  -7  11 968.320 43.2290   1
   1  -7  11 92.3329 5.83241   1
  -2  -8  10 96.7101 7.06583  -2
   2  -7  11 96.7101 7.06583   1
  -3  -6  11 3.76918 4.48002   1
   2  -5  12 33.5038 9.33787  -2
  -2  -6  11 33.5038 9.33787   1
  -1  -6  11 7.40732 2.30372   1
   0  -6  11 56.2583 4.59341  -2
   0  -6  11 56.2583 4.59341   1
   1  -6  11 303.220 9.96171   1
  -2  -7  10 66.3201 13.3650  -2
   2  -6  11 66.3201 13.3650   1
  -3  -5  11 95.4345 13.6826   1
   2  -4  12 79.8178 11.3000  -2
  -2  -5  11 79.8178 11.3000   1
  -1  -5  11 65.7769 6.02670   1
   0  -5  11 34.0412 3.39367  -2
   0  -5  11 34.0412 3.39367   1
   1  -5  11 -0.1991 1.10788   1
  -2  -6  10 93.9158 15.4099  -2
   2  -5  11 93.9158 15.4099   1
   3  -5  11 8.59000 4.58031   1
  -3  -4  11 206.921 9.77164   1
   2  -3  12 128.256 7.44162  -2
  -2  -4  11 128.256 7.44162   1
  -1  -4  11 275.649 10.8116   1
   0  -4  11 244.357 8.39116  -2
   0  -4  11 244.357 8.39116   1
   1  -4  11 192.267 7.10596   1
  -2  -5  10 93.9270 13.2678  -2
   2  -4  11 93.9270 13.2678   1
   3  -4  11 51.2157 8.94889   1
  -3  -3  11 103.991 6.79230   1
   2  -2  12 48.4778 5.67562  -2
  -2  -3  11 48.4778 5.67562   1
  -1  -3  11 69.8857 4.82061   1
   0  -3  11 17.4507 2.52979  -2
   0  -3  11 17.4507 2.52979   1
   1  -3  11 0.20731 0.89004   1
  -2  -4  10 42.0585 10.9926  -2
   2  -3  11 42.0585 10.9926   1
   3  -3  11 12.6306 4.93456   1
  -4  -2  11 -2.5483 2.27755   1
  -3  -2  11 228.078 9.50910   1
   2  -1  12 944.696 30.7617  -2
  -2  -2  11 944.696 30.7617   1
  -1  -2  11 76.1193 4.40741   1
   0  -2  11 30.4554 3.02959  -2
   0  -2  11 30.4554 3.02959   1
   1  -2  11 5.71155 1.60452   1
  -2  -3  10 124.058 11.0624  -2
   2  -2  11 124.058 11.0624   1
   3  -2  11 68.5451 9.82685   1
   4  -2  11 66.6679 10.2157   1
  -4  -1  11 1.08658 2.04048   1
  -3  -1  11 29.7685 3.82196   1
   2   0  12 224.051 10.9360  -2
  -2  -1  11 224.051 10.9360   1
  -1  -1  11 124.970 5.44101   1
   0  -1  11 1331.77 26.1955  -2
   0  -1  11 1331.77 26.1955   1
   1  -1  11 1059.26 29.0920   1
  -2  -2  10 108.362 10.3260  -2
   2  -1  11 108.362 10.3260   1
   3  -1  11 209.522 14.5979   1
   4  -1  11 305.356 19.0781   1
  -4   0  11 14.8831 4.69385   1
  -3   0  11 11.9028 2.16627   1
  -2   0  11 66.2007 4.32950   1
  -1   0  11 132.136 4.73738   1
   0   0  11 53.0911 3.33971  -2
   0   0  11 53.0911 3.33971   1
   1   0  11 14.2179 2.55025   1
   2   0  11 119.326 7.81367   1
   3   0  11 213.079 14.4904   1
   4   0  11 16.2703 5.37996   1
  -4   1  11 9.93179 4.12994   1
  -3   1  11 51.3652 3.71736   1
  -2   1  11 2.25165 0.99531   1
  -1   1  11 22.4928 1.95101   1
   0   1  11 105.293 7.38365  -2
   0   1  11 105.293 7.38365   1
   1   1  11 59.8837 6.08386   1
   2   1  11 100.434 4.54792   1
   3   1  11 1.35673 2.50029   1
   4   1  11 59.7974 9.28832   1
  -4   2  11 16.5409 3.57244   1
  -3   2  11 2.00700 1.91751   1
  -2   2  11 12.6857 2.60106   1
  -1   2  11 1.90924 1.06533   1
   0   2  11 285.813 7.11509  -2
   0   2  11 285.813 7.11509   1
   1   2  11 63.0966 5.99678   1
   2   2  11 145.463 5.28398   1
   3   2  11 117.343 12.4595   1
   4   2  11 121.052 13.3766   1
  -4   3  11 30.8331 4.77964   1
  -3   3  11 90.8042 7.41976   1
  -2   3  11 267.564 10.2007   1
  -1   3  11 114.506 5.36147   1
   0   3  11 95.1990 7.23345  -2
   0   3  11 95.1990 7.23345   1
   1   3  11 48.5760 5.38942   1
   2   3  11 6.29254 1.51126   1
   3   3  11 31.2582 6.82507   1
   4   3  11 -1.6191 2.37176   1
  -3   4  11 46.4298 5.43000   1
  -2   4  11 66.3161 5.91598   1
  -1   4  11 671.629 15.3143   1
   0   4  11 231.536 10.8445  -2
   0   4  11 231.536 10.8445   1
   1   4  11 109.897 7.53880   1
   2   4  11 4.35461 2.11930   1
   3   4  11 1.64426 2.89925   1
   4   4  11 66.7109 10.2541   1
  -3   5  11 -0.9152 1.70581   1
  -2   5  11 -0.2744 1.44894   1
  -1   5  11 1.75303 1.23979   1
   0   5  11 792.912 24.2113  -2
   0   5  11 792.912 24.2113   1
   1   5  11 484.293 16.7847   1
   2   5  11 8.57305 2.79202   1
   3   5  11 72.5750 10.7461   1
   4   5  11 10.6444 4.78158   1
  -3   6  11 56.7366 6.42352   1
  -2   6  11 82.3196 7.21492   1
  -1   6  11 377.891 15.3905   1
   0   6  11 283.032 12.9820  -2
   0   6  11 283.032 12.9820   1
   1   6  11 33.3207 5.03077   1
   2   6  11 72.6124 10.8109   1
   3   6  11 -1.8029 2.50004   1
   4   6  11 43.8554 8.96461   1
  -3   7  11 -1.2447 2.76343   1
  -2   7  11 10.2427 2.84252   1
  -1   7  11 19.3283 5.62591   1
   0   7  11 10.4457 3.48788  -2
   0   7  11 10.4457 3.48788   1
   1   7  11 -0.0766 1.92859   1
   2   7  11 27.4390 7.39224   1
   3   7  11 2.53275 3.81525   1
   4   7  11 22.2617 7.28530   1
  -2   8  11 17.4627 3.75169   1
  -1   8  11 19.9457 5.84865   1
   0   8  11 95.6045 7.92670  -2
   0   8  11 95.6045 7.92670   1
   1   8  11 6.97974 3.08835   1
   2   8  11 -0.8474 3.75653   1
   3   8  11 45.3255 9.94464   1
  -2   9  11 292.403 19.9776   1
  -1   9  11 72.9967 11.2465   1
   0   9  11 3.36031 3.84355  -2
   0   9  11 3.36031 3.84355   1
   1   9  11 169.515 11.2448   1
   2   9  11 160.966 19.3391   1
   3   9  11 42.7246 10.5855   1
  -1  10  11 10.3432 5.26389   1
   0  10  11 79.7827 8.20059  -2
   0  10  11 79.7827 8.20059   1
   1  10  11 76.8484 14.5683   1
   2  10  11 55.8737 12.1733   1
   0  11  11 4.86889 5.63206  -2
   0  11  11 4.86889 5.63206   1
   1  11  11 5.67087 5.44964   1
   0  -8  12 103.431 13.2383  -2
   0  -8  12 103.431 13.2383   1
  -2  -7  12 22.7571 8.31381   1
  -1  -7  12 31.3282 9.28363   1
   0  -7  12 305.196 21.4784  -2
   0  -7  12 305.196 21.4784   1
   1  -7  12 68.9767 8.53630   1
   2  -5  13 187.909 16.8173  -2
  -2  -6  12 187.909 16.8173   1
  -1  -6  12 3.86150 5.10452   1
   0  -6  12 8.96932 6.07471  -2
   0  -6  12 8.96932 6.07471   1
   1  -6  12 55.3946 5.01238   1
  -2  -7  11 132.421 17.9459  -2
   2  -6  12 132.421 17.9459   1
  -3  -5  12 9.19133 5.75093   1
   2  -4  13 88.0613 12.2148  -2
  -2  -5  12 88.0613 12.2148   1
  -1  -5  12 2.61038 1.75597   1
   0  -5  12 130.877 6.54841  -2
   0  -5  12 130.877 6.54841   1
   1  -5  12 50.4941 4.50471   1
  -2  -6  11 61.1620 13.2589  -2
   2  -5  12 61.1620 13.2589   1
  -3  -4  12 64.7585 11.3479   1
   2  -3  13 279.540 19.8628  -2
  -2  -4  12 279.540 19.8628   1
  -1  -4  12 97.1557 6.56054   1
   0  -4  12 112.730 5.77265  -2
   0  -4  12 112.730 5.77265   1
   1  -4  12 134.275 6.02246   1
  -2  -5  11 37.7525 11.9116  -2
   2  -4  12 37.7525 11.9116   1
   3  -4  12 11.4321 4.95166   1
  -3  -3  12 174.257 9.21315   1
   2  -2  13 162.476 8.17698  -2
  -2  -3  12 162.476 8.17698   1
  -1  -3  12 35.2258 4.42606   1
   0  -3  12 0.99855 1.36121  -2
   0  -3  12 0.99855 1.36121   1
   1  -3  12 120.483 6.10711   1
  -2  -4  11 113.944 15.1748  -2
   2  -3  12 113.944 15.1748   1
   3  -3  12 73.0201 10.7769   1
  -3  -2  12 42.6613 4.87774   1
   2  -1  13 139.630 7.46285  -2
  -2  -2  12 139.630 7.46285   1
  -1  -2  12 2.12495 1.29483   1
   0  -2  12 146.163 5.97337  -2
   0  -2  12 146.163 5.97337   1
   1  -2  12 0.12897 1.09841   1
  -2  -3  11 39.8161 10.4843  -2
   2  -2  12 39.8161 10.4843   1
  -3  -4  11 154.158 18.3150  -2
   3  -2  12 154.158 18.3150   1
  -3  -1  12 111.057 5.94726   1
   2   0  13 338.103 14.6343  -2
  -2  -1  12 338.103 14.6343   1
  -1  -1  12 231.450 7.81219   1
   0  -1  12 1562.71 30.4766  -2
   0  -1  12 1562.71 30.4766   1
   1  -1  12 514.594 14.7865   1
   2  -1  12 979.757 39.3803   1
   3  -1  12 27.7711 6.60563   1
   4  -1  12 75.8362 11.0564   1
  -3   0  12 3.49991 1.60338   1
  -2   0  12 1.18512 1.07827   1
  -1   0  12 6.72185 1.47273   1
   0   0  12 410.597 9.83548  -2
   0   0  12 410.597 9.83548   1
   1   0  12 2.24718 1.69714   1
   2   0  12 37.9223 5.20465   1
   3   0  12 300.487 18.8710   1
   4   0  12 234.216 17.0549   1
  -3   1  12 95.1427 4.85836   1
  -2   1  12 35.0249 2.98977   1
  -1   1  12 11.8907 1.54458   1
   0   1  12 202.909 10.3316  -2
   0   1  12 202.909 10.3316   1
   1   1  12 2.29290 1.86571   1
   2   1  12 27.2655 4.30208   1
   3   1  12 12.8868 4.81208   1
   4   1  12 5.73745 3.72044   1
  -3   2  12 104.938 7.97087   1
  -2   2  12 62.7122 5.42523   1
  -1   2  12 376.240 9.96768   1
   0   2  12 659.425 13.4992  -2
   0   2  12 659.425 13.4992   1
   1   2  12 345.273 8.26431   1
   2   2  12 273.843 11.8226   1
   3   2  12 221.469 15.6829   1
   4   2  12 52.3394 9.43534   1
  -3   3  12 8.82202 2.73984   1
  -2   3  12 105.509 7.65685   1
  -1   3  12 0.18566 1.16883   1
   0   3  12 36.4248 2.57568  -2
   0   3  12 36.4248 2.57568   1
   1   3  12 142.294 8.31871   1
   2   3  12 67.6078 6.55562   1
   3   3  12 163.410 13.5265   1
   4   3  12 37.6976 8.00486   1
  -3   4  12 236.245 10.8766   1
  -2   4  12 111.194 7.93017   1
  -1   4  12 517.869 13.1698   1
   0   4  12 1869.55 46.7317  -2
   0   4  12 1869.55 46.7317   1
   1   4  12 3.13607 1.95299   1
   2   4  12 26.4269 6.39848   1
   3   4  12 15.3932 5.31530   1
   4   4  12 2.12617 3.66186   1
  -3   5  12 168.335 10.1668   1
  -2   5  12 140.466 8.67151   1
  -1   5  12 367.847 12.2165   1
   0   5  12 509.823 18.5205  -2
   0   5  12 509.823 18.5205   1
   1   5  12 865.541 25.6720   1
   2   5  12 259.977 17.8430   1
   3   5  12 367.225 22.1091   1
   4   5  12 1.22063 3.45116   1
  -3   6  12 22.2800 4.52186   1
  -2   6  12 2.94435 1.99842   1
  -1   6  12 4.33028 1.96514   1
   0   6  12 78.5533 7.20825  -2
   0   6  12 78.5533 7.20825   1
   1   6  12 12.5213 3.54124   1
   2   6  12 -0.4218 2.74677   1
   3   6  12 2.80503 3.65533   1
   4   6  12 16.6515 6.44773   1
  -2   7  12 63.9139 6.59933   1
  -1   7  12 123.258 13.6546   1
   0   7  12 71.6252 7.41715  -2
   0   7  12 71.6252 7.41715   1
   1   7  12 48.1974 6.23285   1
   2   7  12 -2.4313 2.66196   1
   3   7  12 2.33994 3.48358   1
  -2   8  12 26.0175 4.64985   1
  -1   8  12 144.671 15.0422   1
   0   8  12 480.240 19.3837  -2
   0   8  12 480.240 19.3837   1
   1   8  12 164.188 10.9617   1
   2   8  12 80.1719 13.0620   1
   3   8  12 118.942 16.1119   1
  -1   9  12 118.450 14.3341   1
   0   9  12 131.716 9.74037  -2
   0   9  12 131.716 9.74037   1
   1   9  12 23.2503 7.96211   1
   2   9  12 6.77974 5.47108   1
   3   9  12 -0.9296 3.77366   1
   0  10  12 347.994 22.9777  -2
   0  10  12 347.994 22.9777   1
   1  10  12 83.0423 15.0840   1
   2  10  12 41.9384 10.7623   1
  -1  -7  13 67.2936 13.5239   1
   0  -7  13 13.4299 6.80773  -2
   0  -7  13 13.4299 6.80773   1
  -2  -6  13 79.5782 14.1598   1
  -1  -6  13 47.9206 11.3157   1
   0  -6  13 65.6309 10.3185  -2
   0  -6  13 65.6309 10.3185   1
   1  -6  13 11.2851 4.00592   1
   2  -4  14 275.307 21.3901  -2
  -2  -5  13 275.307 21.3901   1
  -1  -5  13 152.154 18.3902   1
   0  -5  13 473.148 27.1404  -2
   0  -5  13 473.148 27.1404   1
   1  -5  13 224.239 12.7394   1
  -2  -6  12 262.166 22.8452  -2
   2  -5  13 262.166 22.8452   1
   2  -3  14 113.586 13.7095  -2
  -2  -4  13 113.586 13.7095   1
  -1  -4  13 3.13961 1.85599   1
   0  -4  13 35.6377 3.81689  -2
   0  -4  13 35.6377 3.81689   1
   1  -4  13 16.9172 2.85504   1
  -2  -5  12 119.631 16.0860  -2
   2  -4  13 119.631 16.0860   1
  -3  -3  13 34.2556 9.02781   1
   2  -2  14 19.7357 7.58449  -2
  -2  -3  13 19.7357 7.58449   1
  -1  -3  13 164.712 8.64465   1
   0  -3  13 115.690 5.97252  -2
   0  -3  13 115.690 5.97252   1
   1  -3  13 43.1911 4.14887   1
  -2  -4  12 211.148 21.2281  -2
   2  -3  13 211.148 21.2281   1
   3  -3  13 0.52169 3.03102   1
  -3  -2  13 69.3700 11.6428   1
   2  -1  14 158.335 8.21218  -2
  -2  -2  13 158.335 8.21218   1
  -1  -2  13 157.161 8.24232   1
   0  -2  13 253.439 8.92661  -2
   0  -2  13 253.439 8.92661   1
   1  -2  13 1.44236 1.00952   1
  -2  -3  12 195.643 18.6724  -2
   2  -2  13 195.643 18.6724   1
   3  -2  13 153.374 15.7779   1
  -3  -1  13 5.59072 1.80713   1
   2   0  14 11.7501 3.43943  -2
  -2  -1  13 11.7501 3.43943   1
  -1  -1  13 2.06630 1.38043   1
   0  -1  13 178.750 6.97365  -2
   0  -1  13 178.750 6.97365   1
   1  -1  13 10.1914 2.55667   1
   2  -1  13 2.55084 3.11075   1
   3  -1  13 145.644 15.3439   1
  -3   0  13 25.1390 3.51695   1
   2   1  14 265.978 18.1523  -2
  -2   0  13 265.978 18.1523   1
  -1   0  13 144.121 6.65281   1
   0   0  13 7.12233 2.34916  -2
   0   0  13 7.12233 2.34916   1
   1   0  13 28.5465 4.75323   1
   2   0  13 113.355 13.2004   1
   3   0  13 0.29857 2.89564   1
  -3   1  13 0.98719 1.21637   1
  -2   1  13 18.9074 2.99363   1
  -1   1  13 168.906 13.6639   1
   0   1  13 36.7232 5.13653  -2
   0   1  13 36.7232 5.13653   1
   1   1  13 353.205 14.3884   1
   2   1  13 297.595 18.6612   1
   3   1  13 183.759 14.7697   1
   4   1  13 109.060 14.0318   1
  -3   2  13 19.1847 5.82966   1
  -2   2  13 39.2130 4.46233   1
  -1   2  13 7.05291 2.06499   1
   0   2  13 552.542 19.4725  -2
   0   2  13 552.542 19.4725   1
   1   2  13 39.6845 5.54749   1
   2   2  13 34.7412 7.53131   1
   3   2  13 2.58764 3.20879   1
   4   2  13 8.34774 4.65176   1
  -3   3  13 10.3899 3.08171   1
  -2   3  13 70.1296 6.27379   1
  -1   3  13 224.959 8.65793   1
   0   3  13 8.99424 1.68075  -2
   0   3  13 8.99424 1.68075   1
   1   3  13 160.245 9.28193   1
   2   3  13 41.6665 8.01615   1
   3   3  13 11.8754 4.84964   1
   4   3  13 11.9619 5.59194   1
  -3   4  13 48.7595 5.80427   1
  -2   4  13 1.92233 1.84645   1
  -1   4  13 19.5685 3.06195   1
   0   4  13 13.3386 2.02962  -2
   0   4  13 13.3386 2.02962   1
   1   4  13 18.5802 4.03016   1
   2   4  13 58.2632 9.70630   1
   3   4  13 47.7936 9.25737   1
   4   4  13 238.039 18.1071   1
  -3   5  13 75.5699 7.48245   1
  -2   5  13 77.1997 6.94104   1
  -1   5  13 105.541 6.53794   1
   0   5  13 25.6078 4.63284  -2
   0   5  13 25.6078 4.63284   1
   1   5  13 58.8645 6.59333   1
   2   5  13 27.4455 7.26788   1
   3   5  13 5.43228 4.19172   1
  -2   6  13 16.6263 3.60562   1
  -1   6  13 40.8101 4.83253   1
   0   6  13 200.056 11.3028  -2
   0   6  13 200.056 11.3028   1
   1   6  13 50.2986 6.40532   1
   2   6  13 64.0066 11.2878   1
   3   6  13 18.6566 6.54311   1
  -2   7  13 30.2730 4.92113   1
  -1   7  13 0.46684 1.71316   1
   0   7  13 -0.4793 2.65593  -2
   0   7  13 -0.4793 2.65593   1
   1   7  13 17.1632 3.99595   1
   2   7  13 129.965 17.1943   1
   3   7  13 10.9827 5.88796   1
  -1   8  13 22.1374 3.98409   1
   0   8  13 349.386 16.4796  -2
   0   8  13 349.386 16.4796   1
   1   8  13 98.4428 9.43735   1
   2   8  13 0.81113 4.26472   1
   3   8  13 105.315 15.5784   1
  -1   9  13 24.6298 7.06731   1
   0   9  13 28.7084 7.05826  -2
   0   9  13 28.7084 7.05826   1
   1   9  13 13.0240 6.61213   1
   2   9  13 68.5154 13.3984   1
   1  10  13 36.7489 10.3119   1
   0  -6  14 36.1827 8.73405  -2
   0  -6  14 36.1827 8.73405   1
  -1  -5  14 59.9179 12.6010   1
   0  -5  14 165.170 15.6499  -2
   0  -5  14 165.170 15.6499   1
   1  -5  14 149.684 12.4736   1
   2  -3  15 201.899 18.0007  -2
  -2  -4  14 201.899 18.0007   1
  -1  -4  14 -1.3250 3.95132   1
   0  -4  14 43.2366 8.62147  -2
   0  -4  14 43.2366 8.62147   1
   1  -4  14 -0.8208 2.40992   1
  -2  -5  13 206.667 22.4048  -2
   2  -4  14 206.667 22.4048   1
   2  -2  15 52.3385 9.78673  -2
  -2  -3  14 52.3385 9.78673   1
  -1  -3  14 -1.6335 3.24902   1
   0  -3  14 1.14498 1.52735  -2
   0  -3  14 1.14498 1.52735   1
   1  -3  14 108.872 6.85633   1
  -2  -4  13 111.738 15.8870  -2
   2  -3  14 111.738 15.8870   1
   2  -1  15 257.799 20.1258  -2
  -2  -2  14 257.799 20.1258   1
  -1  -2  14 168.805 8.66486   1
   0  -2  14 233.650 8.70309  -2
   0  -2  14 233.650 8.70309   1
   1  -2  14 66.8644 6.33801   1
  -2  -3  13 8.01019 9.51811  -2
   2  -2  14 8.01019 9.51811   1
   3  -2  14 3.82747 3.70409   1
  -3  -1  14 5.85502 3.09218   1
   2   0  15 6.51738 7.46501  -2
  -2  -1  14 6.51738 7.46501   1
  -1  -1  14 1.04884 1.50349   1
   0  -1  14 95.2513 4.86816  -2
   0  -1  14 95.2513 4.86816   1
   1  -1  14 4.17333 2.20581   1
  -2  -2  13 108.924 15.5103  -2
   2  -1  14 108.924 15.5103   1
  -3  -3  13 56.3136 14.3949  -2
   3  -1  14 56.3136 14.3949   1
  -3   0  14 44.3601 5.36672   1
   2   1  15 154.205 10.2708  -2
  -2   0  14 154.205 10.2708   1
  -1   0  14 148.769 6.78929   1
   0   0  14 7.96934 2.64754  -2
   0   0  14 7.96934 2.64754   1
   1   0  14 64.6358 7.37742   1
   2   0  14 19.5033 6.13266   1
   3   0  14 12.5393 5.25848   1
  -3   1  14 48.0516 8.97418   1
  -2   1  14 288.478 10.9464   1
  -1   1  14 183.755 14.9698   1
   0   1  14 291.940 13.8655  -2
   0   1  14 291.940 13.8655   1
   1   1  14 695.892 22.9228   1
   2   1  14 209.718 16.1410   1
   3   1  14 189.219 15.7773   1
  -3   2  14 3.04815 3.81146   1
  -2   2  14 15.5985 5.39735   1
  -1   2  14 24.2072 6.13494   1
   0   2  14 142.777 9.82499  -2
   0   2  14 142.777 9.82499   1
   1   2  14 28.3714 4.75311   1
   2   2  14 13.5102 5.26273   1
   3   2  14 14.1394 5.69017   1
  -3   3  14 165.888 17.2798   1
  -2   3  14 178.738 14.7402   1
  -1   3  14 119.252 14.0066   1
   0   3  14 129.494 9.59641  -2
   0   3  14 129.494 9.59641   1
   1   3  14 161.290 9.64929   1
  -2   2  13 55.2628 11.8976  -2
   2   3  14 55.2628 11.8976   1
   3   3  14 3.73649 3.68961   1
  -2   4  14 41.6722 8.34110   1
  -1   4  14 164.490 13.9154   1
   0   4  14 301.669 14.1488  -2
   0   4  14 301.669 14.1488   1
   1   4  14 257.112 12.4353   1
   2   4  14 84.1670 12.4002   1
   3   4  14 47.0964 9.60346   1
  -2   5  14 1.98853 3.20508   1
  -1   5  14 -0.8747 2.53899   1
   0   5  14 78.5839 7.81051  -2
   0   5  14 78.5839 7.81051   1
   1   5  14 76.4533 7.98469   1
   2   5  14 24.1915 7.00863   1
   3   5  14 40.4260 9.25566   1
  -2   6  14 318.127 20.7133   1
  -1   6  14 168.614 14.5326   1
   0   6  14 601.124 22.2079  -2
   0   6  14 601.124 22.2079   1
   1   6  14 206.502 12.4068   1
   2   6  14 136.817 16.3590   1
   3   6  14 9.23983 5.20566   1
  -1   7  14 29.7632 4.84374   1
   0   7  14 434.713 18.8263  -2
   0   7  14 434.713 18.8263   1
   1   7  14 178.373 11.7110   1
   2   7  14 251.303 20.5198   1
  -1   8  14 5.70570 2.50338   1
   0   8  14 -1.2723 4.41413  -2
   0   8  14 -1.2723 4.41413   1
   1   8  14 4.49328 4.99020   1
   2   8  14 0.46371 4.22347   1
   0   9  14 87.8594 11.3945  -2
   0   9  14 87.8594 11.3945   1
   1   9  14 3.19062 4.42641   1
   0  -5  15 16.4496 7.10678  -2
   0  -5  15 16.4496 7.10678   1
  -1  -4  15 215.166 23.4310   1
   0  -4  15 179.904 16.5033  -2
   0  -4  15 179.904 16.5033   1
   1  -4  15 -2.1553 2.24787   1
  -2  -3  15 16.9218 7.57903   1
  -1  -3  15 187.405 21.3051   1
   0  -3  15 162.719 15.6200  -2
   0  -3  15 162.719 15.6200   1
   1  -3  15 359.086 16.8466   1
  -2  -4  14 326.972 25.9189  -2
   2  -3  15 326.972 25.9189   1
   2  -1  16 36.7466 10.2980  -2
  -2  -2  15 36.7466 10.2980   1
  -1  -2  15 0.58684 4.39706   1
   0  -2  15 -6.1277 3.72332  -2
   0  -2  15 -6.1277 3.72332   1
   1  -2  15 1.03731 1.95098   1
  -2  -3  14 25.8212 11.8042  -2
   2  -2  15 25.8212 11.8042   1
   2   0  16 71.2323 11.9271  -2
  -2  -1  15 71.2323 11.9271   1
  -1  -1  15 178.980 12.3293   1
   0  -1  15 208.808 10.1931  -2
   0  -1  15 208.808 10.1931   1
   1  -1  15 112.095 8.32034   1
  -2  -2  14 186.809 20.4889  -2
   2  -1  15 186.809 20.4889   1
   2   1  16 11.9044 7.82424  -2
  -2   0  15 11.9044 7.82424   1
  -1   0  15 98.4681 6.35115   1
   0   0  15 75.2516 7.78599  -2
   0   0  15 75.2516 7.78599   1
   1   0  15 111.036 10.0385   1
  -2  -1  14 33.0766 12.2288  -2
   2   0  15 33.0766 12.2288   1
   3   0  15 51.0570 10.0869   1
   2   2  16 40.8564 9.69777  -2
  -2   1  15 40.8564 9.69777   1
  -1   1  15 164.122 17.5638   1
   0   1  15 -0.8255 2.88730  -2
   0   1  15 -0.8255 2.88730   1
   1   1  15 94.7044 9.12494   1
   2   1  15 64.2846 11.0088   1
   3   1  15 2.75692 3.87958   1
  -2   2  15 11.3094 5.23058   1
  -1   2  15 243.856 17.6982   1
   0   2  15 606.550 22.0744  -2
   0   2  15 606.550 22.0744   1
   1   2  15 143.312 11.1216   1
   2   2  15 55.1127 10.0863   1
   3   2  15 19.7984 6.74820   1
  -2   3  15 10.9719 5.06088   1
  -1   3  15 -0.5448 2.79181   1
   0   3  15 87.3954 8.33372  -2
   0   3  15 87.3954 8.33372   1
   1   3  15 56.9180 7.02498   1
  -2   2  14 203.843 19.9416  -2
   2   3  15 203.843 19.9416   1
   3   3  15 165.131 17.7639   1
  -2   4  15 14.2047 5.76177   1
  -1   4  15 3.03006 3.34037   1
   0   4  15 161.953 11.1428  -2
   0   4  15 161.953 11.1428   1
   1   4  15 125.501 10.3805   1
  -2   3  14 150.848 19.4237  -2
   2   4  15 150.848 19.4237   1
   3   4  15 14.8811 6.16290   1
  -2   5  15 3.08805 3.50870   1
  -1   5  15 53.3724 9.58026   1
   0   5  15 1.57457 3.04605  -2
   0   5  15 1.57457 3.04605   1
   1   5  15 5.79424 2.96025   1
   2   5  15 24.1831 7.50104   1
   3   5  15 8.08273 5.24648   1
  -1   6  15 18.8036 6.27845   1
   0   6  15 133.734 13.1240  -2
   0   6  15 133.734 13.1240   1
   1   6  15 11.6363 3.75962   1
   2   6  15 8.74691 5.45617   1
  -1   7  15 176.187 18.3315   1
   0   7  15 145.795 14.1813  -2
   0   7  15 145.795 14.1813   1
   1   7  15 12.5111 6.67207   1
   2   7  15 41.4962 10.0452   1
   0   8  15 62.8552 9.93046  -2
   0   8  15 62.8552 9.93046   1
   1   8  15 246.075 25.2098   1
  -1  -3  16 134.639 18.5581   1
   0  -3  16 64.3487 10.5991  -2
   0  -3  16 64.3487 10.5991   1
   1  -3  16 73.6235 11.8283   1
  -1  -2  16 -0.9346 2.62819   1
   0  -2  16 13.2604 4.39592  -2
   0  -2  16 13.2604 4.39592   1
   1  -2  16 4.62189 2.59787   1
  -1  -1  16 44.6081 6.98609   1
   0  -1  16 69.5334 7.21632  -2
   0  -1  16 69.5334 7.21632   1
   1  -1  16 23.7549 5.13537   1
  -2  -2  15 26.9411 11.8283  -2
   2  -1  16 26.9411 11.8283   1
  -2   0  16 23.5476 7.21129   1
  -1   0  16 81.2669 12.9114   1
   0   0  16 433.532 25.3719  -2
   0   0  16 433.532 25.3719   1
   1   0  16 16.4602 4.54869   1
  -2  -1  15 99.6307 16.6467  -2
   2   0  16 99.6307 16.6467   1
  -2   1  16 3.38920 4.24158   1
  -1   1  16 139.838 16.1552   1
   0   1  16 132.074 13.1285  -2
   0   1  16 132.074 13.1285   1
   1   1  16 56.5937 7.10929   1
  -2   0  15 -0.9370 10.6178  -2
   2   1  16 -0.9370 10.6178   1
  -2   2  16 36.7627 8.49345   1
  -1   2  16 87.4615 12.5118   1
   0   2  16 434.584 24.7759  -2
   0   2  16 434.584 24.7759   1
   1   2  16 35.2742 5.81664   1
   2   2  16 26.4984 7.61966   1
  -1   3  16 58.2268 10.8074   1
   0   3  16 142.819 13.5283  -2
   0   3  16 142.819 13.5283   1
   1   3  16 104.744 9.84432   1
  -2   2  15 482.268 31.3000  -2
   2   3  16 482.268 31.3000   1
  -1   4  16 0.00477 3.00886   1
   0   4  16 -1.3421 4.12593  -2
   0   4  16 -1.3421 4.12593   1
   1   4  16 30.7645 5.71225   1
  -2   3  15 66.8055 15.1604  -2
   2   4  16 66.8055 15.1604   1
  -1   5  16 91.8787 13.3810   1
   0   5  16 87.0449 11.0026  -2
   0   5  16 87.0449 11.0026   1
   1   5  16 14.9680 4.22026   1
  -2   4  15 76.5173 16.0050  -2
   2   5  16 76.5173 16.0050   1
   0   6  16 33.0586 7.74940  -2
   0   6  16 33.0586 7.74940   1
   1   6  16 88.1164 14.5560   1
   1   7  16 1.40525 4.59274   1
   0  -1  17 288.678 15.0157  -2
   0  -1  17 288.678 15.0157   1
  -1   0  17 1.88896 4.27455   1
   0   0  17 129.318 13.8874  -2
   0   0  17 129.318 13.8874   1
   1   0  17 20.7429 7.14274   1
  -1   1  17 42.1047 9.89586   1
   0   1  17 7.08884 5.81456  -2
   0   1  17 7.08884 5.81456   1
   1   1  17 246.539 15.2934   1
  -1   2  17 32.3318 8.54898   1
   0   2  17 31.5293 7.59612  -2
   0   2  17 31.5293 7.59612   1
   1   2  17 13.4489 4.47648   1
  -1   3  17 2.93210 3.96485   1
   0   3  17 -4.5519 4.17442  -2
   0   3  17 -4.5519 4.17442   1
   1   3  17 -0.0369 3.55165   1
   0   4  17 122.113 12.9978  -2
   0   4  17 122.113 12.9978   1
   1   4  17 101.571 15.2705   1
   0   5  17 8.74696 5.50208  -2
   0   5  17 8.74696 5.50208   1
   1   5  17 22.6000 7.93254   1
   0   0   0    0.00    0.00   0
;
_shelx_hkl_checksum              77358
loop_
_space_group_symop_operation_xyz
'x, y, z'
'-x, -y, -z'
loop_
_atom_site_label
_atom_site_type_symbol
_atom_site_fract_x
_atom_site_fract_y
_atom_site_fract_z
_atom_site_U_iso_or_equiv
_atom_site_adp_type
_atom_site_occupancy
_atom_site_site_symmetry_order
_atom_site_calc_flag
_atom_site_refinement_flags_posn
_atom_site_refinement_flags_adp
_atom_site_refinement_flags_occupancy
_atom_site_disorder_assembly
_atom_site_disorder_group
C1 C 1.1880(4) -0.01309(16) 0.42214(11) 0.0159(3) Uani 1 1 d . . . . .
C2 C 0.9841(4) 0.09855(15) 0.41614(11) 0.0164(4) Uani 1 1 d . . . . .
H2 H 0.9732 0.1633 0.3609 0.020 Uiso 1 1 calc R U . . .
C3 C 0.7973(4) 0.10890(15) 0.49650(11) 0.0158(3) Uani 1 1 d . . . . .
C4 C 0.5594(4) 0.21301(16) 0.51482(11) 0.0174(4) Uani 1 1 d . . . . .
C5 C 0.2116(4) 0.25647(17) 0.65484(12) 0.0204(4) Uani 1 1 d . . . . .
H5A H 0.0901 0.2001 0.6999 0.025 Uiso 1 1 calc R U . . .
H5B H 0.0780 0.3099 0.6071 0.025 Uiso 1 1 calc R U . . .
C6 C 0.3538(4) 0.34601(16) 0.70942(12) 0.0194(4) Uani 1 1 d . . . . .
H6A H 0.4889 0.3962 0.6648 0.023 Uiso 1 1 calc R U . . .
H6B H 0.4758 0.2917 0.7599 0.023 Uiso 1 1 calc R U . . .
C7 C 0.1285(4) 0.44156(17) 0.75561(12) 0.0198(4) Uani 1 1 d . . . . .
H7A H 0.0166 0.5006 0.7048 0.024 Uiso 1 1 calc R U . . .
H7B H -0.0156 0.3920 0.7968 0.024 Uiso 1 1 calc R U . . .
C8 C 0.2745(4) 0.52336(17) 0.81570(12) 0.0195(4) Uani 1 1 d . . . . .
H8A H 0.4093 0.5766 0.7734 0.023 Uiso 1 1 calc R U . . .
H8B H 0.3980 0.4637 0.8632 0.023 Uiso 1 1 calc R U . . .
C9 C 0.0568(4) 0.61429(17) 0.86855(12) 0.0199(4) Uani 1 1 d . . . . .
H9A H -0.0602 0.6772 0.8211 0.024 Uiso 1 1 calc R U . . .
H9B H -0.0838 0.5619 0.9090 0.024 Uiso 1 1 calc R U . . .
C10 C 0.2096(4) 0.68995(16) 0.93129(12) 0.0197(4) Uani 1 1 d . . . . .
H10A H 0.3416 0.7459 0.8901 0.024 Uiso 1 1 calc R U . . .
H10B H 0.3364 0.6269 0.9759 0.024 Uiso 1 1 calc R U . . .
C11 C -0.0036(4) 0.77583(17) 0.98940(12) 0.0232(4) Uani 1 1 d . . . . .
H11A H -0.1402 0.7207 1.0292 0.028 Uiso 1 1 calc R U . . .
H11B H -0.1253 0.8414 0.9450 0.028 Uiso 1 1 calc R U . . .
C12 C 0.1550(4) 0.84679(18) 1.05415(13) 0.0275(4) Uani 1 1 d . . . . .
H12A H 0.2828 0.7827 1.0965 0.041 Uiso 1 1 calc R U . . .
H12B H 0.0073 0.8958 1.0929 0.041 Uiso 1 1 calc R U . . .
H12C H 0.2771 0.9076 1.0148 0.041 Uiso 1 1 calc R U . . .
C13 C 0.5841(4) 0.05562(16) 0.64915(12) 0.0177(4) Uani 1 1 d . . . . .
S1 S 0.45376(11) 0.34823(4) 0.44448(3) 0.02562(13) Uani 1 1 d . . . . .
S2 S 0.51271(11) -0.01858(4) 0.75643(3) 0.02571(14) Uani 1 1 d . . . . .
N1 N 0.4396(3) 0.17416(13) 0.60585(9) 0.0173(3) Uani 1 1 d . . . . .
loop_
_atom_site_aniso_label
_atom_site_aniso_U_11
_atom_site_aniso_U_22
_atom_site_aniso_U_33
_atom_site_aniso_U_23
_atom_site_aniso_U_13
_atom_site_aniso_U_12
C1 0.0186(8) 0.0163(8) 0.0149(8) -0.0043(6) -0.0036(7) -0.0064(7)
C2 0.0206(9) 0.0140(8) 0.0156(8) -0.0016(6) -0.0039(7) -0.0055(7)
C3 0.0183(8) 0.0131(8) 0.0180(8) -0.0047(6) -0.0052(7) -0.0043(7)
C4 0.0193(8) 0.0171(8) 0.0178(8) -0.0063(7) -0.0041(7) -0.0041(7)
C5 0.0182(8) 0.0202(9) 0.0237(9) -0.0084(7) 0.0006(7) 0.0001(7)
C6 0.0194(9) 0.0190(9) 0.0207(9) -0.0060(7) -0.0020(7) -0.0015(7)
C7 0.0181(9) 0.0197(9) 0.0225(9) -0.0066(7) -0.0013(7) -0.0014(7)
C8 0.0191(9) 0.0202(9) 0.0200(8) -0.0057(7) -0.0005(7) -0.0027(7)
C9 0.0192(9) 0.0199(9) 0.0212(9) -0.0050(7) -0.0004(7) -0.0024(7)
C10 0.0196(9) 0.0189(9) 0.0215(9) -0.0050(7) -0.0008(7) -0.0036(7)
C11 0.0239(9) 0.0216(9) 0.0246(9) -0.0079(7) -0.0020(8) 0.0009(8)
C12 0.0323(10) 0.0255(10) 0.0262(9) -0.0109(8) -0.0039(8) 0.0004(9)
C13 0.0180(8) 0.0164(8) 0.0207(9) -0.0063(7) -0.0040(7) -0.0039(7)
S1 0.0311(2) 0.0176(2) 0.0259(2) -0.00005(18) -0.0027(2) 0.0025(2)
S2 0.0319(3) 0.0253(2) 0.0185(2) -0.00146(18) 0.0040(2) -0.0025(2)
N1 0.0183(7) 0.0161(7) 0.0184(7) -0.0051(6) -0.0017(6) -0.0016(6)
loop_
_atom_type_symbol
_atom_type_description
_atom_type_scat_dispersion_real
_atom_type_scat_dispersion_imag
_atom_type_scat_source
C C 0.0033 0.0016 'International Tables Vol C Tables 4.2.6.8 and 6.1.1.4'
N N 0.0061 0.0033 'International Tables Vol C Tables 4.2.6.8 and 6.1.1.4'
H H 0.0000 0.0000 'International Tables Vol C Tables 4.2.6.8 and 6.1.1.4'
S S 0.1246 0.1234 'International Tables Vol C Tables 4.2.6.8 and 6.1.1.4'
loop_
_geom_angle_atom_site_label_1
_geom_angle_atom_site_label_2
_geom_angle_atom_site_label_3
_geom_angle
_geom_angle_site_symmetry_1
_geom_angle_site_symmetry_3
C2 C1 C3 122.40(15) . 2_756
C2 C1 C13 129.52(14) . 2_756
C3 C1 C13 108.08(14) 2_756 2_756
C3 C2 C1 115.05(14) . .
C3 C2 H2 122.5 . .
C1 C2 H2 122.5 . .
C2 C3 C1 122.55(15) . 2_756
C2 C3 C4 129.56(15) . .
C1 C3 C4 107.90(14) 2_756 .
N1 C4 C3 106.04(13) . .
N1 C4 S1 126.01(12) . .
C3 C4 S1 127.95(13) . .
N1 C5 C6 110.71(13) . .
N1 C5 H5A 109.5 . .
C6 C5 H5A 109.5 . .
N1 C5 H5B 109.5 . .
C6 C5 H5B 109.5 . .
H5A C5 H5B 108.1 . .
C5 C6 C7 113.34(13) . .
C5 C6 H6A 108.9 . .
C7 C6 H6A 108.9 . .
C5 C6 H6B 108.9 . .
C7 C6 H6B 108.9 . .
H6A C6 H6B 107.7 . .
C8 C7 C6 112.38(14) . .
C8 C7 H7A 109.1 . .
C6 C7 H7A 109.1 . .
C8 C7 H7B 109.1 . .
C6 C7 H7B 109.1 . .
H7A C7 H7B 107.9 . .
C7 C8 C9 114.34(14) . .
C7 C8 H8A 108.7 . .
C9 C8 H8A 108.7 . .
C7 C8 H8B 108.7 . .
C9 C8 H8B 108.7 . .
H8A C8 H8B 107.6 . .
C10 C9 C8 112.90(14) . .
C10 C9 H9A 109.0 . .
C8 C9 H9A 109.0 . .
C10 C9 H9B 109.0 . .
C8 C9 H9B 109.0 . .
H9A C9 H9B 107.8 . .
C9 C10 C11 114.06(14) . .
C9 C10 H10A 108.7 . .
C11 C10 H10A 108.7 . .
C9 C10 H10B 108.7 . .
C11 C10 H10B 108.7 . .
H10A C10 H10B 107.6 . .
C10 C11 C12 112.96(15) . .
C10 C11 H11A 109.0 . .
C12 C11 H11A 109.0 . .
C10 C11 H11B 109.0 . .
C12 C11 H11B 109.0 . .
H11A C11 H11B 107.8 . .
C11 C12 H12A 109.5 . .
C11 C12 H12B 109.5 . .
H12A C12 H12B 109.5 . .
C11 C12 H12C 109.5 . .
H12A C12 H12C 109.5 . .
H12B C12 H12C 109.5 . .
N1 C13 C1 105.58(13) . 2_756
N1 C13 S2 126.52(13) . .
C1 C13 S2 127.90(12) 2_756 .
C4 N1 C13 112.38(13) . .
C4 N1 C5 123.41(13) . .
C13 N1 C5 123.82(13) . .
loop_
_geom_bond_atom_site_label_1
_geom_bond_atom_site_label_2
_geom_bond_distance
_geom_bond_site_symmetry_2
C1 C2 1.384(2) .
C1 C3 1.402(2) 2_756
C1 C13 1.472(2) 2_756
C2 C3 1.384(2) .
C2 H2 0.9500 .
C3 C1 1.402(2) 2_756
C3 C4 1.468(2) .
C4 N1 1.388(2) .
C4 S1 1.6307(16) .
C5 N1 1.465(2) .
C5 C6 1.517(2) .
C5 H5A 0.9900 .
C5 H5B 0.9900 .
C6 C7 1.520(2) .
C6 H6A 0.9900 .
C6 H6B 0.9900 .
C7 C8 1.518(2) .
C7 H7A 0.9900 .
C7 H7B 0.9900 .
C8 C9 1.520(2) .
C8 H8A 0.9900 .
C8 H8B 0.9900 .
C9 C10 1.517(2) .
C9 H9A 0.9900 .
C9 H9B 0.9900 .
C10 C11 1.519(2) .
C10 H10A 0.9900 .
C10 H10B 0.9900 .
C11 C12 1.520(3) .
C11 H11A 0.9900 .
C11 H11B 0.9900 .
C12 H12A 0.9800 .
C12 H12B 0.9800 .
C12 H12C 0.9800 .
C13 N1 1.392(2) .
C13 C1 1.472(2) 2_756
C13 S2 1.6277(17) .
