#------------------------------------------------------------------------------
#$Date: 2023-12-08 19:24:15 +0200 (Fri, 08 Dec 2023) $
#$Revision: 288194 $
#$URL: file:///home/coder/svn-repositories/cod/cif/7/11/79/7117914.cif $
#------------------------------------------------------------------------------
#
# This file is available in the Crystallography Open Database (COD),
# http://www.crystallography.net/
#
# All data on this site have been placed in the public domain by the
# contributors.
#
data_7117914
loop_
_publ_author_name
'Hajime Ishikawa'
'Irene Munao'
'Bela E. Bode'
'Zenji Hiroi'
'Philip Lightfoot'
_publ_section_title
;
 Na2MoO2-deltaF4+delta - a perovskite with a unique combination of atomic
 orderings and octahedral tilts
;
_journal_name_full               Chem.Commun.
_journal_page_first              15469
_journal_paper_doi               10.1039/C5cc05446J
_journal_volume                  51
_journal_year                    2015
_chemical_formula_sum            'F4 Mo Na2 O2'
_chemical_formula_weight         249.92
_space_group_crystal_system      monoclinic
_space_group_IT_number           14
_space_group_name_Hall           '-P 2ybc'
_space_group_name_H-M_alt        'P 1 21/c 1'
_symmetry_space_group_name_Hall  '-P 2ybc'
_symmetry_space_group_name_H-M   'P 1 21/c 1'
_atom_sites_solution_hydrogens   .
_audit_creation_method           SHELXL-2014/7
_cell_angle_alpha                90
_cell_angle_beta                 91.316(8)
_cell_angle_gamma                90
_cell_formula_units_Z            4
_cell_length_a                   5.4800(11)
_cell_length_b                   5.701(7)
_cell_length_c                   16.319(3)
_cell_measurement_reflns_used    1234
_cell_measurement_temperature    173(2)
_cell_measurement_theta_max      27.5
_cell_measurement_theta_min      3.6
_cell_volume                     509.7(6)
_computing_cell_refinement
;
CrystalClear-SM Expert 2.1 b32 (Rigaku, 2014)
;
_computing_data_collection
;
CrystalClear-SM Expert 2.1 b32 (Rigaku, 2014)
;
_computing_data_reduction
;
CrystalClear-SM Expert 2.1 b32 (Rigaku, 2014)
;
_computing_structure_refinement  'SHELXL-2014/7 (Sheldrick, 2014)'
_diffrn_ambient_temperature      173(2)
_diffrn_measured_fraction_theta_full 0.950
_diffrn_measured_fraction_theta_max 0.960
_diffrn_measurement_device_type  'Sealed tube'
_diffrn_radiation_type           MoK\a
_diffrn_radiation_wavelength     0.71075
_diffrn_reflns_av_R_equivalents  0.0215
_diffrn_reflns_av_unetI/netI     0.0160
_diffrn_reflns_Laue_measured_fraction_full 0.950
_diffrn_reflns_Laue_measured_fraction_max 0.960
_diffrn_reflns_limit_h_max       7
_diffrn_reflns_limit_h_min       -7
_diffrn_reflns_limit_k_max       7
_diffrn_reflns_limit_k_min       -7
_diffrn_reflns_limit_l_max       20
_diffrn_reflns_limit_l_min       -21
_diffrn_reflns_number            4853
_diffrn_reflns_point_group_measured_fraction_full 0.950
_diffrn_reflns_point_group_measured_fraction_max 0.960
_diffrn_reflns_theta_full        25.242
_diffrn_reflns_theta_max         27.489
_diffrn_reflns_theta_min         3.719
_exptl_absorpt_coefficient_mu    2.749
_exptl_absorpt_correction_T_max  1.000
_exptl_absorpt_correction_T_min  0.855
_exptl_absorpt_correction_type   multi-scan
_exptl_crystal_colour            blue
_exptl_crystal_density_diffrn    3.257
_exptl_crystal_density_method    'not measured'
_exptl_crystal_description       block
_exptl_crystal_F_000             464
_exptl_crystal_size_max          0.2
_exptl_crystal_size_mid          0.2
_exptl_crystal_size_min          0.2
_refine_diff_density_max         0.390
_refine_diff_density_min         -0.526
_refine_diff_density_rms         0.075
_refine_ls_extinction_coef       .
_refine_ls_extinction_method     none
_refine_ls_goodness_of_fit_ref   1.142
_refine_ls_hydrogen_treatment    undef
_refine_ls_matrix_type           full
_refine_ls_number_parameters     82
_refine_ls_number_reflns         1126
_refine_ls_number_restraints     0
_refine_ls_restrained_S_all      1.142
_refine_ls_R_factor_all          0.0153
_refine_ls_R_factor_gt           0.0140
_refine_ls_shift/su_max          0.001
_refine_ls_shift/su_mean         0.000
_refine_ls_structure_factor_coef Fsqd
_refine_ls_weighting_details
'w=1/[\s^2^(Fo^2^)+(0.0187P)^2^+0.3537P] where P=(Fo^2^+2Fc^2^)/3'
_refine_ls_weighting_scheme      calc
_refine_ls_wR_factor_gt          0.0377
_refine_ls_wR_factor_ref         0.0381
_reflns_Friedel_coverage         0.000
_reflns_Friedel_fraction_full    .
_reflns_Friedel_fraction_max     .
_reflns_number_gt                1074
_reflns_number_total             1126
_reflns_threshold_expression     'I > 2\s(I)'
_cod_data_source_file            c5cc05446j3.cif
_cod_data_source_block           shelx
_cod_original_formula_sum        'F4 Mo1 Na2 O2'
_cod_database_code               7117914
_shelx_shelxl_version_number     2014O7
_shelx_space_group_comment
;
The symmetry employed for this shelxl refinement is uniquely defined
by the following loop, which should always be used as a source of
symmetry information in preference to the above space-group names.
They are only intended as comments.
;
_shelx_res_file
;

    shelx.res created by SHELXL-2014/7

TITL  Mo45
CELL   0.71075  5.4800 5.7008 16.319 90 91.316 90
ZERR 2          0.0011 0.007 0.003  0 0.008 0
LATT    1
SYMM   -X,1/2+Y,1/2-Z
SFAC Na Mo O F
UNIT 8 4 8 16
ACTA
L.S. 3
BOND
FMAP 2
PLAN 20
WGHT    0.018700    0.353700
FVAR       1.99450
MOLE   1
MO1   2    0.229020    0.725552    0.116355    11.00000    0.00915    0.00862 =
         0.00812    0.00005    0.00012   -0.00060
NA1   1    0.260889    0.280745    0.248587    11.00000    0.01323    0.01349 =
         0.01633    0.00095    0.00073    0.00132
NA2   1   -0.268185    0.230410    0.121107    11.00000    0.01220    0.01143 =
         0.01247    0.00022    0.00125   -0.00004
O1    3    0.339079    0.740449    0.021015    11.00000    0.02094    0.02048 =
         0.01258    0.00061    0.00173   -0.00131
O2    3   -0.041527    0.880077    0.107944    11.00000    0.01431    0.01377 =
         0.02090    0.00009   -0.00383    0.00248
F1    4    0.143044    0.676445    0.241263    11.00000    0.01433    0.01537 =
         0.00979    0.00109    0.00211    0.00097
F2    4    0.520323    0.539588    0.163271    11.00000    0.01104    0.01189 =
         0.01522   -0.00038   -0.00196    0.00308
F3    4    0.418592    0.988791    0.161607    11.00000    0.01368    0.01095 =
         0.01533   -0.00184    0.00057   -0.00291
F4    4    0.089577    0.417735    0.109278    11.00000    0.01599    0.01160 =
         0.02199   -0.00255   -0.00026   -0.00373
MOLE   2
HKLF    4

REM   Mo45
REM R1 =  0.0140 for    1074 Fo > 4sig(Fo)  and  0.0153 for all    1126 data
REM     82 parameters refined using      0 restraints

END

WGHT      0.0187      0.3537

REM Highest difference peak  0.390,  deepest hole -0.526,  1-sigma level  0.075
Q1    1   0.3679  0.7293  0.0714  11.00000  0.05    0.39
Q2    1   0.0855  0.8754  0.0901  11.00000  0.05    0.37
Q3    1   0.2448  0.6015  0.1175  11.00000  0.05    0.36
Q4    1   0.3661  0.8785  0.1531  11.00000  0.05    0.33
Q5    1  -0.0517  0.9472  0.1324  11.00000  0.05    0.31
Q6    1   0.0963  0.5382  0.1289  11.00000  0.05    0.29
Q7    1   0.1087  0.5422  0.1030  11.00000  0.05    0.27
Q8    1   0.3130  0.6241  0.0490  11.00000  0.05    0.25
Q9    1   0.4124  0.6033  0.1611  11.00000  0.05    0.24
Q10   1   0.0011  0.7935  0.0978  11.00000  0.05    0.24
Q11   1   0.6126  0.5812  0.1403  11.00000  0.05    0.22
Q12   1   0.5078  0.9862  0.1294  11.00000  0.05    0.22
Q13   1   0.0884  0.7356  0.1447  11.00000  0.05    0.22
Q14   1   0.1153  0.5378  0.2293  11.00000  0.05    0.22
Q15   1  -0.1162  0.8613  0.1164  11.00000  0.05    0.20
Q16   1   0.0914  0.7061  0.1916  11.00000  0.05    0.20
Q17   1   0.2161  0.7407  0.0498  11.00000  0.05    0.19
Q18   1  -0.1293  0.7924  0.0285  11.00000  0.05    0.18
Q19   1   0.2475  0.1380  0.2518  11.00000  0.05    0.17
Q20   1   0.3841  0.1832  0.2893  11.00000  0.05    0.17
;
_shelx_res_checksum              60530
_shelx_hkl_file
;
   0   0  -1   -2.29    6.48   1-0.74847-0.72250 0.38033 0.41363-0.54325-0.55398
   0   0  -1   -2.90    9.29   1 0.12127 0.14703-0.41812-0.38479-0.90025-0.91121
   0   0   1   -0.41    6.68   1-0.77262-0.79847 0.63445 0.60110 0.02268 0.03344
   0   0   3   21.17   18.89   1-0.71233-0.79024 0.47460 0.37471-0.51703-0.48486
   0   0   3   81.22   27.56   1 0.19351 0.11624-0.36385-0.46383-0.91113-0.87826
   0   0  -3   -2.24   31.28   1-0.79879-0.72126 0.58238 0.68243 0.15084 0.11855
   0   0   3   -4.28   27.27   1-0.75445-0.83181 0.65515 0.55501-0.03956-0.00715
   0   0   5   14.23   42.46   1 0.22919 0.10042-0.33546-0.50208-0.91374-0.85896
   0   0   615004.61  244.18   1 0.24692 0.09239-0.32094-0.52089-0.91434-0.84860
   0   0   7    3.45   37.39   1-0.66776-0.84966 0.56495 0.33190-0.48467-0.40977
   0   0   7  -14.64   41.99   1 0.26458 0.08429-0.30621-0.53949-0.91445-0.83776
   0   0  10 1868.99   69.48   1-0.62898-0.88883 0.62925 0.29632-0.45652-0.34951
   0   0  10 1832.79   75.39   1 0.31709 0.05955-0.26069-0.59395-0.91185-0.80229
   0   0 -10 1989.07   70.58   1-0.80597-0.54711 0.46141 0.79459 0.37080 0.26322
   0   0  11    9.10   14.12   1-0.61495-0.90079 0.65008 0.28385-0.44634-0.32863
   0   0  11   20.98   22.03   1 0.33444 0.05114-0.24507-0.61165-0.90998-0.78946
   0   0 -11  116.34   23.44   1-0.80263-0.51787 0.44049 0.80699 0.40218 0.28384
   0   0  12 6410.18  143.48   1-0.60034-0.91217 0.67060 0.27107-0.43574-0.30733
   0   0  12 6660.07  148.79   1 0.35171 0.04266-0.22922-0.62913-0.90760-0.77612
   0   0 -12 6922.33  144.36   1-0.79805-0.48741 0.41858 0.81840 0.43347 0.30437
   0   0  13   -0.29   36.49   1 0.36891 0.03410-0.21314-0.64636-0.90469-0.76226
   0   0 -13   12.12   20.05   1-0.79217-0.45564 0.39564 0.82878 0.46468 0.32482
   0   0  15  120.91   90.90   1-0.55294-0.94273 0.73018 0.23078-0.40134-0.24082
   0   0 -15  124.75   71.49   1-0.77632-0.38789 0.34671 0.84636 0.52641 0.36498
   0   0  1613466.42  248.79   1-0.53579-0.95163 0.74945 0.21681-0.38889-0.21766
   0   0 -1613644.01  249.21   1-0.42281-0.01142 0.16056 0.69496 0.89187 0.71895
   0   0 -1612867.73  295.37   1-0.76604-0.35171 0.32025 0.85321 0.55732 0.38513
   0   0  17   43.93   46.51   1-0.51805-0.95989 0.76826 0.20233-0.37601-0.19408
   0   0 -17   58.29   56.23   1-0.43961-0.00251 0.14346 0.71126 0.88665 0.70292
   0   0 -17   49.36   36.97   1-0.75405-0.31383 0.29242 0.85869 0.58812 0.40516
   0   0  1814654.11  339.15   1-0.49962-0.96744 0.78668 0.18746-0.36263-0.17000
   0   0 -1814305.47  284.01   1-0.45632 0.00648 0.12610 0.72729 0.88083 0.68629
   0   0  19   47.30   32.42   1-0.48045-0.97427 0.80470 0.17219-0.34872-0.14539
   0   0 -19   86.64   53.30   1-0.47293 0.01558 0.10846 0.74305 0.87439 0.66904
   0   0  20 2262.65   86.56   1-0.46052-0.98033 0.82230 0.15650-0.33426-0.12022
   0   0 -20 2049.26   85.78   1-0.48944 0.02478 0.09053 0.75853 0.86732 0.65116
   0   0 -21   41.94   41.93   1-0.50585 0.03408 0.07231 0.77371 0.85958 0.63261
   0   1   0   92.60   19.52   1-0.42261-0.32610-0.85282-0.91071-0.30674-0.25346
   0   1   0   72.76   18.53   1 0.20620 0.30303-0.35388-0.41178-0.91227-0.85941
   0   1   0   44.75   18.16   1-0.49471-0.39761 0.08472 0.02688 0.86491 0.91715
   0  -1   0   76.31   18.51   1-0.46738-0.56416-0.11439-0.05665 0.87662 0.82371
   0  -1   1 1660.87   65.42   1 0.21172 0.08921 0.96517 0.98979 0.15367 0.11114
   0   1   1 1689.12   61.61   1-0.59821-0.52770-0.67350-0.76461-0.43420-0.36998
   0  -1   1 1526.66   70.33   1 0.33255 0.20996-0.24679-0.22221-0.91021-0.95212
   0   1  -1 1511.60   73.74   1 0.16123 0.28382-0.38862-0.41320-0.90717-0.86527
   0  -1   1 1745.41   61.68   1-0.29782-0.42048-0.27770-0.25327 0.91333 0.87123
   0  -1  -1 1624.63   62.68   1-0.58268-0.65355 0.01927 0.11062 0.81247 0.74874
   0  -1   3  749.94   43.20   1-0.13197-0.30642 0.98661 0.94468-0.09579-0.11691
   0   1   3  753.28   41.92   1-0.77369-0.75498-0.29332-0.45105-0.56156-0.47596
   0  -1   3  712.88   51.32   1 0.27095 0.09685-0.30082-0.34289-0.91437-0.93436
   0   1   3  670.89   54.51   1 0.18864 0.20821-0.36764-0.52553-0.91062-0.82490
   0  -1   3  750.86   44.19   1 0.13900-0.03517-0.57994-0.62248 0.80271 0.78184
   0  -1  -3  772.40   44.68   1-0.69820-0.71725 0.18605 0.34398 0.69129 0.60599
   0  -1   4 3048.04   85.51   1-0.23553-0.43597 0.95671 0.88149-0.17095-0.18138
   0   1   4 3151.41   88.05   1-0.80112-0.80849-0.14174-0.33288-0.58147-0.48530
   0  -1   4 3000.16   95.65   1 0.26960 0.06974-0.30197-0.37736-0.91439-0.92343
   0   1   4 2760.55   86.80   1 0.21321 0.20703-0.34831-0.53951-0.91280-0.81612
   0  -1   4 3037.93   89.29   1 0.33337 0.13338-0.66516-0.74108 0.66814 0.65802
   0  -1  -4 2992.11   88.63   1-0.72405-0.71720 0.23177 0.42323 0.64963 0.55360
   0  -1   5  738.33   40.81   1-0.30497-0.53139 0.92628 0.81776-0.22135-0.22107
   0   1   5  761.80   42.28   1-0.80914-0.84247-0.01946-0.24388-0.58729-0.48036
   0  -1   5  730.07   45.55   1 0.27466 0.04905-0.29767-0.40639-0.91430-0.91237
   0   1   5  737.54   46.43   1 0.23446 0.20253-0.33117-0.55570-0.91397-0.80633
   0  -1  -5  709.76   41.07   1-0.73968-0.70694 0.26208 0.48685 0.61982 0.51303
   0   1  -5  758.71   42.55   1-0.48156-0.25575 0.70455 0.81356-0.52125-0.52221
   0  -1   615166.63  288.75   1 0.28333 0.03197-0.29025-0.43230-0.91404-0.90116
   0  -1   7   10.54   15.66   1-0.38110-0.65948 0.88218 0.70717-0.27661-0.25492
   0   1   7   -3.75   19.59   1-0.79827-0.88353 0.16447-0.12650-0.57940-0.45096
   0   1   7   12.78   16.62   1 0.27336 0.18991-0.29877-0.58996-0.91433-0.78477
   0  -1   7   18.63   23.10   1 0.29422 0.01710-0.28084-0.45621-0.91354-0.88970
   0  -1  -7   23.30   20.75   1-0.75374-0.66921 0.29174 0.58314 0.58885 0.46053
   0   1  -7   15.19   10.82   1-0.66218-0.38479 0.70368 0.87946-0.25756-0.28013
   0  -1   8 2610.89   83.61   1-0.40044-0.70482 0.86899 0.66069-0.29065-0.25826
   0   1   8 2708.73   83.65   1-0.78647-0.89769 0.23579-0.08846-0.57084-0.43164
   0  -1   8 2696.33   94.85   1 0.30655 0.00368-0.27004-0.47873-0.91274-0.87794
   0   1   8 2670.95   90.05   1 0.29195 0.18275-0.28281-0.60731-0.91366-0.77315
   0  -1  -8 2535.40   83.49   1-0.75577-0.64534 0.29624 0.62095 0.58399 0.44491
   0   1  -8 2622.05   86.71   1-0.71397-0.41080 0.68420 0.89336-0.14864-0.18201
   0  -1   9 1907.33   71.19   1-0.41207-0.74243 0.86066 0.61906-0.29909-0.25600
   0   1   9 1987.13   72.28   1-0.77245-0.90969 0.29828-0.05941-0.56066-0.41101
   0  -1   9 1944.45   77.01   1 0.31987-0.00874-0.25821-0.50023-0.91159-0.86584
   0   1   9 1969.29   73.55   1 0.31022 0.17526-0.26680-0.62464-0.91245-0.76098
   0  -1  -9 1968.07   71.14   1-0.75564-0.61931 0.29596 0.65397 0.58430 0.43446
   0   1  -9 2025.28   70.32   1-0.75005-0.42109 0.65924 0.90179-0.05304-0.09722
   0  -1  1020315.93  434.36   1-0.41803-0.77439 0.85625 0.58137-0.30342-0.24962
   0   1  1021049.66  385.87   1-0.75716-0.92037 0.35309-0.03790-0.54956-0.38919
   0   1  1020842.67  435.33   1 0.32823 0.16752-0.25070-0.64186-0.91071-0.74829
   0  -1  1021985.02  359.58   1 0.33388-0.02049-0.24558-0.52093-0.91005-0.85335
   0  -1  11   31.22   46.53   1-0.41971-0.80206 0.85500 0.54683-0.30464-0.24014
   0   1  11   46.10   21.78   1-0.74091-0.93009 0.40231-0.02198-0.53776-0.36667
   0   1  11   48.10   32.64   1 0.34605 0.15959-0.23446-0.65894-0.90844-0.73506
   0  -1  11   68.01   32.22   1 0.34839-0.03173-0.23229-0.54097-0.90810-0.84044
   0  -1 -11  109.48   37.04   1-0.75048-0.56236 0.28461 0.70924 0.59647 0.42510
   0   1 -11   50.97   32.47   1-0.79173-0.41120 0.60126 0.91057 0.10790 0.04211
   0  -1  12 9755.33  205.10   1-0.41804-0.82637 0.85625 0.51479-0.30342-0.22822
   0   1  1210304.91  203.41   1-0.72390-0.93905 0.44708-0.01050-0.52542-0.34360
   0   1  1210200.84  207.94   1 0.36370 0.15148-0.21804-0.67585-0.90563-0.72129
   0  -1  1210290.94  197.94   1 0.36327-0.04261-0.21845-0.56044-0.90571-0.82709
   0  -1 -1210330.59  205.97   1-0.74581-0.53180 0.27470 0.73264 0.60687 0.42474
   0   1 -1210890.48  204.34   1-0.80196-0.39506 0.57125 0.91334 0.17472 0.09859
   0  -1  13  438.29   40.37   1-0.41365-0.84798 0.85950 0.48475-0.30024-0.21434
   0   1  13  466.98   46.56   1-0.70626-0.94738 0.48826-0.00261-0.51262-0.32008
   0   1  13  453.89   48.11   1 0.38120 0.14323-0.20143-0.69257-0.90227-0.70698
   0  -1  13  442.87   50.06   1 0.37841-0.05323-0.20411-0.57943-0.90285-0.81327
   0  -1 -13  496.98   45.23   1-0.73987-0.49996 0.26246 0.75371 0.61943 0.42654
   0   1 -13  499.67   43.60   1-0.80770-0.37496 0.53906 0.91450 0.23880 0.15191
   0  -1  14 1907.47   75.33   1-0.40702-0.86733 0.86432 0.45628-0.29542-0.19882
   0   1  14 1983.72   75.74   1-0.68805-0.95514 0.52647 0.00229-0.49940-0.29614
   0  -1  14 2149.42   83.51   1 0.39374-0.06365-0.18933-0.59798-0.89951-0.79897
   0   1  14 1901.01   75.71   1 0.39857 0.13484-0.18462-0.70908-0.89836-0.69211
   0  -1 -14 1930.41   74.45   1-0.73264-0.46684 0.24812 0.77269 0.63376 0.43011
   0   1 -14 1906.51   73.13   1-0.80928-0.35014 0.50714 0.91536 0.29640 0.19877
   0  -1  15  169.55   28.82   1-0.39846-0.88476 0.87039 0.42906-0.28921-0.18190
   0   1  15  139.79   31.55   1-0.66899-0.96232 0.56273 0.00528-0.48557-0.27184
   0   1 -15  144.46   34.49   1-0.41141 0.07135 0.17196 0.61510 0.89507 0.78520
   0  -1 -15  154.47   36.58   1-0.41938-0.13081 0.16400 0.72285 0.89287 0.67850
   0  -1 -15  187.96   26.89   1-0.72410-0.43240 0.23185 0.78973 0.64955 0.43513
   0   1 -15  146.08   27.70   1-0.80736-0.32233 0.47300 0.91454 0.35273 0.24434
   0  -1  16 8967.08  185.80   1-0.38821-0.90051 0.87743 0.40281-0.28177-0.16377
   0   1  16 8891.59  178.21   1-0.64965-0.96897 0.59632 0.00559-0.47153-0.24710
   0  -1 -16 9008.83  185.69   1-0.43639-0.12211 0.14676 0.73900 0.88770 0.66253
   0   1 -16 8916.35  193.61   1-0.42700 0.08147 0.15632 0.63287 0.89063 0.76995
   0  -1 -16 8581.82  220.93   1-0.71483-0.39695 0.21491 0.80555 0.66544 0.43989
   0  -1  17  889.39   58.91   1-0.37645-0.91473 0.88522 0.37731-0.27323-0.14453
   0   1  17  952.89   60.67   1-0.62974-0.97504 0.62808 0.00405-0.45708-0.22195
   0  -1 -17  844.05   66.86   1-0.45329-0.11330 0.12927 0.75491 0.88193 0.64595
   0   1 -17  836.60   70.90   1-0.44265 0.09154 0.14033 0.65028 0.88564 0.75415
   0  -1 -17  887.44   55.02   1-0.70351-0.35972 0.19506 0.81899 0.68338 0.44703
   0  -1  18 3901.33  118.63   1-0.36329-0.92756 0.89358 0.35238-0.26368-0.12427
   0   1  18 3960.04  117.21   1-0.60924-0.98053 0.65824 0.00092-0.44220-0.19636
   0  -1 -18 4175.34  118.94   1-0.47008-0.10437 0.11151 0.77055 0.87554 0.62876
   0   1 -18 3912.79  112.77   1-0.45833 0.10157 0.12399 0.66733 0.88009 0.73779
   0  -1 -18 3581.93  114.64   1-0.69062-0.32091 0.17345 0.83067 0.70210 0.45497
   0  -1  19    1.92   30.29   1-0.34882-0.93909 0.90234 0.32785-0.25318-0.10307
   0   1  19   -2.12   29.53   1-0.58810-0.98538 0.68696-0.00365-0.42686-0.17032
   0  -1 -19   20.49   46.79   1-0.48675-0.09534 0.09348 0.78592 0.86851 0.61092
   0   1 -19    9.74   38.51   1-0.47401 0.11160 0.10729 0.68404 0.87395 0.72085
   0  -1  20 7853.73  219.93   1-0.33318-0.94940 0.91132 0.30342-0.24183-0.08102
   0   1  20 7814.54  173.82   1-0.56630-0.98956 0.71439-0.00951-0.41103-0.14380
   0  -1 -20 8177.73  183.23   1-0.50332-0.08619 0.07515 0.80100 0.86082 0.59242
   0   1 -20 8043.56  174.17   1-0.48969 0.12163 0.09026 0.70041 0.86720 0.70329
   0  -2   1 1397.68   56.87   1 0.36592 0.14686 0.89193 0.97447 0.26559 0.16980
   0   2   1 1420.32   57.76   1-0.55588-0.38886-0.72677-0.87578-0.40347-0.28598
   0   2   1 1540.65   65.96   1-0.20547-0.03797-0.61277-0.76218-0.76308-0.64624
   0   2   1 1232.92   52.00   1-0.77656-0.60890-0.62889-0.77802 0.03801 0.15463
   0   2  -1 1448.42   61.06   1-0.47845-0.25854 0.10251 0.02021 0.87210 0.96578
   0  -2   1 1388.35   57.68   1-0.33848-0.55792-0.24140-0.15922 0.90947 0.81447
   0  -2  -1 1367.45   57.44   1-0.49104-0.65873-0.08878 0.06001 0.86659 0.74997
   0  -2   2  440.69   34.54   1 0.26525 0.02022 0.94476 0.99400 0.19252 0.10745
   0   2   2  434.56   34.15   1-0.63311-0.49209-0.62289-0.80511-0.45953-0.33110
   0  -2   2  462.69   34.36   1-0.23830-0.48344-0.32803-0.27946 0.91411 0.82956
   0  -2  -2  521.25   36.94   1-0.54423-0.68604-0.02795 0.15414 0.83846 0.71104
   0  -2   3  563.39   38.79   1 0.16989-0.10111 0.97771 0.99366 0.12331 0.04896
   0   2   3  558.96   38.65   1-0.69450-0.57947-0.51338-0.72882-0.50408-0.36472
   0  -2   3  505.93   38.91   1 0.37654 0.10561-0.20589-0.19005-0.90322-0.97607
   0  -2   3  563.74   38.50   1-0.12262-0.39359-0.41714-0.40193 0.90052 0.82675
   0  -2  -3  529.04   36.53   1-0.58483-0.70067 0.02201 0.23800 0.81085 0.67261
   0  -2   4 5616.31  137.97   1 0.08460-0.21238 0.99452 0.97718 0.06140-0.00222
   0   2   4 6061.25  132.94   1-0.74061-0.65129-0.40315-0.65209-0.53755-0.38806
   0  -2   4 5165.75  128.31   1 0.35764 0.06095-0.22372-0.24121-0.90666-0.96855
   0   2   4 5184.43  119.11   1 0.34814 0.43879-0.23253-0.48164-0.90814-0.75860
   0  -2   4 5439.09  125.25   1 0.00221-0.29450-0.50138-0.51969 0.86521 0.80198
   0  -2  -4 5524.68  130.71   1-0.61551-0.70542 0.06226 0.31154 0.78566 0.63663
   0  -2   5  493.10   36.88   1 0.01165-0.31130 0.99989 0.94926 0.00845-0.04444
   0   2   5  379.92   32.68   1-0.77245-0.70908-0.29825-0.58045-0.56066-0.40032
   0   2   5  361.47   33.46   1 0.33295 0.39785-0.24643-0.52887-0.91017-0.74967
   0  -2   5  453.26   42.25   1 0.34917 0.02673-0.23158-0.28239-0.90798-0.95892
   0  -2   5  390.64   32.82   1 0.13055-0.19198-0.57551-0.62720 0.80730 0.75482
   0  -2  -5  365.83   33.34   1-0.63829-0.70229 0.09383 0.37640 0.76405 0.60423
   0  -2   7   72.33   23.54   1-0.09720-0.47209 0.99276 0.87561-0.07055-0.10210
   0   2   7   12.71   21.11   1-0.80457-0.79336-0.10777-0.45677-0.58398-0.40241
   0  -2   7  111.75   36.45   1 0.34962-0.02432-0.23116-0.34863-0.90792-0.93694
   0   2   7   60.49   27.07   1 0.34047 0.35386-0.23958-0.58867-0.90921-0.72680
   0  -2   7   18.88   15.88   1 0.36864-0.00553-0.67683-0.79530 0.63717 0.60619
   0  -2   9 1669.61   69.01   1-0.16539-0.59225 0.97889 0.79516-0.12004-0.13019
   0   2   9 1779.30   68.83   1-0.80820-0.84891 0.05188-0.36367-0.58661-0.38352
   0   2   9 1713.41   73.78   1 0.36309 0.32497-0.21861-0.63435-0.90574-0.70141
   0  -2   9 1785.88   82.40   1 0.36257-0.06288-0.21910-0.40321-0.90583-0.91294
   0  -2  -9 1686.30   84.55   1-0.67953-0.63986 0.15559 0.57130 0.71695 0.51398
   0   2  -9 1739.32   66.37   1-0.55305-0.12721 0.71267 0.89731-0.43154-0.42266
   0  -2  10 5645.67  122.56   1-0.18788-0.64073 0.97267 0.75565-0.13637-0.13581
   0   2  10 5755.13  140.25   1-0.80326-0.86993 0.12185-0.32698-0.58302-0.36918
   0  -2  10 5940.87  148.04   1 0.37173-0.07948-0.21047-0.42791-0.90416-0.90031
   0   2  10 6032.06  139.29   1 0.37654 0.31267-0.20589-0.65495-0.90322-0.68794
   0  -2 -10 5786.02  118.93   1-0.68187-0.61628 0.15930 0.60830 0.71391 0.50015
   0   2 -10 5291.13  130.46   1-0.62295-0.17132 0.71074 0.92877-0.32674-0.32867
   0  -2  11  103.33   52.81   1-0.20433-0.68316 0.96760 0.71728-0.14831-0.13705
   0   2  11  118.76   25.66   1-0.79514-0.88777 0.18618-0.29593-0.57713-0.35252
   0  -2  11   71.19   36.27   1 0.38209-0.09487-0.20058-0.45135-0.90209-0.88728
   0   2  11   98.31   28.64   1 0.39077 0.30114-0.19221-0.67460-0.90019-0.67395
   0  -2 -11  119.74   26.81   1-0.68204-0.59055 0.15958 0.64187 0.71368 0.48913
   0   2 -11  104.42   21.22   1-0.67907-0.20166 0.69884 0.95025-0.22465-0.23738
   0  -2  1221950.08  318.81   1-0.21573-0.72055 0.96381 0.68020-0.15658-0.13462
   0   2  1222328.87  394.86   1-0.78451-0.90310 0.24557-0.26982-0.56941-0.33405
   0  -2  1222687.51  449.42   1 0.39338-0.10933-0.18968-0.47377-0.89959-0.87383
   0  -2 -1222890.21  382.80   1-0.68033-0.56292 0.15686 0.67243 0.71591 0.48057
   0   2 -1222432.32  352.98   1-0.72301-0.21981 0.67911 0.96390-0.12669-0.15023
   0  -2  13  214.07   69.64   1-0.22287-0.75368 0.96133 0.64442-0.16177-0.12910
   0   2  13  232.82   37.21   1-0.77173-0.91635 0.30112-0.24779-0.56013-0.31445
   0  -2 -13  222.45   45.66   1-0.42535-0.28531 0.15799 0.70788 0.89112 0.64613
   0  -2 -13  280.84   42.16   1-0.67691-0.53358 0.15145 0.70031 0.72030 0.47418
   0   2 -13  236.51   33.08   1-0.75639-0.22740 0.65326 0.97143-0.03347-0.06781
   0  -2  1416799.63  426.97   1-0.22641-0.78321 0.96006 0.60987-0.16433-0.12097
   0   2  1417500.79  396.32   1-0.75738-0.92797 0.35239-0.22982-0.54972-0.29331
   0   2 -1417045.09  413.13   1-0.41945 0.13470 0.16393 0.51583 0.89284 0.84603
   0  -2 -1418020.35  473.90   1-0.44046-0.27470 0.14259 0.72588 0.88637 0.63057
   0  -2 -1417270.33  426.40   1-0.67190-0.50265 0.14363 0.72578 0.72657 0.46966
   0   2 -1414689.50  486.28   1-0.78064-0.22587 0.62255 0.97410 0.05493 0.00979
   0  -2  15  671.58   72.61   1-0.22685-0.80963 0.95990 0.57642-0.16465-0.11058
   0   2  15  633.84   55.32   1-0.74160-0.93817 0.40033-0.21517-0.53827-0.27114
   0  -2 -15  666.18   61.15   1-0.45576-0.26428 0.12669 0.74338 0.88103 0.61443
   0   2 -15  660.28   51.69   1-0.43258 0.14729 0.15066 0.53596 0.88891 0.83129
   0  -2 -15  698.58   58.27   1-0.66536-0.47019 0.13360 0.74902 0.73446 0.46676
   0  -2  1621397.32  525.76   1-0.22458-0.83335 0.96072 0.54394-0.16300-0.09824
   0   2  1622362.19  452.10   1-0.72459-0.94713 0.44536-0.20344-0.52592-0.24807
   0  -2 -1622775.01  482.98   1-0.47119-0.25400 0.11033 0.76042 0.87510 0.59769
   0   2 -1622429.61  459.36   1-0.44604 0.15953 0.13682 0.55552 0.88448 0.81605
   0  -2 -1622178.26  507.02   1-0.65732-0.43623 0.12150 0.77021 0.74375 0.46525
   0  -2  17   33.90   50.55   1-0.21991-0.85467 0.96236 0.51229-0.15962-0.08415
   0   2  17   64.97   66.86   1-0.70647-0.95498 0.48781-0.19429-0.51277-0.22419
   0  -2 -17   45.89   62.52   1-0.48670-0.24381 0.09354 0.77703 0.86854 0.58032
   0   2 -17   57.11   53.96   1-0.45979 0.17150 0.12244 0.57454 0.87954 0.80030
   0  -2 -17   90.46   47.37   1-0.64776-0.40076 0.10744 0.78943 0.75422 0.46494
   0  -2  18 2004.66   80.42   1-0.21311-0.87385 0.96470 0.48134-0.15468-0.06850
   0   2  18 2048.20   80.42   1-0.68730-0.96178 0.52795-0.18744-0.49886-0.19956
   0  -2 -18 1726.87   76.06   1-0.50226-0.23366 0.07633 0.79322 0.86133 0.56230
   0   2 -18 1986.06   82.80   1-0.47375 0.18325 0.10758 0.59308 0.87406 0.78401
   0  -2 -18 1837.87   80.19   1-0.63664-0.36372 0.09148 0.80677 0.76571 0.46564
   0  -2  19 1172.95   58.74   1-0.20434-0.89106 0.96759 0.45094-0.14831-0.05144
   0   2  19 1156.85   58.30   1-0.66688-0.96770 0.56654-0.18211-0.48403-0.17429
   0  -2 -19 1219.62   69.09   1-0.51784-0.22353 0.05872 0.80901 0.85345 0.54361
   0   2 -19 1220.20   78.30   1-0.48788 0.19483 0.09224 0.61114 0.86801 0.76716
   0   2  20 2848.87  128.92   1-0.64576-0.97257 0.60273-0.17920-0.46871-0.14826
   0   2 -20 3024.26  106.04   1-0.50214 0.20628 0.07647 0.62877 0.86139 0.74972
   0  -2 -20 3009.40  124.39   1-0.53342-0.21339 0.04071 0.82441 0.84486 0.52422
   0   3   0   18.47   19.66   1-0.50621-0.21669-0.78022-0.95391-0.36741-0.20758
   0   3   0   20.07   14.08   1-0.72765-0.43634-0.23853-0.41208 0.64313 0.79986
   0  -3   0    0.91   19.77   1-0.37643-0.66678-0.20599-0.03276 0.90324 0.74453
   0   3   1 2730.11   82.09   1-0.56487-0.30135-0.71610-0.92301-0.41000-0.23923
   0   3  -1 2821.87   83.35   1-0.44417-0.12866-0.83592-0.97639-0.32239-0.17349
   0   3  -1 2416.39   96.31   1-0.61148-0.29446-0.05683-0.19697 0.78921 0.93514
   0  -3   1 2707.73   86.05   1-0.31787-0.63410-0.26000-0.12008 0.91178 0.76387
   0  -3  -1 2701.36   84.60   1-0.42638-0.69085-0.15696 0.04957 0.89082 0.72129
   0  -3   215756.05  311.78   1 0.38058 0.03901 0.88252 0.98967 0.27623 0.13790
   0   3   215368.26  250.58   1-0.61839-0.38086-0.64507-0.88519-0.44884-0.26714
   0  -3   215103.64  269.40   1-0.25044-0.59255-0.31802-0.21141 0.91440 0.77729
   0  -3  -215903.79  269.44   1-0.46830-0.70689-0.11341 0.12643 0.87625 0.69592
   0  -3   3 1881.48   69.30   1 0.31801-0.04953 0.91956 0.99342 0.23082 0.10321
   0   3   3 1904.20   68.42   1-0.66549-0.45395-0.56903-0.84237-0.48302-0.29038
   0   3  -3 1860.20   73.40   1-0.48693-0.11849 0.09329 0.01995 0.86844 0.99275
   0  -3   3 1897.24   70.53   1-0.17546-0.54316-0.37781-0.30495 0.90910 0.78228
   0  -3  -3 1875.50   66.23   1-0.50300-0.71571-0.07551 0.19764 0.86098 0.66984
   0  -3   4 7140.05  149.16   1 0.25825-0.13527 0.94771 0.98829 0.18744 0.07055
   0   3   4 7013.37  149.29   1-0.70547-0.51993-0.49000-0.79656-0.51205-0.30847
   0   3  -4 7072.43  163.56   1-0.45631-0.06216 0.12611 0.08616 0.88083 0.99434
   0  -3   4 6809.79  167.48   1-0.09174-0.48528-0.43910-0.39960 0.89373 0.77769
   0  -3  -4 6635.83  155.24   1-0.53134-0.71817-0.04315 0.26331 0.84605 0.64411
   0  -3   5  698.07   41.10   1 0.20280-0.21669 0.96809 0.97537 0.14720 0.04103
   0   3   5  719.59   44.89   1-0.73854-0.57860-0.40891-0.74906-0.53605-0.32266
   0   3  -5  676.83   43.55   1-0.43732-0.01745 0.14582 0.13927 0.88740 0.99010
   0  -3   5  687.25   43.33   1-0.00241-0.42168-0.49847-0.49254 0.86689 0.76130
   0  -3  -5  655.78   42.97   1-0.55417-0.71512-0.01603 0.32374 0.83224 0.61950
   0  -3   611073.64  232.82   1 0.15265-0.29282 0.98204 0.95604 0.11080 0.01535
   0   3   611276.47  224.16   1-0.76418-0.63020-0.32919-0.70261-0.55466-0.33042
   0  -3  -610519.27  207.54   1-0.56219-0.69922 0.00627 0.38022 0.82698 0.60540
   0   3  -610984.41  239.88   1-0.42625 0.01931 0.15709 0.18394 0.89085 0.98274
   0  -3   611488.48  238.32   1 0.09138-0.35370-0.55424-0.58169 0.82732 0.73247
   0  -3  -611043.07  204.61   1-0.57204-0.70691 0.00588 0.37981 0.82020 0.59666
   0  -3   7  401.11   34.98   1 0.10830-0.36315 0.99100 0.93171 0.07860-0.00611
   0   3   7  382.07   33.08   1-0.78335-0.67532-0.25114-0.65781-0.56857-0.33348
   0  -3  -7  383.94   32.33   1-0.51526-0.62658 0.06167 0.46902 0.85481 0.62242
   0   3  -7  393.04   37.92   1-0.42079 0.05048 0.16259 0.22284 0.89246 0.97354
   0  -3   7  403.66   36.23   1 0.18648-0.28441-0.60376-0.66460 0.77504 0.69094
   0  -3  -7  371.58   32.52   1-0.58609-0.69505 0.02361 0.43083 0.80989 0.57556
   0  -3   8 4928.06  129.51   1 0.06985-0.42756 0.99626 0.90368 0.05070-0.02329
   0   3   8 5075.20  126.66   1-0.79672-0.71464-0.17556-0.61549-0.57828-0.33233
   0  -3  -8 5094.56  132.99   1-0.49374-0.57935 0.08580 0.52654 0.86536 0.62216
   0   3  -8 5055.38  142.80   1-0.41943 0.07756 0.16396 0.25761 0.89285 0.96312
   0  -3   8 5160.85  125.57   1 0.28013-0.21657-0.64517-0.73940 0.71082 0.63747
   0  -3  -8 4904.09  108.88   1-0.59669-0.67973 0.03729 0.47778 0.80160 0.55648
   0  -3   9 3177.33   96.52   1 0.03716-0.48624 0.99894 0.87307 0.02697-0.03630
   0   3   9 3207.46   99.12   1-0.80510-0.74933-0.10159-0.57516-0.58436-0.32815
   0   3  -9 3196.76  104.79   1-0.42113 0.10157 0.16225 0.28930 0.89236 0.95183
   0  -3   9 3104.67   98.32   1 0.36977-0.15276-0.67719-0.80480 0.63614 0.57354
   0  -3  -9 3228.99   97.58   1-0.60430-0.66143 0.04728 0.52106 0.79534 0.53944
   0  -3  1017287.47  312.98   1 0.00987-0.53950 0.99992 0.84075 0.00716-0.04538
   0   3  1017250.22  318.71   1-0.80887-0.77906-0.03220-0.53905-0.58709-0.32012
   0   3 -1017401.97  307.87   1-0.42518 0.12323 0.15817 0.31862 0.89117 0.93983
   0  -3 -1017024.74  307.00   1-0.60932-0.64053 0.05394 0.56101 0.79108 0.52439
   0   3 -1015941.96  808.44   1-0.45241 0.09609 0.69895 0.85907-0.55387-0.50274
   0  -3  11  698.41   65.28   1-0.01242-0.58777 0.99988 0.80742-0.00901-0.05084
   0   3  11  755.93   48.05   1-0.80883-0.80498 0.03385-0.50627-0.58706-0.30933
   0  -3 -11  801.97   50.63   1-0.48598-0.49445 0.09433 0.63527 0.86886 0.59324
   0   3 -11  736.60   55.10   1-0.43106 0.14306 0.15221 0.34606 0.88938 0.92723
   0  -3 -11  713.34   48.41   1-0.61203-0.61733 0.05758 0.59793 0.78872 0.51124
   0   3 -11  685.93   45.51   1-0.52804 0.04625 0.71082 0.90432-0.46465-0.42432
   0  -3  1210052.20  226.79   1-0.03017-0.63150 0.99930 0.77355-0.02190-0.05301
   0   3  1210213.82  174.75   1-0.80550-0.82762 0.09662-0.47678-0.58465-0.29616
   0  -3 -1210171.36  213.79   1-0.49184-0.47460 0.08790 0.66224 0.86623 0.57980
   0   3 -1210050.67  195.11   1-0.43839 0.16144 0.14471 0.37197 0.88705 0.91409
   0  -3 -1210110.50  191.37   1-0.61270-0.59207 0.05847 0.63211 0.78814 0.49987
   0   3 -12 8262.79  621.68   1-0.59495 0.00513 0.71292 0.93981-0.37116-0.34164
   0  -3  13  705.93   52.90   1-0.04383-0.67113 0.99853 0.73949-0.03181-0.05219
   0   3  13  752.27   53.77   1-0.79935-0.84743 0.15622-0.45047-0.58019-0.28094
   0  -3 -13  758.50   54.68   1-0.49980-0.45685 0.07908 0.68682 0.86252 0.56528
   0   3 -13  753.15   51.74   1-0.44688 0.17866 0.13595 0.39660 0.88419 0.90043
   0  -3 -13  735.45   58.29   1-0.61148-0.56494 0.05684 0.66376 0.78920 0.49014
   0   3 -13  664.40   50.55   1-0.65265-0.02677 0.70589 0.96617-0.27523-0.25651
   0  -3  14 4750.56  135.59   1-0.05379-0.70707 0.99778 0.70546-0.03904-0.04870
   0   3  14 4752.90  135.69   1-0.79075-0.86479 0.21281-0.42715-0.57394-0.26393
   0  -3 -14 4831.29  151.80   1-0.50927-0.44062 0.06846 0.70960 0.85787 0.54983
   0   3 -14 4820.19  137.63   1-0.45631 0.19494 0.12610 0.42016 0.88083 0.88626
   0  -3 -14 4739.43  139.50   1-0.60852-0.53607 0.05288 0.69309 0.79176 0.48191
   0  -3  15  231.23   36.54   1-0.06042-0.73968 0.99720 0.67159-0.04386-0.04280
   0   3  15  260.67   34.06   1-0.78000-0.88000 0.26659-0.40666-0.56614-0.24537
   0  -3 -15  294.92   41.26   1-0.51987-0.42550 0.05641 0.73095 0.85237 0.53353
   0   3 -15  235.35   53.42   1-0.46651 0.21046 0.11532 0.44277 0.87696 0.87158
   0  -3 -15  257.24   42.90   1-0.60391-0.50553 0.04675 0.72025 0.79567 0.47503
   0  -3  16 3798.83  106.63   1-0.06406-0.76928 0.99686 0.63795-0.04649-0.03471
   0   3  16 3892.95  107.61   1-0.76722-0.89327 0.31821-0.38863-0.55687-0.22587
   0  -3 -16 3808.08  144.31   1-0.53130-0.41122 0.04319 0.75113 0.84608 0.51642
   0   3 -16 3930.00  122.12   1-0.47734 0.22534 0.10371 0.46456 0.87257 0.85638
   0  -3 -16 3772.89  111.19   1-0.59769-0.47340 0.03859 0.74537 0.80079 0.46936
   0  -3  17 2635.68   86.32   1-0.06496-0.79616 0.99677 0.60457-0.04714-0.02464
   0   3  17 2646.81   86.62   1-0.75285-0.90486 0.36691-0.37323-0.54643-0.20471
   0   3 -17 2665.30   97.01   1-0.48868 0.23970 0.09136 0.48561 0.86765 0.84066
   0  -3 -17 2601.80   94.80   1-0.58989-0.43968 0.02848 0.76855 0.80698 0.46476
   0  -3  18 2515.41   88.54   1-0.06336-0.82054 0.99693 0.57144-0.04598-0.01276
   0   3  18 2701.90   89.67   1-0.73691-0.91490 0.41335-0.36008-0.53487-0.18242
   0   3 -18 2607.18   90.75   1-0.50046 0.25364 0.07834 0.50599 0.86220 0.82439
   0  -3 -18 2379.11   92.01   1-0.58050-0.40437 0.01650 0.78986 0.81409 0.46108
   0  -3  19   -5.57   40.69   1-0.05945-0.84261 0.99729 0.53851-0.04315 0.00079
   0   3  19    0.49   42.49   1-0.71954-0.92350 0.45770-0.34903-0.52226-0.15909
   0   3 -19   15.33   36.49   1-0.51260 0.26722 0.06470 0.52575 0.85618 0.80757
   0   4   1 7566.93  146.98   1-0.58753-0.22750-0.68770-0.95250-0.42644-0.20240
   0   4  -1 7809.97  158.69   1-0.50211-0.09009-0.78425-0.98262-0.36444-0.16227
   0   4  -1 6899.36  240.87   1-0.72346-0.30935-0.23067-0.42866 0.65068 0.84885
   0  -4   1 7774.92  172.20   1-0.28151-0.69452-0.29182-0.09415 0.91410 0.71328
   0  -4  -1 7610.81  166.52   1-0.36796-0.72921-0.21403 0.05024 0.90487 0.68243
   0   4   2  143.81   31.51   1-0.62684-0.29281-0.63249-0.93051-0.45497-0.21999
   0   4  -2  168.44   25.84   1-0.45775-0.01974-0.82466-0.98981-0.33224-0.14101
   0   4  -2  152.44   24.69   1-0.65253-0.21270-0.11441-0.27900 0.74907 0.93643
   0  -4   2  166.29   26.04   1-0.23072-0.66932-0.33422-0.17035 0.91381 0.72317
   0  -4  -2  189.73   32.86   1-0.40307-0.73844-0.18020 0.11739 0.89724 0.66401
   0   4   315755.11  268.21   1-0.66292-0.35488-0.57359-0.90482-0.48116-0.23524
   0   4  -316423.73  313.11   1-0.41355 0.05044-0.85957-0.99150-0.30016-0.11986
   0   4  -314195.70  462.24   1-0.59941-0.13387-0.04084-0.17203 0.79939 0.97595
   0  -4   315661.83  281.87   1-0.17322-0.63766-0.37952-0.24901 0.90881 0.72895
   0  -4  -315864.30  232.56   1-0.43325-0.74274-0.14997 0.18092 0.88870 0.64466
   0  -4   416171.13  306.41   1 0.36997-0.12009 0.88938 0.98787 0.26853 0.09838
   0   4   416457.20  308.36   1-0.69525-0.41320-0.51182-0.87628-0.50463-0.24777
   0   4  -415713.28  355.68   1-0.56107-0.06982 0.00765-0.09014 0.82773 0.99347
   0  -4   416058.62  299.76   1-0.11020-0.60047-0.42607-0.32892 0.89795 0.72886
   0  -4  -416167.52  237.60   1-0.45890-0.74252-0.12338 0.24083 0.87987 0.62503
   0  -4   5 2879.13   90.29   1 0.32855-0.18748 0.91388 0.97908 0.23847 0.07904
   0   4   5 2802.98   83.12   1-0.72351-0.46745-0.44805-0.84572-0.52514-0.25735
   0   4  -5 2898.27   93.07   1-0.53384-0.01688 0.04022-0.02416 0.84462 0.99956
   0  -4   5 2716.34   89.66   1-0.04264-0.55863-0.47250-0.40894 0.88029 0.72159
   0  -4  -5 2819.14   83.58   1-0.48045-0.73819-0.10035 0.29717 0.87125 0.60561
   0  -4   6    7.13   32.24   1 0.28963-0.25238 0.93376 0.96566 0.21022 0.06152
   0   4   6   26.94   19.79   1-0.74785-0.51731-0.38219-0.81356-0.54280-0.26553
   0   4  -6    8.38   19.45   1-0.51490 0.02777 0.06209 0.03109 0.85499 0.99913
   0  -4   6   14.38   24.20   1 0.02969-0.51211-0.51832-0.48815 0.85466 0.70670
   0  -4  -6    4.40   30.84   1-0.49830-0.73016-0.08075 0.35007 0.86323 0.58677
   0  -4   715539.91  298.32   1 0.25371-0.31428 0.94959 0.94820 0.18414 0.04617
   0   4   716084.25  244.16   1-0.76760-0.56301-0.31681-0.78143-0.55714-0.26901
   0   4  -716495.83  296.46   1-0.50220 0.06617 0.07640 0.07881 0.86136 0.99469
   0  -4   716183.06  255.69   1 0.10526-0.46236-0.56191-0.56513 0.82046 0.68325
   0  -4  -716103.78  240.35   1-0.51283-0.71881-0.06443 0.39970 0.85606 0.56880
   0  -4   819856.34  385.62   1 0.22109-0.37287 0.96196 0.92728 0.16047 0.03321
   0   4   820266.26  302.91   1-0.78324-0.60460-0.25165-0.74954-0.56849-0.26951
   0   4  -819968.09  344.48   1-0.49430 0.09979 0.08519 0.12099 0.86510 0.98762
   0  -4   820178.10  417.78   1 0.18281-0.41062-0.60199-0.63859 0.77729 0.65082
   0  -4  -820251.34  286.82   1-0.52439-0.70449-0.05121 0.44623 0.84993 0.55187
   0  -4   9  793.96   55.72   1 0.19196-0.42798 0.97146 0.90349 0.13932 0.02279
   0   4   9  818.30   51.27   1-0.79498-0.64228-0.18724-0.71838-0.57701-0.26717
   0   4  -9  793.93   54.94   1-0.49012 0.12968 0.08979 0.15900 0.86701 0.97872
   0  -4   9  833.56   49.78   1 0.26094-0.35831-0.63732-0.70731 0.72507 0.60935
   0  -4  -9  785.16   50.39   1-0.53326-0.68749-0.04089 0.48986 0.84495 0.53608
   0  -4  10  161.69   44.75   1 0.16637-0.47954 0.97864 0.87738 0.12075 0.01494
   0   4  10  181.94   34.26   1-0.80318-0.67689-0.12268-0.68754-0.58296-0.26286
   0   4 -10  221.84   38.66   1-0.48889 0.15662 0.09114 0.19374 0.86756 0.96846
   0  -4  10  217.09   32.29   1 0.33817-0.30690-0.66682-0.77020 0.66406 0.55910
   0  -4 -10  179.11   39.49   1-0.53972-0.66807-0.03330 0.53076 0.84118 0.52150
   0  -4  1115134.42  280.26   1 0.14428-0.52760 0.98397 0.84943 0.10472 0.00963
   0   4  1115721.24  266.30   1-0.80779-0.70747-0.06081-0.65895-0.58631-0.25545
   0   4 -1115215.70  276.55   1-0.49003 0.18119 0.08989 0.22590 0.86705 0.95714
   0  -4 -1115839.70  285.42   1-0.54398-0.64644-0.02826 0.56911 0.83862 0.50814
   0   4 -1110779.60 1952.78   1-0.41217 0.25900 0.68937 0.82498-0.59570-0.50231
   0  -4  12 4174.90  129.42   1 0.12561-0.57225 0.98788 0.82004 0.09117 0.00680
   0   4  12 4087.08  127.08   1-0.80929-0.73493-0.00060-0.63203-0.58740-0.24578
   0   4 -12 4045.65  124.80   1-0.49308 0.20385 0.08653 0.25594 0.86566 0.94495
   0  -4 -12 4101.36  117.43   1-0.54621-0.62279-0.02560 0.60508 0.83725 0.49597
   0   4 -12 2013.09  566.35   1-0.48321 0.21375 0.70482 0.87381-0.51934-0.43675
   0  -4  13  112.09   40.35   1 0.11020-0.61364 0.99068 0.78956 0.07998 0.00634
   0   4  13  148.23   32.75   1-0.80794-0.75954 0.05781-0.60689-0.58642-0.23404
   0   4 -13   93.20   41.08   1-0.49770 0.22495 0.08142 0.28422 0.86351 0.93199
   0  -4 -13  116.09   30.87   1-0.54656-0.59727-0.02518 0.63881 0.83703 0.48495
   0  -4  14 5959.57  155.70   1 0.09789-0.65192 0.99265 0.75824 0.07105 0.00813
   0   4  14 5859.67  139.04   1-0.80398-0.78154 0.11437-0.58361-0.58354-0.22041
   0   4 -14 5860.80  144.83   1-0.50362 0.24474 0.07482 0.31102 0.86067 0.91834
   0  -4 -14 5870.74  138.24   1-0.54514-0.56997-0.02687 0.67043 0.83790 0.47501
   0  -4  15 6444.43  165.11   1 0.08851-0.68727 0.99400 0.72629 0.06424 0.01204
   0   4  15 6712.48  162.15   1-0.79764-0.80116 0.16906-0.56220-0.57894-0.20505
   0   4 -15 6870.91  172.40   1-0.51062 0.26345 0.06694 0.33655 0.85719 0.90405
   0  -4 -15 6492.51  185.42   1-0.54204-0.54099-0.03056 0.70005 0.83979 0.46609
   0  -4  16 4115.73  124.41   1 0.08189-0.71987 0.99486 0.69387 0.05944 0.01796
   0   4  16 4224.68  114.05   1-0.78912-0.81861 0.22187-0.54267-0.57276-0.18810
   0   4 -16 4029.70  126.85   1-0.51852 0.28126 0.05796 0.36096 0.85309 0.88915
   0  -4 -16 4037.21  117.02   1-0.53730-0.51037-0.03616 0.72776 0.84261 0.45811
   0  -4  17   83.17   34.23   1 0.07787-0.74987 0.99536 0.66107 0.05651 0.02576
   0   4  17   46.44   41.14   1-0.77858-0.83403 0.27286-0.52496-0.56511-0.16970
   0   4 -17   69.69   35.02   1-0.52718 0.29831 0.04798 0.38438 0.84839 0.87364
   0  -4 -17   57.06   49.64   1-0.53096-0.47815-0.04358 0.75365 0.84627 0.45096
   0   5   0   -9.87   30.83   1-0.58351-0.10098-0.69292-0.98240-0.42352-0.15714
   0  -5   0   10.30   31.63   1-0.27621-0.76012-0.29635-0.00763 0.91426 0.64973
   0   5   1 3585.70   95.95   1-0.61493-0.15840-0.65010-0.97280-0.44633-0.16901
   0   5  -1 3562.83  103.86   1-0.55109-0.04257-0.73232-0.98858-0.39999-0.14454
   0  -5   1 3634.30  105.66   1-0.23851-0.74801-0.32786-0.07298 0.91412 0.65965
   0  -5  -1 3710.88   99.09   1-0.31075-0.76878-0.26633 0.05569 0.91241 0.63707
   0   5   2 7762.78  163.56   1-0.64490-0.21436-0.60414-0.96005-0.46808-0.17983
   0   5  -2 7866.16  159.69   1-0.51819 0.01632-0.76812-0.99116-0.37611-0.13160
   0  -5   2 7813.39  169.74   1-0.19573-0.73106-0.36212-0.14060 0.91134 0.66766
   0  -5  -2 7802.64  169.44   1-0.34136-0.77352-0.23876 0.11657 0.90909 0.62295
   0   5   3 1050.66   58.73   1-0.67300-0.26846-0.55537-0.94450-0.48848-0.18928
   0   5  -3  994.97   55.21   1-0.48529 0.07520-0.80025-0.99008-0.35224-0.11866
   0   5  -3  834.61   70.69   1-0.70305-0.14041-0.19429-0.38332 0.68407 0.91287
   0  -5   3  963.06   50.96   1-0.14870-0.70987-0.39801-0.20985 0.90524 0.67233
   0  -5  -3 1330.86   62.77   1-0.36826-0.77453-0.21375 0.17489 0.90481 0.60786
   0   5   4    9.84   28.68   1-0.69888-0.32033-0.50421-0.92656-0.50726-0.19713
   0   5  -4    6.61   32.31   1-0.45291 0.13358-0.82873-0.98534-0.32873-0.10609
   0   5  -4   13.02   19.68   1-0.66270-0.07435-0.12957-0.28522 0.73758 0.95557
   0  -5   4   -5.13   25.59   1-0.09751-0.68451-0.43506-0.28026 0.89510 0.67296
   0  -5  -4  -12.26   38.31   1-0.39166-0.77205-0.19135 0.23060 0.89999 0.59223
   0   5   5 4561.03  135.01   1-0.72227-0.36971-0.45109-0.90665-0.52424-0.20317
   0   5  -5 3158.86  499.18   1-0.42149 0.19099-0.85366-0.97705-0.30592-0.09422
   0   5  -5 4116.11  155.45   1-0.63100-0.01694-0.08356-0.20580 0.77126 0.97844
   0  -5   5 4429.22  145.55   1-0.04281-0.65552-0.47238-0.35121 0.88034 0.66853
   0  -5  -5 4413.40  129.42   1-0.41181-0.76633-0.17157 0.28369 0.89497 0.57641
   0  -5   6 3213.19  112.53   1 0.39094-0.24761 0.87558 0.96539 0.28375 0.08179
   0   5   6 3448.77  110.42   1-0.74328-0.41617-0.39557-0.88489-0.53949-0.20917
   0   5  -6 3291.87  118.35   1-0.60670 0.03306-0.05046-0.13930 0.79332 0.98969
   0  -5   6 3379.53  116.40   1 0.01602-0.62251-0.50997-0.42218 0.86004 0.65897
   0  -5  -6 3289.45  111.45   1-0.42894-0.75758-0.15436 0.33421 0.89004 0.56068
   0  -5   7  217.14   30.15   1 0.36252-0.30201 0.89406 0.95058 0.26312 0.07188
   0   5   7  215.08   38.03   1-0.76112-0.45996-0.33985-0.86243-0.55243-0.21126
   0   5  -7  183.72   31.33   1-0.58847 0.07701-0.02666-0.08210 0.80807 0.99364
   0  -5   7  245.73   33.78   1 0.07806-0.58628-0.54674-0.49233 0.83365 0.64333
   0  -5  -7  193.75   34.30   1-0.44329-0.74605-0.13967 0.38221 0.88542 0.54526
   0  -5   8  245.09   30.87   1 0.33608-0.35442 0.90969 0.93293 0.24393 0.06342
   0   5   8  281.68   34.36   1-0.77609-0.50089-0.28348-0.83932-0.56330-0.21128
   0   5  -8  295.59   36.12   1-0.57517 0.11602-0.00979-0.03183 0.81797 0.99273
   0  -5   8  232.92   34.93   1 0.14272-0.54744-0.58187-0.56086 0.80065 0.62107
   0  -5  -8  299.20   40.32   1-0.45507-0.73195-0.12741 0.42778 0.88129 0.53031
   0  -5   9 7986.79  191.41   1 0.31184-0.40463 0.92277 0.91272 0.22634 0.05655
   0   5   9 8151.89  207.33   1-0.78819-0.53894-0.22684-0.81594-0.57209-0.20921
   0   5  -9 8340.32  217.30   1-0.56587 0.15103 0.00175 0.01311 0.82448 0.98844
   0  -5   9 8055.23  226.87   1 0.20927-0.50671-0.61453-0.62690 0.76062 0.59179
   0  -5  -9 8111.22  195.71   1-0.46447-0.71547-0.11749 0.47101 0.87775 0.51598
   0  -5  10 1622.85   75.56   1 0.28994-0.45251 0.93361 0.89027 0.21044 0.05137
   0   5  10 1663.94   74.91   1-0.79747-0.57417-0.17027-0.79262-0.57882-0.20509
   0   5 -10 1316.22   71.92   1-0.55986 0.18275 0.00912 0.05388 0.82853 0.98167
   0  -5  10 1560.42   75.25   1 0.27687-0.46493-0.64386-0.68962 0.71328 0.55520
   0  -5 -10 1638.13   76.51   1-0.47167-0.69679-0.10981 0.51199 0.87491 0.50233
   0  -5  11  294.13   35.72   1 0.27046-0.49796 0.94250 0.86586 0.19631 0.04796
   0   5  11  277.31   33.68   1-0.80412-0.60732-0.11279-0.76895-0.58365-0.19966
   0   5 -11  267.91   35.06   1-0.55655 0.21177 0.01315 0.09131 0.83070 0.97304
   0  -5 -11  292.70   48.24   1-0.47681-0.67605-0.10429 0.55083 0.87279 0.48941
   0  -5  12 2093.06   80.26   1 0.25345-0.54095 0.94969 0.83977 0.18396 0.04633
   0   5  12 2240.36   83.91   1-0.80797-0.63713-0.05709-0.74653-0.58644-0.19170
   0   5 -12 2197.72   82.88   1-0.55549 0.23854 0.01443 0.12599 0.83139 0.96292
   0  -5 -12 2339.80   81.77   1-0.48002-0.65339-0.10081 0.58762 0.87144 0.47725
   0  -5  13 4139.25  120.71   1 0.23889-0.58148 0.95543 0.81222 0.17339 0.04649
   0   5  13 4162.93  121.82   1-0.80929-0.66441-0.00217-0.72489-0.58740-0.18189
   0   5 -13 4175.12  121.68   1-0.55631 0.26343 0.01344 0.15839 0.83086 0.95158
   0  -5 -13 4340.86  121.50   1-0.48142-0.62891-0.09929 0.62245 0.87084 0.46584
   0  -5  14  668.08   52.25   1 0.22677-0.61958 0.95993 0.78343 0.16460 0.04841
   0   5  14  613.75   51.17   1-0.80820-0.68928 0.05182-0.70417-0.58661-0.17035
   0   5 -14  583.00   54.97   1-0.55872 0.28674 0.01052 0.18887 0.82928 0.93920
   0  -5 -14  636.01   48.71   1-0.48109-0.60270-0.09965 0.65540 0.87098 0.45518
   0  -5  15   60.01   32.45   1 0.21704-0.65529 0.96336 0.75357 0.15753 0.05207
   0   5  15   24.36   39.10   1-0.80483-0.71188 0.10479-0.68449-0.58416-0.15714
   0   5 -15   -6.28   49.74   1-0.56246 0.30871 0.00594 0.21770 0.82679 0.92590
   0  -5 -15   92.31   42.05   1-0.47909-0.57482-0.10182 0.68654 0.87183 0.44523
   0   6   011421.57  273.54   1-0.61960-0.04057-0.64330-0.99067-0.44972-0.13006
   0  -6   011387.97  280.76   1-0.22319-0.80359-0.34031 0.00558 0.91343 0.59515
   0   6   1 6687.44  175.69   1-0.64385-0.09082-0.60584-0.98643-0.46732-0.13672
   0  -6   1 6653.41  177.58   1-0.18948-0.79571-0.36699-0.05446 0.91071 0.60321
   0  -6  -1 6521.25  177.05   1-0.25284-0.80766-0.31603 0.06373 0.91443 0.58618
   0   6   2 1258.59   63.54   1-0.66719-0.14015-0.56597-0.97978-0.48426-0.14273
   0   6  -2 1272.82   71.84   1-0.56953 0.06148-0.71045-0.99139-0.41338-0.11559
   0  -6   2 1274.55   70.32   1-0.15248-0.78454-0.39519-0.11602 0.90585 0.60911
   0  -6  -2 1259.40   68.19   1-0.28027-0.80920-0.29288 0.12019 0.91414 0.57509
   0   6   4 9198.55  194.36   1-0.71005-0.23499-0.47979-0.96004-0.51537-0.15196
   0   6  -4 9267.73  248.77   1-0.51944 0.16356-0.76683-0.98133-0.37702-0.10110
   0  -6   4 9291.86  213.89   1-0.06891-0.75253-0.45486-0.24268 0.88788 0.61220
   0  -6  -4 9233.16  208.46   1-0.32628-0.80346-0.25246 0.22723 0.91093 0.55027
   0   6   5 6903.66  149.55   1-0.72912-0.28005-0.43394-0.94740-0.52921-0.15487
   0   6  -5 7148.44  171.54   1-0.49513 0.21386-0.79100-0.97229-0.35937-0.09439
   0  -6   5 7124.27  160.10   1-0.02203-0.73146-0.48596-0.30716 0.87370 0.60876
   0  -6  -5 7164.98  170.58   1-0.34517-0.79647-0.23526 0.27774 0.90857 0.53710
   0   6   6 1634.76   67.39   1-0.74665-0.32299-0.38574-0.93302-0.54194-0.15858
   0   6  -6 1587.39   75.88   1-0.47168 0.26330-0.81259-0.96066-0.34235-0.08831
   0  -6   6 1552.06   69.92   1 0.02793-0.70731-0.51726-0.37185 0.85536 0.60118
   0  -6  -6 1494.82   66.54   1-0.36151-0.78693-0.22010 0.32622 0.90601 0.52374
   0   6   7 7636.20  154.68   1-0.76191-0.36419-0.33715-0.91768-0.55301-0.15879
   0   6  -7 8083.05  177.43   1-0.44932 0.31165-0.83171-0.94656-0.32613-0.08302
   0  -6   7 7605.72  175.61   1 0.08076-0.68030-0.54827-0.43624 0.83239 0.58895
   0  -6  -7 7639.82  157.25   1-0.37545-0.77499-0.20693 0.37269 0.90344 0.51037
   0   6   8 8980.74  185.12   1-0.77510-0.40333-0.28759-0.90139-0.56258-0.15752
   0   6  -8 9439.34  221.94   1-0.42827 0.35870-0.84849-0.93013-0.31085-0.07867
   0  -6   8 8871.08  215.14   1 0.13614-0.65074-0.57845-0.49981 0.80427 0.57158
   0  -6  -8 9094.75  198.14   1-0.38712-0.76079-0.19574 0.41719 0.90100 0.49713
   0   6   9  538.11   50.18   1-0.78616-0.44035-0.23734-0.88439-0.57061-0.15470
   0   6  -9  218.99   64.86   1-0.40870 0.40426-0.86311-0.91152-0.29664-0.07540
   0  -6   9  564.05   54.04   1 0.19368-0.61903-0.60721-0.56196 0.77057 0.54863
   0  -6  -9  536.50   48.80   1-0.39667-0.74445-0.18647 0.45977 0.89881 0.48413
   0  -6  10 4028.92  115.02   1 0.39006-0.44894 0.87618 0.89075 0.28311 0.07078
   0   6  10 4135.00  118.62   1-0.79507-0.47521-0.18662-0.86693-0.57708-0.15031
   0  -6 -10 3856.22  112.79   1-0.40420-0.72611-0.17909 0.50046 0.89696 0.47147
   0  -6  1111649.48  216.75   1 0.37376-0.49121 0.88696 0.86824 0.27128 0.06967
   0   6  1112159.97  232.33   1-0.80193-0.50865-0.13451-0.84868-0.58206-0.14495
   0  -6 -1112406.33  215.81   1-0.40983-0.70586-0.17353 0.53933 0.89550 0.45921
   0  -6  12 6098.90  172.07   1 0.35926-0.53168 0.89606 0.84405 0.26076 0.06987
   0   6  12 6419.14  181.55   1-0.80646-0.53914-0.08346-0.83091-0.58535-0.13748
   0  -6 -12 6146.69  183.59   1-0.41364-0.68379-0.16974 0.57643 0.89447 0.44737
   0   7   0   -2.60   48.89   1-0.65382 0.02170-0.58931-0.99458-0.47456-0.10162
   0  -7   0   10.64   45.75   1-0.16650-0.84362-0.38464 0.01889 0.90792 0.53659
   0   7   1 7816.55  168.83   1-0.67279-0.02325-0.55577-0.99425-0.48833-0.10445
   0   7  -1 7397.75  155.47   1-0.63444 0.06708-0.62082-0.99287-0.46049-0.09849
   0  -7   1 7407.01  160.09   1-0.13624-0.83920-0.40722-0.03704 0.90310 0.54255
   0  -7  -1 7545.49  175.90   1-0.19408-0.84538-0.36340 0.07349 0.91118 0.52908
   0   7   2  614.53   50.34   1-0.69113-0.06758-0.52027-0.99197-0.50164-0.10683
   0   7  -2  655.27   49.22   1-0.61485 0.11267-0.65022-0.98906-0.44627-0.09520
   0  -7   2  683.79   51.40   1-0.10325-0.83205-0.43100-0.09419 0.89642 0.54663
   0  -7  -2  703.13   55.48   1-0.21907-0.84453-0.34362 0.12663 0.91319 0.52031
   0   7   3 4271.29  115.34   1-0.70866-0.11110-0.48293-0.98785-0.51436-0.10861
   0   7  -3 3831.94  265.15   1-0.59525 0.15825-0.67749-0.98311-0.43205-0.09192
   0  -7   3 4342.33  121.03   1-0.06790-0.82243-0.45555-0.15235 0.88761 0.54807
   0  -7  -3 4271.24  112.48   1-0.24154-0.84116-0.32537 0.17824 0.91421 0.51055
   0   7   4 1069.76   59.90   1-0.72519-0.15363-0.44388-0.98202-0.52636-0.10967
   0   7  -4  881.47   93.59   1-0.57586 0.20364-0.70261-0.97501-0.41797-0.08878
   0  -7   4 1064.89   65.71   1-0.02943-0.80977-0.48116-0.21136 0.87613 0.54734
   0  -7  -4 1048.00   68.28   1-0.26092-0.83488-0.30928 0.22815 0.91447 0.50090
   0   7   5 6160.29  144.23   1-0.74085-0.19467-0.40246-0.97443-0.53773-0.11218
   0   7  -5 6196.30  163.52   1-0.55688 0.24861-0.72560-0.96478-0.40420-0.08594
   0  -7   5 5910.45  157.71   1 0.01175-0.79440-0.50733-0.27092 0.86166 0.54362
   0  -7  -5 5907.95  146.07   1-0.27871-0.82679-0.29421 0.27653 0.91419 0.48982
   0   7   6 1308.65   74.50   1-0.75489-0.23467-0.36043-0.96565-0.54792-0.11152
   0   7  -6 1179.84   88.66   1-0.53849 0.29299-0.74649-0.95245-0.39085-0.08353
   0  -7   6 1120.41   77.05   1 0.05559-0.77638-0.53376-0.33073 0.84380 0.53650
   0  -7  -6 1135.68   64.01   1-0.29428-0.81649-0.28078 0.32327 0.91353 0.47836
   1   0 -21   24.03   44.28   1-0.40897 0.15610 0.17438 0.81632 0.89572 0.55610
  -1   0  20 9720.92  179.75   1 0.38372-0.15716-0.19901-0.80601-0.90174-0.57065
  -1   0  19    9.55   36.75   1 0.35997-0.15516-0.22154-0.79521-0.90627-0.58614
  -1   0  18 5373.84  156.36   1-0.46638-0.95998 0.81724 0.27803-0.33851-0.03371
  -1   0  18 5921.51  141.39   1 0.33543-0.15394-0.24417-0.78452-0.90986-0.60068
   1   0 -18 5652.40  151.33   1-0.79374-0.30215 0.40140 0.94116 0.45698 0.15133
  -1   0  17   -8.61   30.01   1-0.48665-0.95425 0.79899 0.29307-0.35322-0.05913
  -1   0  17   62.53   30.10   1 0.31000-0.15362-0.26699-0.77401-0.91247-0.61425
   1   0 -17   12.56   25.03   1-0.80005-0.33434 0.42754 0.93399 0.42085 0.12596
  -1   0  16 3995.13  115.88   1-0.50617-0.94779 0.78025 0.30762-0.36739-0.08400
  -1   0  16 3964.52  108.04   1 0.28354-0.15433-0.29007-0.76376-0.91403-0.62676
   1   0 -16 4288.19  118.59   1-0.80468-0.36486 0.45252 0.92565 0.38431 0.10018
  -1   0  15    6.93   19.92   1-0.52500-0.94062 0.76103 0.32168-0.38105-0.10836
  -1   0  15   13.34   24.42   1 0.25586-0.15625-0.31352-0.75388-0.91446-0.63815
   1   0 -15    7.83   27.00   1-0.80770-0.39377 0.47641 0.91622 0.34732 0.07394
  -1   0  14 7360.80  172.86   1-0.54329-0.93285 0.74116 0.33506-0.39433-0.13236
  -1   0  14 7264.75  160.50   1 0.22674-0.15962-0.33744-0.74448-0.91362-0.64827
   1   0 -14 7897.76  182.98   1-0.80915-0.42110 0.49929 0.90578 0.30980 0.04718
  -1   0  13   -8.15   18.58   1-0.56083-0.92440 0.72093 0.34813-0.40706-0.15580
  -1   0  13    1.73   30.20   1 0.19590-0.16471-0.36198-0.73570-0.91136-0.65696
   1   0 -13   -1.54   16.99   1-0.80903-0.44687 0.52120 0.89437 0.27167 0.01981
  -1   0  12 1061.69   51.36   1-0.57780-0.91539 0.70017 0.36066-0.41938-0.17881
  -1   0  12 1143.11   57.70   1 0.16296-0.17190-0.38732-0.72771-0.90742-0.66398
   1   0 -12 1156.59   58.72   1-0.80744-0.47180 0.54133 0.88167 0.23449-0.00667
  -1   0   9  -14.50   18.54   1-0.62583-0.88546 0.63402 0.39439-0.45424-0.24578
  -1   0   9   17.74   25.77   1 0.04575-0.21184-0.47044-0.71085-0.88124-0.67067
   1   0  -9   11.14   22.42   1-0.79286-0.53536 0.59860 0.83925 0.11415-0.09509
  -1   0   8 1364.16   62.48   1-0.64116-0.87480 0.61019 0.40385-0.46537-0.26760
  -1   0   8 1343.42   62.22   1-0.00246-0.23478-0.50154-0.70816-0.86512-0.66586
   1   0  -8 1333.71   57.24   1-0.78424-0.55251 0.61640 0.82366 0.07080-0.12764
  -1   0   7    6.59   21.95   1-0.05779-0.26427-0.53505-0.70839-0.84284-0.65447
   1   0  -7    2.30   22.15   1-0.77338-0.56745 0.63341 0.80729 0.02557-0.16206
  -1   0   5    4.28   17.04   1-0.20004-0.35485-0.61022-0.71701-0.76655-0.59997
   1   0  -5   -0.13   14.21   1-0.74331-0.58895 0.66497 0.77209-0.07273-0.23876
  -1   0   4   78.84   25.44   1-0.70965-0.83920 0.48070 0.40755-0.51508-0.36005
   1   0  -4  101.64   24.02   1-0.80236-0.67292-0.13055-0.05756-0.58237-0.73746
  -1   0   4  109.93   25.59   1-0.29470-0.42386-0.65091-0.72406-0.69961-0.54413
   1   0  -4  112.66   24.02   1-0.72267-0.59409 0.67931 0.75305-0.12754-0.28277
  -1   0   3    5.92   11.89   1-0.74382-0.84739 0.39401 0.35417-0.53988-0.39557
   1   0  -3    9.96   13.03   1-0.72202-0.61852-0.45169-0.41280-0.52406-0.66858
  -1   0   3   31.11   20.15   1-0.41023-0.51351-0.68886-0.72876-0.59764-0.45299
   1   0  -3    9.45   17.55   1-0.69663-0.59384 0.69236 0.73271-0.18794-0.33236
   1   0  -1   11.56   13.09   1-0.38227-0.33051 0.88140 0.85468-0.27746-0.40033
  -1   0   1   30.48   13.12   1-0.65999-0.71173 0.57872 0.60544-0.47904-0.35618
  -1   0   1   13.75   19.36   1-0.68551-0.73699-0.69665-0.67007-0.21151-0.08852
   1   0  -1    6.39   14.42   1-0.61755-0.56633 0.71133 0.68492-0.33559-0.45841
   1   0   0  610.89   41.59   1-0.58866-0.56291 0.68623 0.62621-0.42726-0.53942
  -1   0   0  577.73   42.56   1-0.69772-0.72347 0.50667 0.56668-0.50642-0.39426
  -1   0   0  616.26   40.40   1-0.78498-0.81043-0.61506-0.55535 0.07419 0.18649
   1   0   0  650.26   39.16   1-0.55328-0.52784 0.71268 0.65288-0.43123-0.54324
   1   0   1   26.29   15.22   1-0.64148-0.64171 0.60967 0.51637-0.46560-0.56706
  -1   0  -1   30.18   17.49   1-0.80776-0.80749-0.47707-0.38400 0.34628 0.44776
   1   0   3   36.90   26.39   1-0.66606-0.71826 0.56801 0.40811-0.48344-0.56349
  -1   0  -3   45.62   23.18   1-0.71319-0.66120-0.21198-0.05233 0.66814 0.74838
  -1   0  -3   26.43   19.46   1 0.08177 0.13305-0.54884-0.38871 0.83191 0.91170
   1   0   3   36.65   18.90   1-0.35026-0.40202-0.23057-0.39046 0.90782 0.82819
   1   0   4 8363.07  164.92   1-0.66607-0.74426 0.56799 0.37481-0.48345-0.55280
  -1   0  -4 8532.45  169.48   1-0.65994-0.58224-0.12542 0.06762 0.74076 0.81019
   1   0   5   15.99   17.53   1-0.66262-0.76679 0.57412 0.34764-0.48094-0.53959
  -1   0  -5   31.99   18.08   1-0.61769-0.51427-0.06521 0.16123 0.78370 0.84233
  -1   0  -5   29.13   19.48   1-0.38163-0.27812-0.20102 0.02548 0.90218 0.96020
   1   0   6 3681.13   93.82   1-0.65690-0.78706 0.58407 0.32429-0.47679-0.52474
  -1   0  -6 3707.42  105.38   1-0.58639-0.45726-0.02399 0.23585 0.80966 0.85748
  -1   0  -6 3383.61   87.22   1-0.50885-0.37945-0.06894 0.19088 0.85808 0.90530
   1   0   7   10.15   18.73   1-0.64955-0.80569 0.59649 0.30342-0.47146-0.50871
  -1   0  -7    3.14   22.81   1-0.56417-0.40933 0.00385 0.29710 0.82564 0.86265
  -1   0  -7   10.49   15.07   1-0.58102-0.42535 0.01717 0.31018 0.81370 0.85021
   1   0   9   -6.32   21.91   1-0.63121-0.83933 0.62583 0.26617-0.45815-0.47399
  -1   0  -9    6.54   17.40   1-0.64177-0.43426 0.09880 0.45838 0.76050 0.77543
   1   0  10 5360.98  134.84   1-0.62058-0.85468 0.64185 0.24890-0.45043-0.45558
  -1   0 -10 5352.15  142.57   1-0.53410-0.30212 0.03992 0.43337 0.84447 0.84906
  -1   0 -10 5105.89  128.98   1-0.65205-0.41863 0.11372 0.50658 0.74958 0.75373
   1   0  11   -3.62   26.87   1-0.60911-0.86920 0.65841 0.23217-0.44211-0.43655
  -1   0 -11   26.95   30.85   1-0.53207-0.27439 0.04228 0.46913 0.84563 0.83941
  -1   0 -11   16.10   18.52   1-0.65517-0.39583 0.11830 0.54446 0.74615 0.73951
   1   0  1224679.28  311.86   1-0.59686-0.88293 0.67533 0.21580-0.43321-0.41696
  -1   0 -1225306.48  394.91   1-0.53268-0.24928 0.04158 0.50183 0.84529 0.82826
   1   0  14  100.25   29.95   1-0.57014-0.90818 0.70971 0.18359-0.41382-0.37616
  -1   0 -14   18.00   33.10   1-0.53975-0.20493 0.03327 0.56032 0.84116 0.80251
  -1   0 -15   -9.95   26.28   1-0.54549-0.18496 0.02646 0.58691 0.83769 0.78824
   1   0  1622015.54  517.03   1-0.54055-0.93057 0.74421 0.15150-0.39234-0.33329
  -1   0 -1622051.71  484.84   1-0.55235-0.16611 0.01823 0.61208 0.83341 0.77314
   1   0  17   15.78   32.63   1-0.52463-0.94069 0.76142 0.13548-0.38079-0.31102
  -1   0 -17   41.72   68.01   1-0.56013-0.14817 0.00880 0.63605 0.82835 0.75728
   1   0  18 3436.89  106.76   1-0.50804-0.95010 0.77840 0.11917-0.36875-0.28828
  -1   0 -18 3230.68   99.87   1-0.56866-0.13100-0.00169 0.65895 0.82256 0.74068
   1   0  19   -3.44   33.98   1-0.49072-0.95876 0.79519 0.10267-0.35617-0.26500
  -1   0 -19   10.08   32.76   1-0.57783-0.11445-0.01313 0.68091 0.81605 0.72336
   1   0  20 6275.27  158.96   1-0.47263-0.96666 0.81174 0.08594-0.34304-0.24117
  -1   0 -20 5933.64  138.08   1-0.58751-0.09842-0.02542 0.70202 0.80881 0.70532
  -1   1  20 7043.86  268.39   1 0.39276-0.05129-0.19028-0.85518-0.89973-0.51578
  -1  -1  20 7390.93  219.89   1 0.38957-0.24815-0.19337-0.74246-0.90046-0.62223
  -1   1  19  127.87   54.86   1 0.36821-0.05008-0.21379-0.84536-0.90482-0.53183
  -1  -1  19  113.88   56.05   1 0.36733-0.24464-0.21462-0.73039-0.90498-0.63771
   1  -1 -19  134.27   46.49   1-0.75084-0.32987 0.28539 0.91652 0.59564 0.22618
  -1  -1  18 8169.30  248.80   1-0.30504-0.89507 0.92624 0.44489-0.22140 0.03018
  -1   1  18 8933.05  186.98   1-0.59707-0.99412 0.67505 0.07773-0.43336-0.07538
  -1  -1  18 9041.00  203.84   1 0.34449-0.24173-0.23589-0.71833-0.90866-0.65234
  -1   1  18 8632.06  259.34   1 0.34276-0.04978-0.23748-0.83573-0.90890-0.54687
   1  -1 -18 8778.13  216.26   1-0.76104-0.36597 0.30831 0.90614 0.57074 0.21204
   1   1 -18 7301.32  632.96   1-0.80882-0.22049 0.49130 0.97283 0.32314 0.07047
  -1  -1  17  228.25   43.65   1-0.31765-0.88170 0.91974 0.47169-0.23056 0.01032
  -1   1  17  228.18   43.34   1-0.62055-0.99161 0.64190 0.07788-0.45041-0.10312
  -1  -1  17  248.26   49.83   1 0.32097-0.23949-0.25723-0.70634-0.91148-0.66612
  -1   1  17  255.74   54.06   1 0.31626-0.05053-0.26144-0.82637-0.91193-0.56085
   1  -1 -17  250.70   42.60   1-0.76994-0.40076 0.32995 0.89447 0.54618 0.19824
   1   1 -17  219.45   35.43   1-0.80906-0.24662 0.52039 0.96860 0.27312 0.03121
  -1  -1  1612522.69  354.96   1-0.32837-0.86643 0.91398 0.49921-0.23834-0.00815
  -1   1  1613287.03  324.82   1-0.64348-0.98855 0.60645 0.07573-0.46705-0.13046
  -1   1  1613767.15  323.39   1 0.28852-0.05251-0.28577-0.81737-0.91382-0.57370
  -1  -1  1614140.03  307.61   1 0.29668-0.23802-0.27869-0.69448-0.91340-0.67899
   1  -1 -1614201.24  342.02   1-0.77764-0.43436 0.35035 0.88156 0.52202 0.18485
   1   1 -1613973.08  290.91   1-0.80671-0.27093 0.54694 0.96256 0.22373-0.00745
  -1  -1  15 2393.86   89.67   1-0.33683-0.84890 0.90926 0.52794-0.24448-0.02501
  -1   1  15 2508.17   94.70   1-0.66589-0.98498 0.56831 0.07088-0.48332-0.15743
  -1   1  15 2468.20   96.03   1 0.25935-0.05593-0.31060-0.80888-0.91447-0.58530
  -1  -1  15 2512.47   93.55   1 0.27150-0.23745-0.30036-0.68282-0.91436-0.69091
   1  -1 -15 2557.26   95.84   1-0.78425-0.46686 0.36955 0.86744 0.49837 0.17196
   1   1 -15 2287.80  110.65   1-0.80150-0.29156 0.57300 0.95527 0.17103-0.04939
  -1  -1  14 4497.82  125.63   1-0.34296-0.82905 0.90576 0.55772-0.24893-0.04016
  -1   1  14 4758.81  139.76   1-0.68819-0.98094 0.52619 0.06205-0.49950-0.18410
  -1  -1  14 4594.40  118.00   1 0.24526-0.23793-0.32231-0.67144-0.91430-0.70181
  -1   1  14 4632.76  116.08   1 0.22843-0.06110-0.33608-0.80102-0.91371-0.59550
   1  -1 -14 4697.48  111.64   1-0.78977-0.49846 0.38727 0.85200 0.47568 0.16008
   1   1 -14 4934.09  117.01   1-0.79371-0.31038 0.59655 0.94621 0.11892-0.09129
  -1  -1  13   27.47   42.59   1-0.34617-0.80626 0.90389 0.58915-0.25126-0.05319
  -1   1  13   27.65   33.23   1-0.70956-0.97634 0.48091 0.05006-0.51501-0.21033
   1  -1 -13   13.28   40.02   1-0.79446-0.52903 0.40409 0.83550 0.45336 0.14852
   1   1 -13   12.37   52.80   1-0.78245-0.32491 0.61954 0.93581 0.06276-0.13664
  -1  -1  1233228.70  444.63   1 0.18880-0.24288-0.36752-0.65000-0.91064-0.72006
  -1  -1  11 1590.34   66.66   1-0.34086-0.74897 0.90697 0.65881-0.24740-0.07074
  -1   1  11 1570.99   66.58   1-0.75033-0.96518 0.37468 0.01043-0.54461-0.26137
  -1  -1  11 1576.14   73.55   1 0.15800-0.24794-0.39106-0.64022-0.90670-0.72707
  -1   1  11 1587.98   64.97   1 0.12093-0.09133-0.41836-0.78333-0.90019-0.61484
   1  -1 -11 1614.04   67.37   1-0.80139-0.58774 0.43405 0.79882 0.41153 0.12821
   1   1 -11 1630.04   64.83   1-0.74898-0.34302 0.66019 0.90970-0.05622-0.23402
  -1  -1  10 8225.63  212.04   1-0.33017-0.71231 0.91299 0.69798-0.23964-0.07367
  -1   1  10 8691.36  189.19   1-0.76920-0.95807 0.31082-0.02012-0.55830-0.28579
  -1  -1  10 8550.25  191.37   1 0.12492-0.25525-0.41547-0.63131-0.90098-0.73231
  -1   1  10 8861.34  161.51   1 0.07798-0.10853-0.44865-0.78030-0.89029-0.61591
   1  -1 -10 9142.42  175.17   1-0.80379-0.61603 0.44709 0.77854 0.39244 0.11988
   1   1 -10 9201.14  183.79   1-0.72583-0.34565 0.67738 0.89351-0.11961-0.28661
  -1  -1   9 1776.57   74.33   1-0.31118-0.66733 0.92312 0.74140-0.22586-0.07058
  -1   1   9 1946.90   70.88   1-0.78639-0.94916 0.23621-0.06119-0.57078-0.30877
  -1  -1   9 1939.72  107.83   1 0.08900-0.26542-0.44102-0.62353-0.89307-0.73536
  -1   1   9 1960.77   75.67   1 0.02972-0.13103-0.48097-0.77929-0.87623-0.61280
   1  -1  -9 2037.54   72.56   1-0.80560-0.64372 0.45871 0.75684 0.37494 0.11313
   1   1  -9 1908.10   67.46   1-0.69753-0.34314 0.69199 0.87473-0.18598-0.34217
  -1  -1   711808.99  214.20   1-0.23368-0.53786 0.95740 0.84227-0.16961-0.03574
  -1   1   711945.05  262.35   1-0.80850-0.91935 0.04418-0.18666-0.58683-0.34633
  -1  -1   711824.21  225.83   1 0.00503-0.29788-0.49682-0.61268-0.86783-0.73203
  -1   1   712193.46  218.66   1-0.08982-0.19964-0.55337-0.78478-0.82807-0.58673
   1  -1  -712421.59  223.42   1-0.80776-0.69766 0.47703 0.70853 0.34633 0.10604
   1   1  -711741.21  210.92   1-0.62183-0.31901 0.71087 0.82686-0.32859-0.46317
  -1  -1   6  583.08   38.31   1-0.16184-0.44003 0.97979 0.89796-0.11746 0.00569
  -1   1   6  596.68   38.06   1-0.80646-0.89134-0.08356-0.28113-0.58534-0.35561
  -1  -1   6  571.51   42.11   1-0.04585-0.32317-0.52802-0.61001-0.84799-0.72348
  -1   1   6  589.55   40.76   1-0.16651-0.25050-0.59396-0.79209-0.78706-0.55662
   1  -1  -6  616.77   40.64   1-0.80829-0.72407 0.48321 0.68138 0.33640 0.10687
   1   1  -6  568.74   38.58   1-0.57207-0.29504 0.71326 0.79585-0.40495-0.52873
  -1  -1   5  336.44   29.57   1-0.05374-0.30593 0.99779 0.94920-0.03901 0.07355
  -1   1   5  320.82   28.58   1-0.78518-0.84384-0.24225-0.40619-0.56990-0.35062
  -1  -1   5  300.75   35.57   1-0.10557-0.35705-0.56208-0.61080-0.82031-0.70670
  -1   1   5  333.72   33.18   1-0.25944-0.31760-0.63669-0.80154-0.72615-0.50660
   1  -1  -5  349.31   47.82   1-0.80855-0.75022 0.48681 0.65167 0.33054 0.11176
   1   1  -5  311.67   28.95   1-0.51249-0.26124 0.70911 0.75832-0.48425-0.59723
  -1  -1   3  831.34  132.86   1 0.30589 0.10566 0.92581 0.94380 0.22202 0.31314
  -1   1   3  849.32   44.38   1-0.62641-0.63340-0.63315-0.72994-0.45466-0.25686
  -1  -1   3  853.58   49.43   1-0.26660-0.46641-0.63967-0.62183-0.72092-0.62910
  -1   1   3  822.12   44.87   1-0.50664-0.51339-0.70836-0.80634-0.49145-0.29365
  -1  -1   3  908.44   47.06   1 0.35756 0.15721-0.67330-0.65588 0.64714 0.73831
   1  -1  -3  865.46   49.74   1-0.80827-0.80171 0.48296 0.58118 0.33681 0.13955
   1   1  -2 4132.82   94.37   1-0.51746-0.34345-0.76887-0.82109-0.37558-0.45589
  -1   1   2 4070.98  100.52   1-0.46397-0.44497-0.81933-0.88290-0.33676-0.14989
  -1  -1   2 4307.87  105.43   1-0.37884-0.55280-0.67996-0.62853-0.62778-0.54712
  -1   1   2 4074.14  102.62   1-0.64809-0.62881-0.70683-0.77152-0.28346-0.09660
  -1  -1   2 4162.36  104.82   1 0.26146 0.08692-0.63753-0.58672 0.72469 0.80510
   1  -1  -2 4399.33  102.91   1-0.80730-0.82663 0.47243 0.53734 0.35363 0.16713
   1  -1  -1 4764.51  116.64   1 0.26917 0.22438 0.94306 0.97431 0.19537 0.01918
   1   1  -1 4709.24  109.12   1-0.66802-0.52000-0.56449-0.64993-0.48486-0.55423
  -1  -1   1 4643.90  112.14   1-0.51684-0.66492-0.70963-0.62496-0.47884-0.40901
  -1   1   1 4807.67  117.11   1-0.76180-0.71644-0.64761-0.67902-0.01582 0.16010
  -1  -1   1 4931.26  123.41   1 0.15391 0.00520-0.58762-0.50342 0.79435 0.86402
   1  -1  -1 5033.41  114.71   1-0.80463-0.84985 0.45219 0.48377 0.38482 0.20908
   1  -1   1 3154.89   88.25   1-0.08541-0.18216 0.99441 0.95908-0.06199-0.21674
   1   1   1 3255.24   85.67   1-0.79195-0.69588-0.20588-0.35740-0.57481-0.62290
  -1  -1  -1 3077.37   88.37   1-0.77842-0.87490-0.62608-0.47506 0.04558 0.09410
  -1   1  -1 3454.09   95.13   1-0.78960-0.69191-0.38670-0.35190 0.47643 0.63040
  -1  -1  -1 3270.69   95.38   1-0.07803-0.17512-0.44861-0.29764 0.89031 0.93847
   1  -1   1 2985.55  103.45   1-0.77802-0.87496 0.35142 0.31636 0.52074 0.36653
   1  -1   3 1788.53   64.28   1-0.28599-0.43465 0.93547 0.83358-0.20757-0.34089
   1   1   3 1666.71   62.76   1-0.80908-0.76490 0.02291-0.19507-0.58724-0.61389
  -1  -1  -3 1734.47   67.60   1-0.77548-0.82049-0.34444-0.12679 0.52913 0.55741
  -1   1  -3 1730.23   65.48   1-0.68550-0.53640-0.16512-0.06332 0.70909 0.84158
  -1  -1  -3 1712.10   63.18   1-0.28737-0.33239-0.28677-0.06913 0.91387 0.94060
   1  -1   3 1585.45   66.30   1-0.56503-0.71383-0.00278-0.10458 0.82506 0.69246
  -1   1  -3 1493.13   66.00   1-0.80723-0.65846 0.47174 0.57343 0.35472 0.48743
   1  -1   5 1725.96   62.63   1-0.38266-0.58329 0.88115 0.71271-0.27774-0.38962
   1   1   5 1743.20   65.21   1-0.79686-0.80461 0.17455-0.11000-0.57838-0.58351
  -1  -1  -5 1760.97   66.02   1-0.67192-0.66560-0.14366 0.14063 0.72655 0.73293
  -1   1  -5 1798.07   68.76   1-0.60332-0.40281-0.04598 0.12261 0.79616 0.90703
  -1  -1  -5 1681.92   67.12   1-0.43527-0.42853-0.14792 0.13633 0.88806 0.89317
  -1   1  -5 1466.32   71.99   1-0.79106-0.59052 0.39172 0.56005 0.46985 0.58105
   1  -1   6 4321.22  106.42   1-0.40944-0.63607 0.86257 0.66084-0.29718-0.39836
   1   1   6 4308.60  103.88   1-0.78680-0.82051 0.23409-0.08374-0.57108-0.56545
  -1  -1  -6 4167.72  118.99   1-0.63273-0.60070-0.08597 0.23172 0.76958 0.76515
  -1   1  -6 4303.66  113.43   1-0.57652-0.35029-0.01149 0.19051 0.81700 0.91706
  -1  -1  -6 4100.88  103.83   1-0.48528-0.45266-0.09510 0.22246 0.86917 0.86348
   1  -1   710835.95  208.13   1-0.42723-0.67985 0.84929 0.61427-0.31009-0.40057
   1   1   711051.54  195.30   1-0.77536-0.83503 0.28651-0.06459-0.56277-0.54638
  -1  -1  -711060.21  206.72   1-0.60392-0.54619-0.04678 0.30432 0.79566 0.78042
  -1   1  -711071.34  188.76   1-0.55730-0.30536 0.01224 0.24764 0.83021 0.91946
  -1  -1  -710495.80  202.80   1-0.52229-0.46380-0.05362 0.29725 0.85107 0.83457
   1  -1   9   49.92   30.11   1-0.44466-0.74926 0.83552 0.53392-0.32275-0.39182
   1   1   9   45.19   22.65   1-0.74963-0.86121 0.37682-0.04091-0.54410-0.50659
  -1  -1  -9   35.13   31.19   1-0.57009-0.46093-0.00346 0.41443 0.82157 0.78472
  -1   1  -9   43.29   41.47   1-0.53570-0.23234 0.03803 0.34024 0.84354 0.91118
  -1  -1  -9   41.70   23.89   1-0.56738-0.45666 0.00010 0.41775 0.82345 0.78545
   1  -1  1023547.22  316.33   1-0.44706-0.77764 0.83357 0.49868-0.32448-0.38285
   1   1  1023738.63  339.59   1-0.73581-0.87335 0.41634-0.03468-0.53407-0.48584
  -1  -1 -1023865.39  464.07   1-0.56167-0.42680 0.00691 0.45821 0.82732 0.77966
  -1   1 -1023666.67  367.37   1-0.53105-0.20197 0.04348 0.37908 0.84622 0.90304
   1  -1  11 3427.94   95.40   1-0.44639-0.80296 0.83411 0.46594-0.32400-0.37167
   1   1  11 3432.13  102.16   1-0.72142-0.88493 0.45317-0.03115-0.52362-0.46467
  -1  -1 -11 3438.34  103.12   1-0.55725-0.39667 0.01229 0.49699 0.83024 0.77177
  -1   1 -11 3351.33  119.94   1-0.52939-0.17460 0.04541 0.41441 0.84715 0.89317
  -1  -1 -11 3314.71   97.25   1-0.58582-0.42328 0.02327 0.50749 0.81010 0.75051
   1   1  1233086.47  605.78   1-0.70648-0.89597 0.48777-0.02984-0.51278-0.44310
  -1   1 -1234210.02  543.65   1-0.53013-0.14964 0.04455 0.44695 0.84673 0.88195
   1  -1  13   97.35   55.21   1-0.43796-0.84652 0.84091 0.40615-0.31788-0.34415
   1   1  13   99.49   41.47   1-0.69102-0.90647 0.52050-0.03041-0.50155-0.42116
  -1  -1 -13  154.82   60.75   1-0.55714-0.34513 0.01243 0.56393 0.83032 0.75023
  -1   1 -13   68.36  114.89   1-0.53282-0.12661 0.04141 0.47721 0.84521 0.86961
  -1  -1 -13  110.31   59.23   1-0.58683-0.37245 0.02456 0.57536 0.80932 0.72817
   1  -1  1413016.72  267.84   1-0.43090-0.86545 0.84646 0.37841-0.31276-0.32832
   1   1  1412705.94  233.90   1-0.67482-0.91641 0.55199-0.03215-0.48980-0.39893
  -1  -1 -1413029.33  263.51   1-0.56029-0.32257 0.00860 0.59350 0.82825 0.73735
  -1   1 -1412810.52  223.53   1-0.53710-0.10517 0.03640 0.50560 0.84273 0.85632
  -1  -1 -1411836.41  299.26   1-0.58232-0.34202 0.01881 0.60289 0.81274 0.72079
   1  -1  15 2073.94   73.00   1-0.42226-0.88279 0.85308 0.35174-0.30648-0.31134
   1   1  15 2071.19   75.03   1-0.65826-0.92584 0.58172-0.03572-0.47778-0.37621
  -1  -1 -15 2110.74   89.68   1-0.56501-0.30158 0.00280 0.62110 0.82507 0.72337
  -1   1 -15 2040.57   93.07   1-0.54267-0.08504 0.02981 0.53241 0.83941 0.84220
  -1  -1 -15 1747.21   73.65   1-0.57486-0.30865 0.00941 0.62678 0.81819 0.71545
   1  -1  16 3729.00  111.19   1-0.41220-0.89872 0.86056 0.32594-0.29918-0.29334
   1   1  16 3725.17  110.18   1-0.64115-0.93471 0.61021-0.04052-0.46536-0.35308
  -1   1 -16 3666.26  116.17   1-0.54933-0.06598 0.02187 0.55787 0.83531 0.82729
  -1  -1 -16 3726.34  127.07   1-0.57103-0.28188-0.00462 0.64706 0.82091 0.70840
   1  -1  17    3.56   29.80   1-0.40084-0.91335 0.86872 0.30080-0.29093-0.27439
   1   1  17    6.97   27.60   1-0.62345-0.94299 0.63760-0.04643-0.45251-0.32954
  -1   1 -17    1.86   38.01   1-0.55688-0.04782 0.01275 0.58215 0.83049 0.81166
  -1  -1 -17    5.17   33.46   1-0.57809-0.26323-0.01346 0.67163 0.81585 0.69254
   1  -1  1815268.06  286.78   1-0.38826-0.92677 0.87739 0.27619-0.28181-0.25456
   1   1  1815013.31  267.31   1-0.60514-0.95067 0.66398-0.05334-0.43922-0.30555
  -1  -1 -1815241.86  282.35   1-0.58601-0.24545-0.02351 0.69498 0.80995 0.67583
  -1   1 -1814805.70  265.28   1-0.56518-0.03041 0.00261 0.60541 0.82496 0.79532
   1  -1  19  242.86   45.48   1-0.37454-0.93904 0.88646 0.25196-0.27185-0.23390
   1   1  19  213.24   41.89   1-0.58620-0.95772 0.68944-0.06118-0.42548-0.28110
  -1  -1 -19  303.28   71.35   1-0.59464-0.22837-0.03462 0.71726 0.80324 0.65831
  -1   1 -19  279.48   63.65   1-0.57410-0.01362-0.00845 0.62774 0.81874 0.77829
   1  -1  20 7054.64  161.05   1-0.35971-0.95020 0.89578 0.22800-0.26108-0.21244
   1   1  20 7035.73  156.03   1-0.56659-0.96410 0.71403-0.06988-0.41124-0.25617
  -1   1 -20 7259.51  164.87   1-0.58354 0.00264-0.02036 0.64924 0.81182 0.76057
  -1  -1 -20 7129.32  164.97   1-0.60386-0.21187-0.04669 0.73860 0.79571 0.63998
   1  -2 -20 4447.36  167.06   1-0.42238-0.07721 0.16099 0.88523 0.89200 0.45869
   1   2 -20 5008.58  165.00   1-0.40955 0.32402 0.17381 0.66665 0.89557 0.67124
  -1  -2  19   81.18   43.05   1 0.38807-0.32074-0.19483-0.65268-0.90080-0.68638
  -1   2  19   44.57   45.76   1 0.39480 0.07332-0.18830-0.87778-0.89926-0.47341
   1  -2 -19   39.44   41.41   1-0.70607-0.38150 0.19948 0.88805 0.67945 0.25656
  -1   2  18 7933.43  229.44   1-0.68771-0.98785 0.52714-0.12821-0.49915-0.08771
  -1  -2  18 8339.09  214.66   1 0.36749-0.31555-0.21447-0.63900-0.90495-0.70149
  -1   2  18 8355.72  213.79   1 0.36946 0.07375-0.21261-0.86876-0.90459-0.48969
   1  -2 -18 7653.41  207.55   1-0.71655-0.41789 0.21800 0.87328 0.66258 0.25048
  -1  -2  17  132.52   38.82   1-0.13829-0.79883 0.98529 0.59518-0.10037 0.08727
  -1   2  17  112.43   37.02   1-0.70930-0.98347 0.48150-0.14056-0.51482-0.11410
  -1   2  17  138.35   42.58   1 0.34304 0.07307-0.23723-0.86006-0.90886-0.50493
  -1  -2  17  151.76   36.58   1 0.34651-0.31079-0.23403-0.62524-0.90837-0.71587
   1  -2 -17  125.29   38.91   1-0.72529-0.45285 0.23408 0.85683 0.64741 0.24650
   1   2 -17  112.02   36.12   1-0.79382-0.13625 0.59628 0.98819 0.11954-0.07002
  -1  -2  16 6712.38  205.08   1-0.13989-0.77443 0.98494 0.62813-0.10153 0.07542
  -1   2  16 7339.06  195.73   1-0.72962-0.97782 0.43266-0.15611-0.52957-0.13958
  -1   2  16 7279.67  204.78   1 0.31531 0.07111-0.26228-0.85178-0.91202-0.51903
  -1  -2  16 7042.69  187.80   1 0.32506-0.30648-0.25356-0.61144-0.91106-0.72951
   1  -2 -16 7192.89  209.86   1-0.73350-0.48695 0.24980 0.83924 0.63211 0.24196
   1   2 -16 7102.21  202.53   1-0.78065-0.14886 0.62254 0.98107 0.05494-0.12382
  -1  -2  15   76.98   32.83   1-0.13822-0.74678 0.98530 0.66178-0.10032 0.06592
  -1   2  15   97.78   33.47   1-0.74852-0.97075 0.38018-0.17529-0.54329-0.16402
  -1  -2  15   83.21   42.66   1 0.30307-0.30271-0.27310-0.59766-0.91299-0.74240
  -1   2  15   93.00   30.05   1 0.28604 0.06759-0.28792-0.84409-0.91393-0.53190
   1  -2 -15  134.36   40.22   1-0.74067-0.52002 0.26408 0.82020 0.61778 0.23840
   1   2 -15  110.55   25.05   1-0.76321-0.15721 0.64605 0.97119-0.01108-0.17905
  -1  -2  14 4093.44  124.06   1-0.13281-0.71539 0.98644 0.69621-0.09640 0.05915
  -1   2  14 4168.34  132.40   1-0.76575-0.96202 0.32356-0.19861-0.55580-0.18725
  -1   2  14 4385.42  133.17   1 0.25490 0.06220-0.31432-0.83717-0.91445-0.54338
  -1  -2  14 4131.85  137.63   1 0.28047-0.29956-0.29270-0.58393-0.91414-0.75450
   1  -2 -14 4314.81  129.58   1-0.74685-0.55209 0.27687 0.79968 0.60460 0.23598
   1   2 -14 4397.41  138.59   1-0.74124-0.16103 0.66661 0.95837-0.07859-0.23575
  -1  -2  13  245.39   36.42   1-0.12305-0.67964 0.98837 0.73143-0.08931 0.05553
  -1   2  13  251.02   33.67   1-0.78111-0.95126 0.26158-0.22696-0.56695-0.20877
  -1  -2  13  278.47   38.82   1 0.25716-0.29712-0.31243-0.57033-0.91446-0.76578
  -1   2  13  227.91   39.80   1 0.22145 0.05450-0.34171-0.83124-0.91333-0.55322
   1  -2 -13  284.03   36.70   1-0.75208-0.58322 0.28810 0.77760 0.59275 0.23489
   1   2 -13  244.86   32.35   1-0.71443-0.16001 0.68396 0.94234-0.14756-0.29391
  -1  -2  1213580.95  280.57   1-0.10816-0.63876 0.99102 0.76738-0.07850 0.05564
  -1   2  1214099.93  322.39   1-0.79379-0.93798 0.19475-0.26051-0.57615-0.22874
  -1  -2  1214121.36  261.46   1 0.23300-0.29552-0.33236-0.55694-0.91391-0.77619
  -1   2  1214536.11  275.54   1 0.18511 0.04392-0.37038-0.82658-0.91024-0.56108
   1  -2 -1214515.89  267.74   1-0.75640-0.61343 0.29766 0.75386 0.58245 0.23535
   1   2 -1214209.99  248.62   1-0.68241-0.15377 0.69773 0.92273-0.21789-0.35344
  -1  -2  11  307.08   31.02   1-0.08733-0.59191 0.99416 0.80374-0.06338 0.06024
  -1   2  11  313.65   33.20   1-0.80327-0.92149 0.12174-0.30024-0.58303-0.24637
  -1  -2  11  304.35   39.30   1 0.20782-0.29495-0.35259-0.54385-0.91240-0.78564
  -1   2  11  312.45   36.07   1 0.14511 0.02967-0.40068-0.82356-0.90465-0.56645
   1  -2 -11  364.20   41.05   1-0.75980-0.64273 0.30542 0.72831 0.57394 0.23760
   1   2 -11  343.26   33.78   1-0.64477-0.14192 0.70747 0.89908-0.28939-0.41413
  -1  -2  10 7780.40  183.93   1-0.05913-0.53773 0.99732 0.84020-0.04291 0.06999
  -1   2  10 8209.60  184.53   1-0.80858-0.90084 0.04177-0.34692-0.58689-0.26099
  -1  -2  10 7858.76  196.80   1 0.18140-0.29561-0.37325-0.53118-0.90982-0.79401
  -1   2  10 8264.73  179.82   1 0.10037 0.01069-0.43304-0.82259-0.89576-0.56852
   1  -2 -10 8185.01  148.53   1-0.76227-0.67109 0.31119 0.70077 0.56753 0.24195
   1   2 -10 7933.64  222.92   1-0.60111-0.12405 0.71262 0.87085-0.36169-0.47563
  -1  -2   9  982.91   50.44   1-0.02235-0.47498 0.99961 0.87578-0.01622 0.08596
  -1   2   9  966.62   51.76   1-0.80844-0.87473-0.04588-0.40130-0.58678-0.27164
  -1  -2   9 1073.03   60.87   1 0.15343-0.29783-0.39448-0.51909-0.90600-0.80114
  -1   2   9  958.29   50.75   1 0.04940-0.01452-0.46801-0.82424-0.88233-0.56605
   1  -2  -9  985.98   54.13   1-0.76376-0.69848 0.31473 0.67100 0.56356 0.24875
   1   2  -9  896.49   54.44   1-0.55106-0.09978 0.71256 0.83741-0.43425-0.53738
  -1  -2   8 5507.76  139.05   1 0.02441-0.40223 0.99954 0.90900 0.01772 0.10919
  -1   2   8 5571.03  147.36   1-0.80112-0.84145-0.14172-0.46386-0.58147-0.27709
  -1  -2   8 5328.82  141.69   1 0.12350-0.30201-0.41651-0.50779-0.90070-0.80680
  -1   2   8 5741.92  133.89   1-0.00995-0.04894-0.50621-0.82897-0.86234-0.55714
   1  -2  -8 5719.05  137.70   1-0.76417-0.72478 0.31572 0.63867 0.56246 0.25840
   1   2  -8 5503.68  136.35   1-0.49434-0.06885 0.70661 0.79807-0.50627-0.59860
  -1  -2   7  188.45   23.94   1 0.08248-0.31819 0.99479 0.93753 0.05986 0.14061
  -1   2   7  189.96   25.26   1-0.78407-0.79806-0.24771-0.53612-0.56909-0.27506
  -1  -2   7  181.14   26.10   1 0.09102-0.30873-0.43961-0.49756-0.89356-0.81062
  -1   2   7  215.70   27.48   1-0.08048-0.09364-0.54811-0.83759-0.83252-0.53821
   1  -2  -7  183.57   29.61   1-0.76333-0.74984 0.31372 0.60337 0.56470 0.27141
   1   2  -7  176.63   27.05   1-0.43086-0.03116 0.69408 0.75216-0.57671-0.65824
  -1  -2   6 2032.13   72.16   1 0.15254-0.22215 0.98207 0.95811 0.11072 0.18074
  -1   2   6 2048.74   72.11   1-0.75537-0.74342-0.35888-0.61404-0.54827-0.26509
  -1  -2   6 1933.08   79.64   1 0.05516-0.31884-0.46416-0.48879-0.88402-0.81204
  -1   2   6 2024.66   73.42   1-0.16631-0.15363-0.59386-0.85006-0.78718-0.50376
  -1  -2   6 2043.71   73.82   1 0.36083-0.01369-0.67436-0.69947 0.64423 0.71452
   1  -2  -6 1928.98   71.85   1-0.76099-0.77340 0.30820 0.56454 0.57087 0.28834
  -1  -2   5 6295.31  143.99   1 0.23401-0.11470 0.95727 0.96660 0.16985 0.22916
  -1   2   5 6099.51  140.22   1-0.71165-0.67412-0.47617-0.69729-0.51653-0.24358
  -1  -2   5 6078.24  155.82   1 0.01465-0.33359-0.49070-0.48200-0.87120-0.81017
  -1   2   5 6413.98  149.53   1-0.27217-0.23366-0.64195-0.86487-0.71680-0.44428
  -1  -2   5 6405.83  153.22   1 0.28493-0.06377-0.64709-0.63881 0.70716 0.76671
   1  -2  -5 6366.50  135.18   1-0.75673-0.79503 0.29841 0.52143 0.58164 0.30987
  -1  -2   4   66.69   20.87   1 0.32425 0.00150 0.91622 0.95884 0.23535 0.28393
  -1   2   4   70.67   19.04   1-0.65182-0.58830-0.59270-0.78060-0.47310-0.21109
  -1  -2   4   79.41   21.45   1-0.03270-0.35501-0.52014-0.47752-0.85345-0.80370
  -1   2   4   56.93   17.31   1-0.40222-0.33829-0.68670-0.87601-0.60551-0.34372
  -1  -2   4   75.82   21.87   1 0.20426-0.11862-0.61220-0.57054 0.76385 0.81265
   1  -2  -4   61.63   23.14   1-0.74990-0.81410 0.28337 0.47309 0.59777 0.33677
  -1   2   3 4841.77  118.25   1-0.57517-0.48566-0.70347-0.85816-0.41747-0.16639
   1   2  -3 4936.34  126.50   1-0.42125-0.12474-0.85384-0.93074-0.30575-0.34372
  -1  -2   3 4998.68  140.67   1-0.08968-0.38615-0.55329-0.47738-0.82814-0.78929
  -1   2   3 4831.89  112.17   1-0.54934-0.45954-0.71247-0.86853-0.43658-0.18562
  -1  -2   3 5342.16  126.61   1 0.12049-0.17657-0.57016-0.49511 0.81264 0.85069
   1  -2  -3 4808.52  134.74   1-0.73954-0.82963 0.26180 0.41820 0.62010 0.36986
   1   2  -2 4187.72  103.80   1-0.51155-0.24104-0.77488-0.88500-0.37129-0.39833
  -1   2   2 4058.06  103.35   1-0.48391-0.36840-0.80154-0.92300-0.35123-0.11109
  -1  -2   2 4113.22  117.42   1-0.16142-0.43206-0.59141-0.48223-0.79004-0.76208
  -1   2   2 4124.13  101.99   1-0.69047-0.57458-0.69482-0.81752-0.20114 0.03879
   1  -2  -2 4149.76  113.42   1-0.72416-0.84015 0.23197 0.35506 0.64944 0.40996
   1  -2  -1 4903.50  127.72   1 0.38548 0.24414 0.87927 0.96843 0.27979 0.05034
   1   2  -1 4695.44  108.32   1-0.59244-0.34792-0.68124-0.82458-0.43001-0.44610
  -1  -2   1 4756.04  123.51   1-0.25602-0.50082-0.63525-0.49278-0.72863-0.71157
  -1   2   1 5141.61  122.26   1-0.78473-0.64212-0.61551-0.70479 0.07305 0.30155
  -1  -2   1 5087.05  113.94   1-0.04746-0.29290-0.46930-0.32748 0.88175 0.89831
   1  -2  -1 4661.73  118.99   1-0.70160-0.84352 0.19180 0.28121 0.68627 0.45757
   1  -2   0 6869.14  146.61   1 0.28170 0.11438 0.93746 0.99333 0.20446-0.01426
   1   2   0 6622.11  146.83   1-0.65979-0.44126-0.57907-0.75562-0.47889-0.48405
  -1  -2   0 6512.93  143.78   1-0.38488-0.60363-0.68176-0.50576-0.62214-0.61629
  -1   2   0 6949.98  168.24   1-0.80898-0.64065-0.49478-0.55070 0.31737 0.53505
  -1  -2   0 7015.04  139.46   1-0.12648-0.34604-0.41435-0.23909 0.90128 0.90724
   1  -2   0 6579.04  153.02   1-0.66821-0.83605 0.13796 0.19409 0.73106 0.51315
   1  -2   1   11.53   16.96   1 0.18175-0.01153 0.97445 0.99703 0.13192-0.07608
   1   2   1   86.03   19.73   1-0.71230-0.51976-0.47468-0.68446-0.51700-0.51122
  -1  -2  -1   24.94   14.66   1-0.55184-0.74473-0.71260-0.50336-0.43318-0.43817
  -1   2  -1    7.51   15.51   1-0.78315-0.58837-0.36621-0.38944 0.50255 0.70862
  -1  -2  -1   41.27   19.53   1-0.19988-0.39360-0.35886-0.15025 0.91173 0.90691
   1  -2   1   14.76   15.47   1-0.61930-0.81306 0.06740 0.09025 0.78225 0.57513
   1  -2   312096.13  217.57   1 0.01168-0.23356 0.99989 0.95589 0.00847-0.17808
   1   2   312081.07  192.17   1-0.77785-0.63712-0.27601-0.55201-0.56458-0.53792
  -1   2  -311826.45  210.10   1-0.69128-0.44508-0.17453-0.13057 0.70118 0.88591
  -1  -2  -311820.90  213.83   1-0.32320-0.46501-0.25523 0.02014 0.91125 0.88507
   1  -2   412311.36  224.84   1-0.05487-0.32609 0.99769 0.92040-0.03982-0.21566
   1   2   412337.56  211.98   1-0.79503-0.68025-0.18688-0.49613-0.57705-0.53954
  -1   2  -412623.59  216.82   1-0.65093-0.37902-0.11207-0.03471 0.75081 0.92473
  -1  -2  -412583.07  214.13   1-0.37238-0.48831-0.20985 0.09884 0.90404 0.86705
   1  -2   5  485.93   36.43   1-0.10941-0.40654 0.99081 0.88028-0.07941-0.24455
   1   2   5  485.41   36.66   1-0.80488-0.71615-0.10420-0.44676-0.58420-0.53620
  -1  -2  -5  499.98   38.15   1-0.76319-0.85382-0.31338 0.02908 0.56508 0.51974
  -1   2  -5  484.46   37.13   1-0.61852-0.32090-0.06635 0.04440 0.78295 0.94606
   1  -2   5  501.63   35.47   1-0.13020-0.42675-0.41163-0.52310 0.90199 0.73772
  -1  -2  -5  506.43   37.30   1-0.41336-0.50341-0.17002 0.17197 0.89455 0.84675
   1  -2   7  653.49   39.35   1-0.18813-0.53724 0.97260 0.79548-0.13655-0.28029
   1   2   7  698.13   43.74   1-0.80865-0.77185 0.03964-0.36948-0.58694-0.51742
  -1  -2  -7  653.14   42.01   1-0.68223-0.72159-0.15987 0.24907 0.71344 0.64596
  -1   2  -7  678.76   46.02   1-0.57506-0.22602-0.00966 0.16788 0.81804 0.95954
   1  -2   7  677.68   39.93   1 0.29606-0.05193-0.65144-0.82987 0.69854 0.55553
  -1  -2  -7  683.39   45.64   1-0.47346-0.51175-0.10789 0.30072 0.87418 0.80477
   1  -2   8 2847.40   82.27   1-0.21519-0.59029 0.96399 0.75359-0.15619-0.28923
   1   2   8 2932.31   90.49   1-0.80500-0.79415 0.10287-0.33953-0.58428-0.50401
  -1  -2  -8 2879.21   92.12   1-0.65370-0.66735-0.11613 0.32620 0.74778 0.66949
  -1   2  -8 2848.76   89.66   1-0.56181-0.18706 0.00674 0.21769 0.82723 0.95792
  -1  -2  -8 2823.97   86.49   1-0.49421-0.50663-0.08528 0.35664 0.86514 0.78493
  -1   2  -8 2308.43  128.39   1-0.48565-0.11103 0.70523 0.91629-0.51650-0.38481
   1  -2   9 4804.26  125.28   1-0.23580-0.63688 0.95661 0.71291-0.17115-0.29348
   1   2   9 4758.88  119.61   1-0.79870-0.81382 0.16124-0.31445-0.57971-0.48868
  -1  -2  -9 4810.53  123.37   1-0.63291-0.62085-0.08623 0.38951 0.76940 0.68030
  -1   2  -9 4609.13  124.10   1-0.55286-0.15240 0.01762 0.26197 0.83308 0.95296
  -1  -2  -9 4668.61  117.80   1-0.50982-0.49636-0.06784 0.40739 0.85759 0.76658
  -1   2  -9 4104.06  158.58   1-0.63229-0.23188 0.70953 0.95397-0.31107-0.19018
   1  -2  1031188.89  639.19   1-0.25102-0.67808 0.95067 0.67368-0.18220-0.29383
  -1  -2 -1032091.73  529.59   1-0.52097-0.48162-0.05515 0.45340 0.85179 0.74997
   1  -2  11 2332.34   87.34   1-0.26172-0.71477 0.94626 0.63597-0.18996-0.29089
   1   2  11 2351.98   76.15   1-0.78016-0.84720 0.26587-0.27637-0.56626-0.45370
  -1  -2 -11 2450.03   86.49   1-0.60901-0.54553-0.05353 0.48900 0.79134 0.68063
  -1   2 -11 2395.43   97.26   1-0.54479-0.09291 0.02729 0.33844 0.83812 0.93638
  -1  -2 -11 2336.41   81.68   1-0.52823-0.46301-0.04676 0.49509 0.84781 0.73518
   1  -2  12 2512.27   77.84   1-0.26861-0.74765 0.94331 0.59973-0.19496-0.28519
   1   2  12 2652.73   86.14   1-0.76847-0.86146 0.31358-0.26208-0.55777-0.43495
  -1  -2 -12 2540.58   90.39   1-0.60355-0.51435-0.04628 0.52966 0.79597 0.67445
  -1   2 -12 2484.32   86.21   1-0.54452-0.06692 0.02761 0.37217 0.83828 0.92574
  -1  -2 -12 2533.16   86.98   1-0.53206-0.44096-0.04230 0.53286 0.84564 0.72221
   1  -2  13 1686.80   64.01   1-0.27224-0.77726 0.94172 0.56485-0.19759-0.27712
   1   2  13 1624.57   66.23   1-0.75562-0.87459 0.35808-0.25087-0.54845-0.41490
  -1  -2 -13 1696.64   70.75   1-0.60122-0.48632-0.04322 0.56612 0.79790 0.66557
  -1   2 -13 1587.19   66.25   1-0.54617-0.04286 0.02565 0.40360 0.83727 0.91392
  -1  -2 -13 1559.93   66.45   1-0.53283-0.41585-0.04140 0.56707 0.84520 0.71097
   1  -2  14 2124.56   85.24   1-0.27305-0.80406 0.94136 0.53119-0.19819-0.26701
   1   2  14 2202.87   80.52   1-0.74168-0.88661 0.40013-0.24212-0.53833-0.39406
  -1  -2 -14 2164.24   93.49   1-0.60141-0.46079-0.04346 0.59928 0.79775 0.65462
  -1   2 -14 1984.24   84.24   1-0.54942-0.02039 0.02176 0.43312 0.83526 0.90110
  -1  -2 -14 2109.03   83.02   1-0.53081-0.38795-0.04376 0.59802 0.84635 0.70132
   1  -2  15   19.61   22.48   1-0.27142-0.82841 0.94208 0.49863-0.19700-0.25512
   1   2  15   27.02   37.01   1-0.72674-0.89764 0.44000-0.23554-0.52748-0.37249
  -1  -2 -15    8.81   37.90   1-0.60360-0.43727-0.04635 0.62979 0.79593 0.64199
  -1   2 -15   47.39   34.30   1-0.55399 0.00073 0.01625 0.46101 0.83236 0.88739
  -1  -2 -15   18.93   20.45   1-0.52618-0.35745-0.04913 0.62596 0.84894 0.69310
   1  -2  16 5104.78  145.37   1-0.26761-0.85059 0.94374 0.46700-0.19423-0.24166
   1   2  16 5141.79  144.84   1-0.71087-0.90774 0.47794-0.23090-0.51596-0.35025
  -1  -2 -16 5316.43  153.93   1-0.60743-0.41539-0.05142 0.65812 0.79270 0.62795
  -1   2 -16 4873.18  143.68   1-0.55968 0.02075 0.00934 0.48749 0.82865 0.87287
  -1  -2 -16 4829.65  152.53   1-0.51907-0.32445-0.05732 0.65108 0.85280 0.68616
   1  -2  17 3488.36  111.63   1-0.26184-0.87081 0.94621 0.43617-0.19005-0.22677
   1   2  17 3463.99  107.97   1-0.69413-0.91697 0.51415-0.22799-0.50381-0.32738
  -1  -2 -17 3585.38  116.85   1-0.61258-0.39483-0.05831 0.68462 0.78825 0.61268
  -1   2 -17 3554.38  105.72   1-0.56631 0.03984 0.00120 0.51276 0.82418 0.85760
  -1  -2 -17 2909.03  134.08   1-0.50952-0.28903-0.06818 0.67353 0.85775 0.68030
   1  -2  18 1219.19   62.42   1-0.25431-0.88926 0.94934 0.40601-0.18458-0.21060
   1   2  18 1212.98   63.00   1-0.67633-0.92542 0.54916-0.22620-0.49090-0.30401
  -1  -2 -18 1210.51   72.31   1-0.61882-0.37536-0.06676 0.70958 0.78268 0.59631
  -1   2 -18 1295.23   77.97   1-0.57373 0.05813-0.00800 0.53694 0.81899 0.84161
   1  -2  19   67.30   35.50   1-0.24513-0.90608 0.95302 0.37639-0.17792-0.19324
   1   2  19   80.53   29.35   1-0.65789-0.93296 0.58236-0.22630-0.47751-0.27992
  -1  -2 -19  107.45   42.47   1-0.62596-0.35679-0.07655 0.73318 0.77608 0.57890
  -1   2 -19   43.55   50.10   1-0.58183 0.07575-0.01818 0.56016 0.81310 0.82490
   1  -2  20 4935.72  153.19   1-0.23442-0.92135 0.95712 0.34721-0.17015-0.17476
   1   2  20 5072.47  158.15   1-0.63862-0.93967 0.61424-0.22771-0.46353-0.25523
  -1   2 -20 4937.03  153.68   1-0.59048 0.09280-0.02924 0.58250 0.80651 0.80751
   1   3 -19  981.59   66.87   1-0.42102 0.38393 0.16236 0.56395 0.89239 0.73112
   1  -3 -19  914.90   71.01   1-0.65379-0.42600 0.11627 0.86290 0.74768 0.27185
  -1   3  18 9208.67  196.01   1-0.74241-0.94606 0.39805-0.31534-0.53886-0.07427
   1  -3 -18 9154.80  243.83   1-0.66370-0.46183 0.13108 0.84442 0.73642 0.27138
  -1   3  17  359.03   47.14   1-0.75953-0.93721 0.34524-0.33486-0.55128-0.09742
  -1   3  17  336.02   51.97   1 0.39489 0.22177-0.18820-0.86894-0.89924-0.44244
  -1  -3  17  331.33   52.54   1 0.38438-0.36975-0.19839-0.53169-0.90160-0.76196
   1  -3 -17  278.49   44.33   1-0.67238-0.49643 0.14438 0.82444 0.72598 0.27173
  -1  -3  16 9067.82  231.07   1 0.03251-0.69848 0.99919 0.70024 0.02359 0.14759
  -1   3  16 9405.35  235.30   1-0.77477-0.92633 0.28891-0.35748-0.56235-0.11877
  -1  -3  16 9732.13  225.44   1 0.36622-0.36215-0.21567-0.51564-0.90518-0.77649
  -1   3  16 9621.60  238.60   1 0.36904 0.22166-0.21301-0.86042-0.90467-0.45883
   1  -3 -16 9056.96  249.02   1-0.67989-0.52985 0.15615 0.80293 0.71648 0.27303
  -1  -3  15 6200.60  192.35   1 0.03996-0.66505 0.99878 0.73311 0.02901 0.14227
  -1   3  15 6857.38  189.22   1-0.78760-0.91319 0.22997-0.38314-0.57165-0.13883
  -1   3  15 6689.47  198.60   1 0.34178 0.22016-0.23838-0.85246-0.90904-0.47415
  -1  -3  15 6747.29  180.11   1 0.34792-0.35470-0.23273-0.49938-0.90817-0.79044
   1  -3 -15 6569.97  186.08   1-0.68625-0.56214 0.16634 0.77983 0.70807 0.27540
   1   3 -15 6563.08  198.79   1-0.70251 0.00036 0.68981 0.95705-0.17499-0.28989
  -1  -3  14 5805.06  162.86   1 0.05110-0.62794 0.99800 0.76563 0.03709 0.13964
  -1   3  14 6060.55  162.14   1-0.79783-0.89746 0.16766-0.41218-0.57908-0.15702
  -1  -3  14 6117.61  184.78   1 0.32946-0.34740-0.24959-0.48291-0.91057-0.80380
  -1   3  14 5976.21  165.71   1 0.31281 0.21694-0.26451-0.84527-0.91224-0.48831
   1  -3 -14 5973.31  148.75   1-0.69149-0.59329 0.17488 0.75508 0.70089 0.27901
   1   3 -14 6048.15  161.37   1-0.66752 0.00956 0.70228 0.93614-0.24738-0.35148
  -1  -3  13  766.58   57.68   1 0.06628-0.58678 0.99664 0.79755 0.04811 0.13993
  -1   3  13  870.31   49.61   1-0.80509-0.87875 0.10177-0.44478-0.58435-0.17305
  -1  -3  13  863.92   54.82   1 0.31084-0.34028-0.26626-0.46625-0.91240-0.81658
  -1   3  13  863.51   52.86   1 0.28168 0.21157-0.29167-0.83911-0.91410-0.50112
   1  -3 -13  829.17   53.77   1-0.69558-0.62330 0.18166 0.72858 0.69509 0.28399
   1   3 -13  748.16   48.83   1-0.62750 0.02380 0.71018 0.91066-0.31917-0.41246
  -1  -3  1224323.93  612.01   1 0.08588-0.54121 0.99435 0.82856 0.06233 0.14343
  -1   3  1224879.46  656.78   1-0.80887-0.85657 0.03216-0.48111-0.58710-0.18655
  -1   3  1225282.31  597.62   1 0.24779 0.20343-0.32022-0.83433-0.91435-0.51234
  -1  -3  1225454.79  630.35   1 0.29202-0.33333-0.28275-0.44942-0.91365-0.82879
   1  -3 -1224760.79  513.17   1-0.69851-0.65214 0.18657 0.70020 0.69084 0.29053
   1   3 -1221484.09 1327.00   1-0.58245 0.04306 0.71325 0.88034-0.38987-0.47236
  -1  -3  11  623.17   47.07   1 0.11028-0.49083 0.99067 0.85816 0.08004 0.15042
  -1   3  11  623.79   42.12   1-0.80860-0.83034-0.04121-0.52121-0.58690-0.19712
  -1  -3  11  652.43   50.97   1 0.27300-0.32660-0.29908-0.43243-0.91433-0.84043
  -1   3  11  778.95   52.70   1 0.21030 0.19170-0.35062-0.83141-0.91259-0.52153
   1  -3 -11  670.93   55.55   1-0.70021-0.67976 0.18944 0.66979 0.68833 0.29881
   1   3 -11  713.69   49.36   1-0.53247 0.06725 0.71123 0.84494-0.45892-0.53061
  -1  -3  1014805.83  296.08   1 0.13984-0.43529 0.98495 0.88574 0.10150 0.16116
  -1   3  1015005.12  298.13   1-0.80361-0.79938-0.11831-0.56502-0.58327-0.20425
  -1  -3  1015159.64  299.77   1 0.25374-0.32011-0.31529-0.41531-0.91444-0.85149
  -1   3  1014931.51  303.13   1 0.16799 0.17514-0.38351-0.83097-0.90812-0.52802
   1  -3 -1014375.77  300.36   1-0.70059-0.70606 0.19009 0.63715 0.68776 0.30904
   1   3 -1016037.63  314.34   1-0.47776 0.09618 0.70388 0.80421-0.52562-0.58650
  -1  -3   9 6770.06  144.64   1 0.17482-0.37434 0.97638 0.91046 0.12689 0.17582
  -1   3   9 6792.38  140.12   1-0.79284-0.76217-0.20060-0.61348-0.57546-0.20669
  -1  -3   9 6402.06  160.47   1 0.23420-0.31390-0.33138-0.39808-0.91396-0.86197
  -1   3   9 6718.14  160.09   1 0.11907 0.15198-0.41970-0.83384-0.89981-0.53066
   1  -3  -9 6555.68  156.27   1-0.69952-0.73090 0.18827 0.60204 0.68936 0.32142
   1   3  -9 7056.08  189.68   1-0.41867 0.12949 0.69106 0.75800-0.58919-0.63926
  -1   3   827661.08  390.57   1-0.77597-0.71935-0.28398-0.66360-0.56322-0.20529
  -1  -3   829192.56  521.72   1 0.21433-0.30801-0.34742-0.38079-0.91288-0.87184
  -1  -3   826848.17  491.43   1 0.35605-0.16683-0.67281-0.70708 0.64849 0.68716
  -1  -3   716330.12  309.81   1 0.26110-0.23611 0.94652 0.94718 0.18951 0.21700
  -1   3   715441.98  265.06   1-0.75207-0.66950-0.36934-0.71571-0.54587-0.19880
  -1  -3   715782.95  322.90   1 0.19404-0.30254-0.36343-0.36348-0.91118-0.88110
  -1   3   716477.51  315.10   1-0.01069 0.07280-0.50667-0.85421-0.86206-0.51478
  -1  -3   716323.37  322.35   1 0.28998-0.20709-0.64907-0.64995 0.70328 0.73121
   1  -3  -715688.11  268.70   1-0.69217-0.77539 0.17600 0.52321 0.69993 0.35357
  -1  -3   6  486.43   37.92   1 0.31167-0.15956 0.92286 0.95681 0.22622 0.24299
  -1   3   6  424.73   37.01   1-0.72000-0.61196-0.45660-0.76884-0.52259-0.18543
  -1  -3   6  484.82   43.68   1 0.17324-0.29759-0.37950-0.34623-0.90882-0.88969
  -1   3   6  430.98   35.83   1-0.10084 0.00849-0.55949-0.87375-0.82267-0.48629
  -1  -3   6  446.38   35.80   1 0.22170-0.24954-0.62023-0.58772 0.75243 0.76961
   1  -3  -6  428.68   38.86   1-0.68528-0.79442 0.16478 0.47870 0.70938 0.37381
  -1  -3   5   80.89   23.55   1 0.36603-0.07923 0.89186 0.95910 0.26567 0.27172
  -1   3   5   99.83   26.13   1-0.68027-0.54624-0.54168-0.82069-0.49375-0.16753
  -1  -3   5  104.99   39.80   1 0.15176-0.29332-0.39573-0.32913-0.90573-0.89757
  -1   3   5   86.51   20.89   1-0.21701-0.08184-0.61809-0.89908-0.75555-0.43005
  -1  -3   5  102.01   24.88   1 0.15231-0.29312-0.58680-0.52090 0.79527 0.80170
   1  -3  -5   76.28   26.70   1-0.67568-0.81073 0.14952 0.43015 0.72186 0.39708
  -1   3   3 1377.80   55.58   1-0.57770-0.39168-0.70031-0.91288-0.41931-0.11495
   1   3  -3 1279.40   55.63   1-0.48185-0.08884-0.80342-0.93822-0.34974-0.33443
  -1  -3   3 1396.59   67.37   1 0.10552-0.28804-0.42939-0.29614-0.89692-0.91067
  -1   3   3 1399.68   57.20   1-0.53220-0.34587-0.71121-0.92536-0.45927-0.15515
  -1  -3   3 1514.04   63.89   1 0.01502-0.37877-0.50935-0.37668 0.86042 0.84536
   1  -3  -3 1433.20   62.73   1-0.64567-0.83255 0.10441 0.31847 0.75644 0.45323
   1   3  -2  572.92   38.48   1-0.53733-0.17031-0.74777-0.91578-0.39000-0.36376
  -1   3   2  586.70   39.59   1-0.51680-0.30479-0.76954-0.94890-0.37511-0.08169
  -1  -3   2  612.80   44.51   1 0.07959-0.28822-0.44754-0.28096-0.89071-0.91541
  -1   3   2  585.50   36.45   1-0.68529-0.47279-0.69673-0.87743-0.21197 0.08105
  -1  -3   2  601.19   42.13   1-0.05043-0.41841-0.46732-0.30126 0.88264 0.85683
   1  -3  -2  637.52   41.53   1-0.62346-0.83626 0.07310 0.25387 0.77842 0.48601
  -1   3   120084.71  342.06   1-0.45177-0.21377-0.82968-0.97582-0.32790-0.04542
  -1  -3   120589.60  347.11   1-0.11194-0.45407-0.42482-0.22528 0.89832 0.86201
   1  -3  -119978.28  316.26   1-0.59484-0.83355 0.03488 0.18237 0.80308 0.52145
   1  -3   3 1498.63   67.33   1 0.19533-0.14645 0.97043 0.98434 0.14177-0.09804
   1   3   3 1651.98   65.89   1-0.74313-0.50583-0.39600-0.72994-0.53938-0.45968
  -1   3  -3 1575.65   65.34   1-0.71815-0.37486-0.22091-0.23480 0.65988 0.89685
  -1  -3  -3 1536.39   61.82   1-0.31013-0.54872-0.26688 0.06624 0.91246 0.83337
   1  -3   3 1515.85   62.77   1-0.38199-0.72409-0.20068-0.18734 0.90211 0.66376
   1  -3   5  899.92   48.16   1 0.09128-0.30244 0.99361 0.94094 0.06625-0.15211
   1   3   5  836.25   45.49   1-0.78344-0.59805-0.25070-0.65116-0.56864-0.46723
  -1  -3  -5  838.78   45.35   1-0.79217-0.97968-0.60023-0.20027 0.11031 0.01045
  -1   3  -5  888.56   49.39   1-0.65279-0.25807-0.11480-0.06189 0.74878 0.96414
   1  -3   5  891.39   47.91   1-0.19327-0.58655-0.36404-0.41785 0.91110 0.69379
  -1  -3  -5  852.87   51.95   1-0.37737-0.56420-0.20510 0.19464 0.90306 0.80236
   1  -3   6 4731.33  113.66   1 0.04825-0.37145 0.99822 0.91226 0.03502-0.17262
   1   3   6 4825.90  114.16   1-0.79586-0.63642-0.18139-0.61511-0.57765-0.46540
  -1  -3  -6 4685.47  122.88   1-0.80723-0.96902-0.47180-0.03847 0.35463 0.24395
  -1   3  -6 4806.98  123.70   1-0.62867-0.20824-0.08031 0.00599 0.77350 0.97805
   1  -3   6 4759.51  131.69   1-0.07578-0.49468-0.45016-0.53759 0.88972 0.68284
  -1  -3  -6 4647.01  116.89   1-0.40351-0.56447-0.17977 0.25328 0.89713 0.78563
   1  -3   712209.87  226.14   1 0.01117-0.43450 0.99990 0.88065 0.00811-0.18881
   1   3   712729.93  200.45   1-0.80402-0.67073-0.11393-0.58107-0.58357-0.46093
  -1  -3  -712428.95  229.97   1-0.78475-0.92099-0.37108 0.09621 0.49644 0.37750
  -1   3  -712558.32  246.37   1-0.60986-0.16371-0.05466 0.06504 0.79062 0.98436
   1  -3   712876.81  297.76   1 0.05450-0.39021-0.53312-0.65393 0.84427 0.64815
  -1  -3  -712520.82  238.69   1-0.42515-0.56023-0.15819 0.30816 0.89118 0.76887
   1  -3   827722.13  375.28   1-0.02025-0.49191 0.99968 0.84714-0.01469-0.20090
   1   3   827405.25  448.60   1-0.80827-0.70094-0.05023-0.55065-0.58666-0.45326
  -1   3  -828582.54  388.51   1-0.59565-0.12380-0.03594 0.11716 0.80243 0.98536
  -1  -3  -827234.74  447.15   1-0.44268-0.55187-0.14030 0.35936 0.88563 0.75252
   1  -3   9 4373.44  116.90   1-0.04646-0.54409 0.99835 0.81252-0.03372-0.20920
   1   3   9 4365.41  105.18   1-0.80924-0.72788 0.01049-0.52320-0.58737-0.44321
  -1  -3  -9 4271.16  113.36   1-0.72770-0.81247-0.23862 0.29547 0.64304 0.50257
  -1   3  -9 4425.33  120.72   1-0.58536-0.08780-0.02268 0.16382 0.81045 0.98257
   1  -3   9 4147.49  111.64   1 0.32859-0.16776-0.66347-0.85106 0.67217 0.49754
  -1  -3  -9 4378.83  114.56   1-0.45645-0.53977-0.12595 0.40702 0.88078 0.73686
   1  -3  1014969.88  290.34   1-0.06791-0.59152 0.99647 0.77735-0.04929-0.21405
   1   3  1015263.33  274.29   1-0.80740-0.75200 0.06835-0.49863-0.58603-0.43111
  -1  -3 -1015602.59  264.02   1-0.46683-0.52427-0.11498 0.45131 0.87683 0.72211
  -1   3 -1011606.38 1131.97   1-0.45574 0.06733 0.69965 0.91957-0.55025-0.38710
   1  -3  11 2726.02  117.87   1-0.08507-0.63466 0.99445 0.74204-0.06175-0.21579
   1   3  11 2709.80   92.47   1-0.80310-0.77366 0.12344-0.47681-0.58291-0.41723
  -1  -3 -11 2667.21   87.17   1-0.68888-0.72250-0.17061 0.42978 0.70450 0.54154
  -1   3 -11 2849.11  102.35   1-0.57411-0.02512-0.00847 0.24483 0.81873 0.96924
  -1  -3 -11 2748.50   94.24   1-0.47412-0.50568-0.10718 0.49242 0.87390 0.70838
   1  -3  1223353.97  548.10   1-0.09830-0.67383 0.99259 0.70696-0.07135-0.21481
   1   3  1223726.86  576.37   1-0.79666-0.79319 0.17595-0.45759-0.57823-0.40180
  -1  -3 -1223406.52  612.84   1-0.67713-0.68504-0.15180 0.48198 0.72002 0.54626
  -1   3 -1224435.30  591.65   1-0.57217 0.00252-0.00606 0.28064 0.82010 0.95980
  -1  -3 -1224365.16  541.77   1-0.47857-0.48425-0.10238 0.53053 0.87205 0.69572
   1  -3  13  554.51   46.04   1-0.10815-0.70967 0.99102 0.67211-0.07850-0.21126
   1   3  13  509.01   48.47   1-0.78835-0.81084 0.22602-0.44080-0.57220-0.38500
  -1  -3 -13  550.83   46.32   1-0.66930-0.65149-0.13962 0.52757 0.72975 0.54517
  -1   3 -13  548.04   53.11   1-0.57219 0.02822-0.00607 0.31403 0.82009 0.94899
  -1  -3 -13  541.36   43.80   1-0.48040-0.46020-0.10040 0.56582 0.87128 0.68414
   1  -3  14 8332.36  217.03   1-0.11491-0.74241 0.98986 0.63765-0.08340-0.20546
   1   3  14 8377.60  223.93   1-0.77835-0.82681 0.27384-0.42626-0.56494-0.36699
  -1  -3 -14 7874.12  213.85   1-0.66467-0.62115-0.13255 0.56804 0.73528 0.53990
  -1   3 -14 8233.74  205.39   1-0.57384 0.05227-0.00813 0.34536 0.81892 0.93700
  -1  -3 -14 8238.80  207.27   1-0.47978-0.43371-0.10107 0.59846 0.87154 0.67360
   1  -3  15 6451.73  170.17   1-0.11887-0.77236 0.98915 0.60365-0.08628-0.19763
   1   3  15 6472.40  165.24   1-0.76674-0.84115 0.31998-0.41361-0.55652-0.34838
  -1  -3 -15 6306.51  201.46   1-0.66266-0.59343-0.12951 0.60448 0.73763 0.53144
  -1   3 -15 6494.04  173.75   1-0.57689 0.07494-0.01195 0.37494 0.81673 0.92401
  -1  -3 -15 6300.27  183.44   1-0.47683-0.40488-0.10425 0.62858 0.87278 0.66403
   1  -3  16 1642.58   68.18   1-0.12031-0.79978 0.98888 0.57009-0.08732-0.18797
   1   3  16 1514.70   64.27   1-0.75384-0.85423 0.36377-0.40311-0.54716-0.32830
  -1   3 -16 1472.43   74.33   1-0.58112 0.09642-0.01729 0.40301 0.81363 0.91010
  -1  -3 -16 1444.28   72.36   1-0.47165-0.37382-0.10983 0.65631 0.87491 0.65536
   1  -3  17   81.00   36.76   1-0.11944-0.82490 0.98904 0.53696-0.08669-0.17664
   1   3  17   76.26   42.72   1-0.73967-0.86602 0.40577-0.39441-0.53687-0.30729
  -1   3 -17  171.79   34.26   1-0.58636 0.11689-0.02396 0.42974 0.80969 0.89535
  -1  -3 -17   53.49   39.35   1-0.46427-0.34055-0.11771 0.68175 0.87783 0.64748
   1  -3  1811102.00  251.08   1-0.11645-0.84790 0.98959 0.50421-0.08452-0.16377
   1   3  1811024.55  225.81   1-0.72430-0.87662 0.44610-0.38738-0.52571-0.28541
  -1   3 -1810267.25  346.13   1-0.59247 0.13649-0.03181 0.45529 0.80496 0.87981
   1  -3  19 2580.36  114.42   1-0.11151-0.86894 0.99046 0.47178-0.08093-0.14948
   1   3  19 2704.36  113.46   1-0.70779-0.88608 0.48488-0.38189-0.51372-0.26270
  -1   3 -19 2789.26  110.24   1-0.59932 0.15536-0.04071 0.47978 0.79947 0.86352
  -1   4  17 4675.67  154.69   1-0.78522-0.86626 0.24204-0.49565-0.56993-0.06247
   1   4 -17 5078.20  130.82   1-0.43259 0.41804 0.15064 0.42759 0.88891 0.80149
   1  -4 -17 4805.26  133.33   1-0.61336-0.53421 0.05936 0.79750 0.78756 0.28037
  -1   4  16 1234.23   59.21   1-0.79538-0.85046 0.18459-0.51982-0.57730-0.08060
   1   4 -16 1253.82   74.10   1-0.41788 0.40704 0.16551 0.40906 0.89329 0.81669
   1  -4 -16 1307.64   75.02   1-0.61984-0.56660 0.06815 0.77299 0.78175 0.28536
  -1  -4  15  -13.43   25.46   1 0.18808-0.61347 0.97261 0.76486 0.13651 0.19652
  -1   4  15   11.31   37.20   1-0.80294-0.83206 0.12497-0.54616-0.58279-0.09685
   1  -4 -15    4.28   31.25   1-0.62507-0.59774 0.07532 0.74688 0.77692 0.29131
  -1  -4  14  532.05   44.45   1 0.20027-0.57531 0.96889 0.79443 0.14536 0.19465
  -1   4  14  534.11   42.85   1-0.80767-0.81082 0.06319-0.57465-0.58622-0.11104
  -1  -4  14  524.34   48.23   1 0.38968-0.38402-0.19326-0.36868-0.90043-0.84652
   1  -4 -14  512.59   51.30   1-0.62903-0.62762 0.08080 0.71907 0.77316 0.29835
   1   4 -14  558.14   53.10   1-0.59519 0.17878 0.71291 0.88887-0.37079-0.42183
  -1  -4  13 5928.89  156.12   1 0.21562-0.53398 0.96385 0.82268 0.15650 0.19507
  -1   4  13 6176.00  170.60   1-0.80929-0.78648-0.00067-0.60524-0.58740-0.12297
  -1  -4  13 5680.50  157.43   1 0.37603-0.37192-0.20638-0.34847-0.90333-0.86036
   1  -4 -13 5800.34  150.46   1-0.63168-0.65619 0.08451 0.68950 0.77060 0.30657
   1   4 -13 5058.30  333.59   1-0.54808 0.20011 0.71239 0.85496-0.43829-0.47852
  -1  -4  12 1314.57   67.67   1 0.23423-0.48940 0.95719 0.84931 0.17001 0.19785
  -1   4  12 1467.06   72.55   1-0.80750-0.75872-0.06651-0.63780-0.58610-0.13243
  -1  -4  12 1437.79   74.83   1 0.36282-0.35937-0.21887-0.32764-0.90578-0.87378
   1  -4 -12 1372.56   61.88   1-0.63299-0.68341 0.08634 0.65804 0.76932 0.31608
   1   4 -12 1299.73   88.67   1-0.49739 0.22500 0.70707 0.81626-0.50263-0.53206
  -1  -4  11  112.27   26.45   1 0.25617-0.44148 0.94857 0.87398 0.18593 0.20305
  -1   4  11  148.41   38.70   1-0.80198-0.72724-0.13410-0.67211-0.58209-0.13918
  -1  -4  11  108.78   29.75   1 0.35017-0.34627-0.23065-0.30609-0.90784-0.88679
   1  -4 -11  102.79   29.72   1-0.63286-0.70920 0.08616 0.62457 0.76945 0.32700
   1   4 -11  114.18   37.39   1-0.44359 0.25302 0.69703 0.77283-0.56335-0.58197
  -1  -4  10 7962.34  208.09   1 0.28143-0.39024 0.93758 0.89628 0.20427 0.21067
  -1   4  10 7903.80  215.40   1-0.79215-0.69087-0.20473-0.70883-0.57496-0.14229
  -1  -4  10 8242.34  226.05   1 0.33823-0.33245-0.24163-0.28374-0.90951-0.89942
  -1  -4  10 7897.98  209.19   1 0.38773-0.28351-0.68260-0.72601 0.61944 0.62651
   1  -4 -10 7836.42  204.99   1-0.63118-0.73344 0.08380 0.58894 0.77109 0.33943
  -1  -4   9 4480.53  112.72   1 0.30995-0.33575 0.92375 0.91574 0.22497 0.22064
  -1   4   9 4485.56  123.95   1-0.77815-0.65092-0.27471-0.74555-0.56480-0.14298
  -1  -4   9 4484.66  128.88   1 0.32718-0.31775-0.25165-0.26044-0.91083-0.91170
  -1  -4   9 4377.37  125.75   1 0.32928-0.31615-0.66372-0.67374 0.67159 0.66791
   1  -4  -9 4490.08  123.68   1-0.62781-0.75598 0.07910 0.55095 0.77433 0.35346
  -1  -4   8  852.29   51.15   1 0.34153-0.27820 0.90659 0.93187 0.24789 0.23284
  -1   4   8  813.14   49.86   1-0.75957-0.60639-0.34509-0.78267-0.55131-0.14035
  -1  -4   8  918.28   55.68   1 0.31727-0.30190-0.26054-0.23600-0.91184-0.92366
  -1  -4   8  911.18   47.90   1 0.26951-0.35010-0.64086-0.61751 0.71878 0.70434
   1  -4  -8  938.14   51.86   1-0.62255-0.77664 0.07185 0.51041 0.77927 0.36918
  -1  -4   7 3811.12  109.31   1 0.37584-0.21791 0.88561 0.94418 0.27280 0.24703
  -1   4   7 3680.96  100.15   1-0.73624-0.55711-0.41519-0.81950-0.53438-0.13427
  -1  -4   7 3801.39  105.56   1 0.30886-0.28455-0.26800-0.21014-0.91256-0.93534
  -1  -4   7 3774.73  109.35   1 0.20916-0.38463-0.61448-0.55774 0.76069 0.73551
   1  -4  -7 3787.82  103.34   1-0.61517-0.79518 0.06180 0.46708 0.78596 0.38666
  -1   4   611319.12  221.86   1-0.70760-0.50305-0.48530-0.85543-0.51359-0.12315
   1   4  -611945.62  229.95   1-0.41436 0.15313-0.85897-0.95201-0.30075-0.26498
  -1  -4   611532.03  266.86   1 0.30246-0.26520-0.27364-0.18245-0.91303-0.94677
  -1  -4   611197.76  203.55   1 0.14900-0.41898-0.58511-0.49497 0.79714 0.76121
   1  -4  -611036.18  181.13   1-0.60538-0.81131 0.04871 0.42070 0.79443 0.40593
  -1   4   5 3693.75   94.73   1-0.67470-0.44416-0.55223-0.88914-0.48971-0.11020
   1   4  -5 3811.04  106.74   1-0.45246 0.08903-0.82910-0.95536-0.32841-0.28169
  -1  -4   5 3802.83  110.45   1 0.29881-0.24310-0.27683-0.15232-0.91327-0.95796
  -1  -4   5 3562.25   98.74   1 0.08979-0.45236-0.55335-0.42983 0.82809 0.78141
   1  -4  -5 3637.98  101.99   1-0.59282-0.82467 0.03226 0.37097 0.80468 0.42696
  -1   4   4 2254.99   76.86   1-0.63744-0.38091-0.61611-0.91981-0.46267-0.09410
  -1  -4   4 2179.06   79.61   1 0.29909-0.21707-0.27659-0.11876-0.91325-0.96890
  -1  -4   4 2158.44   80.59   1 0.03228-0.48406-0.51989-0.36298 0.85361 0.79619
   1  -4  -4 2166.38   71.14   1-0.57706-0.83482 0.01216 0.31758 0.81660 0.44968
  -1   4   3 4620.89  105.45   1-0.59635-0.31383-0.67602-0.94649-0.43284-0.07521
   1   4  -3 4644.73  116.14   1-0.53070-0.04118-0.75497-0.94766-0.38519-0.31661
  -1  -4   3 4669.93  125.52   1 0.30524-0.18516-0.27119-0.08003-0.91283-0.97944
  -1  -4   3 4603.38  110.88   1-0.02287-0.51339-0.48542-0.29513 0.87397 0.80580
   1  -4  -3 4649.90  108.18   1-0.55757-0.84125-0.01191 0.26021 0.83003 0.47389
  -1   4   215900.07  288.32   1-0.55215-0.24364-0.73110-0.96835-0.40076-0.05407
   1   4  -216065.17  261.28   1-0.56920-0.10568-0.71085-0.93676-0.41314-0.33362
  -1  -4   215180.88  306.24   1 0.32084-0.14381-0.25735-0.03286-0.91149-0.98905
  -1  -4   215791.18  280.22   1-0.07509-0.53980-0.45063-0.22696 0.88954 0.81061
   1  -4  -215502.39  270.99   1-0.53414-0.84363-0.03987 0.19774 0.84445 0.49917
   1   4  -1  579.79   39.31   1-0.60622-0.16869-0.66247-0.92160-0.44001-0.34955
  -1   4   1  581.61   43.09   1-0.50573-0.17122-0.78069-0.98473-0.36707-0.03131
  -1  -4   1  558.14   40.75   1 0.35330-0.08559-0.22775 0.03005-0.90736-0.99587
  -1   4   1  571.15   38.02   1-0.75178-0.41622-0.65767-0.86282-0.04780 0.28685
  -1  -4   1  596.57   47.30   1-0.12358-0.56243-0.41645-0.15926 0.90071 0.81135
   1  -4  -1  589.79   40.46   1-0.50528-0.84066-0.07295 0.13136 0.85986 0.52538
   1   4   0 5615.33  122.13   1-0.64105-0.22951-0.61037-0.90271-0.46529-0.36389
  -1   4   0 5927.71  123.81   1-0.45809-0.09759-0.82437-0.99519-0.33249-0.00767
  -1   4   0 6210.66  147.23   1-0.80393-0.44182-0.56278-0.73433 0.19225 0.51531
  -1  -4   0 6216.63  142.90   1-0.16874-0.58176-0.38294-0.09239 0.90823 0.80809
   1  -4   0 5838.62  131.30   1-0.47065-0.83190-0.11090 0.06010 0.87531 0.55164
   1   4   118584.71  290.73   1-0.67309-0.28754-0.55522-0.88078-0.48854-0.37621
  -1   4  -118388.72  269.91   1-0.41025-0.02376-0.86198-0.99958-0.29777 0.01611
  -1   4  -119108.33  331.13   1-0.80613-0.41829-0.46256-0.60074 0.36903 0.68127
  -1  -4  -118468.52  326.57   1-0.20998-0.59717-0.35088-0.02697 0.91257 0.80165
   1  -4   118238.77  328.54   1-0.42943-0.81656-0.15386-0.01616 0.88989 0.57702
   1  -4   212068.36  206.63   1 0.36430-0.04804 0.89295 0.99806 0.26441-0.03938
   1   4   212155.63  220.78   1-0.70192-0.34236-0.49774-0.85652-0.50946-0.38620
  -1   4  -211897.91  221.36   1-0.78393-0.36924-0.36857-0.47445 0.49960 0.79909
  -1  -4  -212039.52  227.06   1-0.24669-0.60794-0.32113 0.03642 0.91433 0.79314
   1  -4   211752.71  249.78   1-0.38081-0.79381-0.20181-0.09742 0.90236 0.60029
   1  -4   3 2121.22   78.77   1 0.31887-0.11944 0.91910 0.99092 0.23144-0.06163
   1   4   3 2197.84   76.31   1-0.72726-0.39370-0.43867-0.83067-0.52786-0.39366
  -1   4  -3 2151.84   73.53   1-0.75425-0.31383-0.29287-0.36535 0.58763 0.87637
  -1  -4  -3 2123.58   75.34   1-0.27999-0.61536-0.29312 0.09774 0.91415 0.78215
   1  -4   3 2107.49   77.56   1-0.32404-0.76293-0.25447-0.18339 0.91117 0.61991
   1  -4   4   14.13   24.13   1 0.27586-0.18843 0.94011 0.97864 0.20022-0.08212
   1   4   4   38.51   25.90   1-0.74925-0.44135-0.37797-0.80313-0.54382-0.40023
  -1   4  -4   16.96   14.95   1-0.72423-0.25807-0.23210-0.27118 0.64931 0.92728
   1  -4   4   34.40   20.78   1-0.25857-0.72334-0.31125-0.27348 0.91447 0.63401
  -1  -4  -4   92.78   24.65   1-0.30937-0.61886-0.26755 0.15662 0.91252 0.76972
   1  -4   5 6308.79  147.29   1 0.23581-0.25446 0.95660 0.96184 0.17115-0.10047
   1   4   5 6201.56  129.03   1-0.76736-0.48541-0.31769-0.77611-0.55697-0.40252
  -1   4  -5 6102.15  133.81   1-0.69738-0.20556-0.18466-0.18960 0.69250 0.96010
   1  -4   5 6289.41  156.96   1-0.18553-0.67555-0.37005-0.36622 0.91029 0.63993
  -1  -4  -5 6371.30  136.62   1-0.33498-0.61859-0.24459 0.21289 0.90992 0.75631
   1  -4   6 3494.58   97.59   1 0.19911-0.31713 0.96925 0.94121 0.14452-0.11638
   1   4   6 3531.36   98.41   1-0.78196-0.52595-0.25769-0.74936-0.56756-0.40226
  -1   4  -6 3747.71   97.54   1-0.67423-0.15670-0.14726-0.11880 0.72368 0.98047
   1  -4   6 3572.34  109.03   1-0.10217-0.61802-0.43177-0.46129 0.89617 0.63658
  -1  -4  -6 3516.23  101.16   1-0.35699-0.61473-0.22432 0.26647 0.90677 0.74236
   1  -4   7   28.22   32.12   1 0.16599-0.37623 0.97873 0.91740 0.12048-0.12970
   1   4   7   63.17   25.18   1-0.79320-0.56315-0.19839-0.72332-0.57572-0.39957
  -1   4  -7  111.11   26.72   1-0.65520-0.11196-0.11836-0.05650 0.74611 0.99210
   1  -4   7   54.30   20.78   1-0.01117-0.55262-0.49292-0.55611 0.86999 0.62076
  -1  -4  -7   69.18   26.38   1-0.37562-0.60747-0.20677 0.31733 0.90341 0.72819
   1  -4   8  364.18   38.19   1 0.13652-0.43167 0.98566 0.89104 0.09909-0.14037
   1   4   8  422.14   40.29   1-0.80141-0.59761-0.13921-0.69764-0.58168-0.39515
  -1   4  -8  380.03   40.37   1-0.64002-0.07107-0.09630-0.00104 0.76229 0.99747
   1  -4   8  389.63   35.31   1 0.08730-0.47996-0.55196-0.64853 0.82928 0.59079
  -1  -4  -8  399.10   44.60   1-0.39107-0.59705-0.19192 0.36549 0.90012 0.71410
   1  -4   9 8612.53  229.68   1 0.11069-0.48348 0.99060 0.86268 0.08034-0.14839
   1   4   9 8555.27  217.80   1-0.80655-0.62871-0.08212-0.67384-0.58542-0.38813
  -1   4  -9 8872.30  247.27   1-0.62830-0.03363-0.07978 0.04887 0.77386 0.99823
   1  -4   9 8653.67  253.16   1 0.19061-0.40247-0.60574-0.73570 0.77248 0.54474
  -1  -4  -9 8759.30  228.08   1-0.40355-0.58365-0.17973 0.41099 0.89712 0.70030
   1  -4  10 4797.70  146.89   1 0.08840-0.53175 0.99401 0.83280 0.06416-0.15385
   1   4  10 4865.64  147.85   1-0.80901-0.65713-0.02647-0.65147-0.58719-0.37915
  -1   4 -10 4763.89  148.38   1-0.61959 0.00078-0.06780 0.09425 0.78198 0.99554
  -1  -4 -10 4797.38  145.69   1-0.41327-0.56750-0.17011 0.45392 0.89457 0.68694
   1  -4  11   94.36   44.29   1 0.06949-0.57662 0.99630 0.80180 0.05044-0.15685
   1   4  11  113.94   25.97   1-0.80898-0.68307 0.02763-0.63064-0.58718-0.36837
  -1   4 -11  177.02   37.99   1-0.61351 0.03257-0.05956 0.13589 0.78743 0.99018
  -1  -4 -11   89.43   31.12   1-0.42041-0.54875-0.16297 0.49437 0.89257 0.67414
   1  -4  12 8427.54  201.20   1 0.05380-0.61829 0.99778 0.76999 0.03905-0.15752
   1   4  12 8456.67  191.14   1-0.80668-0.70673 0.08015-0.61140-0.58551-0.35594
  -1   4 -12 8773.66  221.89   1-0.60969 0.06210-0.05444 0.17441 0.79076 0.98271
  -1  -4 -12 8632.86  202.84   1-0.42511-0.52758-0.15824 0.53241 0.89119 0.66196
   1  -4  13 1602.78   72.55   1 0.04113-0.65693 0.99870 0.73762 0.02985-0.15599
   1   4  13 1756.53   70.60   1-0.80231-0.72832 0.13106-0.59377-0.58233-0.34201
  -1   4 -13 1559.57   68.17   1-0.60782 0.08969-0.05194 0.21031 0.79237 0.97351
  -1  -4 -13 1670.70   75.90   1-0.42752-0.50410-0.15580 0.56816 0.89047 0.65043
   1  -4  14 2674.13   92.19   1 0.03129-0.69275 0.99925 0.70488 0.02271-0.15241
   1   4  14 2594.45   87.47   1-0.79601-0.74799 0.18038-0.57773-0.57776-0.32668
  -1   4 -14 2517.34   90.41   1-0.60762 0.11559-0.05168 0.24397 0.79253 0.96286
  -1  -4 -14 2468.11   95.81   1-0.42774-0.47845-0.15557 0.60170 0.89040 0.63955
   1  -4  15 1570.98   77.25   1 0.02410-0.72592 0.99955 0.67189 0.01749-0.14691
   1   4  15 1514.14   72.79   1-0.78795-0.76589 0.22813-0.56326-0.57191-0.31007
  -1   4 -15 1540.68   78.23   1-0.60888 0.14005-0.05335 0.27570 0.79146 0.95098
  -1  -4 -15 1517.89   78.84   1-0.42586-0.45069-0.15748 0.63310 0.89097 0.62932
   1  -4  16 6128.86  137.34   1 0.01937-0.75662 0.99971 0.63876 0.01406-0.13962
   1   4  16 6131.63  148.85   1-0.77823-0.78213 0.27437-0.55031-0.56486-0.29226
  -1   4 -16 5663.95  198.03   1-0.61138 0.16325-0.05671 0.30574 0.78929 0.93801
  -1  -4 -16 5720.78  150.12   1-0.42194-0.42089-0.16143 0.66245 0.89213 0.61967
   1  -4  17 2403.45  101.42   1 0.01696-0.78501 0.99978 0.60554 0.01231-0.13065
   1   4  17 2481.36   92.66   1-0.76686-0.79673 0.31952-0.53870-0.55661-0.27388
  -1   4 -17 2563.28  101.62   1-0.61497 0.18538-0.06153 0.33431 0.78614 0.92404
  -1  -4 -17 2293.72  106.78   1-0.41599-0.38907-0.16739 0.68980 0.89382 0.61056
  -1   5  1510146.59  251.67   1-0.80789-0.74052 0.05879-0.67035-0.58638-0.04731
   1   5 -15 9520.51  290.50   1-0.46738 0.42893 0.11439 0.26670 0.87662 0.86306
   1  -5 -1510471.85  267.48   1-0.56013-0.62960-0.00879 0.72083 0.82835 0.28981
  -1  -5  14  154.03   49.73   1 0.32006-0.55206 0.91847 0.80192 0.23230 0.22833
  -1   5  14  153.45   49.80   1-0.80929-0.71596 0.00023-0.69563-0.58740-0.05908
   1   5 -14  187.27   38.09   1-0.45767 0.41293 0.12467 0.24357 0.88033 0.87758
   1  -5 -14  197.23   57.33   1-0.56290-0.65829-0.00540 0.69094 0.82650 0.29874
  -1  -5  13   20.95   28.70   1 0.33344-0.51271 0.91117 0.82791 0.24202 0.22732
  -1   5  13   30.90   30.87   1-0.80786-0.68857-0.05930-0.72188-0.58636-0.06881
   1   5 -13   37.29   39.19   1-0.44880 0.39609 0.13396 0.21946 0.88353 0.89159
   1  -5 -13   26.47   39.17   1-0.56428-0.68558-0.00371 0.65934 0.82557 0.30860
   1   5 -13   29.59   39.45   1-0.48983 0.35523 0.70591 0.79058-0.51160-0.49878
  -1  -5  12 9506.83  203.27   1 0.34919-0.47098 0.90212 0.85215 0.25345 0.22803
  -1   5  12 9627.05  220.32   1-0.80348-0.65822-0.11962-0.74893-0.58318-0.07638
   1   5 -12 8052.17  524.12   1-0.44092 0.37826 0.14212 0.19422 0.88622 0.90509
   1  -5 -12 9525.91  200.67   1-0.56420-0.71142-0.00381 0.62596 0.82562 0.31945
   1   5 -12 8249.75  402.48   1-0.43875 0.38053 0.69593 0.74722-0.56847-0.54484
  -1  -5  11 4050.26  123.68   1 0.36725-0.42694 0.89110 0.87442 0.26656 0.23042
  -1   5  11 4370.41  114.16   1-0.79577-0.62388-0.18198-0.77730-0.57759-0.08103
   1   5 -11 3939.21  126.83   1-0.43425 0.35922 0.14896 0.16766 0.88839 0.91806
  -1  -5  11 4133.70  117.56   1 0.38681-0.40698-0.68233-0.70151 0.62031 0.58501
   1  -5 -11 4266.63  118.67   1-0.56259-0.73572-0.00578 0.59069 0.82671 0.33132
  -1  -5  10 3413.43   98.64   1 0.38754-0.38068 0.87788 0.89449 0.28129 0.23443
  -1   5  10 3503.34  106.65   1-0.78503-0.58719-0.24301-0.80506-0.56979-0.08408
   1   5 -10 3014.79  186.54   1-0.42906 0.33869 0.15424 0.13954 0.89000 0.93049
  -1  -5  10 3609.56  107.87   1 0.33312-0.43485-0.66507-0.65086 0.66836 0.62231
   1  -5 -10 3509.11   99.68   1-0.55934-0.75840-0.00975 0.55344 0.82887 0.34427
  -1   5   9 4515.76  130.93   1-0.77102-0.54723-0.30388-0.83267-0.55962-0.08476
   1   5  -9 4030.60  125.49   1-0.41174 0.33024-0.86090-0.91218-0.29885-0.24260
   1   5  -9 3780.74  141.44   1-0.42572 0.31632 0.15762 0.10952 0.89101 0.94230
  -1  -5   9 4828.36  154.25   1 0.27896-0.46319-0.64470-0.59711 0.71170 0.65491
   1  -5  -9 4479.37  129.01   1-0.55484-0.77996-0.01523 0.51330 0.83181 0.35799
  -1   5   811349.13  247.56   1-0.75371-0.50397-0.36418-0.85971-0.54706-0.08306
   1   5  -810501.86  508.31   1-0.43588 0.28010-0.84256-0.92706-0.31637-0.24919
   1   5  -8 9667.68  489.36   1-0.42471 0.29162 0.15864 0.07714 0.89131 0.95341
  -1  -5   811118.93  277.41   1 0.22490-0.49143-0.62167-0.54069 0.75028 0.68274
   1  -5  -811296.06  240.60   1-0.54791-0.79891-0.02357 0.47165 0.83620 0.37318
  -1   5   713752.60  257.71   1-0.73316-0.45746-0.42343-0.88571-0.53214-0.07899
   1   5  -714365.13  270.51   1-0.46165 0.22834-0.82134-0.93905-0.33507-0.25696
   1   5  -712954.28  397.33   1-0.42669 0.26393 0.15664 0.04175 0.89072 0.96363
  -1  -5   713549.32  283.52   1 0.17147-0.51904-0.59643-0.48206 0.78412 0.70583
   1  -5  -713827.62  249.29   1-0.53887-0.81575-0.03431 0.42760 0.84168 0.38947
  -1   5   6   46.34   32.99   1-0.70897-0.40792-0.48223-0.91026-0.51458-0.07087
   1   5  -6   16.82   35.45   1-0.48873 0.17527-0.79706-0.94799-0.35473-0.26567
   1   5  -6   59.87   29.76   1-0.43258 0.23233 0.15066 0.00237 0.88891 0.97263
  -1  -5   6   65.68   26.61   1 0.11920-0.54550-0.56947-0.42172 0.81331 0.72427
   1  -5  -6   36.03   28.66   1-0.52750-0.83026-0.04761 0.38099 0.84821 0.40681
  -1   5   5  286.27   34.35   1-0.68224-0.35519-0.53790-0.93270-0.49518-0.06240
   1   5  -5  290.71   58.46   1-0.51676 0.12124-0.76959-0.95374-0.37507-0.27509
   1   5  -5  249.66   42.02   1-0.44376 0.19544 0.13919-0.04250 0.88527 0.97979
  -1  -5   5  323.54   43.61   1 0.06854-0.57033-0.54129-0.36015 0.83803 0.73824
   1  -5  -5  448.19   43.13   1-0.51354-0.84219-0.06362 0.33167 0.85569 0.42509
  -1   5   423649.87  542.65   1-0.65283-0.29980-0.59099-0.95258-0.47384-0.05199
   1   5  -415863.14 2750.44   1-0.54534 0.06667-0.73886-0.95623-0.39582-0.28489
   1   5  -418348.67 1261.45   1-0.46235 0.15113 0.11973-0.09535 0.87857 0.98390
  -1  -5   424042.61  526.76   1 0.01994-0.59312-0.51238-0.29785 0.85852 0.74798
   1  -5  -423929.58  546.47   1-0.49671-0.85123-0.08252 0.27946 0.86398 0.44418
  -1   5   3  762.70   58.73   1-0.62112-0.24209-0.64106-0.96943-0.45082-0.03991
   1   5  -3  693.04   53.76   1-0.57403 0.01198-0.70490-0.95548-0.41664-0.29478
  -1  -5   3  675.75   54.33   1-0.02625-0.61351-0.48323-0.23531 0.87509 0.75381
   1  -5  -3  778.89   56.58   1-0.47666-0.85705-0.10445 0.22422 0.87286 0.46386
  -1   5   2 6408.50  130.41   1-0.58754-0.18252-0.68769-0.98284-0.42645-0.02648
   1   5  -2 6691.26  149.32   1-0.60240-0.04236-0.66778-0.95158-0.43723-0.30443
  -1  -5   2 6255.97  158.44   1-0.06976-0.63120-0.45428-0.17298 0.88812 0.75608
   1  -5  -2 6482.56  147.20   1-0.45302-0.85930-0.12955 0.16581 0.88203 0.48384
   1   5  -113970.53  262.71   1-0.63000-0.09596-0.62769-0.94471-0.45727-0.31353
  -1   5   114165.25  258.28   1-0.55261-0.12160-0.73057-0.99250-0.40110-0.01206
  -1  -5   114078.34  264.07   1-0.11002-0.64561-0.42620-0.11136 0.89791 0.75550
   1  -5  -113823.77  257.83   1-0.42540-0.85756-0.15794 0.10411 0.89111 0.50373
   1   5   013693.89  247.95   1-0.65644-0.14839-0.58486-0.93510-0.47645-0.32178
  -1   5   013305.80  210.03   1-0.51686-0.05985-0.76948-0.99820-0.37515 0.00294
  -1  -5   013358.60  253.66   1-0.14759-0.65735-0.39883-0.05063 0.90506 0.75187
   1  -5   012946.82  268.45   1-0.39339-0.85142-0.18967 0.03907 0.89959 0.52301
   1   5   1 7871.66  146.33   1-0.68134-0.19929-0.53962-0.92308-0.49453-0.32893
  -1   5  -1 7922.65  152.72   1-0.48086 0.00213-0.80433-0.99983-0.34902 0.01814
  -1  -5  -1 8132.88  178.22   1-0.18204-0.66595-0.37276 0.00879 0.90989 0.74593
   1  -5   1 8130.65  189.90   1-0.35655-0.84046-0.22473-0.02929 0.90684 0.54106
   1   5   2  565.71   42.53   1-0.70442-0.24836-0.49231-0.90898-0.51128-0.33474
  -1   5  -2  519.42   49.55   1-0.44515 0.06383-0.83512-0.99741-0.32310 0.03312
  -1   5  -2  513.67   38.95   1-0.80631-0.29586-0.46393-0.62656 0.36691 0.72102
  -1  -5  -2  638.54   49.82   1-0.21332-0.67140-0.34822 0.06669 0.91281 0.73808
   1  -5   2  553.02   44.70   1-0.31448-0.82427-0.26302-0.10089 0.91209 0.55712
   1   5   3 5127.24  148.15   1-0.72542-0.29536-0.44330-0.89319-0.52653-0.33905
  -1   5  -3 5178.21  146.15   1-0.41025 0.12473-0.86198-0.99105-0.29777 0.04752
  -1  -5  -3 5100.27  146.77   1-0.24147-0.67372-0.32543 0.12284 0.91421 0.72869
   1  -5   3 5240.56  157.67   1-0.26681-0.80248-0.30432-0.17550 0.91443 0.57027
   1  -5   416158.96  382.98   1 0.37735-0.18348 0.88463 0.98108 0.27389-0.06172
   1   5   415410.03  358.09   1-0.74442-0.33995-0.39228-0.87539-0.54031-0.34368
   1  -5   415916.23  368.77   1-0.21458-0.77549-0.34722-0.25237 0.91290 0.57871
  -1  -5  -416069.16  370.99   1-0.26610-0.67237-0.30493 0.17699 0.91444 0.71873
   1  -5   5   29.69   35.29   1 0.34531-0.24150 0.90439 0.96755 0.25063-0.07425
   1   5   5   63.79   35.11   1-0.76079-0.38227-0.34097-0.85734-0.55220-0.34471
  -1   5  -5   39.32   25.56   1-0.74447-0.15548-0.27188-0.33559 0.60978 0.92908
   1  -5   5   22.30   29.20   1-0.15500-0.74175-0.39331-0.33182 0.90624 0.58283
  -1  -5  -5    7.46   44.52   1-0.28828-0.66868-0.28598 0.22924 0.91383 0.70732
   1  -5   6   40.68   34.97   1 0.31523-0.29755 0.92101 0.95088 0.22880-0.08536
   1   5   6   84.70   32.40   1-0.77473-0.42217-0.28909-0.83871-0.56232-0.34398
  -1   5  -6   63.54   26.72   1-0.72348-0.10876-0.23070-0.26100 0.65065 0.95919
   1  -5   6   90.52   26.15   1-0.08934-0.70193-0.44078-0.41265 0.89315 0.58052
  -1  -5  -6  128.49   32.45   1-0.30761-0.66213-0.26911 0.27942 0.91266 0.69534
   1  -5   716819.75  280.41   1 0.28737-0.35139 0.93483 0.93140 0.20858-0.09486
   1   5   717062.99  261.31   1-0.78624-0.45963-0.23694-0.81983-0.57067-0.34148
  -1   5  -716852.12  333.50   1-0.70535-0.06500-0.19823-0.19422 0.68057 0.97880
   1  -5   717341.61  334.65   1-0.01835-0.65653-0.48833-0.49389 0.87246 0.57011
  -1  -5  -717559.53  271.72   1-0.32420-0.65284-0.25433 0.32751 0.91115 0.68303
   1  -5   8 4990.93  156.70   1 0.26187-0.40286 0.94619 0.90948 0.19007-0.10265
   1   5   8 5092.64  138.21   1-0.79535-0.49468-0.18482-0.80097-0.57728-0.33723
  -1   5  -8 5004.88  152.49   1-0.68985-0.02380-0.17220-0.13479 0.70316 0.99058
   1  -5   8 5136.54  164.43   1 0.05859-0.60540-0.53551-0.57446 0.84248 0.55088
  -1  -5  -8 5215.97  140.33   1-0.33818-0.64094-0.24167 0.37348 0.90951 0.67059
   1  -5   9 3275.34  108.95   1 0.23885-0.45186 0.95545 0.88544 0.17336-0.10863
   1   5   9 3285.65  104.92   1-0.80220-0.52788-0.13207-0.78180-0.58225-0.33184
  -1   5  -9 3152.90  118.52   1-0.67716 0.01460-0.15185-0.08104 0.71998 0.99660
  -1  -5  -9 3274.70  105.50   1-0.34969-0.62657-0.23110 0.41737 0.90791 0.65818
   1  -5  10 6687.30  152.84   1 0.21835-0.49833 0.96291 0.85961 0.15849-0.11279
   1   5  10 6744.10  150.87   1-0.80666-0.55830-0.08060-0.76361-0.58549-0.32431
  -1   5 -10 6699.07  168.25   1-0.66709 0.05038-0.13624-0.03202 0.73240 0.99821
  -1  -5 -10 6922.49  155.05   1-0.35884-0.60985-0.22259 0.45919 0.90646 0.64592
   1  -5  11 5733.83  134.19   1 0.20038-0.54228 0.96885 0.83227 0.14544-0.11511
   1   5  11 5724.10  134.01   1-0.80893-0.58654-0.02977-0.74606-0.58714-0.31521
  -1   5 -11 5530.30  175.83   1-0.65939 0.08379-0.12459 0.01301 0.74139 0.99639
  -1  -5 -11 5890.89  147.53   1-0.36576-0.59088-0.21610 0.49898 0.90526 0.63392
   1  -5  12 9683.04  221.77   1 0.18491-0.58373 0.97354 0.80367 0.13421-0.11562
   1   5  12 9791.73  217.73   1-0.80912-0.61269 0.02030-0.72926-0.58728-0.30458
  -1   5 -12 9611.00  272.32   1-0.65381 0.11508-0.11631 0.05470 0.74765 0.99184
  -1  -5 -12 9906.03  214.46   1-0.37053-0.56978-0.21160 0.53680 0.90439 0.62224
   1  -5  13   28.39   46.64   1 0.17187-0.62274 0.97718 0.77402 0.12475-0.11436
   1   5  13    7.39   38.04   1-0.80733-0.63686 0.06953-0.71332-0.58598-0.29253
  -1   5 -13   50.04   38.72   1-0.65012 0.14449-0.11088 0.09352 0.75169 0.98507
  -1  -5 -13   40.64   37.41   1-0.37325-0.54662-0.20902 0.57269 0.90387 0.61092
   1  -5  14 5683.74  132.91   1 0.16120-0.65938 0.97996 0.74350 0.11700-0.11138
   1   5  14 5807.71  144.76   1-0.80365-0.65915 0.11783-0.69830-0.58331-0.27910
  -1   5 -14 5719.88  170.63   1-0.64809 0.17223-0.10791 0.12989 0.75387 0.97645
  -1  -5 -14 6019.90  140.49   1-0.37399-0.52148-0.20832 0.60670 0.90373 0.59997
   1  -5  15 7012.73  207.61   1 0.15282-0.69374 0.98200 0.71226 0.11092-0.10674
   1   5  15 7347.40  191.40   1-0.79817-0.67963 0.16516-0.68425-0.57933-0.26436
  -1   5 -15 7193.57  219.23   1-0.64751 0.19852-0.10708 0.16412 0.75448 0.96625
  -1  -5 -15 7224.95  201.97   1-0.37279-0.49441-0.20945 0.63887 0.90396 0.58940
  -1   6  12 2090.01   96.90   1-0.80117-0.55944-0.14126-0.82858-0.58151-0.02158
   1   6 -12 1745.89   96.05   1-0.44325 0.47321-0.83666-0.84618-0.32172-0.24501
   1  -6 -12 2100.07   86.70   1-0.49416-0.73844-0.08533 0.60087 0.86516 0.30602
  -1   6  11  973.59   55.39   1-0.79335-0.52490-0.19749-0.85075-0.57583-0.02623
   1   6 -11  465.41  118.64   1-0.45748 0.43299-0.82489-0.86763-0.33205-0.24440
   1  -6 -11  983.89   58.25   1-0.49147-0.76162-0.08831 0.56459 0.86640 0.31806
  -1   6  10 4181.79  113.39   1-0.78320-0.48879-0.25188-0.87189-0.56846-0.02971
   1   6 -10 3844.76  118.39   1-0.47329 0.39118-0.81115-0.88711-0.34353-0.24494
  -1  -6  10 4001.14  114.09   1 0.30747-0.55722-0.65578-0.58395 0.68949 0.59033
   1  -6 -10 4061.87  129.80   1-0.48712-0.78315-0.09307 0.52651 0.86835 0.33082
  -1   6   9 5587.39  136.89   1-0.77057-0.45021-0.30562-0.89236-0.55929-0.03140
   1   6  -9 5579.47  153.92   1-0.49055 0.34793-0.79534-0.90452-0.35605-0.24653
  -1  -6   9 5436.89  129.11   1 0.25819-0.58069-0.63616-0.53095 0.72706 0.61716
   1  -6  -9 5551.16  130.35   1-0.48103-0.80294-0.09971 0.48656 0.87101 0.34428
  -1   6   8  611.81   55.19   1-0.75552-0.40922-0.35841-0.91189-0.54837-0.03133
   1   6  -8  546.70   54.13   1-0.50910 0.30339-0.77734-0.91974-0.36952-0.24906
  -1  -6   8  516.49   51.03   1 0.20967-0.60339-0.61472-0.47612 0.76036 0.63970
   1  -6  -8  537.81   50.72   1-0.47307-0.82086-0.10831 0.44466 0.87433 0.35841
  -1   6   7 3625.86  106.45   1-0.73816-0.36590-0.40995-0.93018-0.53577-0.02958
   1   6  -7 3664.69  111.66   1-0.52875 0.25775-0.75705-0.93266-0.38378-0.25238
  -1  -6   7 3605.74  101.93   1 0.16228-0.62496-0.59185-0.41986 0.78953 0.65813
   1  -6  -7 3431.99  105.45   1-0.46309-0.83676-0.11895 0.40070 0.87828 0.37317
  -1   6   6 2406.65   86.06   1-0.71817-0.32062-0.46097-0.94689-0.52126-0.02427
   1   6  -6 2392.47   90.55   1-0.54928 0.21122-0.73439-0.94322-0.39868-0.25635
  -1  -6   6 2205.63   84.83   1 0.11637-0.64505-0.56795-0.36257 0.81479 0.67263
   1  -6  -6 2431.92   90.88   1-0.45094-0.85049-0.13172 0.35462 0.88277 0.38846
  -1   6   5 5268.35  131.65   1-0.69655-0.27301-0.50911-0.96181-0.50557-0.01951
   1   6  -5 5355.12  136.70   1-0.57047 0.16404-0.70930-0.95135-0.41406-0.26079
  -1  -6   5 5256.83  145.91   1 0.07222-0.66338-0.54340-0.30464 0.83635 0.68345
   1  -6  -5 5364.74  128.16   1-0.43643-0.86186-0.14672 0.30631 0.88769 0.40418
  -1   6   4  213.24   38.47   1-0.67315-0.22361-0.55510-0.97458-0.48859-0.01346
   1   6  -4  278.30   43.02   1-0.59204 0.11647-0.68177-0.95704-0.42972-0.26551
  -1  -6   4  224.12   42.69   1 0.03009-0.67970-0.51856-0.24641 0.85450 0.69085
   1  -6  -4  211.48   43.79   1-0.41936-0.87067-0.16402 0.25571 0.89287 0.42017
  -1   6   3 2634.46   91.43   1-0.64822-0.17269-0.59869-0.98495-0.47049-0.00631
   1   6  -3 1938.20  258.67   1-0.61374 0.06878-0.65182-0.96030-0.44546-0.27033
  -1  -6   3 2776.60   89.14   1-0.00982-0.69380-0.49378-0.18825 0.86952 0.69512
   1  -6  -3 2646.11   85.08   1-0.39951-0.87669-0.18369 0.20272 0.89813 0.43623
  -1   6   2 4064.78  126.45   1-0.62207-0.12054-0.63966-0.99270-0.45151 0.00173
   1   6  -2 4105.26  127.85   1-0.63529 0.02124-0.61949-0.96119-0.46111-0.27503
  -1  -6   2 4060.95  122.63   1-0.04736-0.70551-0.46937-0.13044 0.88172 0.69658
   1  -6  -2 3890.25  123.99   1-0.37665-0.87971-0.20579 0.14732 0.90320 0.45211
   1   6  -1 2559.64   95.72   1-0.65642-0.02587-0.58489-0.95981-0.47644-0.27943
  -1   6   1 2452.37  118.15   1-0.59500-0.06748-0.67783-0.99766-0.43186 0.01044
  -1  -6   1 2663.62   97.85   1-0.08207-0.71439-0.44583-0.07334 0.89134 0.69588
   1  -6  -1 2592.16   92.86   1-0.35051-0.87945-0.23034 0.08946 0.90778 0.46750
   1   6   0  669.06   53.73   1-0.67687-0.07232-0.54815-0.95628-0.49129-0.28334
  -1   6   0  630.28   47.87   1-0.56736-0.01385-0.71310-0.99971-0.41180 0.01957
  -1  -6   0  656.20   54.97   1-0.11458-0.72106-0.42293-0.01709 0.89888 0.69265
   1  -6   0  645.93   46.95   1-0.32086-0.87567-0.25733 0.02916 0.91149 0.48201
   1   6   1 5332.74  150.62   1-0.69641-0.11785-0.50942-0.95077-0.50546-0.28658
  -1   6  -1 5309.73  152.42   1-0.53949 0.04000-0.74538-0.99878-0.39158 0.02886
  -1  -6  -1 5364.54  148.44   1-0.14449-0.72514-0.40113 0.03806 0.90454 0.68754
   1  -6   1 5594.94  162.89   1-0.28743-0.86813-0.28672-0.03353 0.91387 0.49519
   1   6   2 3518.59  123.03   1-0.71480-0.16224-0.46890-0.94348-0.51882-0.28900
  -1   6  -2 3513.38  114.28   1-0.51174 0.09375-0.77469-0.99486-0.37143 0.03806
  -1  -6  -2 3449.67  116.16   1-0.17180-0.72662-0.38060 0.09196 0.90863 0.68085
   1  -6   2 3785.33  124.73   1-0.25000-0.85658-0.31839-0.09851 0.91439 0.50652
   1   6   3  679.55   51.69   1-0.73211-0.20513-0.42618-0.93398-0.53138-0.29256
  -1   6  -3  667.90   54.98   1-0.48443 0.14705-0.80105-0.98801-0.35161 0.04695
  -1  -6  -3  661.99   59.14   1-0.19654-0.72552-0.36148 0.14444 0.91142 0.67286
   1  -6   3  758.95   56.56   1-0.20956-0.84137-0.35121-0.16536 0.91254 0.51453
   1   6   4 5381.04  132.78   1-0.74769-0.24666-0.38268-0.92374-0.54269-0.29301
  -1   6  -4 5373.36  137.43   1-0.45786 0.19962-0.82457-0.97831-0.33232 0.05530
   1  -6   4 5463.59  144.59   1-0.16356-0.82120-0.38687-0.23437 0.90751 0.52028
  -1  -6  -4 5377.06  128.02   1-0.21874-0.72189-0.34388 0.19540 0.91317 0.66384
   1   6   5 4230.64  117.85   1-0.76164-0.28656-0.33806-0.91238-0.55281-0.29229
  -1  -6  -5 4160.75  123.12   1-0.23848-0.71579-0.32789 0.24476 0.91411 0.65401
   1  -6   6 3528.99  112.87   1-0.05846-0.76754-0.46194-0.37649 0.88498 0.51876
   1  -6   7   43.69   30.01   1 0.38558-0.34973 0.87920 0.93369 0.27986-0.07684
   1   6   7   33.72   36.26   1-0.78434-0.36116-0.24637-0.88721-0.56929-0.28706
   1  -6   7   22.79   36.72   1 0.00110-0.73379-0.50069-0.44863 0.86562 0.51016
  -1  -6  -7    9.39   32.26   1-0.27052-0.69594-0.30119 0.33840 0.91438 0.63335
   1  -6   8 1030.66   70.18   1 0.36426-0.39702 0.89297 0.91417 0.26438-0.08159
   1   6   8 1097.83   59.65   1-0.79298-0.39576-0.19973-0.87383-0.57556-0.28248
  -1  -6  -8  978.27   56.58   1-0.28339-0.68293-0.29020 0.38270 0.91404 0.62220
   1  -6   9 6212.71  145.23   1 0.34467-0.44258 0.90477 0.89267 0.25017-0.08509
   1   6   9 6275.42  146.70   1-0.79989-0.42909-0.15198-0.85972-0.58058-0.27703
  -1  -6  -9 6287.55  145.76   1-0.29411-0.66777-0.28093 0.42527 0.91354 0.61091
   1  -6  10 1637.34   72.57   1 0.32690-0.48633 0.91478 0.86940 0.23727-0.08726
   1   6  10 1683.34   73.06   1-0.80482-0.45999-0.10489-0.84592-0.58416-0.26986
  -1  -6 -10 1863.98   87.04   1-0.30276-0.65055-0.27337 0.46614 0.91301 0.59957
   1  -6  11   46.37   33.42   1 0.31100-0.52820 0.92321 0.84453 0.22573-0.08808
   1   6  11   50.89   36.16   1-0.80793-0.48906-0.05786-0.83217-0.58642-0.26135
  -1  -6 -11   63.87   42.23   1-0.30942-0.63133-0.26751 0.50532 0.91251 0.58827
  -1   7   6  232.57   48.98   1-0.73204-0.23728-0.42637-0.97129-0.53133 0.01704
   1   7  -6  211.56   62.38   1-0.60112 0.25588-0.66953-0.93625-0.43631-0.24070
  -1  -7   6  272.39   45.06   1 0.13148-0.72667-0.57600-0.31300 0.80680 0.61153
   1  -7  -6  279.80   52.06   1-0.37519-0.87152-0.20717 0.33691 0.90349 0.35627
  -1   7   5 5429.68  164.42   1-0.71427-0.19422-0.47013-0.98073-0.51843 0.02089
   1   7  -5 5082.87  156.44   1-0.61733 0.21369-0.64662-0.94657-0.44807-0.24153
  -1  -7   5 5116.71  149.99   1 0.09223-0.74010-0.55471-0.25833 0.82691 0.62089
   1  -7  -5 5274.82  151.09   1-0.36056-0.88277-0.22098 0.28980 0.90617 0.36976
  -1   7   4 2675.29  101.66   1-0.69560-0.14956-0.51109-0.98847-0.50488 0.02351
   1   7  -4 2782.10   92.99   1-0.63385 0.17117-0.62174-0.95490-0.46006-0.24258
  -1  -7   4 2533.28   91.64   1 0.05486-0.75165-0.53333-0.20356 0.84412 0.62735
   1  -7  -4 2509.12   95.03   1-0.34364-0.89173-0.23667 0.24080 0.90878 0.38317
  -1   7   3 5259.00  126.73   1-0.67585-0.10381-0.55007-0.99423-0.49055 0.02691
   1   7  -3 5093.49  121.66   1-0.65050 0.12853-0.59490-0.96128-0.47215-0.24373
  -1  -7   3 5037.31  118.80   1 0.01950-0.76119-0.51211-0.14895 0.85869 0.63118
   1  -7  -3 5309.25  125.00   1-0.32428-0.89824-0.25426 0.18990 0.91114 0.39634
  -1   7   2   27.01   48.64   1-0.65522-0.05719-0.58694-0.99788-0.47558 0.03094
   1   7  -2    6.05   36.12   1-0.66710 0.08594-0.56615-0.96574-0.48419-0.24484
  -1  -7   2   21.13   43.83   1-0.01375-0.76863-0.49128-0.09473 0.87089 0.63263
   1  -7  -2   10.58   45.08   1-0.30231-0.90215-0.27377 0.13708 0.91304 0.40904
   1   7  -112597.99  213.23   1-0.68346 0.04358-0.53553-0.96834-0.49607-0.24578
  -1   7   112376.17  208.78   1-0.63395-0.00992-0.62159-0.99932-0.46013 0.03545
  -1  -7   112401.56  234.45   1-0.04484-0.77390-0.47104-0.04111 0.88097 0.63196
   1  -7  -112394.71  248.96   1-0.27757-0.90329-0.29519 0.08235 0.91422 0.42103
   1   7   0 2518.06   97.78   1-0.69940 0.00165-0.50313-0.96916-0.50764-0.24641
  -1   7   0 2767.88  100.55   1-0.61224 0.03776-0.65396-0.99847-0.44438 0.04027
  -1  -7   0 2509.76   97.48   1-0.07372-0.77697-0.45157 0.01174 0.88918 0.62942
   1  -7   0 2636.83   98.81   1-0.24990-0.90150-0.31847 0.02576 0.91439 0.43200
   1   7   1 7197.93  166.84   1-0.71474-0.03968-0.46905-0.96829-0.51877-0.24661
  -1   7  -1 6941.49  156.35   1-0.59035 0.08565-0.68400-0.99529-0.42849 0.04522
  -1  -7  -1 6750.32  166.33   1-0.10011-0.77750-0.43322 0.06363 0.89570 0.62565
   1  -7   1 7275.81  182.98   1-0.22021-0.89708-0.34270-0.03248 0.91326 0.44066
   1   7   2 2496.27   83.08   1-0.72933-0.08026-0.43340-0.96587-0.52936-0.24627
  -1   7  -2 2480.13   88.97   1-0.56850 0.13349-0.71170-0.98978-0.41263 0.05014
  -1  -7  -2 2607.94   95.77   1-0.12458-0.77613-0.41572 0.11449 0.90091 0.62008
   1  -7   2 2478.08   87.90   1-0.18624-0.88894-0.36951-0.09264 0.91037 0.44854
   1   7   3 6210.74  140.83   1-0.74324-0.11970-0.39568-0.96144-0.53946-0.24759
  -1   7  -3 6353.58  142.59   1-0.54692 0.18107-0.73708-0.98193-0.39696 0.05487
  -1  -7  -3 6503.56  149.55   1-0.14685-0.77256-0.39939 0.16418 0.90494 0.61333
   1  -7   3 6379.89  151.47   1-0.14887-0.87741-0.39789-0.15438 0.90527 0.45421
   1   7   4 5244.92  139.21   1-0.75588-0.15829-0.35726-0.95627-0.54863-0.24591
  -1   7  -4 5382.41  124.09   1-0.52581 0.22818-0.76017-0.97181-0.38164 0.05926
   1  -7   4 5133.55  144.92   1-0.10798-0.86236-0.42765-0.21750 0.89747 0.45719
  -1  -7  -4 5417.02  137.68   1-0.16695-0.76682-0.38430 0.21263 0.90798 0.60560
   1   7   5   87.10   39.48   1-0.76736-0.19572-0.31769-0.94997-0.55697-0.24340
  -1   7  -5  103.74   48.60   1-0.50536 0.27461-0.78105-0.95947-0.36680 0.06316
  -1  -7  -5   74.24   45.99   1-0.18492-0.75896-0.37053 0.25976 0.91022 0.59706
   1   7   6  302.78   54.99   1-0.77759-0.23190-0.27714-0.94267-0.56439-0.23997
  -1   7  -6  215.36   58.20   1-0.48577 0.32020-0.79981-0.94501-0.35258 0.06645
  -1  -7  -6  276.23   43.89   1-0.20081-0.74902-0.35813 0.30553 0.91181 0.58788
  -2   0  20 3887.67  130.72   1 0.28526-0.28144-0.28859-0.83608-0.91396-0.47091
  -2   0  19   41.29   35.14   1 0.25535-0.28559-0.31395-0.82810-0.91445-0.48236
   2   0 -19   19.42   34.24   1-0.80447-0.26136 0.45120 0.96432 0.38630-0.04210
  -2   0  18  443.87   55.06   1 0.22422-0.29097-0.33948-0.82031-0.91349-0.49235
   2   0 -18  423.73   45.15   1-0.80754-0.29031 0.47473 0.95453 0.34999-0.06765
  -2   0  1641032.79  878.10   1 0.15763-0.30605-0.39133-0.80551-0.90664-0.50741
   2   0 -1636384.31  945.45   1-0.80914-0.34369 0.51831 0.93147 0.27684-0.11929
   2   0 -15    9.32   25.84   1-0.80785-0.36917 0.53762 0.91814 0.24151-0.14395
  -2   0  14 4205.25  140.46   1-0.46543-0.88083 0.81807 0.47203-0.33781 0.03633
  -2   0  14 4804.48  148.08   1 0.08382-0.32835-0.44461-0.79214-0.89178-0.51447
   2   0 -14 5059.79  155.64   1-0.80512-0.39228 0.55677 0.90393 0.20439-0.17030
  -2   0  13   -3.71   17.51   1-0.48179-0.87120 0.80348 0.49072-0.34969 0.01375
  -2   0  13   54.50   47.58   1 0.04351-0.34291-0.47192-0.78613-0.88056-0.51420
   2   0 -13   -2.37   31.24   1-0.80099-0.41400 0.57490 0.88871 0.16700-0.19693
  -2   0  1223169.20  424.05   1-0.49669-0.86011 0.78951 0.51004-0.36050-0.00775
  -2   0  1224976.93  416.01   1 0.00025-0.36104-0.49983-0.77996-0.86611-0.51116
   2   0 -1225786.77  344.51   1-0.79576-0.43546 0.59125 0.87225 0.13108-0.22259
  -2   0  11   -0.31   13.71   1-0.50982-0.84725 0.77662 0.53045-0.37004-0.02799
  -2   0  11   58.12   27.93   1-0.04602-0.38149-0.52812-0.77497-0.84792-0.50386
   2   0 -11    6.77   24.65   1-0.78889-0.45437 0.60744 0.85506 0.09306-0.24981
  -2   0  10   48.47   15.37   1-0.52062-0.83206 0.76560 0.55272-0.37788-0.04653
  -2   0  10   43.79   28.45   1-0.09599-0.40562-0.55681-0.77038-0.82507-0.49191
   2   0 -10   98.88   25.50   1-0.78058-0.47185 0.62265 0.83689 0.05465-0.27742
  -2   0   9   35.90   36.14   1-0.52798-0.81344 0.75786 0.57827-0.38322-0.06258
  -2   0   9   -1.24   30.27   1-0.15019-0.43399-0.58572-0.76601-0.79647-0.47420
   2   0  -9    5.03   31.59   1-0.77079-0.48785 0.63688 0.81773 0.01580-0.30545
  -2   0   7   24.61   27.35   1-0.27388-0.50632-0.64265-0.75569-0.71553-0.41540
   2   0  -7   18.50   26.02   1-0.74655-0.51518 0.66229 0.77638-0.06340-0.36306
  -2   0   6 5975.61  140.35   1-0.34371-0.55029-0.66871-0.74851-0.65929-0.36999
   2   0  -6 6114.84  129.10   1-0.73191-0.52633 0.67342 0.75412-0.10391-0.39276
  -2   0   5  102.35   21.38   1-0.41880-0.59950-0.69109-0.73764-0.58906-0.31059
   2   0  -5   -8.13   18.25   1-0.71544-0.53565 0.68342 0.73074-0.14514-0.42319
  -2   0   412975.40  226.35   1-0.49783-0.65266-0.70713-0.72044-0.50211-0.23447
   2   0  -412918.61  261.22   1-0.69698-0.54296 0.69222 0.70616-0.18719-0.45444
  -2   0   3    4.30   19.82   1-0.57797-0.70693-0.71328-0.69335-0.39643-0.13963
   2   0  -3   25.52   17.63   1-0.67630-0.54807 0.69972 0.68028-0.23021-0.48664
   2   0  -2 5493.94  132.71   1-0.19710-0.09356 0.96988 0.91654-0.14306-0.38884
  -2   0   2 5525.21  121.43   1-0.65454-0.75749-0.70548-0.65233-0.27178-0.02579
   2   0  -2 5544.11  121.69   1-0.65315-0.55071 0.70579 0.65296-0.27432-0.51995
   2   0  -1   30.85   12.91   1-0.42416-0.34664 0.85164 0.76491-0.30787-0.54289
  -2   0   1   36.61   19.74   1-0.72073-0.79783-0.68045-0.59403-0.13233 0.10284
   2   0  -1   17.93   15.30   1-0.62717-0.55052 0.71023 0.62402-0.31971-0.55454
   2   0   1   11.62   14.81   1-0.57036-0.54484 0.70943 0.55611-0.41398-0.62760
  -2   0  -1   18.24   17.05   1-0.79966-0.82484-0.57954-0.42677 0.15702 0.37080
   2   0   1    6.98   13.83   1-0.56490-0.53982 0.71312 0.56015-0.41512-0.62834
   2   0   2 4202.79  107.96   1-0.59647-0.59693 0.67585 0.48924-0.43293-0.63585
  -2   0  -2 4282.32  114.91   1-0.80926-0.80871-0.51314-0.32701 0.28596 0.48891
   2   0   2 3878.95  115.87   1-0.52735-0.52805 0.71075 0.52439-0.46553-0.66795
   2   0   3   18.16   16.95   1-0.61058-0.63702 0.65633 0.43643-0.44317-0.63538
  -2   0  -3  114.74   25.15   1-0.80351-0.77657-0.44540-0.22636 0.39494 0.58795
   2   0   3   20.26   14.35   1-0.48443-0.51092 0.70503 0.48529-0.51792-0.70953
   2   0   4 6265.26  132.63   1-0.61756-0.66999 0.64629 0.39310-0.44823-0.62975
  -2   0  -4 6435.85  134.87   1-0.78809-0.73542-0.38170-0.12925 0.48291 0.66516
   2   0   4 6086.09  141.20   1-0.43524-0.48752 0.69511 0.44199-0.57216-0.75296
   2   0   5   22.36   25.59   1-0.61991-0.69833 0.64284 0.35635-0.44995-0.62076
  -2   0  -5    9.30   19.52   1-0.76809-0.68968-0.32531-0.03947 0.55153 0.72303
  -2   0  -5    7.77   11.18   1 0.37604 0.45279-0.67912-0.39225 0.63038 0.80069
   2   0   7   35.11   22.10   1-0.61584-0.74622 0.64879 0.29571-0.44699-0.59640
  -2   0  -7   42.48   25.83   1-0.72735-0.59747-0.23797 0.11466 0.64367 0.79364
  -2   0  -7   10.17   13.27   1 0.24433 0.37271-0.63025-0.27661 0.73694 0.88576
   2   0   830119.42  499.10   1-0.61077-0.76714 0.65606 0.26969-0.44331-0.58202
   2   0   9    7.50   22.06   1-0.60420-0.78656 0.66528 0.24562-0.43854-0.56655
  -2   0  -9   16.46   31.18   1-0.69502-0.51390-0.18073 0.23876 0.69589 0.82394
  -2   0  -9    3.26   13.47   1 0.10400 0.28401-0.56122-0.14081 0.82110 0.94842
   2   0  1014497.80  226.26   1-0.59637-0.80471 0.67599 0.22303-0.43286-0.55016
  -2   0 -1014652.34  242.38   1-0.68311-0.47627-0.16128 0.29162 0.71228 0.82952
   2   0  11    6.04   20.25   1-0.58743-0.82176 0.68784 0.20158-0.42637-0.53297
  -2   0 -11   15.02   29.99   1-0.67385-0.44130-0.14666 0.33963 0.72416 0.83059
   2   0  1217876.25  268.53   1-0.57750-0.83781 0.70056 0.18102-0.41916-0.51506
  -2   0 -1217715.83  274.80   1-0.66702-0.40876-0.13613 0.38356 0.73249 0.82811
   2   0  13   -7.55   20.66   1-0.56665-0.85295 0.71396 0.16112-0.41129-0.49649
   2   0  1426414.31  591.25   1-0.55495-0.86723 0.72786 0.14173-0.40279-0.47729
  -2   0 -1426308.82  570.43   1-0.65961-0.34993-0.12492 0.46157 0.74114 0.81516
   2   0  15   14.70   35.71   1-0.54242-0.88069 0.74213 0.12271-0.39370-0.45750
   2   0  16 9020.58  230.66   1-0.52906-0.89337 0.75672 0.10406-0.38400-0.43710
  -2   0 -16 8734.79  216.74   1-0.65890-0.29780-0.12386 0.52944 0.74195 0.79435
   2   0  17  -14.06   26.61   1-0.51496-0.90526 0.77143 0.08548-0.37377-0.41616
  -2   0 -17    0.09   39.92   1-0.66053-0.27372-0.12630 0.56039 0.74009 0.78168
   2   0  18 6056.49  150.63   1-0.50009-0.91637 0.78622 0.06699-0.36297-0.39467
  -2   0 -18 6315.82  161.47   1-0.66325-0.25073-0.13041 0.58969 0.73693 0.76772
   2   0  19    1.83   31.52   1-0.48444-0.92671 0.80104 0.04852-0.35161-0.37260
  -2   0 -19   14.41   38.98   1-0.66693-0.22869-0.13598 0.61751 0.73260 0.75257
   2   0  20 2092.60   84.83   1-0.46801-0.93627 0.81582 0.03001-0.33969-0.34998
  -2   0 -20 1963.71   94.81   1-0.67141-0.20746-0.14288 0.64401 0.72717 0.73634
  -2  -1  20 7043.77  190.34   1 0.29601-0.36752-0.27928-0.76885-0.91344-0.52324
  -2   1  20 6535.03  204.98   1 0.28941-0.18045-0.28501-0.89040-0.91378-0.41787
   2  -1 -20 6325.35  203.55   1-0.77664-0.30409 0.34760 0.95206 0.52535 0.03313
  -2   1  19   85.75   41.15   1 0.25812-0.18599-0.31163-0.88369-0.91447-0.42951
  -2  -1  19   68.32   41.19   1 0.26806-0.36972-0.30327-0.75952-0.91442-0.53518
   2  -1 -19   69.95   42.84   1-0.78438-0.33772 0.36994 0.94110 0.49788 0.01642
   2   1 -19   94.15   42.79   1-0.80887-0.16902 0.52458 0.97947 0.26558-0.10985
  -2  -1  18 4099.57  123.05   1 0.23910-0.37292-0.32738-0.75031-0.91413-0.54585
  -2   1  18 3886.89  122.87   1 0.22543-0.19293-0.33850-0.87724-0.91355-0.43956
   2  -1 -18 4001.86  128.32   1-0.79081-0.37033 0.39086 0.92890 0.47098 0.00034
   2   1 -18 3937.59  137.71   1-0.80655-0.19356 0.54811 0.97057 0.22145-0.14327
  -2   1  17 1474.37   68.49   1 0.19114-0.20146-0.36570-0.87111-0.91089-0.44784
  -2  -1  17 1448.19   79.00   1 0.20901-0.37726-0.35165-0.74125-0.91249-0.55517
   2  -1 -17 1462.12   70.38   1-0.79621-0.40161 0.41095 0.91567 0.44402-0.01585
   2   1 -17 1519.99   72.56   1-0.80201-0.21487 0.57103 0.96013 0.17517-0.17878
  -2   1  16 1528.48   77.56   1 0.15503-0.21181-0.39328-0.86537-0.90625-0.45416
  -2  -1  16 1438.22   70.79   1 0.17764-0.38287-0.37613-0.73241-0.90937-0.56300
   2  -1 -16 1496.50   66.81   1-0.80056-0.43185 0.42998 0.90138 0.41737-0.03174
   2   1 -16 1525.11   67.57   1-0.79564-0.23531 0.59155 0.94818 0.13039-0.21345
  -2   1  15  202.33   30.29   1-0.63922-0.98407 0.61329 0.17587-0.46396-0.02592
  -2  -1  15  250.95   39.79   1 0.14481-0.38995-0.40090-0.72385-0.90460-0.56919
  -2   1  15  211.46   35.77   1 0.11684-0.22425-0.42131-0.86008-0.89935-0.45822
   2  -1 -15  241.68   32.56   1-0.80395-0.46112 0.44799 0.88607 0.39109-0.04726
   2   1 -15  219.89   33.32   1-0.78684-0.25230 0.61154 0.93478 0.08300-0.25003
  -2   1  14 8834.15  246.06   1-0.66600-0.98486 0.56811 0.16398-0.48340-0.05606
  -2  -1  14 9019.51  240.95   1 0.11031-0.39870-0.42599-0.71561-0.89797-0.57352
  -2   1  14 9372.94  234.85   1 0.07623-0.23911-0.44985-0.85529-0.88984-0.45966
   2  -1 -14 9281.78  235.37   1-0.80644-0.48950 0.46500 0.86976 0.36525-0.06235
   2   1 -14 9589.49  235.33   1-0.77579-0.26704 0.63001 0.91987 0.03497-0.28725
  -2  -1  13 2530.55   93.09   1-0.18880-0.67468 0.97240 0.71748-0.13703 0.17323
  -2   1  13 2815.95   93.51   1-0.69316-0.98561 0.51613 0.14533-0.50311-0.08628
  -2   1  13 2881.85   88.57   1 0.03283-0.25675-0.47894-0.85105-0.87722-0.45801
  -2  -1  13 2914.04   99.76   1 0.07387-0.40938-0.45147-0.70777-0.88921-0.57572
   2  -1 -13 3019.59   91.29   1-0.80812-0.51706 0.48104 0.85248 0.33991-0.07693
   2   1 -13 3046.93   86.88   1-0.76242-0.27944 0.64693 0.90341-0.01375-0.32518
  -2  -1  12 7342.63  183.86   1-0.17093-0.63082 0.97744 0.75581-0.12406 0.17550
  -2   1  12 8094.10  185.07   1-0.71942-0.98590 0.45798 0.12048-0.52217-0.11607
  -2  -1  12 8136.44  166.24   1 0.03519-0.42230-0.47740-0.70037-0.87797-0.57543
  -2   1  12 8222.25  184.11   1-0.01397-0.27861-0.50871-0.84690-0.86082-0.45290
   2  -1 -12 8523.12  162.09   1-0.80904-0.54387 0.49610 0.83422 0.31516-0.09092
   2   1 -12 8394.36  174.85   1-0.74661-0.28942 0.66224 0.88534-0.06323-0.36385
  -2  -1  11    2.12   12.45   1-0.14190-0.57581 0.98450 0.79617-0.10299 0.18587
  -2   1  11   -1.11   14.22   1-0.74510-0.98561 0.39030 0.08608-0.54081-0.14543
  -2  -1  11    6.61   24.66   1-0.00630-0.43843-0.50394-0.69272-0.86371-0.57262
  -2   1  11    2.18   20.78   1-0.06432-0.30312-0.53884-0.84376-0.83994-0.44291
   2  -1 -11   -3.79   26.73   1-0.80928-0.57000 0.51019 0.81500 0.29111-0.10421
   2   1 -11    9.18   22.10   1-0.72823-0.29683 0.67586 0.86558-0.11349-0.40330
  -2  -1  10 7535.31  162.66   1-0.09713-0.50506 0.99277 0.83772-0.07050 0.20766
  -2   1  10 8062.27  169.92   1-0.76946-0.98400 0.30984 0.03892-0.55849-0.17383
  -2  -1  10 7992.14  162.38   1-0.05067-0.45696-0.53087-0.68637-0.84593-0.56574
  -2   1  10 8152.45  158.55   1-0.11893-0.33190-0.56933-0.84096-0.81345-0.42732
   2  -1 -10 8160.29  173.64   1-0.80893-0.59554 0.52331 0.79480 0.26787-0.11669
   2   1 -10 7750.06  188.29   1-0.70713-0.30152 0.68766 0.84399-0.16455-0.44356
  -2  -1   9  601.24   38.73   1-0.02966-0.41152 0.99932 0.87753-0.02153 0.24613
  -2   1   9  618.90   39.42   1-0.79106-0.97942 0.21107-0.02620-0.57416-0.20010
  -2  -1   9  622.23   44.44   1-0.09858-0.47904-0.55824-0.68047-0.82379-0.55450
  -2   1   9  703.40   49.45   1-0.17839-0.36553-0.59983-0.83819-0.77998-0.40474
   2  -1  -9  602.39   42.91   1-0.80813-0.62129 0.53470 0.77323 0.24699-0.12692
   2   1  -9  609.95   38.91   1-0.68312-0.30329 0.69749 0.82044-0.21644-0.48464
  -2  -1   8  381.12   31.20   1 0.07140-0.28448 0.99610 0.90759 0.05182 0.30876
  -2   1   8  396.24   31.32   1-0.80601-0.96841 0.08992-0.11407-0.58502-0.22172
  -2  -1   8  423.85   41.40   1-0.15061-0.50523-0.58593-0.67488-0.79623-0.53783
  -2   1   8  405.67   32.99   1-0.24319-0.40450-0.62975-0.83483-0.73773-0.37339
   2  -1  -8  386.81   33.21   1-0.80687-0.64586 0.54582 0.75100 0.22589-0.13726
   2   1  -8  372.52   33.91   1-0.65598-0.30194 0.70516 0.79473-0.26912-0.52652
  -2  -1   7  690.10   42.25   1 0.21893-0.11096 0.96271 0.90750 0.15890 0.40512
  -2   1   7  786.52   45.13   1-0.80777-0.94420-0.06129-0.23201-0.58629-0.23375
  -2  -1   7  737.22   48.48   1-0.20735-0.53614-0.61364-0.66931-0.76186-0.51435
  -2   1   7  751.33   46.79   1-0.31427-0.45018-0.65830-0.82943-0.68400-0.33071
   2  -1  -7  767.05   50.25   1-0.80528-0.67012 0.55587 0.72770 0.20619-0.14620
   2   1  -7  757.82   43.26   1-0.62548-0.29722 0.71044 0.76663-0.32255-0.56915
  -2   1   5   82.25   19.80   1-0.71541-0.79991-0.46748-0.56994-0.51926-0.18787
   2   1  -5   94.63   22.09   1-0.63161-0.35410-0.62522-0.63855-0.45843-0.68327
  -2  -1   5   83.69   24.80   1-0.33747-0.61471-0.66658-0.65505-0.66466-0.43935
  -2   1   5   81.31   21.82   1-0.47035-0.55451-0.70253-0.80717-0.53404-0.20242
   2  -1  -5  100.28   27.78   1-0.80166-0.71819 0.57240 0.67753 0.17228-0.15858
   2   1  -5   87.40   23.51   1-0.55335-0.27666 0.71268 0.70210-0.43113-0.65612
   2   1  -4 3632.73   97.68   1-0.75366-0.50214-0.36435-0.41090-0.54702-0.76092
  -2   1   4 3604.14  102.72   1-0.59051-0.64902-0.68379-0.75303-0.42861-0.10815
  -2  -1   4 3663.62  105.68   1-0.41091-0.66228-0.68904-0.64427-0.59696-0.38248
  -2   1   4 3641.20   93.78   1-0.55228-0.61057-0.71263-0.78402-0.43259-0.11180
   2  -1  -4 3693.68  107.27   1-0.79993-0.74230 0.57862 0.65040 0.15901-0.16109
   2   1  -4 3774.01  107.53   1-0.51122-0.26033 0.70895 0.66499-0.48582-0.70000
   2   1  -3 1230.89   52.33   1-0.79852-0.57318-0.16262-0.24141-0.57958-0.78305
  -2  -1   3 1203.72   54.76   1-0.48894-0.71445-0.70577-0.62775-0.51265-0.30900
  -2   1   3 1241.14   53.64   1-0.63181-0.66401-0.70959-0.74771-0.31188-0.00203
   2  -1  -3 1266.48   56.59   1-0.79853-0.76675 0.58319 0.62161 0.14907-0.16026
   2   1  -3 1229.17   55.65   1-0.46480-0.23969 0.70147 0.62413-0.54026-0.74364
   2  -1  -2 2388.16   82.68   1 0.23391 0.24085 0.95731 0.96190 0.16978-0.12934
   2   1  -2 2448.24   78.50   1-0.80884-0.60926-0.03343-0.14515-0.58707-0.77957
  -2  -1   2 2346.28   79.60   1-0.56897-0.76860-0.71321-0.60195-0.40938-0.21656
  -2   1   2 2386.95   76.48   1-0.70219-0.70853-0.68996-0.69481-0.17571 0.12334
   2  -1  -2 2466.53   80.85   1-0.79770-0.79176 0.58573 0.59080 0.14346-0.15511
   2   1  -2 2446.07   82.70   1-0.41399-0.21467 0.68985 0.57912-0.59389-0.78646
   2  -1  -1 8460.61  168.52   1 0.05934 0.04031 0.99730 0.96860 0.04307-0.24532
   2   1  -1 8497.31  164.85   1-0.80793-0.63431 0.05792-0.08707-0.58641-0.76815
  -2  -1   1 8126.34  164.30   1-0.64625-0.81996-0.70719-0.56276-0.28676-0.10465
  -2   1   1 8455.53  149.55   1-0.75752-0.73771-0.65212-0.62373-0.02984 0.25831
  -2  -1   1 8670.02  175.57   1 0.35800 0.18311-0.67345-0.52928 0.64675 0.82844
   2  -1  -1 8321.54  173.21   1-0.79772-0.81762 0.58567 0.55739 0.14360-0.14421
   2  -1   0  631.39   38.71   1-0.08188-0.12689 0.99486 0.93287-0.05943-0.33711
   2   1   0  657.62   40.66   1-0.80282-0.65516 0.12619-0.05208-0.58270-0.75368
  -2  -1   0  616.77   40.31   1-0.71411-0.86196-0.68413-0.50644-0.14832 0.02297
  -2   1   0  670.43   43.41   1-0.79304-0.74705-0.59819-0.53659 0.11511 0.39240
  -2  -1   0  694.79   41.90   1 0.29918 0.15011-0.65263-0.47508 0.69609 0.86703
   2  -1   0  614.68   39.59   1-0.79890-0.84464 0.58204 0.52041 0.15159-0.12545
  -2   1  -116905.66  272.42   1-0.80818-0.73647-0.53413-0.43917 0.24805 0.51451
   2  -1   3 1604.15   61.42   1-0.32396-0.44685 0.91637 0.75452-0.23514-0.48064
   2   1   3 1638.66   64.03   1-0.77946-0.70969 0.26901-0.00911-0.56575-0.70445
  -2  -1  -3 1653.86   64.22   1-0.80893-0.87955-0.52337-0.24605 0.26777 0.40722
  -2   1  -3 1730.46   65.04   1-0.79355-0.66952-0.40068-0.23966 0.45795 0.70305
  -2  -1  -3 1654.72   65.74   1 0.10851 0.03689-0.56369-0.28597 0.81882 0.95752
   2  -1   3 1681.28   64.99   1-0.80894-0.93207 0.52314 0.36149 0.26818 0.02347
   2  -1   4 2316.07   78.28   1-0.36494-0.51381 0.89255 0.69739-0.26488-0.49962
   2   1   4 2453.12   80.19   1-0.77027-0.72633 0.30677-0.00452-0.55908-0.68732
  -2  -1  -4 2430.56   84.64   1-0.80544-0.85034-0.45757-0.14689 0.37667 0.50531
  -2   1  -4 2371.36   84.87   1-0.77440-0.62464-0.34154-0.14712 0.53258 0.76692
  -2  -1  -4 2469.95   77.93   1 0.04501-0.00078-0.52752-0.21641 0.84834 0.97630
   2  -1   4 2400.15   81.52   1-0.80531-0.95433 0.45667 0.26170 0.37805 0.14409
   2  -1   5 6654.27  145.14   1-0.39419-0.56906 0.87335 0.64490-0.28611-0.51015
   2   1   5 6629.54  158.12   1-0.76065-0.74268 0.34143-0.00315-0.55210-0.66962
  -2  -1  -5 6713.39  152.12   1-0.79253-0.81121-0.39695-0.05308 0.46293 0.58233
  -2   1  -5 6842.31  136.57   1-0.75313-0.57763-0.29038-0.06256 0.59031 0.81389
  -2  -1  -5 6743.06  147.85   1-0.01550-0.03548-0.49016-0.14567 0.87149 0.98869
   2  -1   5 6320.91  151.29   1-0.75343-0.92833 0.29104 0.06276 0.58960 0.36640
   2  -1   6 3399.63   96.20   1-0.41482-0.61568 0.85864 0.59690-0.30109-0.51443
   2   1   6 3297.07   99.02   1-0.75056-0.75856 0.37398-0.00391-0.54477-0.65158
  -2  -1  -6 3368.20   99.78   1-0.77486-0.76780-0.34278 0.03448 0.53110 0.63975
  -2   1  -6 3457.02   97.13   1-0.73232-0.53109-0.24750 0.01371 0.63437 0.84720
  -2  -1  -6 3573.29   98.41   1-0.07136-0.06552-0.45319-0.07532 0.88854 0.99500
   2  -1   7 1040.38   51.34   1-0.42894-0.65579 0.84798 0.55295-0.31134-0.51397
   2   1   7 1053.98   51.83   1-0.74000-0.77397 0.40485-0.00632-0.53710-0.63318
  -2  -1  -7 1081.66   54.91   1-0.75607-0.72328-0.29694 0.11372 0.58323 0.68112
  -2   1  -7 1028.41   56.30   1-0.71340-0.48660-0.21235 0.08250 0.66780 0.86971
  -2  -1  -7 1107.59   53.48   1-0.12158-0.08965-0.41789-0.00681 0.90032 0.99594
   2  -1   8 9622.97  197.89   1-0.43805-0.69089 0.84084 0.51252-0.31795-0.50988
   2   1   8 9429.26  187.86   1-0.72895-0.78889 0.43438-0.01009-0.52909-0.61444
  -2  -1  -8 9347.84  191.88   1-0.73829-0.67976-0.25928 0.18479 0.62265 0.70977
  -2   1  -8 9625.38  169.67   1-0.69705-0.44454-0.18411 0.14414 0.69297 0.88408
  -2  -1  -8 9609.40  193.65   1-0.16477-0.10700-0.38595 0.05849 0.90768 0.99253
   2  -1   9 3421.97  103.65   1-0.44321-0.72204 0.83670 0.47509-0.32169-0.50292
   2   1   9 3410.06   89.00   1-0.71741-0.80332 0.46278-0.01499-0.52071-0.59535
  -2  -1  -9 3301.52   99.37   1-0.72259-0.63832-0.22905 0.24841 0.65221 0.72857
  -2   1  -9 3329.42   94.68   1-0.68346-0.40524-0.16185 0.19980 0.71180 0.89210
  -2  -1  -9 3361.33   99.50   1-0.20072-0.11712-0.35820 0.11960 0.91181 0.98588
   2  -1  1020447.20  314.15   1-0.44519-0.75001 0.83509 0.44020-0.32313-0.49366
   2   1  1020273.68  302.94   1-0.70538-0.81725 0.49021-0.02085-0.51198-0.57589
  -2  -1 -1020388.65  371.06   1-0.70913-0.59940-0.20480 0.30594 0.67467 0.73967
  -2   1 -1020285.51  351.03   1-0.67259-0.36865-0.14470 0.25035 0.72572 0.89521
  -2  -1 -1019709.34  365.72   1-0.22944-0.12001-0.33525 0.17591 0.91376 0.97706
   2  -1  11  192.11   33.71   1-0.44455-0.77536 0.83561 0.40742-0.32267-0.48250
   2   1  11  177.89   32.58   1-0.69283-0.83068 0.51681-0.02755-0.50287-0.55606
  -2  -1 -11  160.46   55.23   1-0.69851-0.56307-0.18656 0.35758 0.69084 0.74504
  -2   1 -11  129.43  104.53   1-0.66423-0.33458-0.13188 0.29657 0.73579 0.89448
  -2  -1 -11  159.89   25.49   1-0.25119-0.11592-0.31740 0.22712 0.91441 0.96694
   2  -1  12 7062.45  165.02   1-0.44172-0.79852 0.83790 0.37642-0.32061-0.46974
   2   1  12 7034.96  163.30   1-0.67964-0.84350 0.54289-0.03469-0.49330-0.53599
  -2  -1 -12 7030.28  150.74   1-0.69036-0.52920-0.17302 0.40452 0.70247 0.74585
  -2   1 -12 6845.54  143.73   1-0.65815-0.30279-0.12274 0.33911 0.74280 0.89068
  -2  -1 -12 6182.42  205.16   1-0.26772-0.10571-0.30356 0.27383 0.91442 0.95595
   2  -1  13   36.94   21.75   1-0.43700-0.81979 0.84167 0.34690-0.31719-0.45561
   2   1  13   25.14   23.35   1-0.66602-0.85587 0.56807-0.04279-0.48341-0.51540
  -2  -1 -13   43.66   38.57   1-0.68446-0.49759-0.16345 0.44749 0.71048 0.74306
  -2   1 -13   18.17   49.68   1-0.65410-0.27303-0.11673 0.37852 0.74733 0.88440
  -2  -1 -13   18.52   21.24   1-0.27679-0.08890-0.29585 0.31484 0.91425 0.94497
   2  -1  14 2548.15   89.56   1-0.43064-0.83942 0.84666 0.31861-0.31257-0.44029
   2   1  14 2465.84   79.07   1-0.65186-0.86769 0.59264-0.05152-0.47313-0.49442
  -2  -1 -14 2492.34   88.32   1-0.68058-0.46800-0.15725 0.48709 0.71559 0.73736
  -2   1 -14 2447.96   82.74   1-0.65184-0.24506-0.11341 0.41524 0.74981 0.87607
   2  -1  15  152.21   32.01   1-0.42280-0.85757 0.85267 0.29133-0.30688-0.42390
   2   1  15  157.31   38.30   1-0.63712-0.87894 0.61662-0.06084-0.46244-0.47302
  -2  -1 -15  169.14   45.05   1-0.67848-0.44019-0.15392 0.52382 0.71830 0.72927
  -2   1 -15  144.53   34.89   1-0.65116-0.21866-0.11240 0.44965 0.75057 0.86602
   2  -1  1611705.98  291.51   1-0.41363-0.87439 0.85952 0.26488-0.30022-0.40654
   2   1  1611514.34  285.49   1-0.62180-0.88961 0.64004-0.07070-0.45132-0.45120
  -2  -1 -1611793.12  295.62   1-0.67793-0.41393-0.15306 0.55808 0.71900 0.71916
  -2   1 -1611268.54  258.38   1-0.65183-0.19363-0.11339 0.48205 0.74983 0.85447
   2  -1  17   56.53   36.99   1-0.40322-0.88997 0.86703 0.23910-0.29267-0.38829
   2   1  17   70.79   30.64   1-0.60588-0.89967 0.66294-0.08110-0.43976-0.42895
  -2   1 -17   95.78   59.80   1-0.65371-0.16979-0.11615 0.51270 0.74777 0.84160
  -2  -1 -17   34.84   54.22   1-0.67874-0.38903-0.15433 0.59021 0.71797 0.70731
   2  -1  18 1285.88   65.95   1-0.39166-0.90440 0.87508 0.21387-0.28428-0.36919
   2   1  18 1421.69   70.23   1-0.58934-0.90912 0.68534-0.09200-0.42776-0.40624
  -2   1 -18 1361.37   69.72   1-0.65662-0.14700-0.12046 0.54178 0.74453 0.82756
  -2  -1 -18 1519.28   79.20   1-0.68072-0.36530-0.15747 0.62047 0.71541 0.69395
   2  -1  19  110.73   42.46   1-0.37900-0.91773 0.88355 0.18905-0.27509-0.34930
   2   1  19  108.31   40.56   1-0.57215-0.91791 0.70723-0.10340-0.41528-0.38306
  -2   1 -19  132.30   45.75   1-0.66044-0.12510-0.12616 0.56949 0.74020 0.81242
  -2  -1 -19  134.49   38.36   1-0.68372-0.34258-0.16226 0.64908 0.71147 0.67920
  -2   2  19 1046.67   71.09   1 0.27899-0.06828-0.29397-0.92394-0.91418-0.37637
  -2  -2  19 1056.36   63.52   1 0.29422-0.44039-0.28084-0.67918-0.91354-0.58716
   2  -2 -19 1020.07   68.06   1-0.75055-0.40062 0.28476 0.91415 0.59630 0.06187
  -2  -2  18 5676.54  135.53   1 0.26792-0.44093-0.30339-0.66841-0.91442-0.59900
  -2   2  18 5416.36  146.02   1 0.24552-0.07600-0.32210-0.91874-0.91431-0.38745
   2  -2 -18 5736.11  139.02   1-0.75872-0.43469 0.30294 0.89901 0.57668 0.05301
   2   2 -18 5451.22  159.39   1-0.78907-0.08028 0.60705 0.97255 0.09400-0.21838
  -2   2  17   10.58   50.18   1 0.21028-0.08548-0.35064-0.91396-0.91259-0.39669
   2  -2 -17   26.46   38.34   1-0.76591-0.46778 0.31994 0.88270 0.55768 0.04477
   2   2 -17   14.62   37.51   1-0.77692-0.09392 0.62834 0.96046 0.03949-0.26209
  -2  -2  1618643.40  366.66   1 0.21266-0.44469-0.34875-0.64712-0.91276-0.61925
  -2   2  1618828.61  341.37   1 0.17302-0.09698-0.37967-0.90966-0.90879-0.40384
   2  -2 -1619741.28  352.10   1-0.77221-0.49997 0.33578 0.86523 0.53938 0.03723
   2   2 -1619033.08  404.80   1-0.76193-0.10472 0.64747 0.94619-0.01539-0.30617
  -2   2  15 3472.12  122.66   1-0.74527-0.99317 0.38981-0.10562-0.54093-0.04952
  -2  -2  15 3605.30  131.04   1 0.18345-0.44814-0.37166-0.63671-0.91005-0.62750
  -2   2  15 3529.24  112.61   1 0.13342-0.11083-0.40928-0.90595-0.90259-0.40860
   2  -2 -15 3469.33  119.02   1-0.77768-0.53134 0.35046 0.84660 0.52190 0.03051
   2   2 -15 3358.96  120.41   1-0.74405-0.11262 0.66437 0.92972-0.07063-0.35061
  -2   2  1411640.98  266.08   1-0.76563-0.98756 0.32399-0.13814-0.55571-0.07502
  -2  -2  1411458.50  235.45   1 0.15299-0.45285-0.39481-0.62653-0.90593-0.63433
  -2   2  1411885.15  222.83   1 0.09111-0.12739-0.43955-0.90289-0.89358-0.41055
   2  -2 -1411810.67  222.20   1-0.78239-0.56195 0.36396 0.82680 0.50535 0.02473
   2   2 -1411704.40  240.93   1-0.72320-0.11756 0.67899 0.91096-0.12621-0.39538
  -2  -2  13   10.90   20.42   1 0.06482-0.51747 0.99678 0.79974 0.04704 0.30434
  -2   2  13    9.16   19.83   1-0.78343-0.97916 0.25078-0.17762-0.56863-0.09840
  -2  -2  13   26.82   26.38   1 0.12109-0.45899-0.41825-0.61664-0.90022-0.63958
  -2   2  13   16.61   29.61   1 0.04563-0.14711-0.47051-0.90053-0.88120-0.40913
   2  -2 -13    6.31   22.76   1-0.78641-0.59186 0.37626 0.80579 0.48987 0.02001
   2   2 -13    9.85   23.02   1-0.69932-0.11947 0.69122 0.88980-0.18205-0.44042
  -2  -2  12 5023.11  134.60   1 0.09524-0.46107 0.99305 0.82929 0.06913 0.31570
  -2   2  12 5176.47  155.08   1-0.79740-0.96717 0.17077-0.22435-0.57877-0.11930
  -2  -2  12 5273.78  132.92   1 0.08751-0.46682-0.44205-0.60712-0.89270-0.64302
  -2   2  12 5353.39  131.06   1-0.00373-0.17170-0.50234-0.89860-0.86466-0.40377
   2  -2 -12 5482.19  118.47   1-0.78970-0.62127 0.38705 0.78341 0.47597 0.01690
   2   2 -12 5354.59  137.24   1-0.67232-0.11825 0.70093 0.86612-0.23807-0.48563
  -2  -2  11 5968.72  156.58   1 0.13450-0.39583 0.98609 0.85563 0.09762 0.33347
  -2   2  11 6164.65  148.82   1-0.80654-0.95035 0.08232-0.27952-0.58541-0.13670
  -2  -2  11 6176.30  151.37   1 0.05199-0.47659-0.46628-0.59802-0.88310-0.64437
  -2   2  11 6171.28  149.55   1-0.05710-0.19924-0.53464-0.89762-0.84314-0.39314
   2  -2 -11 6363.72  141.71   1-0.79249-0.64994 0.39679 0.75983 0.46314 0.01483
   2   2 -11 6391.51  135.00   1-0.64209-0.11381 0.70795 0.83977-0.29412-0.53087
  -2  -2  10  267.90   28.33   1 0.18366-0.32071 0.97390 0.87673 0.13330 0.35843
  -2   2  10  290.34   31.63   1-0.80919-0.92704-0.01533-0.34390-0.58733-0.14938
  -2  -2  10  285.51   38.55   1 0.01417-0.48865-0.49101-0.58942-0.87103-0.64326
  -2   2  10  274.98   35.90   1-0.11534-0.23165-0.56739-0.89710-0.81532-0.37622
   2  -2 -10  286.38   35.96   1-0.79473-0.67807 0.40513 0.73485 0.45195 0.01440
   2   2 -10  260.34   32.87   1-0.60857-0.10607 0.71213 0.81056-0.35001-0.57596
  -2  -2   9  136.03   24.23   1 0.24330-0.23509 0.95374 0.88985 0.17659 0.39099
  -2   2   9  143.44   26.59   1-0.80319-0.89507-0.12251-0.41780-0.58297-0.15578
  -2  -2   9  255.08   39.12   1-0.02667-0.50380-0.51649-0.58065-0.85587-0.63954
  -2   2   9  183.06   35.58   1-0.17908-0.26955-0.60017-0.89659-0.77956-0.35135
   2  -2  -9  180.62   52.48   1-0.79645-0.70568 0.41194 0.70834 0.44266 0.01587
   2   2  -9  142.51   26.95   1-0.57168-0.09497 0.71325 0.77830-0.40551-0.62066
  -2   2   7 8667.89  183.29   1-0.75362-0.79308-0.36445-0.59256-0.54700-0.14099
  -2  -2   7 8537.58  171.85   1-0.11813-0.54359-0.56890-0.56650-0.81387-0.61933
  -2   2   7 8625.81  177.19   1-0.32544-0.36480-0.66235-0.89156-0.67481-0.26837
   2  -2  -7 8538.55  165.42   1-0.79844-0.75944 0.42029 0.65005 0.43109 0.02581
   2   2  -7 8762.48  184.12   1-0.48777-0.06263 0.70558 0.70386-0.51402-0.70756
  -2   2   6   15.82   19.01   1-0.70437-0.71836-0.49241-0.68598-0.51125-0.11565
   2   2  -6   17.51   14.34   1-0.47852-0.07852-0.80645-0.84446-0.34732-0.52982
  -2  -2   6   23.85   21.77   1-0.17026-0.56989-0.59583-0.56015-0.78484-0.60120
  -2   2   6   19.90   17.17   1-0.40663-0.42012-0.68790-0.88387-0.60119-0.20558
   2  -2  -6   42.75   26.77   1-0.79868-0.78556 0.42133 0.61777 0.42963 0.03511
   2   2  -6   38.08   23.53   1-0.44089-0.04154 0.69642 0.66132-0.56621-0.74894
  -2   2   5 1433.50   59.75   1-0.63759-0.62559-0.61587-0.77623-0.46278-0.07811
   2   2  -5 1435.79   58.82   1-0.55670-0.18268-0.72581-0.79704-0.40406-0.57562
  -2  -2   5 1461.13   64.40   1-0.22764-0.60143-0.62290-0.55394-0.74844-0.57569
  -2   2   5 1434.01   57.85   1-0.49135-0.47897-0.70615-0.86887-0.50982-0.12504
  -2  -2   5 1416.94   63.74   1 0.39071 0.01582-0.68346-0.61522 0.61662 0.78819
   2  -2  -5 1498.06   61.46   1-0.79833-0.81110 0.41979 0.58292 0.43178 0.04802
   2   2  -3 7991.37  149.33   1-0.68431-0.36228-0.53385-0.67152-0.49669-0.64637
  -2   2   3 7665.09  192.99   1-0.45748-0.39348-0.82489-0.91881-0.33205 0.03074
  -2  -2   3 7735.89  176.01   1-0.36105-0.68309-0.67443-0.53833-0.64403-0.49354
  -2   2   3 7948.14  163.48   1-0.65528-0.59087-0.70532-0.80144-0.27041 0.09252
  -2  -2   3 8277.48  156.34   1 0.28346-0.03978-0.64650-0.51149 0.70828 0.85836
   2  -2  -3 8070.25  172.88   1-0.79515-0.85970 0.40675 0.50324 0.44975 0.08751
   2  -2  -212068.46  230.44   1 0.35920 0.26960 0.89610 0.95859 0.26071-0.09166
   2   2  -212079.80  207.20   1-0.72887-0.43292-0.43459-0.60459-0.52903-0.66861
  -2  -2   211521.78  231.18   1-0.43714-0.73332-0.69556-0.52621-0.57016-0.43050
  -2   2   211733.14  216.47   1-0.72187-0.63160-0.67979-0.74265-0.12954 0.22259
  -2  -2   212405.82  235.76   1 0.22719-0.07023-0.62270-0.45430 0.74874 0.88807
   2  -2  -211444.58  231.35   1-0.79158-0.88201 0.39354 0.45672 0.46745 0.11596
   2  -2  -1 3844.35  112.98   1 0.25628 0.14071 0.94853 0.97773 0.18601-0.15564
   2   2  -1 3828.31   99.45   1-0.76121-0.49122-0.33952-0.54278-0.55251-0.68123
  -2  -2   1 3623.84  101.24   1-0.51782-0.78812-0.70974-0.50715-0.47762-0.34878
  -2   2   1 3860.00  101.68   1-0.77101-0.65447-0.63660-0.66612 0.01661 0.35768
  -2  -2   1 3883.95  106.28   1 0.17015-0.10146-0.59578-0.39399 0.78491 0.91349
   2  -2  -1 3743.89  108.74   1-0.78582-0.90202 0.37442 0.40423 0.49222 0.15151
   2  -2   1 2438.42   81.36   1 0.07194-0.09557 0.99604 0.95866 0.05221-0.26799
   2   2   1 2407.80   76.73   1-0.79740-0.57930-0.17076-0.44054-0.57877-0.68579
  -2  -2  -1 2255.87   81.46   1-0.67484-0.89345-0.70017-0.43121-0.23310-0.12567
  -2   2  -1 2419.17   89.06   1-0.80921-0.64060-0.51582-0.47867 0.28125 0.60040
  -2  -2  -1 2444.79   81.34   1 0.05741-0.16256-0.53482-0.26626 0.84300 0.95009
   2  -2   1 2301.80   76.95   1-0.76099-0.92897 0.30820 0.27138 0.57087 0.25169
   2  -2   2  555.34   38.47   1-0.00371-0.19721 0.99998 0.92932-0.00269-0.31218
   2   2   2  563.72   38.70   1-0.80543-0.61322-0.09748-0.40033-0.58460-0.68093
  -2  -2  -2  537.04   38.41   1-0.73688-0.92985-0.66991-0.36787-0.09062 0.00642
  -2   2  -2  550.67   47.74   1-0.80444-0.61011-0.45097-0.38046 0.38665 0.69498
  -2  -2  -2  651.38   44.12   1 0.00365-0.19050-0.50229-0.20034 0.86469 0.96102
   2  -2   2  532.71   38.36   1-0.73570-0.92958 0.25413 0.18400 0.62781 0.31939
   2  -2   318026.80  327.35   1-0.06754-0.28701 0.99651 0.89255-0.04902-0.34779
  -2  -2  -318102.28  279.97   1-0.04712-0.21547-0.46952-0.13419 0.88165 0.96724
   2  -2   317591.82  279.75   1-0.69333-0.91318 0.17792 0.07419 0.69830 0.40073
   2  -2   5 2675.88   82.83   1-0.16329-0.43464 0.97943 0.80893-0.11852-0.39585
   2   2   5 2694.14   85.92   1-0.80623-0.69191 0.08687-0.31582-0.58518-0.64923
  -2  -2  -5 2745.80   86.70   1-0.80927-0.92534-0.50526-0.10340 0.29963 0.36475
  -2   2  -5 2715.39   88.25   1-0.75134-0.47875-0.28648-0.11668 0.59448 0.87015
  -2  -2  -5 2724.69   89.13   1-0.13689-0.25337-0.40674-0.00473 0.90322 0.96735
   2  -2   5 2658.72   85.04   1-0.49711-0.76831-0.08208-0.25307 0.86379 0.58791
   2  -2   614721.60  275.28   1-0.19780-0.49513 0.96967 0.76588-0.14356-0.41019
   2   2   614509.04  260.44   1-0.80145-0.71309 0.13888-0.29709-0.58171-0.63500
  -2  -2  -614948.27  261.68   1-0.80391-0.89393-0.44775-0.01245 0.39146 0.44801
  -2   2  -614667.68  264.75   1-0.73193-0.43360-0.24674-0.04354 0.63513 0.90004
  -2  -2  -614840.90  234.60   1-0.17493-0.26557-0.37821 0.05715 0.90903 0.96239
   2  -2   7 8029.04  168.50   1-0.22511-0.54843 0.96053 0.72345-0.16339-0.41932
   2   2   7 8089.15  166.20   1-0.79496-0.73257 0.18730-0.28195-0.57700-0.61954
  -2  -2  -7 8196.63  185.64   1-0.79202-0.85631-0.39510 0.07359 0.46539 0.51118
  -2   2  -7 8085.89  169.23   1-0.71440-0.39050-0.21414 0.02287 0.66615 0.92031
  -2  -2  -7 8006.14  169.25   1-0.20803-0.27284-0.35242 0.11630 0.91242 0.95500
   2   2   9   23.63   25.71   1-0.77800-0.76753 0.27537-0.26044-0.56469-0.58571
  -2  -2  -9   16.92   16.72   1-0.76276-0.77558-0.31237 0.22312 0.56622 0.59049
  -2   2  -9    3.70   45.37   1-0.68640-0.31108-0.16658 0.13722 0.70788 0.94042
  -2  -2  -9    8.98   26.77   1-0.25992-0.27233-0.31012 0.22508 0.91447 0.93550
   2  -2  10 2752.89   89.29   1-0.27436-0.67564 0.94077 0.60382-0.19914-0.42296
   2   2  10 2835.38   84.25   1-0.76777-0.78316 0.31617-0.25294-0.55727-0.56803
  -2  -2 -10 2759.13   88.46   1-0.74925-0.73633-0.28197 0.28692 0.59925 0.61276
  -2   2 -10 2725.31   82.78   1-0.67611-0.27507-0.15019 0.18701 0.72132 0.94305
  -2  -2 -10 2748.24   86.88   1-0.27855-0.26508-0.29435 0.27416 0.91420 0.92442
   2  -2  1111317.33  188.23   1-0.28253-0.70980 0.93708 0.56683-0.20506-0.41819
   2   2  1111168.15  228.26   1-0.75669-0.79805 0.35461-0.24779-0.54922-0.54927
  -2  -2 -1111532.48  210.69   1-0.73760-0.69895-0.25790 0.34439 0.62403 0.62678
  -2   2 -1111349.12  192.68   1-0.66812-0.24138-0.13782 0.23278 0.73117 0.94209
  -2  -2 -1110961.76  221.23   1-0.29267-0.25332-0.28219 0.31963 0.91362 0.91304
   2  -2  12 8603.42  178.92   1-0.28755-0.74080 0.93474 0.53120-0.20871-0.41112
   2   2  12 8585.87  179.08   1-0.74476-0.81208 0.39130-0.24439-0.54056-0.52988
  -2  -2 -12 8942.18  205.39   1-0.72806-0.66367-0.23932 0.39637 0.64237 0.63436
  -2   2 -12 8878.11  190.05   1-0.66224-0.20978-0.12887 0.27513 0.73812 0.93823
  -2  -2 -12 8275.55  176.89   1-0.30252-0.23730-0.27359 0.36154 0.91303 0.90165
   2  -2  13  270.70   51.02   1-0.28983-0.76907 0.93366 0.49683-0.21037-0.40208
   2   2  13  253.77   40.15   1-0.73201-0.82531 0.42644-0.24256-0.53131-0.50991
  -2  -2 -13  211.29   41.58   1-0.72025-0.63049-0.22474 0.44405 0.65629 0.63662
  -2   2 -13  237.69   45.94   1-0.65825-0.18008-0.12288 0.31452 0.74270 0.93201
  -2  -2 -13  251.34   33.71   1-0.30831-0.21721-0.26848 0.39995 0.91260 0.89042
   2  -2  1423469.59  531.89   1-0.28973-0.79495 0.93371 0.46359-0.21029-0.39130
   2   2  1423078.01  487.14   1-0.71851-0.83778 0.46018-0.24211-0.52151-0.48938
  -2  -2 -1424293.94  564.78   1-0.71478-0.59931-0.21482 0.48737 0.66552 0.63505
  -2   2 -1423566.10  483.30   1-0.65593-0.15205-0.11944 0.35136 0.74530 0.92380
  -2  -2 -1421076.39  426.78   1-0.31023-0.19325-0.26679 0.43496 0.91245 0.87946
   2  -2  15 1542.80   73.48   1-0.28750-0.81871 0.93476 0.43135-0.20867-0.37899
   2   2  15 1547.55   67.62   1-0.70426-0.84950 0.49266-0.24293-0.51117-0.46832
  -2  -2 -15 1481.62   81.97   1-0.71113-0.56994-0.20833 0.52727 0.67147 0.63019
  -2   2 -15 1576.48  109.66   1-0.65510-0.12551-0.11821 0.38599 0.74622 0.91392
  -2  -2 -15 1330.31   71.07   1-0.30841-0.16555-0.26840 0.46665 0.91260 0.86880
   2  -2  16 2978.33   91.15   1-0.28337-0.84058 0.93669 0.39998-0.20568-0.36529
   2   2  16 3023.96   93.08   1-0.68928-0.86049 0.52399-0.24489-0.50030-0.44673
  -2  -2 -16 3120.88  106.55   1-0.70911-0.54221-0.20477 0.56423 0.67470 0.62261
  -2   2 -16 3007.83  108.06   1-0.65559-0.10028-0.11892 0.41867 0.74569 0.90258
   2  -2  17  865.45   59.47   1-0.27752-0.86071 0.93936 0.36935-0.20143-0.35034
   2   2  17  963.64   58.30   1-0.67345-0.87079 0.55454-0.24754-0.48881-0.42478
  -2  -2 -17  893.99   65.11   1-0.70852-0.51591-0.20374 0.59865 0.67563 0.61273
  -2   2 -17  925.33   59.45   1-0.65722-0.07620-0.12135 0.44965 0.74386 0.88994
   2  -2  1811152.56  225.70   1-0.27009-0.87926 0.94266 0.33937-0.19603-0.33424
   2   2  1811347.81  226.60   1-0.65702-0.88034 0.58386-0.25151-0.47688-0.40215
  -2  -2 -1810776.26  247.85   1-0.70919-0.49087-0.20492 0.63087 0.67456 0.60086
  -2   2 -1811081.80  202.54   1-0.65985-0.05313-0.12529 0.47911 0.74087 0.87614
   2  -2  19 2156.47   92.65   1-0.26117-0.89633 0.94649 0.30990-0.18956-0.31707
   2   2  19 2125.62   89.22   1-0.63986-0.88917 0.61228-0.25639-0.46442-0.37899
  -2   2 -19 2022.45  103.32   1-0.66337-0.03093-0.13059 0.50721 0.73679 0.86126
  -2  -3  18 4436.35  121.31   1 0.30891-0.49678-0.26796-0.57507-0.91256-0.64999
   2  -3 -18 4208.58  136.75   1-0.71508-0.48747 0.21535 0.86869 0.66503 0.08796
  -2   3  17 1209.08   72.14   1 0.25343 0.05450-0.31554-0.93676-0.91443-0.34568
  -2  -3  17 1357.27   75.07   1 0.28512-0.49482-0.28872-0.56251-0.91397-0.66236
   2  -3 -17 1255.07   68.56   1-0.72216-0.52076 0.22825 0.84924 0.65297 0.08709
   2   3 -17 1052.14   75.31   1-0.73935 0.04052 0.66807 0.94227-0.08384-0.33236
  -2  -3  16 2297.23   96.76   1 0.26070-0.49349-0.30947-0.54993-0.91447-0.67382
  -2   3  16 2338.18   85.89   1 0.21624 0.04306-0.34589-0.93379-0.91301-0.35521
   2  -3 -16 2448.05   87.78   1-0.72885-0.55335 0.24083 0.82851 0.64090 0.08578
   2   3 -16 2399.67   92.79   1-0.71624 0.03785 0.68299 0.92381-0.14323-0.38095
  -2   3  15  196.23   31.40   1-0.79009-0.94127 0.21655-0.33643-0.57346-0.02859
  -2  -3  15  215.57   46.65   1 0.23558-0.49285-0.33026-0.53740-0.91401-0.68432
  -2   3  15  203.86   38.31   1 0.17652 0.02910-0.37699-0.93157-0.90923-0.36239
   2  -3 -15  219.30   42.01   1-0.73467-0.58506 0.25209 0.80646 0.62984 0.08548
   2   3 -15  186.72   34.54   1-0.68999 0.03831 0.69500 0.90245-0.20216-0.42908
  -2   3  14 6452.20  186.62   1-0.80073-0.92595 0.14502-0.37468-0.58119-0.04708
  -2  -3  14 6424.68  202.07   1 0.20967-0.49301-0.35113-0.52494-0.91254-0.69380
  -2   3  14 6489.35  172.00   1 0.13385 0.01217-0.40897-0.93022-0.90267-0.36678
   2  -3 -14 6560.82  178.84   1-0.73964-0.61593 0.26199 0.78305 0.61990 0.08630
   2   3 -14 6165.63  244.97   1-0.66063 0.04189 0.70406 0.87813-0.26047-0.47658
  -2  -3  13 2238.65   88.46   1 0.24137-0.43746 0.95448 0.81535 0.17519 0.37923
  -2   3  13 2503.30   92.53   1-0.80735-0.90661 0.06913-0.41728-0.58599-0.06264
  -2  -3  13 2388.93  100.58   1 0.18284-0.49408-0.37213-0.51262-0.90998-0.70220
  -2   3  13 2427.34   92.80   1 0.08768-0.00823-0.44193-0.92986-0.89275-0.36781
   2  -3 -13 2604.61   92.72   1-0.74378-0.64597 0.27047 0.75822 0.61124 0.08841
   2   3 -13 2404.03   94.81   1-0.62821 0.04852 0.71009 0.85077-0.31798-0.52328
  -2  -3  12 2457.48   84.21   1 0.26836-0.38449 0.94341 0.83758 0.19478 0.38809
  -2   3  12 2625.46   88.03   1-0.80924-0.88253-0.01111-0.46426-0.58736-0.07477
  -2  -3  12 2223.84   90.29   1 0.15496-0.49621-0.39334-0.50050-0.90623-0.70941
  -2   3  12 2547.61   86.89   1 0.03740-0.03275-0.47595-0.93054-0.87867-0.36469
   2  -3 -12 2530.58   80.04   1-0.74712-0.67519 0.27743 0.73188 0.60401 0.09194
   2   3 -12 2705.37   90.37   1-0.59278 0.05816 0.71301 0.82030-0.37445-0.56895
  -2  -3  11  601.85   42.71   1 0.30023-0.32665 0.92863 0.85609 0.21791 0.40050
  -2   3  11  692.40   43.79   1-0.80559-0.85292-0.09555-0.51542-0.58471-0.08287
  -2  -3  11  657.58   52.52   1 0.12584-0.49957-0.41481-0.48865-0.90116-0.71529
  -2   3  11  699.66   48.08   1-0.01794-0.06342-0.51115-0.93220-0.85930-0.35633
   2  -3 -11  672.67   53.88   1-0.74963-0.70360 0.28279 0.70392 0.59839 0.09708
   2   3 -11  679.49   49.87   1-0.55444 0.07071 0.71274 0.78665-0.42963-0.61333
  -2  -3  1010073.99  196.43   1 0.33684-0.26407 0.90926 0.87000 0.24448 0.41635
  -2   3  1010483.36  231.47   1-0.79517-0.81592-0.18595-0.57179-0.57715-0.08555
  -2  -3  1010327.41  217.35   1 0.09527-0.50439-0.43663-0.47714-0.89458-0.71966
  -2   3  1010798.59  195.96   1-0.07856-0.09820-0.54702-0.93479-0.83342-0.34134
   2  -3 -1010396.59  206.04   1-0.75130-0.73117 0.28639 0.67421 0.59457 0.10402
   2   3 -1011392.07  205.69   1-0.51333 0.08604 0.70921 0.74974-0.48321-0.65610
  -2  -3   9 2797.75   93.87   1 0.37775-0.19718 0.88438 0.87841 0.27418 0.43532
  -2   3   9 2750.12   89.05   1-0.77762-0.77242-0.27699-0.62957-0.56441-0.08366
  -2  -3   9 2742.41   87.38   1 0.06298-0.51093-0.45889-0.46608-0.88625-0.72229
  -2   3   9 2874.02   89.43   1-0.14554-0.13935-0.58333-0.93782-0.79908-0.31790
   2  -3  -9 2846.87   84.16   1-0.75207-0.75783 0.28806 0.64258 0.59279 0.11300
   2   3  -9 2805.90   95.16   1-0.46963 0.10396 0.70240 0.70955-0.53485-0.69694
  -2   3   8  395.78   36.34   1-0.75197-0.72082-0.36963-0.68895-0.54580-0.07590
   2   3  -8  352.91   38.57   1-0.42683 0.12166-0.84960-0.87907-0.30980-0.46089
  -2  -3   8  397.33   41.80   1 0.02861-0.51954-0.48170-0.45556-0.87586-0.72286
  -2   3   8  395.13   36.01   1-0.21947-0.18745-0.61921-0.94043-0.75392-0.28363
   2  -3  -8  369.67   41.55   1-0.75186-0.78352 0.28760 0.60881 0.59328 0.12425
   2   3  -8  357.95   39.17   1-0.42359 0.12421 0.69230 0.66606-0.58419-0.73547
  -2   3   7 7272.60  157.58   1-0.71703-0.66051-0.46367-0.74836-0.52044-0.06062
   2   3  -7 6518.12  413.28   1-0.47327 0.04923-0.81118-0.87386-0.34351-0.48366
  -2  -3   7 7352.88  151.80   1-0.00872-0.53084-0.50545-0.44499-0.86280-0.72123
  -2   3   7 7547.30  165.72   1-0.30161-0.24443-0.65356-0.94086-0.69417-0.23457
  -2  -3   7 7391.83  156.98   1 0.37570-0.14754-0.67901-0.61992 0.63070 0.77066
   2  -3  -7 7200.61  155.61   1-0.75054-0.80809 0.28474 0.57264 0.59632 0.13806
  -2   3   624223.15  428.78   1-0.67372-0.59120-0.55405-0.80552-0.48900-0.04012
  -2  -3   625081.30  368.96   1-0.04881-0.54510-0.52977-0.43603-0.84673-0.71605
  -2  -3   624892.31  453.05   1 0.32606-0.17136-0.66258-0.57010 0.67429 0.80350
   2  -3  -625113.08  335.81   1-0.74792-0.83137 0.27914 0.53373 0.60223 0.15472
  -2   3   510261.69  214.04   1-0.62202-0.51351-0.63972-0.85797-0.45148-0.01353
   2   3  -510150.45  182.64   1-0.56709-0.09657-0.71342-0.84254-0.41161-0.52989
  -2  -3   510255.22  210.30   1-0.09270-0.56315-0.55498-0.42796-0.82668-0.70690
  -2   3   510612.44  197.31   1-0.47915-0.37023-0.70413-0.92494-0.52403-0.08609
  -2  -3   510316.43  221.33   1 0.27528-0.19632-0.64322-0.51735 0.71448 0.83294
   2  -3  -5 9993.72  197.97   1-0.74375-0.85309 0.27039 0.49167 0.61132 0.17458
   2   3  -4 3110.18   90.51   1-0.61132-0.16679-0.65528-0.81762-0.44371-0.55105
  -2   3   4 3097.33   92.57   1-0.56305-0.42854-0.71829-0.90333-0.40867 0.01833
  -2  -3   4 3397.58  108.06   1-0.14125-0.58587-0.58111-0.42081-0.80146-0.69257
  -2   3   4 3193.04   89.99   1-0.56872-0.43393-0.71321-0.90077-0.40972 0.01737
  -2  -3   4 3240.38   94.61   1 0.22388-0.22190-0.62121-0.46196 0.75097 0.85868
   2  -3  -4 3235.71   97.87   1-0.73764-0.87288 0.25798 0.44595 0.62395 0.19798
   2   3  -3 1602.49   61.71   1-0.65191-0.23338-0.59254-0.78810-0.47317-0.56958
  -2   3   3 1478.72   59.97   1-0.49850-0.33801-0.78776-0.93957-0.36182 0.05424
  -2  -3   3 1583.62   67.39   1-0.19553-0.61431-0.60809-0.41451-0.76940-0.67141
  -2   3   3 1570.44   60.81   1-0.65162-0.49059-0.70611-0.86024-0.27710 0.13890
  -2  -3   3 1568.79   65.79   1 0.17246-0.24750-0.59692-0.40428 0.78354 0.88050
   2  -3  -3 1574.18   65.09   1-0.72908-0.89022 0.24126 0.39592 0.64048 0.22527
   2   3  -216509.31  283.04   1-0.68793-0.29539-0.52671-0.75548-0.49931-0.58479
  -2   3   216060.98  317.64   1-0.43056-0.24407-0.84672-0.96532-0.31251 0.09261
  -2  -3   215861.62  327.89   1-0.25669-0.64964-0.63553-0.40867-0.72814-0.64104
  -2   3   216726.24  282.40   1-0.71966-0.53278-0.68107-0.80193-0.13496 0.27024
  -2  -3   216696.91  287.80   1 0.12163-0.27252-0.57077-0.34475 0.81204 0.89826
   2  -3  -216249.01  251.02   1-0.71751-0.90457 0.21974 0.34050 0.66097 0.25652
   2  -3  -1 2809.75   85.68   1 0.36496 0.15285 0.89254 0.97965 0.26490-0.13001
   2   3  -1 2841.99   85.01   1-0.71887-0.35233-0.45930-0.72129-0.52177-0.59631
  -2  -3   1 2715.95   85.25   1-0.32608-0.69292-0.66258-0.40191-0.67427-0.59860
  -2   3   1 2880.92   85.85   1-0.76928-0.55601-0.63883-0.72626 0.01023 0.40421
  -2  -3   1 2857.53   91.10   1 0.07201-0.29632-0.54328-0.28387 0.83645 0.91192
   2  -3  -1 2833.23   88.96   1-0.70156-0.91453 0.19174 0.27922 0.68632 0.29266
   2  -3   0 4131.33   99.56   1 0.29724 0.05915 0.93010 0.98393 0.21574-0.16844
   2   3   0 3982.67  103.94   1-0.74482-0.40421-0.39113-0.68560-0.54060-0.60544
  -2  -3   0 3857.98  109.37   1-0.40384-0.74481-0.68714-0.39322-0.60393-0.53908
  -2   3   0 4232.53  111.38   1-0.79830-0.55853-0.58391-0.63793 0.14749 0.53016
  -2  -3   0 4136.11  110.45   1 0.02419-0.31832-0.51498-0.22219 0.85685 0.92157
   2  -3   0 3965.32  110.66   1-0.68006-0.91895 0.15643 0.21062 0.71626 0.33339
   2  -3   1 7181.66  152.04   1 0.23262-0.03143 0.95779 0.97833 0.16884-0.20462
   2   3   1 7154.05  156.47   1-0.76559-0.45093-0.32416-0.65189-0.55568-0.60966
  -2  -3  -1 6862.31  156.17   1-0.48865-0.80375-0.70572-0.37856-0.51300-0.45898
  -2   3  -1 7134.28  167.93   1-0.80891-0.54342-0.52370-0.54437 0.26717 0.63902
  -2  -3  -1 7053.79  139.28   1-0.02125-0.33795-0.48646-0.16028 0.87344 0.92741
   2  -3   1 6778.92  151.03   1-0.65114-0.91595 0.11237 0.13328 0.75058 0.37850
   2  -3   3 3732.38   96.51   1 0.11793-0.19807 0.98932 0.94328 0.08560-0.26642
   2   3   3 3655.96   99.12   1-0.79363-0.53087-0.19576-0.59002-0.57603-0.60831
  -2  -3  -3 3573.21  102.74   1-0.65782-0.92133-0.70474-0.31124-0.26572-0.23297
  -2   3  -3 3750.61  102.72   1-0.79447-0.47626-0.40413-0.35916 0.45331 0.80260
  -2  -3  -3 3655.00  100.75   1-0.10315-0.36803-0.43108-0.03814 0.89639 0.92903
   2  -3   3 3550.26  102.20   1-0.56009-0.87673-0.00884-0.05451 0.82838 0.47788
   2  -3   4 8380.15  169.52   1 0.06923-0.27275 0.99633 0.91700 0.05025-0.29105
   2   3   4 8474.00  169.45   1-0.80190-0.56514-0.13482-0.56225-0.58204-0.60372
  -2  -3  -4 8385.01  191.76   1-0.72523-0.96289-0.67775-0.25099-0.12112-0.09916
  -2   3  -4 8603.17  171.17   1-0.77842-0.43448-0.35251-0.27414 0.51941 0.85794
  -2  -3  -4 8589.47  179.04   1-0.13914-0.37818-0.40508 0.02121 0.90362 0.92548
   2  -3   4 8445.07  171.44   1-0.49061-0.83272-0.08924-0.16919 0.86679 0.52720
   2  -3   5  536.67   40.59   1 0.02652-0.34144 0.99946 0.88683 0.01925-0.31133
   2   3   5  539.30   38.07   1-0.80691-0.59611-0.07660-0.53731-0.58567-0.59660
  -2  -3  -5  538.80   38.35   1-0.77164-0.98392-0.63576-0.17589 0.01897 0.03072
  -2   3  -5  561.46   41.72   1-0.76075-0.39107-0.30762-0.19586 0.57151 0.89927
  -2  -3  -5  580.66   42.58   1-0.17148-0.38468-0.38085 0.07880 0.90859 0.91967
   2  -3   5  542.38   39.59   1-0.39744-0.76543-0.18572-0.29897 0.89863 0.56985
   2  -3   6 2869.44   86.59   1-0.01038-0.40432 0.99991 0.85400-0.00753-0.32740
   2   3   6 2810.72   86.49   1-0.80911-0.62427-0.02096-0.51496-0.58727-0.58744
  -2  -3  -6 2802.19   90.03   1-0.79778-0.98501-0.58550-0.09247 0.14396 0.14557
  -2   3  -6 2719.00   84.14   1-0.74332-0.34791-0.26950-0.12433 0.61223 0.92924
  -2  -3  -6 2783.51   88.30   1-0.20006-0.38743-0.35872 0.13429 0.91175 0.91206
   2  -3   6 2803.19   85.16   1-0.27489-0.66875-0.29748-0.44404 0.91429 0.59631
   2  -3   7 1805.42   70.25   1-0.04183-0.46175 0.99866 0.81945-0.03036-0.33950
   2   3   7 1783.40   67.16   1-0.80887-0.65000 0.03216-0.49511-0.58710-0.57651
  -2  -3  -7 1740.86   67.34   1-0.80839-0.96990-0.53167-0.00527 0.25261 0.24340
  -2   3  -7 1823.75   69.82   1-0.72722-0.30607-0.23772-0.05915 0.64392 0.95016
   2  -3   7 1767.97   70.03   1-0.11890-0.53776-0.41982-0.60032 0.89977 0.59196
  -2  -3  -7 1808.40   69.12   1-0.22490-0.38643-0.33893 0.18744 0.91353 0.90306
   2  -3   8 5703.57  136.50   1-0.06826-0.51415 0.99643 0.78394-0.04954-0.34796
   2   3   8 5643.81  132.11   1-0.80650-0.67359 0.08291-0.47763-0.58538-0.56403
  -2  -3  -8 5692.76  137.67   1-0.80807-0.94386-0.48054 0.07921 0.34070 0.32068
  -2   3  -8 5644.26  136.41   1-0.71311-0.26640-0.21184 0.00071 0.66826 0.96386
  -2  -3  -8 5749.90  133.53   1-0.24622-0.38130-0.32152 0.23812 0.91432 0.89325
   2  -3   9 5670.78  125.92   1-0.09010-0.56197 0.99378 0.74799-0.06540-0.35310
   2   3   9 5463.38  124.20   1-0.80227-0.69532 0.13144-0.46239-0.58230-0.55019
  -2  -3  -9 5469.00  142.88   1-0.80197-0.91188-0.43700 0.15651 0.40726 0.37944
  -2   3  -9 5603.73  137.73   1-0.70099-0.22857-0.19077 0.05519 0.68717 0.97196
  -2  -3  -9 5559.26  134.48   1-0.26385-0.37305-0.30682 0.28613 0.91446 0.88258
   2  -3  10 2444.35   77.69   1-0.10779-0.60556 0.99109 0.71208-0.07823-0.35529
   2   3  10 2390.26   83.86   1-0.79638-0.71539 0.17789-0.44922-0.57803-0.53516
  -2  -3 -10 2354.16   86.19   1-0.79293-0.87710-0.39838 0.22853 0.46103 0.42244
  -2   3 -10 2472.50   81.62   1-0.69099-0.19286-0.17407 0.10528 0.70158 0.97556
  -2  -3 -10 2423.57   83.09   1-0.27802-0.36133-0.29481 0.33145 0.91421 0.87153
   2  -3  11  331.56   35.38   1-0.12180-0.64556 0.98860 0.67631-0.08840-0.35475
   2   3  11  350.96   40.63   1-0.78902-0.73399 0.22242-0.43797-0.57268-0.51906
  -2  -3 -11  371.64   41.65   1-0.78319-0.84163-0.36636 0.29396 0.50237 0.45303
  -2   3 -11  363.29   38.47   1-0.68304-0.15919-0.16117 0.15158 0.71236 0.97553
  -2  -3 -11  378.27   44.20   1-0.28884-0.34628-0.28550 0.37406 0.91381 0.86032
   2  -3  12 9029.70  189.15   1-0.13249-0.68224 0.98650 0.64091-0.09616-0.35181
   2   3  12 8686.66  165.70   1-0.78032-0.75126 0.26517-0.42850-0.56637-0.50199
  -2  -3 -12 8873.43  205.92   1-0.77399-0.80669-0.34046 0.35325 0.53386 0.47376
  -2   3 -12 9111.09  184.20   1-0.67699-0.12743-0.15158 0.19458 0.72021 0.97257
  -2  -3 -12 8912.31  170.42   1-0.29646-0.32802-0.27889 0.41398 0.91341 0.84912
   2  -3  13 2475.71   92.59   1-0.14020-0.71593 0.98487 0.60599-0.10176-0.34670
   2   3  13 2537.48   93.50   1-0.77030-0.76711 0.30664-0.42039-0.55910-0.48456
  -2  -3 -13 2423.96   96.70   1-0.76595-0.77292-0.32004 0.40708 0.55756 0.48670
  -2   3 -13 2464.92   94.31   1-0.67268-0.09741-0.14484 0.23471 0.72561 0.96717
  -2  -3 -13 2422.44   90.85   1-0.30099-0.30667-0.27493 0.45126 0.91313 0.83804
   2  -3  14   29.07   27.61   1-0.14522-0.74694 0.98376 0.57159-0.10540-0.33965
   2   3  14   45.93   41.91   1-0.75923-0.78201 0.34623-0.41410-0.55107-0.46580
  -2  -3 -14   33.30   28.37   1-0.75936-0.74058-0.30441 0.45611 0.57507 0.49344
  -2   3 -14   40.77   50.32   1-0.66994-0.06895-0.14060 0.27235 0.72897 0.95972
  -2  -3 -14  227.53   39.53   1-0.30254-0.28235-0.27356 0.48593 0.91303 0.82713
   2  -3  15 2278.71   78.63   1-0.14780-0.77551 0.98318 0.53771-0.10728-0.33082
   2   3  15 2234.03   76.24   1-0.74710-0.79585 0.38442-0.40921-0.54226-0.44627
  -2   3 -15 2217.86   81.39   1-0.66861-0.04191-0.13856 0.30779 0.73058 0.95052
  -2  -3 -15 2076.38   82.18   1-0.30119-0.25511-0.27476 0.51805 0.91312 0.81641
   2  -3  16 8717.80  197.38   1-0.14817-0.80186 0.98309 0.50433-0.10755-0.32039
   2   3  16 8794.46  208.59   1-0.73396-0.80868 0.42129-0.40563-0.53272-0.42601
  -2   3 -16 8549.47  181.27   1-0.66853-0.01612-0.13844 0.34131 0.73067 0.93981
   2  -3  17 3689.08  108.37   1-0.14651-0.82619 0.98347 0.47142-0.10634-0.30848
   2   3  17 3532.78  109.16   1-0.71986-0.82054 0.45695-0.40327-0.52249-0.40505
  -2   3 -17 3540.77  114.60   1-0.66957 0.00854-0.14004 0.37311 0.72942 0.92774
   2  -3  18   14.93   40.51   1-0.14297-0.84864 0.98427 0.43892-0.10377-0.29521
   2   3  18    5.06   27.48   1-0.70481-0.83147 0.49146-0.40205-0.51156-0.38341
  -2   3 -18  232.90   59.03   1-0.67160 0.03222-0.14317 0.40338 0.72694 0.91446
  -2  -4  1611322.23  205.59   1 0.32002-0.53100-0.25808-0.44064-0.91157-0.72378
   2  -4 -1610983.99  186.31   1-0.67570-0.59671 0.14955 0.79439 0.72184 0.11341
  -2   4  15 3699.62  121.19   1-0.80518-0.85988 0.10069-0.51031-0.58441 0.01358
  -2  -4  15 3899.72  116.55   1 0.29936-0.52590-0.27636-0.42559-0.91324-0.73640
   2  -4 -15 3794.75  108.46   1-0.68095-0.62788 0.15783 0.76939 0.71511 0.11747
   2   4 -15 3526.69  162.27   1-0.63682 0.18837 0.70884 0.85838-0.30331-0.47716
  -2   4  14 2287.19   87.15   1-0.80889-0.83763 0.03148-0.54623-0.58711 0.00012
  -2  -4  14 2449.57   94.04   1 0.27838-0.52113-0.29449-0.41040-0.91420-0.74832
   2  -4 -14 2369.18   90.84   1-0.68520-0.65805 0.16464 0.74291 0.70949 0.12264
   2   4 -14 2200.83  174.82   1-0.60185 0.19755 0.71258 0.82874-0.36055-0.52360
  -2   4  13 1649.46   72.59   1-0.80864-0.81142-0.03992-0.58436-0.58693-0.01045
  -2  -4  13 1723.67   73.01   1 0.25705-0.51670-0.31252-0.39510-0.91446-0.75954
   2  -4 -13 1631.89   69.21   1-0.68845-0.68722 0.16991 0.71489 0.70509 0.12903
   2   4 -13 1797.96   78.72   1-0.56436 0.20925 0.71311 0.79588-0.41588-0.56813
  -2  -4  1212842.11  320.33   1 0.38535-0.36404 0.87935 0.83142 0.27970 0.41975
  -2   4  1214150.61  319.55   1-0.80408-0.78090-0.11323-0.62439-0.58362-0.01790
  -2  -4  1213589.78  344.08   1 0.23532-0.51268-0.33047-0.37972-0.91400-0.77004
   2  -4 -1213617.06  296.82   1-0.69067-0.71535 0.17354 0.68524 0.70202 0.13675
   2   4 -1213847.89  394.92   1-0.52457 0.22326 0.71047 0.75986-0.46909-0.61053
  -2   4  11 4648.13  148.08   1-0.79454-0.74468-0.19003-0.66708-0.57669-0.02120
  -2  -4  11 4478.22  138.81   1 0.21313-0.50912-0.34837-0.36430-0.91280-0.77979
   2  -4 -11 4534.16  136.64   1-0.69182-0.74242 0.17543 0.65384 0.70042 0.14594
   2   4 -11 3088.92  622.51   1-0.48271 0.23933 0.70474 0.72075-0.51992-0.65056
  -2   4  10 2204.02   75.48   1-0.78020-0.70439-0.26569-0.70948-0.56629-0.02164
   2   4 -10 2152.21   95.47   1-0.43903 0.25796-0.84006-0.86099-0.31865-0.43834
  -2  -4  10 2175.36   79.21   1 0.19040-0.50609-0.36627-0.34888-0.91081-0.78876
  -2   4  10 2047.29   83.99   1 0.00483 0.08301-0.49695-0.94280-0.86776-0.32284
   2  -4 -10 2181.20   78.74   1-0.69182-0.76833 0.17543 0.62055 0.70042 0.15673
   2   4 -10 2251.80   93.38   1-0.43907 0.25719 0.69600 0.67863-0.56814-0.68797
  -2   4   9 5037.83  138.00   1-0.76064-0.65887-0.34149-0.75203-0.55209-0.01829
   2   4  -9 5109.22  130.85   1-0.46735 0.20364-0.81640-0.87054-0.33921-0.44796
  -2  -4   9 4954.89  139.07   1 0.16704-0.50370-0.38423-0.33351-0.90799-0.79690
  -2   4   9 4749.24  145.59   1-0.06409 0.03875-0.53871-0.95127-0.84004-0.30589
   2  -4  -9 4951.88  123.35   1-0.69058-0.79301 0.17338 0.58522 0.70216 0.16926
  -2   4   840781.11  962.55   1-0.73522-0.60818-0.41793-0.79373-0.53364-0.00961
  -2  -4   841820.31  980.90   1 0.14292-0.50206-0.40229-0.31825-0.90428-0.80414
  -2   4   839082.05 1005.44   1-0.14137-0.01268-0.58117-0.96045-0.80140-0.27814
  -2  -4   841809.87  870.84   1 0.34821-0.29757-0.67023-0.58690 0.65539 0.75298
  -2   4   7 2947.20   86.19   1-0.70485-0.55181-0.49138-0.83396-0.51159 0.00149
   2   4  -7 2808.72   89.90   1-0.52868 0.09032-0.75712-0.87770-0.38373-0.47061
  -2  -4   7 2942.84   93.11   1 0.11789-0.50134-0.42056-0.30319-0.89957-0.81038
  -2   4   7 2736.34   93.11   1-0.22784-0.07332-0.62299-0.96899-0.74830-0.23594
  -2  -4   7 2889.78   93.52   1 0.30131-0.31865-0.65345-0.53674 0.69441 0.78125
   2  -4  -7 2903.56   89.42   1-0.68377-0.83803 0.16234 0.50760 0.71140 0.20008
  -2   4   6 2278.98   82.13   1-0.66939-0.49037-0.56199-0.87135-0.48586 0.01629
   2   4  -6 2209.21   76.35   1-0.56049 0.03252-0.72134-0.87514-0.40682-0.48276
  -2  -4   6 2276.98   79.97   1 0.09172-0.50175-0.43912-0.28842-0.89373-0.81550
  -2   4   6 2184.62   83.22   1-0.32429-0.14470-0.66194-0.97408-0.67576-0.17384
   2  -4  -6 2277.90   80.71   1-0.67779-0.85798 0.15284 0.46482 0.71918 0.21864
  -2   4   514614.45  269.41   1-0.62933-0.42432-0.62870-0.90485-0.45678 0.03443
   2   4  -514871.36  273.43   1-0.59216-0.02514-0.68161-0.86863-0.42980-0.49481
  -2  -4   514934.68  254.98   1 0.06413-0.50359-0.45811-0.27409-0.88657-0.81930
  -2   4   514434.06  283.65   1-0.42431-0.21885-0.69248-0.97137-0.58345-0.09236
  -2  -4   514648.35  274.64   1 0.20709-0.36124-0.61352-0.43004 0.76203 0.82738
   2  -4  -514903.17  256.89   1-0.66974-0.87584 0.14030 0.41899 0.72921 0.23947
   2   4  -420289.32  334.57   1-0.62303-0.08200-0.63822-0.85846-0.45221-0.50628
  -2   4   419685.06  358.90   1-0.58535-0.35434-0.69054-0.93347-0.42486 0.05541
  -2  -4   419927.89  412.93   1 0.03470-0.50727-0.47772-0.26038-0.87782-0.82150
  -2   4   419700.45  371.84   1-0.52421-0.29287-0.71044-0.95608-0.46954 0.01070
  -2  -4   420082.60  290.15   1 0.16064-0.38187-0.59103-0.37415 0.79049 0.84509
   2  -4  -420337.64  307.69   1-0.65922-0.89124 0.12434 0.36974 0.74159 0.26263
   2   4  -3 5889.06  134.42   1-0.65247-0.13743-0.59160-0.84505-0.47358-0.51671
  -2   4   3 5654.62  136.30   1-0.53833-0.28133-0.74667-0.95638-0.39073 0.07861
  -2  -4   3 5773.52  144.71   1 0.00286-0.51336-0.49819-0.24752-0.86705-0.82169
  -2   4   3 5733.89  132.83   1-0.61739-0.35976-0.71135-0.92348-0.33585 0.13323
  -2  -4   3 5794.92  138.80   1 0.11523-0.40146-0.56733-0.31708 0.81538 0.85923
   2  -4  -3 5730.79  134.14   1-0.64576-0.90370 0.10455 0.31667 0.75634 0.28816
   2   4  -2   29.12   28.97   1-0.67996-0.19092-0.54227-0.82894-0.49353-0.52573
  -2   4   2   50.08   31.52   1-0.48929-0.20630-0.79653-0.97302-0.35514 0.10326
  -2  -4   2   24.37   17.69   1-0.03356-0.52317-0.52066-0.23574-0.85309-0.81896
  -2   4   2   46.76   18.11   1-0.69441-0.41092-0.69328-0.87214-0.19276 0.26553
  -2  -4   2   44.99   30.49   1 0.07126-0.41961-0.54285-0.25920 0.83679 0.86990
   2  -4  -2   37.68   29.28   1-0.62878-0.91263 0.08045 0.25929 0.77340 0.31602
   2   4  -1 7623.89  140.66   1-0.70509-0.24204-0.49084-0.81073-0.51177-0.53303
  -2   4   1 7488.42  167.16   1-0.43934-0.13034-0.83981-0.98309-0.31888 0.12859
  -2  -4   1 7515.44  181.14   1-0.07362-0.53740-0.54420-0.22600-0.83571-0.81247
  -2   4   1 7603.70  172.15   1-0.75217-0.44217-0.65731-0.80266-0.04661 0.40026
  -2  -4   1 7409.53  160.10   1 0.02912-0.43594-0.51798-0.20094 0.85489 0.87725
   2  -4  -1 7383.63  171.04   1-0.60751-0.91728 0.05154 0.19709 0.79263 0.34603
   2  -4   035346.04  598.16   1 0.39204 0.05741 0.87483 0.98657 0.28455-0.15290
   2  -4   034267.89  584.40   1-0.58107-0.91676 0.01723 0.12950 0.81366 0.37785
   2  -4   1 1161.10   58.89   1 0.34338-0.01722 0.90552 0.98397 0.24923-0.17749
   2   4   1 1052.80   52.35   1-0.74741-0.33619-0.38350-0.76919-0.54249-0.54343
  -2   4  -1 1202.26   54.99   1-0.80573-0.44335-0.55329-0.63177 0.21131 0.63584
  -2  -4  -1 1112.24   54.36   1-0.04839-0.46182-0.46868-0.08487 0.88204 0.88289
   2  -4   1 1178.50   58.28   1-0.54883-0.91008-0.02246 0.05526 0.83563 0.41072
   2  -4   2 1128.92   53.50   1 0.29670-0.08987 0.93036 0.97553 0.21535-0.20065
   2   4   2 1214.67   60.73   1-0.76419-0.37892-0.32915-0.74809-0.55467-0.54475
  -2   4  -2 1180.70   55.92   1-0.80908-0.42097-0.49714-0.54225 0.31342 0.72714
  -2  -4  -2 1289.60   61.36   1-0.08305-0.47050-0.44515-0.02792 0.89159 0.88195
   2  -4   2 1197.58   57.21   1-0.50845-0.89558-0.06938-0.02496 0.85828 0.44418
   2  -4   313875.92  252.14   1 0.25268-0.15987 0.95000 0.96187 0.18340-0.22188
   2   4   313835.69  244.72   1-0.77811-0.41879-0.27488-0.72709-0.56477-0.54401
  -2   4  -314110.68  252.02   1-0.80283-0.38754-0.44160-0.45466 0.40055 0.80192
  -2  -4  -313849.39  265.82   1-0.11514-0.47675-0.42253 0.02805 0.89900 0.87858
   2  -4   313667.51  231.17   1-0.45893-0.87194-0.12335-0.11224 0.87986 0.47656
   2  -4   412398.25  236.05   1 0.21182-0.22671 0.96513 0.94371 0.15374-0.24082
   2   4   412439.64  221.27   1-0.78926-0.45590-0.22107-0.70654-0.57286-0.54125
  -2   4  -412492.76  237.87   1-0.79125-0.35022-0.39238-0.37204 0.46898 0.85960
  -2  -4  -412406.41  214.40   1-0.14429-0.48006-0.40128 0.08266 0.90451 0.87332
   2  -4   412651.24  254.23   1-0.39855-0.83744-0.18463-0.20683 0.89836 0.50586
   2  -4   5 1722.37   69.01   1 0.17443-0.29007 0.97649 0.92178 0.12660-0.25723
   2   4   5 1683.11   66.09   1-0.79778-0.49037-0.16801-0.68674-0.57905-0.53658
  -2   4  -5 1696.67   66.38   1-0.77712-0.31036-0.34891-0.29516 0.52377 0.90363
  -2  -4  -5 1677.38   72.78   1-0.17045-0.48039-0.38163 0.13567 0.90845 0.86649
   2  -4   5 1692.76   68.41   1-0.32550-0.79027-0.25316-0.30867 0.91101 0.52932
   2  -4   618936.62  301.63   1 0.14069-0.34979 0.98477 0.89677 0.10211-0.27100
   2   4   618980.65  262.96   1-0.80388-0.52256-0.11543-0.66743-0.58347-0.53051
  -2   4  -619536.86  282.56   1-0.76235-0.26985-0.31138-0.22423 0.56733 0.93642
  -2  -4  -619430.15  318.95   1-0.19361-0.47771-0.36377 0.18689 0.91114 0.85840
   2  -4   618911.77  344.35   1-0.23994-0.72970-0.32669-0.41617 0.91416 0.54252
   2  -4   7 2126.24   81.99   1 0.11062-0.40582 0.99061 0.86932 0.08029-0.28210
   2   4   7 2068.85   73.23   1-0.80761-0.55226-0.06435-0.64964-0.58618-0.52246
  -2   4  -7 2050.65   72.54   1-0.74811-0.22988-0.27955-0.15900 0.60180 0.96013
   2  -4   7 2079.54   75.80   1-0.13639-0.65198-0.40711-0.52995 0.90313 0.54227
  -2  -4  -7 2138.96   76.42   1-0.21379-0.47206-0.34784 0.23618 0.91284 0.84933
   2  -4   817126.78  404.84   1 0.08419-0.45823 0.99457 0.83999 0.06111-0.29056
   2   4   817578.83  406.64   1-0.80920-0.57981-0.01450-0.63307-0.58734-0.51286
  -2   4  -817719.81  414.93   1-0.73511-0.19114-0.25296-0.09902 0.62897 0.97655
  -2  -4  -818013.16  402.04   1-0.23106-0.46349-0.33394 0.28344 0.91383 0.83954
   2  -4   9 1064.77   55.28   1 0.06126-0.50714 0.99713 0.80925 0.04446-0.29648
   2   4   9 1063.58   57.70   1-0.80882-0.60539 0.03406-0.61778-0.58706-0.50182
  -2   4  -9 1119.19   60.87   1-0.72368-0.15398-0.23108-0.04373 0.65029 0.98710
  -2  -4  -9 1077.28   54.26   1-0.24555-0.45153-0.32207 0.32862 0.91431 0.82953
   2  -4  10 8436.32  205.98   1 0.04167-0.55270 0.99867 0.77751 0.03025-0.29998
   2   4  10 8607.20  204.99   1-0.80661-0.62914 0.08131-0.60381-0.58545-0.48946
  -2   4 -10 8806.99  221.72   1-0.71410-0.11886-0.21360 0.00791 0.66665 0.99287
  -2  -4 -10 8933.16  210.85   1-0.25727-0.43737-0.31234 0.37166 0.91446 0.81888
   2  -4  11 8514.53  218.60   1 0.02524-0.59511 0.99951 0.74506 0.01832-0.30119
   2   4  11 8339.39  199.38   1-0.80271-0.65121 0.12725-0.59115-0.58262-0.47587
  -2   4 -11 8686.61  222.24   1-0.70610-0.08515-0.19953 0.05537 0.67941 0.99482
  -2  -4 -11 8449.96  225.72   1-0.26631-0.42053-0.30475 0.41256 0.91444 0.80804
   2  -4  12 7819.34  185.51   1 0.01175-0.63457 0.99989 0.71215 0.00853-0.30025
   2   4  12 7603.12  177.36   1-0.79724-0.67170 0.17190-0.57978-0.57866-0.46114
  -2   4 -12 7811.55  184.60   1-0.69976-0.05310-0.18868 0.09962 0.68899 0.99360
  -2  -4 -12 7447.91  189.00   1-0.27274-0.40108-0.29931 0.45131 0.91434 0.79714
   2  -4  13   34.49   60.06   1 0.00103-0.67127 0.99999 0.67896 0.00075-0.29731
   2   4  13   76.93   26.68   1-0.79031-0.69073 0.21529-0.56968-0.57362-0.44535
  -2   4 -13   34.89   44.21   1-0.69499-0.02262-0.18067 0.14103 0.69594 0.98974
  -2  -4 -13   92.48   42.81   1-0.27663-0.37910-0.29599 0.48794 0.91425 0.78625
   2  -4  1418219.90  347.73   1-0.00711-0.70539 0.99996 0.64563-0.00516-0.29250
   2   4  1417545.09  345.44   1-0.78201-0.70839 0.25745-0.56080-0.56760-0.42857
  -2   4 -1417587.99  329.30   1-0.69165 0.00642-0.17515 0.17995 0.70066 0.98365
  -2  -4 -1416468.15  380.63   1-0.27805-0.35464-0.29478 0.52246 0.91421 0.77541
   2  -4  15 1919.66   91.50   1-0.01286-0.73713 0.99987 0.61226-0.00934-0.28596
   2   4  15 1991.98   75.84   1-0.77241-0.72476 0.29843-0.55310-0.56063-0.41084
  -2   4 -15 1973.83   82.16   1-0.68964 0.03415-0.17184 0.21666 0.70346 0.97564
  -2  -4 -15 1784.48   84.10   1-0.27703-0.32774-0.29565 0.55490 0.91424 0.76463
   2  -4  16 4444.86  118.81   1-0.01638-0.76662 0.99979 0.57889-0.01189-0.27779
   2   4  16 4333.53  118.42   1-0.76148-0.73971 0.33862-0.54635-0.55270-0.39284
  -2   4 -16 4470.20  116.90   1-0.68881 0.06069-0.17050 0.25141 0.70459 0.96597
  -2   5  14 2878.18  125.91   1-0.80883-0.74109-0.03354-0.66927-0.58707 0.05329
  -2  -5  14 3008.55  117.87   1 0.35734-0.53900-0.22399-0.28199-0.90671-0.79369
   2  -5 -14 2917.67  101.55   1-0.62251-0.69215 0.07179 0.70813 0.77930 0.13952
   2   5 -14 2978.01  121.93   1-0.55564 0.34065 0.71279 0.77105-0.42800-0.53799
  -2   5  13 3371.16   96.95   1-0.80534-0.71164-0.09864-0.70109-0.58453 0.04507
  -2  -5  13 3454.93  127.19   1 0.34181-0.52878-0.23835-0.26302-0.90903-0.80697
   2  -5 -13 3425.69   96.74   1-0.62461-0.72017 0.07469 0.67774 0.77735 0.14835
  -2   5  12 1743.40   69.47   1-0.79805-0.67757-0.16609-0.73435-0.57924 0.04014
  -2  -5  12 1712.14   77.99   1 0.32656-0.51827-0.25221-0.24356-0.91090-0.81979
   2  -5 -12 1696.42   69.34   1-0.62552-0.74699 0.07594 0.64570 0.77650 0.15829
   2   5 -12 1505.73  168.74   1-0.47523 0.36948 0.70343 0.69492-0.52851-0.61689
  -2   5  11   26.86   28.05   1-0.78725-0.64082-0.23178-0.76678-0.57140 0.03713
   2   5 -11   22.67   27.79   1-0.49256 0.32692-0.79345-0.83905-0.35751-0.43485
  -2  -5  11   -1.19   35.77   1 0.31165-0.50743-0.26553-0.22355-0.91233-0.83218
   2  -5 -11   -5.20   26.42   1-0.62516-0.77255 0.07544 0.61192 0.77683 0.16942
   2   5 -11   -7.35   31.29   1-0.43309 0.38584 0.69461 0.65271-0.57440-0.65198
  -2   5  10 7423.64  165.15   1-0.77274-0.60036-0.29713-0.79887-0.56087 0.03681
   2   5 -10 7140.37  199.00   1-0.51149 0.28200-0.77494-0.85377-0.37125-0.43766
  -2  -5  10 6988.86  163.06   1 0.29718-0.49615-0.27826-0.20296-0.91337-0.84417
  -2  -5  10 6759.13  178.08   1 0.39067-0.40347-0.68345-0.60928 0.61665 0.68263
   2  -5 -10 7065.21  153.27   1-0.62345-0.79676 0.07309 0.57629 0.77843 0.18180
  -2   5   9 2792.33   95.59   1-0.75451-0.55618-0.36164-0.83013-0.54764 0.03918
   2   5  -9 2800.73   98.60   1-0.53186 0.23563-0.75371-0.86576-0.38604-0.44151
  -2  -5   9 2666.50   89.78   1 0.28325-0.48433-0.29032-0.18170-0.91404-0.85580
  -2  -5   9 2679.11   88.53   1 0.34709-0.42124-0.66985-0.56229 0.65637 0.71160
   2  -5  -9 2644.53   95.32   1-0.62029-0.81951 0.06876 0.53867 0.78134 0.19550
  -2   5   8 2285.18   89.40   1-0.73265-0.50837-0.42477-0.86000-0.53177 0.04420
   2   5  -8 2268.70   92.07   1-0.55338 0.18812-0.72967-0.87493-0.40166-0.44619
  -2  -5   8 2207.98   85.74   1 0.27000-0.47182-0.30163-0.15968-0.91439-0.86711
  -2  -5   8 2230.42   88.34   1 0.30329-0.43922-0.65420-0.51325 0.69284 0.73732
   2  -5  -8 2287.55   86.34   1-0.61553-0.84067 0.06229 0.49891 0.78564 0.21059
  -2   5   7  837.99   56.05   1-0.70670-0.45716-0.48729-0.88777-0.51294 0.05342
   2   5  -7  729.71   50.45   1-0.57573 0.13978-0.70278-0.88126-0.41788-0.45147
  -2  -5   7  824.94   54.38   1 0.25764-0.45843-0.31203-0.13676-0.91446-0.87814
  -2  -5   7  826.18   51.02   1 0.25962-0.45706-0.63676-0.46243 0.72602 0.75976
   2  -5  -7  858.67   57.76   1-0.60900-0.86006 0.05352 0.45685 0.79135 0.22709
  -2   5   6 5825.30  154.54   1-0.67803-0.40250-0.54596-0.91322-0.49213 0.06330
   2   5  -6 5566.21  148.08   1-0.59855 0.09097-0.67305-0.88474-0.43444-0.45710
  -2  -5   6 5531.65  160.82   1 0.24643-0.44388-0.32134-0.11274-0.91433-0.88896
  -2  -5   6 5568.85  149.57   1 0.21644-0.47443-0.61783-0.41011 0.75593 0.77891
   2  -5  -6 5673.70  162.12   1-0.60049-0.87747 0.04226 0.41231 0.79850 0.24503
  -2   5   5 2370.80   85.11   1-0.64649-0.34496-0.60154-0.93559-0.46923 0.07525
   2   5  -5 2316.06   85.17   1-0.62147 0.04205-0.64054-0.88546-0.45107-0.46280
  -2  -5   5 2214.84   89.53   1 0.23677-0.42778-0.32928-0.08736-0.91406-0.89964
  -2  -5   5 2405.85   78.83   1 0.17405-0.49100-0.59770-0.35660 0.78259 0.79482
   2  -5  -5 2322.95   82.73   1-0.58975-0.89264 0.02830 0.36506 0.80708 0.26440
   2   5  -4   78.36   30.11   1-0.64413-0.00659-0.60540-0.88353-0.46752-0.46831
  -2   5   4   38.06   28.68   1-0.61253-0.28501-0.65355-0.95438-0.44459 0.08897
  -2  -5   4   69.33   26.43   1 0.13279-0.50644-0.57669-0.30220 0.80609 0.80758
   2  -5  -4   76.01   29.77   1-0.57647-0.90527 0.01142 0.31490 0.81703 0.28514
   2   5  -3 1168.18   75.20   1-0.66617-0.05463-0.56781-0.87916-0.48352-0.47338
  -2   5   3 1194.25   56.18   1-0.57667-0.22316-0.70160-0.96921-0.41856 0.10406
  -2  -5   3 1328.57   60.48   1 0.09295-0.52047-0.55511-0.24723 0.82656 0.81730
   2  -5  -3 1229.57   62.70   1-0.56028-0.91500-0.00861 0.26157 0.82825 0.30715
   2   5  -2 4885.98  131.28   1-0.68728-0.10173-0.52801-0.87257-0.49884-0.47776
  -2   5   2 4525.03  120.31   1-0.53949-0.15999-0.74539-0.97978-0.39157 0.12011
  -2  -5   2 4622.82  122.42   1 0.05478-0.53282-0.53328-0.19202 0.84415 0.82415
   2  -5  -2 4539.36  122.87   1-0.54128-0.92167-0.03146 0.20393 0.84025 0.33002
   2   5  -1 1187.58   64.50   1-0.70716-0.14760-0.48627-0.86406-0.51327-0.48125
  -2   5   1 1246.13   59.03   1-0.50158-0.09609-0.78477-0.98594-0.36406 0.13668
  -2  -5   1 1229.16   60.97   1 0.01851-0.54327-0.51150-0.13685 0.85908 0.82832
   2  -5  -1 1199.08   66.37   1-0.51790-0.92418-0.05866 0.14343 0.85342 0.35399
   2   5   0   31.25   27.16   1-0.72558-0.19201-0.44291-0.85391-0.52664-0.48369
  -2   5   0  112.04   41.21   1-0.46356-0.03207-0.81969-0.98765-0.33646 0.15335
  -2  -5   0   31.82   31.94   1-0.01566-0.55163-0.49006-0.08202 0.87154 0.83004
   2  -5   0   24.99   27.14   1-0.49011-0.92226-0.08980 0.07897 0.86702 0.37840
   2   5   1 7115.85  182.17   1-0.74253-0.23475-0.39771-0.84134-0.53894-0.48684
  -2   5  -1 7057.29  193.70   1-0.42598 0.03149-0.85025-0.98499-0.30918 0.16969
  -2   5  -1 6608.24  205.57   1-0.79258-0.33330-0.59929-0.73558 0.11253 0.58976
  -2  -5  -1 7144.90  187.72   1-0.04759-0.55774-0.46921-0.02779 0.88179 0.82954
   2  -5   1 7160.05  194.83   1-0.45725-0.91528-0.12512 0.01034 0.88049 0.40267
   2  -5   2 4201.32  123.25   1 0.39132-0.09180 0.87532 0.97839 0.28403-0.18523
   2   5   2 4505.41  109.23   1-0.75752-0.27568-0.35192-0.82882-0.54982-0.48687
  -2   5  -2 4370.91  125.66   1-0.80650-0.32151-0.54839-0.65132 0.22090 0.68731
  -2  -5  -2 4386.98  113.36   1-0.07694-0.56112-0.44937 0.02550 0.89002 0.82734
   2  -5   2 4528.69  127.72   1-0.41860-0.90251-0.16479-0.06262 0.89309 0.42608
   2  -5   3 3240.61   98.62   1 0.35611-0.15298 0.89798 0.96776 0.25847-0.20007
   2   5   3 3088.81   96.79   1-0.77061-0.31473-0.30544-0.81559-0.55933-0.48552
  -2   5  -3 3025.27   95.91   1-0.80912-0.29839-0.49823-0.56779 0.31159 0.76718
  -2  -5  -3 3100.74   91.44   1-0.10411-0.56245-0.43039 0.07783 0.89661 0.82315
   2  -5   3 3188.82   92.22   1-0.37338-0.88317-0.20889-0.14004 0.90384 0.44764
   2  -5   4 6674.99  144.84   1 0.32269-0.21237 0.91706 0.95355 0.23422-0.21360
   2   5   4 6760.62  154.07   1-0.78177-0.35184-0.25853-0.80195-0.56743-0.48277
  -2   5  -4 6768.00  164.29   1-0.80448-0.26804-0.45126-0.48746 0.38620 0.83098
  -2  -5  -4 6639.63  160.34   1-0.12880-0.56131-0.41266 0.12893 0.90173 0.81749
   2  -5   4 6660.98  150.13   1-0.32079-0.85646-0.25739-0.22184 0.91150 0.46610
   2  -5   5 5042.19  132.78   1 0.29136-0.26968 0.93294 0.93614 0.21148-0.22562
   2   5   5 4976.37  120.40   1-0.79099-0.38701-0.21145-0.78813-0.57412-0.47861
  -2   5  -5 5243.78  144.46   1-0.79512-0.23127-0.40665-0.41094 0.44988 0.88183
  -2  -5  -5 5255.94  135.11   1-0.15100-0.55767-0.39630 0.17865 0.90561 0.81060
   2  -5   5 5283.18  142.62   1-0.26001-0.82156-0.31004-0.30781 0.91447 0.47987
   2  -5   6 4546.93  139.80   1 0.26234-0.32468 0.94600 0.91591 0.19041-0.23596
   2   5   6 4494.36  127.89   1-0.79834-0.42054-0.16397-0.77399-0.57945-0.47336
  -2   5  -6 4301.58  140.10   1-0.78412-0.19453-0.36914-0.34002 0.49888 0.92007
   2  -5   6 4507.10  141.84   1-0.19197-0.77845-0.36506-0.39689 0.91097 0.48629
  -2  -5  -6 4569.06  133.98   1-0.17070-0.55153-0.38145 0.22686 0.90849 0.80270
   2  -5   7  778.08   59.62   1 0.23576-0.37723 0.95662 0.89324 0.17112-0.24453
   2   5   7  740.31   49.21   1-0.80373-0.45189-0.11705-0.76036-0.58336-0.46652
  -2   5  -7  735.43   51.82   1-0.77256-0.15724-0.33670-0.27418 0.53830 0.94873
  -2  -5  -7  780.25   51.08   1-0.18793-0.54293-0.36819 0.27348 0.91055 0.79399
   2  -5   8 3130.07  109.33   1 0.21170-0.42726 0.96517 0.86850 0.15366-0.25127
   2   5   8 3171.51  111.86   1-0.80727-0.48140-0.07052-0.74710-0.58594-0.45833
  -2   5  -8 3223.41  112.69   1-0.76136-0.12030-0.30906-0.21314 0.56991 0.96958
  -2  -5  -8 3191.35  106.02   1-0.20274-0.53190-0.35661 0.31842 0.91198 0.78465
   2  -5   9 6395.53  148.19   1 0.19021-0.47473 0.97198 0.84202 0.13806-0.25615
   2   5   9 6335.65  145.57   1-0.80905-0.50914-0.02450-0.73436-0.58722-0.44886
  -2   5  -9 6432.96  182.51   1-0.75104-0.08425-0.28583-0.15651 0.59516 0.98407
  -2  -5  -9 6425.97  149.84   1-0.21517-0.51849-0.34675 0.36165 0.91294 0.77483
   2  -5  10 3589.85  115.02   1 0.17125-0.51966 0.97735 0.81410 0.12430-0.25918
   2   5  10 3745.70  111.95   1-0.80911-0.53517 0.02091-0.72222-0.58727-0.43815
  -2   5 -10 3461.71  105.36   1-0.74190-0.04938-0.26660-0.10388 0.61521 0.99336
  -2  -5 -10 3616.58  111.61   1-0.22527-0.50276-0.33863 0.40312 0.91355 0.76466
   2  -5  11  816.43   57.63   1 0.15479-0.56210 0.98153 0.78499 0.11235-0.26041
   2   5  11  750.66   55.67   1-0.80754-0.55956 0.06565-0.71076-0.58613-0.42625
  -2   5 -11  840.95   69.28   1-0.73408-0.01582-0.25094-0.05482 0.63098 0.99837
  -2  -5 -11  851.87   59.69   1-0.23310-0.48475-0.33228 0.44283 0.91391 0.75425
   2  -5  12 6069.84  150.19   1 0.14076-0.60211 0.98475 0.75492 0.10216-0.25988
   2   5  12 6222.87  132.60   1-0.80441-0.58239 0.10966-0.70004-0.58386-0.41322
  -2   5 -12 6265.39  180.42   1-0.72761 0.01638-0.23846-0.00894 0.64320 0.99982
  -2  -5 -12 6186.88  165.28   1-0.23870-0.46452-0.32771 0.48077 0.91412 0.74369
   2  -5  13 2908.47  100.78   1 0.12906-0.63978 0.98720 0.72408 0.09367-0.25764
   2   5  13 2950.00   90.19   1-0.79977-0.60372 0.15288-0.69010-0.58049-0.39909
  -2   5 -13 2958.25  107.28   1-0.72247 0.04726-0.22882 0.03409 0.65243 0.99830
  -2  -5 -13 2959.95   99.03   1-0.24212-0.44210-0.32490 0.51694 0.91422 0.73301
   2  -5  14 2234.10   85.49   1 0.11962-0.67520 0.98901 0.69260 0.08682-0.25377
   2   5  14 2144.95   87.69   1-0.79370-0.62361 0.19531-0.68095-0.57609-0.38393
  -2   5 -14 1947.13   87.83   1-0.71869 0.07649-0.22187 0.07538 0.65897 0.99421
  -2  -5 -14 2044.79   88.58   1-0.24366-0.41703-0.32363 0.55135 0.91426 0.72255
  -2   6  11 8638.80  251.26   1-0.78518-0.54219-0.24228-0.83523-0.56990 0.09167
   2  -6 -11 8833.83  234.48   1-0.55422-0.79849-0.01598 0.57695 0.83221 0.17183
  -2   6  10  287.83   42.99   1-0.77207-0.50313-0.29977-0.85947-0.56038 0.09034
  -2  -6  10  254.54   44.73   1 0.36459-0.52628-0.67556-0.54376 0.64084 0.65371
   2  -6 -10  277.89   51.80   1-0.55109-0.82124-0.01975 0.53987 0.83420 0.18463
  -2   6   9  964.80   62.78   1-0.75624-0.46135-0.35610-0.88253-0.54889 0.09097
  -2  -6   9  868.24   50.04   1 0.32360-0.54145-0.66170-0.49651 0.67633 0.67845
   2  -6  -9  906.61   52.93   1-0.54640-0.84243-0.02537 0.50094 0.83713 0.19836
  -2   6   8 6141.59  150.06   1-0.73781-0.41697-0.41091-0.90409-0.53552 0.09350
   2   6  -8 6036.49  175.54   1-0.60136 0.23665-0.66921-0.87237-0.43648-0.42774
  -2  -6   8 6095.58  141.23   1 0.28295-0.55628-0.64630-0.44773 0.70868 0.70005
   2  -6  -8 6249.37  153.15   1-0.54003-0.86194-0.03293 0.46006 0.84099 0.21303
  -2   6   7 3829.39  121.29   1-0.71641-0.37037-0.46514-0.92352-0.51998 0.09965
   2   6  -7 3538.66  112.36   1-0.61781 0.19421-0.64592-0.88230-0.44842-0.42874
  -2  -6   7 3569.97  104.94   1 0.24289-0.57053-0.62962-0.39767 0.73795 0.71857
   2  -6  -7 3648.67  111.45   1-0.53183-0.87962-0.04257 0.41712 0.84577 0.22861
  -2   6   6  900.91   63.97   1-0.69325-0.32122-0.51595-0.94110-0.50318 0.10553
   2   6  -6  803.75   66.03   1-0.63469 0.15133-0.62043-0.89002-0.46067-0.43006
  -2  -6   6  854.08   56.61   1 0.20368-0.58392-0.61193-0.34659 0.76423 0.73410
   2  -6  -6  842.28   66.88   1-0.52162-0.89529-0.05439 0.37199 0.85143 0.24508
   2   6  -5 5403.12  143.52   1-0.65178 0.10825-0.59277-0.89558-0.47307-0.43152
  -2   6   5 5582.50  133.69   1-0.66815-0.27012-0.56425-0.95619-0.48496 0.11281
  -2  -6   5 5529.47  138.01   1 0.16556-0.59622-0.59349-0.29476 0.78762 0.74674
   2  -6  -5 5676.08  146.40   1-0.50921-0.90875-0.06853 0.32454 0.85790 0.26235
   2   6  -4 4722.24  129.91   1-0.66883 0.06520-0.56301-0.89904-0.48545-0.43296
  -2   6   4 4887.39  122.47   1-0.64140-0.21738-0.60979-0.96851-0.46555 0.12128
  -2  -6   4 4915.03  136.56   1 0.12875-0.60721-0.57456-0.24245 0.80826 0.75664
   2  -6  -4 5035.17  126.02   1-0.49435-0.91977-0.08513 0.27463 0.86508 0.28033
   2   6  -3 4858.13  140.18   1-0.68563 0.02242-0.53128-0.90052-0.49764-0.43422
  -2   6   3 4803.88  116.95   1-0.61336-0.16335-0.65236-0.97787-0.44519 0.13070
  -2  -6   3 4868.17  122.49   1 0.09344-0.61670-0.55539-0.18989 0.82631 0.76394
   2  -6  -3 4837.81  135.55   1-0.47677-0.92808-0.10432 0.22213 0.87281 0.29886
   2   6  -2 1831.39   78.85   1-0.70194-0.01989-0.49768-0.90014-0.50948-0.43513
  -2   6   2 1915.62   79.59   1-0.58437-0.10837-0.69180-0.98408-0.42415 0.14081
  -2  -6   2 1788.68   82.59   1 0.05980-0.62452-0.53622-0.13733 0.84195 0.76883
   2  -6  -2 1885.60   74.78   1-0.45618-0.93336-0.12624 0.16690 0.88088 0.31774
   2   6  -1 3383.25  105.34   1-0.71758-0.06152-0.46238-0.89806-0.52083-0.43554
  -2   6   1 3077.85   95.35   1-0.55482-0.05282-0.72800-0.98707-0.40270 0.15132
  -2  -6   1 3345.32  109.11   1 0.02797-0.63054-0.51728-0.08500 0.85535 0.77148
   2  -6  -1 3367.54  103.64   1-0.43224-0.93530-0.15100 0.10883 0.88902 0.33669
   2   6   0 9518.24  206.71   1-0.73252-0.10223-0.42510-0.89343-0.53168-0.43739
  -2   6   0 9269.50  184.56   1-0.52508 0.00290-0.76094-0.98679-0.38111 0.16197
  -2  -6   0 9331.54  200.86   1-0.00193-0.63462-0.49878-0.03312 0.86672 0.77210
   2  -6   0 9566.21  223.29   1-0.40457-0.93351-0.17873 0.04779 0.89686 0.35534
   2   6   1  455.39   47.26   1-0.74629-0.14194-0.38682-0.88841-0.54167-0.43653
  -2   6  -1  479.32   51.97   1-0.49551 0.05847-0.79064-0.98327-0.35965 0.17250
  -2  -6  -1  425.33   51.15   1-0.02982-0.63670-0.48091 0.01813 0.87626 0.77089
   2  -6   1  461.63   43.13   1-0.37277-0.92759-0.20948-0.01626 0.90396 0.37324
   2   6   2 1983.99   82.24   1-0.75889-0.18049-0.34738-0.88223-0.55082-0.43482
  -2   6  -2 2087.34   83.36   1-0.46645 0.11352-0.81718-0.97659-0.33856 0.18265
  -2  -6  -2 2035.47   87.11   1-0.05563-0.63669-0.46384 0.06859 0.88416 0.76805
   2  -6   2 2083.24   76.40   1-0.33640-0.91710-0.24329-0.08338 0.90974 0.38982
   2   6   315231.50  275.70   1-0.77021-0.21777-0.30698-0.87508-0.55904-0.43219
  -2   6  -315312.59  273.21   1-0.43821 0.16775-0.84071-0.96690-0.31806 0.19221
  -2  -6  -314959.29  280.27   1-0.07914-0.63422-0.44785 0.11803 0.89059 0.76409
   2  -6   315508.87  270.23   1-0.29503-0.90161-0.28013-0.15353 0.91349 0.40438
   2   6   4 5408.76  130.00   1-0.78018-0.25369-0.26578-0.86715-0.56627-0.42857
  -2   6  -4 5289.54  132.26   1-0.41107 0.22088-0.86138-0.95436-0.29837 0.20097
  -2  -6  -4 5332.65  134.81   1-0.10073-0.62997-0.43279 0.16645 0.89584 0.75856
   2  -6   4 5493.48  160.56   1-0.24819-0.88065-0.31989-0.22660 0.91436 0.41605
   2  -6   5 1718.70   69.76   1 0.38676-0.27082 0.87841 0.93952 0.28072-0.20963
   2   6   5 1775.15   80.57   1-0.78873-0.28818-0.22399-0.85862-0.57247-0.42392
  -2  -6  -5 1852.53   76.49   1-0.12018-0.62358-0.41891 0.21369 0.90003 0.75198
   2  -6   5 1805.98   84.42   1-0.19696-0.85435-0.36115-0.30197 0.91146 0.42295
   2  -6   6 3172.18   96.10   1 0.36243-0.32113 0.89411 0.92193 0.26306-0.21657
   2   6   6 3270.38   98.97   1-0.79581-0.32122-0.18176-0.84965-0.57761-0.41821
  -2  -6  -6 3252.59  105.24   1-0.13749-0.61505-0.40630 0.25966 0.90333 0.74449
   2  -6   7 6880.91  149.69   1 0.33976-0.36977 0.90760 0.90213 0.24661-0.22230
   2   6   7 7174.99  158.43   1-0.80146-0.35315-0.13877-0.84008-0.58171-0.41174
  -2  -6  -7 7402.88  174.97   1-0.15267-0.60441-0.39504 0.30427 0.90588 0.73627
   2  -6   8 4064.72  111.86   1 0.31888-0.41663 0.91909 0.88034 0.23145-0.22674
   2   6   8 4137.79  112.80   1-0.80555-0.38320-0.09605-0.83064-0.58468-0.40395
  -2  -6  -8 4363.26  125.73   1-0.16577-0.59167-0.38519 0.34749 0.90782 0.72744
   2  -6   9    6.97   41.06   1 0.29985-0.46163 0.92882 0.85677 0.21764-0.22983
   2   6   9   17.11   43.79   1-0.80814-0.41175-0.05332-0.82120-0.58656-0.39507
  -2  -6  -9   43.67   39.88   1-0.17681-0.57687-0.37678 0.38927 0.90927 0.71811
   2  -6  10  588.71   62.57   1 0.28273-0.50472 0.93698 0.83164 0.20521-0.23153
   2   6  10  642.36   48.77   1-0.80924-0.43882-0.01070-0.81185-0.58736-0.38512
  -2  -6 -10  671.82   56.86   1-0.18581-0.56004-0.36984 0.42957 0.91032 0.70839
   2   7  -3 2746.14  118.39   1-0.70746 0.09709-0.48561-0.91275-0.51349-0.39679
  -2   7   3 3162.98  109.91   1-0.64823-0.10171-0.59868-0.98207-0.47050 0.15867
  -2  -7   3 3006.89  108.94   1 0.10961-0.69725-0.56429-0.14117 0.81826 0.70278
   2  -7  -3 2949.34  108.76   1-0.39404-0.94212-0.18904 0.19516 0.89944 0.27259
   2   7  -2 2188.39   99.90   1-0.72006 0.05849-0.45645-0.91681-0.52263-0.39500
  -2   7   2 2311.33   87.72   1-0.62532-0.05280-0.63480-0.98498-0.45387 0.16437
  -2  -7   2 2265.24   86.62   1 0.07948-0.70157-0.54754-0.09103 0.83299 0.70675
   2  -7  -2 2399.53   95.30   1-0.37315-0.94712-0.20911 0.14177 0.90389 0.28784
   2   7  -1 1590.41   82.80   1-0.73242 0.02038-0.42537-0.91839-0.53161-0.39513
  -2   7   1 1717.70   89.11   1-0.60194-0.00344-0.66840-0.98536-0.43690 0.17039
  -2  -7   1 1576.17   72.55   1 0.05103-0.70420-0.53108-0.04118 0.84578 0.70880
   2  -7  -1 1611.51   74.76   1-0.34933-0.94917-0.23143 0.08614 0.90796 0.30272
   2   7   0  158.73   49.75   1-0.74410-0.01725-0.39319-0.91947-0.54009-0.39276
  -2   7   0  170.40   51.11   1-0.57837 0.04612-0.69946-0.98320-0.41980 0.17657
  -2  -7   0  109.97   51.01   1 0.02433-0.70508-0.51507 0.00821 0.85680 0.70907
   2  -7   0  167.80   40.85   1-0.32231-0.94803-0.25603 0.02823 0.91135 0.31691
   2   7   1 2990.76  112.56   1-0.75512-0.05421-0.35971-0.91925-0.54808-0.38990
  -2   7  -1 2677.86  101.96   1-0.55485 0.09563-0.72797-0.97850-0.40272 0.18271
  -2  -7  -1 2899.36  117.08   1-0.00055-0.70415-0.49965 0.05702 0.86622 0.70775
   2  -7   1 2877.67  107.74   1-0.29182-0.94342-0.28292-0.03196 0.91366 0.33003
   2   7   2 1803.56   85.59   1-0.76534-0.09038-0.32505-0.91786-0.55550-0.38646
  -2   7  -2 1749.86   87.45   1-0.53161 0.14487-0.75399-0.97130-0.38585 0.18864
  -2  -7  -2 1815.03   77.44   1-0.02359-0.70138-0.48495 0.10510 0.87422 0.70499
   2  -7   2 1627.97   81.27   1-0.25759-0.93507-0.31207-0.09442 0.91446 0.34164
   2   7   3   32.34   48.26   1-0.77467-0.12567-0.28935-0.91541-0.56227-0.38238
  -2   7  -3   59.25   46.66   1-0.50887 0.19360-0.77757-0.96166-0.36935 0.19420
  -2  -7  -3   67.86   51.28   1-0.04476-0.69672-0.47109 0.15234 0.88094 0.70096
  -3   0  19   -9.13   58.20   1 0.16498-0.40177-0.38579-0.84043-0.90771-0.36365
   3   0 -19   -3.00   37.52   1-0.80888-0.24014 0.49250 0.94565 0.32117-0.21924
  -3   0  18 7185.15  179.26   1 0.12950-0.41150-0.41215-0.83347-0.90186-0.36876
   3   0 -18 6868.91  201.60   1-0.80926-0.26640 0.51284 0.93268 0.28649-0.24317
  -3   0  17  -18.02   33.09   1 0.09258-0.42266-0.43851-0.82651-0.89393-0.37179
   3   0 -17    8.91   31.77   1-0.80842-0.29254 0.53126 0.91861 0.25336-0.26563
  -3   0  16 1902.57   82.98   1 0.05410-0.43539-0.46487-0.81954-0.88372-0.37253
   3   0 -16 1862.17   79.11   1-0.80635-0.31631 0.54944 0.90344 0.21886-0.28937
  -3   0  15    4.08   54.70   1 0.01389-0.44984-0.49119-0.81253-0.87094-0.37070
   3   0 -15    7.12   34.62   1-0.80309-0.33889 0.56658 0.88722 0.18446-0.31301
  -3   0  1413094.47  313.00   1-0.02857-0.46718-0.51764-0.80472-0.85511-0.36626
   3   0 -1412892.58  287.34   1-0.79869-0.36034 0.58269 0.86998 0.15016-0.33655
  -3   0  13    2.38   36.18   1-0.07272-0.48550-0.54369-0.79749-0.83612-0.35817
   3   0 -13   12.32   25.43   1-0.79349-0.38197 0.59708 0.85167 0.11768-0.35881
  -3   0  12 4865.23  116.29   1-0.11908-0.50603-0.56941-0.78993-0.81338-0.34632
   3   0 -12 4878.24  110.40   1-0.78697-0.40124 0.61128 0.83248 0.08364-0.38205
  -3   0  11    4.01   27.93   1-0.16777-0.52888-0.59459-0.78184-0.78632-0.33015
   3   0 -11    3.28   22.84   1-0.77942-0.41947 0.62452 0.81234 0.04974-0.40514
  -3   0  10 6559.13  150.81   1-0.21888-0.55416-0.61895-0.77291-0.75431-0.30903
   3   0 -10 6371.45  151.90   1-0.77085-0.43669 0.63680 0.79124 0.01603-0.42805
  -3   0   9   33.22   28.15   1-0.27298-0.58284-0.64228-0.76198-0.71620-0.28225
   3   0  -9   13.22   27.53   1-0.76131-0.45293 0.64814 0.76920-0.01746-0.45074
  -3   0   8 1204.14   62.62   1-0.32882-0.61281-0.66356-0.75001-0.67198-0.24886
   3   0  -8 1178.39   57.06   1-0.75082-0.46823 0.65855 0.74622-0.05071-0.47318
  -3   0   7   51.51   19.79   1-0.38663-0.64475-0.68228-0.73549-0.62049-0.20820
   3   0  -7    3.56   25.03   1-0.73942-0.48262 0.66801 0.72230-0.08365-0.49532
  -3   0   616285.41  263.89   1-0.44580-0.67804-0.69752-0.71749-0.56099-0.15954
   3   0  -616422.85  299.21   1-0.72716-0.49614 0.67654 0.69745-0.11623-0.51709
  -3   0   5    7.12   22.17   1-0.50538-0.71176-0.70819-0.69492-0.49299-0.10236
   3   0  -5    3.25   22.61   1-0.71408-0.50885 0.68414 0.67167-0.14837-0.53844
  -3   0   4  295.48   31.35   1-0.56402-0.74453-0.71310-0.66658-0.41635-0.03656
   3   0  -4  290.18   30.12   1-0.70025-0.52081 0.69082 0.64496-0.18000-0.55926
   3   0  -3   19.19   12.88   1 0.02948 0.18471 0.99933 0.91934 0.02140-0.34739
  -3   0   3    2.77   22.11   1-0.62017-0.77459-0.71106-0.63133-0.33133 0.03764
   3   0  -3   -0.02   19.18   1-0.68576-0.53210 0.69656 0.61732-0.21100-0.57946
   3   0  -2  923.06   46.28   1-0.22867-0.09935 0.95924 0.84593-0.16598-0.52395
  -3   0   2  973.56   50.17   1-0.67143-0.80001-0.70118-0.58819-0.23980 0.11836
   3   0  -2  934.55   50.41   1-0.67069-0.54281 0.70140 0.58877-0.24125-0.59890
   3   0  -1   17.95   12.51   1-0.36630-0.26300 0.89170 0.74497-0.26587-0.61306
  -3   0   1   38.05   22.47   1-0.71602-0.81874-0.68311-0.53684-0.14376 0.20360
   3   0  -1    2.25   18.17   1-0.65518-0.55310 0.70534 0.55933-0.27058-0.61743
   3   0   0 5821.71  141.55   1-0.44588-0.36858 0.83453 0.65451-0.32363-0.66012
  -3   0   0 5933.99  129.79   1-0.75235-0.82903-0.65714-0.47773-0.04604 0.29064
   3   0   0 5546.43  140.77   1-0.63942-0.56311 0.70841 0.52902-0.29880-0.63484
   3   0   1   12.80   16.81   1-0.49493-0.44361 0.79119 0.57788-0.35923-0.68502
  -3   0  -1   65.08   27.02   1-0.77942-0.83004-0.62452-0.41204 0.04974 0.37581
   3   0   1    8.65   25.16   1-0.62361-0.57309 0.71067 0.49790-0.32565-0.65088
   3   0   3    3.91   18.62   1-0.54622-0.54690 0.73787 0.45796-0.39646-0.70082
  -3   0  -3   -4.71   19.59   1-0.80670-0.80589-0.54701-0.26780 0.22359 0.52803
   3   0   3    9.51   18.72   1-0.59316-0.59422 0.71299 0.43346-0.37387-0.67750
   3   0   413010.29  241.96   1-0.55883-0.58550 0.72331 0.41010-0.40561-0.69928
  -3   0  -412851.27  246.60   1-0.80928-0.78274-0.50633-0.19376 0.29779 0.59140
   3   0   412304.12  258.22   1-0.57944-0.60629 0.71328 0.40036-0.39429-0.68711
   3   0   5   41.17   20.75   1-0.56623-0.61889 0.71447 0.36797-0.41098-0.69395
  -3   0  -5   70.79   21.93   1-0.80667-0.75441-0.46686-0.12093 0.36236 0.64516
   3   0   5   17.26   18.40   1-0.56761-0.62024 0.71319 0.36688-0.41130-0.69331
   3   0   6 9022.00  181.27   1-0.56981-0.64845 0.71011 0.33031-0.41358-0.68585
  -3   0  -6 9366.75  173.77   1-0.80062-0.72160-0.43025-0.05158 0.41699 0.69037
   3   0   6 8751.15  181.28   1-0.55867-0.63708 0.71292 0.33323-0.42382-0.69503
   3   0   7    4.93   24.26   1-0.57048-0.67511 0.70929 0.29620-0.41407-0.67563
  -3   0  -7   12.28   26.49   1-0.79248-0.68773-0.39677 0.01529 0.46317 0.72579
   3   0   7   -1.69   12.21   1-0.55404-0.65824 0.71272 0.29965-0.43018-0.69059
   3   0   810763.47  198.63   1-0.56885-0.69947 0.71128 0.26490-0.41288-0.66375
  -3   0  -810840.58  192.90   1-0.78343-0.65295-0.36708 0.07838 0.50147 0.75332
   3   0   9   35.53   24.10   1-0.56534-0.72194 0.71554 0.23586-0.41034-0.65050
  -3   0  -9   26.00   30.98   1-0.77431-0.61808-0.34129 0.13756 0.53287 0.77397
   3   0  1011564.14  217.63   1-0.56026-0.74284 0.72162 0.20865-0.40665-0.63611
  -3   0 -1011374.52  239.39   1-0.76566-0.58371-0.31933 0.19293 0.55836 0.78870
   3   0  11    7.53   25.15   1-0.55381-0.76238 0.72918 0.18292-0.40197-0.62073
  -3   0 -11   -0.60   26.69   1-0.75787-0.55017-0.30099 0.24467 0.57881 0.79839
   3   0  12 6368.94  176.09   1-0.54616-0.78071 0.73794 0.15838-0.39641-0.60447
  -3   0 -12 6291.45  182.04   1-0.75112-0.51769-0.28600 0.29306 0.59498 0.80380
   3   0  13   -0.80   24.45   1-0.53741-0.79796 0.74767 0.13482-0.39007-0.58743
  -3   0 -13  -30.83   62.89   1-0.74552-0.48635-0.27408 0.33838 0.60751 0.80557
   3   0  14 2201.77   81.24   1-0.52764-0.81420 0.75822 0.11214-0.38297-0.56964
  -3   0 -14 1948.34   80.40   1-0.74108-0.45618-0.26492 0.38094 0.61692 0.80422
   3   0  15    4.41   26.65   1-0.51696-0.82951 0.76938 0.09001-0.37522-0.55118
  -3   0 -15    3.28   42.43   1-0.73779-0.42715-0.25828 0.42098 0.62365 0.80019
   3   0  16 8639.08  174.17   1-0.50538-0.84392 0.78103 0.06837-0.36682-0.53208
  -3   0 -16 8689.14  176.95   1-0.73558-0.39921-0.25389 0.45877 0.62804 0.79382
   3   0  17  -15.52   29.88   1-0.49295-0.85747 0.79308 0.04712-0.35779-0.51235
  -3   0 -17    3.63   62.87   1-0.73439-0.37228-0.25155 0.49452 0.63038 0.78539
   3   0  18   -8.46   32.13   1-0.47967-0.87019 0.80541 0.02617-0.34816-0.49201
  -3   0 -18   16.73   50.63   1-0.73413-0.34629-0.25104 0.52842 0.63088 0.77514
   3   0  19   -2.25   42.19   1-0.46557-0.88207 0.81795 0.00542-0.33792-0.47107
  -3   0 -19   12.95   55.37   1-0.73473-0.32114-0.25220 0.56066 0.62973 0.76322
  -3   1  19  573.11   59.52   1 0.16318-0.30673-0.38715-0.89970-0.90745-0.31054
  -3  -1  19  561.16   74.92   1 0.18171-0.48188-0.37301-0.76975-0.90985-0.41866
   3  -1 -19  613.32   55.35   1-0.79835-0.32635 0.41991 0.93130 0.43161-0.16178
   3   1 -19  551.81   48.57   1-0.80558-0.14123 0.55421 0.95014 0.20949-0.27800
  -3  -1  18 7633.46  164.61   1 0.14853-0.48931-0.39814-0.76155-0.90521-0.42497
  -3   1  18 7417.71  178.36   1 0.12584-0.31832-0.41481-0.89404-0.90116-0.31520
   3  -1 -18 7522.81  168.73   1-0.80237-0.35625 0.43912 0.91718 0.40418-0.17845
  -3   1  17   88.67   58.14   1 0.08688-0.33153-0.44249-0.88839-0.89255-0.31754
  -3  -1  17   57.73   72.89   1 0.11411-0.49797-0.42327-0.75336-0.89878-0.42950
   3  -1 -17  112.14   34.96   1-0.80540-0.38517 0.45730 0.90205 0.37709-0.19479
   3   1 -17   73.18   41.53   1-0.79526-0.18370 0.59259 0.92281 0.12803-0.33862
  -3   1  1615119.15  299.68   1 0.04615-0.34650-0.47017-0.88274-0.88136-0.31731
  -3  -1  1614778.70  276.55   1 0.07834-0.50798-0.44840-0.74516-0.89039-0.43206
   3  -1 -1614231.36  328.57   1-0.80751-0.41317 0.47449 0.88593 0.35037-0.21075
   3   1 -1614653.94  307.60   1-0.78752-0.20176 0.61020 0.90704 0.08630-0.36955
  -3  -1  15  551.81   68.56   1 0.04108-0.51948-0.47352-0.73696-0.87981-0.43244
  -3   1  15  555.21   53.71   1 0.00314-0.36464-0.49802-0.87644-0.86715-0.31444
   3  -1 -15  571.38   53.99   1-0.80879-0.44033 0.49074 0.86885 0.32408-0.22628
   3   1 -15  548.98   49.86   1-0.77816-0.21818 0.62647 0.88993 0.04452-0.40052
  -3  -1  14 1068.08   69.38   1 0.00179-0.53348-0.49886-0.72788-0.86667-0.43079
  -3   1  14 1090.69   66.81   1-0.04162-0.38358-0.52550-0.87064-0.84977-0.30795
   3  -1 -14 1187.94   59.28   1-0.80928-0.46670 0.50605 0.85084 0.29828-0.24132
   3   1 -14 1163.37   57.38   1-0.76718-0.23299 0.64142 0.87148 0.00270-0.43153
  -3   1  13   50.05   35.58   1-0.08866-0.40478-0.55272-0.86459-0.82863-0.29770
  -3  -1  13   10.56   71.46   1-0.03894-0.54839-0.52390-0.71963-0.85088-0.42590
   3  -1 -13    1.16   27.40   1-0.80906-0.49237 0.52045 0.83193 0.27301-0.25583
   3   1 -13   19.11   29.09   1-0.75459-0.24618 0.65502 0.85171-0.03913-0.46257
  -3  -1  1231188.38  713.27   1-0.08165-0.56526-0.54877-0.71122-0.83197-0.41788
  -3   1  1231048.50  715.67   1-0.13812-0.42840-0.57948-0.85807-0.80319-0.28316
   3  -1 -1231006.50  685.53   1-0.80826-0.51837 0.53321 0.81192 0.24977-0.26845
   3   1 -1230210.49  679.11   1-0.74038-0.25776 0.66728 0.83059-0.08100-0.49363
  -3  -1  11  823.95   53.97   1-0.12649-0.58427-0.57336-0.70254-0.80947-0.40627
  -3   1  11  837.12   52.68   1-0.19008-0.45453-0.60549-0.85080-0.77281-0.26367
   3  -1 -11  819.14   48.20   1-0.80686-0.54281 0.54586 0.79122 0.22582-0.28163
   3   1 -11  834.73   48.95   1-0.72455-0.26771 0.67818 0.80810-0.12285-0.52468
  -3  -1  10 8806.73  171.27   1-0.17360-0.60554-0.59748-0.69338-0.78286-0.39055
  -3   1  10 8783.88  158.38   1-0.24458-0.48320-0.63036-0.84239-0.73676-0.23852
   3  -1 -10 8777.01  189.87   1-0.80496-0.56676 0.55762 0.76963 0.20268-0.29401
   3   1 -10 8641.25  190.19   1-0.70708-0.27603 0.68768 0.78422-0.16466-0.55569
  -3  -1   9  871.85   54.03   1-0.22308-0.62919-0.62085-0.68347-0.75151-0.37010
  -3   1   9  928.10   55.59   1-0.30223-0.51554-0.65380-0.83158-0.69368-0.20658
   3  -1  -9  918.47   51.17   1-0.80264-0.59027 0.56851 0.74716 0.18046-0.30547
   3   1  -9  961.97   54.94   1-0.68798-0.28271 0.69576 0.75891-0.20639-0.58661
  -3   1   7 2557.03   89.51   1-0.80319-0.96522-0.12251-0.23309-0.58297-0.11837
  -3  -1   7 2766.24   89.60   1-0.32966-0.68432-0.66385-0.65898-0.67127-0.31214
  -3   1   7 2661.90   81.02   1-0.42186-0.58343-0.69186-0.80316-0.58595-0.12051
   3  -1  -7 2722.93   97.09   1-0.79707-0.63640 0.58757 0.69952 0.13936-0.32503
   3   1  -7 2737.80   86.21   1-0.64480-0.29111 0.70746 0.70385-0.28933-0.64794
  -3   1   6 3222.80   98.77   1-0.74633-0.88186-0.38670-0.46329-0.54170-0.08761
  -3  -1   6 3325.99   91.22   1-0.38596-0.71475-0.68208-0.64396-0.62111-0.27282
  -3   1   6 3318.31   97.75   1-0.48310-0.61880-0.70481-0.78286-0.51947-0.06486
   3  -1  -6 3568.21  101.58   1-0.79428-0.66014 0.59512 0.67393 0.12223-0.33168
   3   1  -6 3434.13   98.81   1-0.62073-0.29283 0.71100 0.67400-0.33039-0.67820
  -3   1   5 3369.71   99.44   1-0.62256-0.73258-0.63891-0.68061-0.45187-0.00876
  -3  -1   5 3490.65  106.28   1-0.44377-0.74668-0.69707-0.62571-0.56316-0.22569
  -3   1   5 3583.63  103.32   1-0.54367-0.65350-0.71211-0.75692-0.44420-0.00042
   3  -1  -5 3487.42  105.95   1-0.79127-0.68292 0.60231 0.64774 0.10540-0.33771
   3   1  -5 3505.42  105.89   1-0.59503-0.29291 0.71292 0.64254-0.37104-0.70805
   3  -1  -3 4170.74  113.21   1 0.28410 0.34278 0.93635 0.91427 0.20620-0.21585
   3   1  -3 3994.73  110.25   1-0.67781-0.42613 0.54637 0.40818-0.49197-0.80733
  -3  -1   3 4138.52  111.49   1-0.55996-0.81114-0.71297-0.57512-0.42203-0.10622
  -3   1   3 4131.11  109.99   1-0.65599-0.71381-0.70516-0.68343-0.26911 0.15293
   3  -1  -3 4146.33  124.53   1-0.78584-0.72906 0.61346 0.59212 0.07821-0.34329
   3   1  -3 4171.67  112.30   1-0.53887-0.28833 0.71176 0.57462-0.45055-0.76594
   3  -1  -2  118.35   22.84   1 0.12003 0.15274 0.98894 0.93357 0.08712-0.32421
   3   1  -2  102.56   19.25   1-0.70683-0.48141 0.48700 0.31543-0.51303-0.81776
  -3  -1   2  121.20   22.79   1-0.61544-0.84063-0.71154-0.54053-0.33901-0.03391
  -3   1   2  125.41   25.30   1-0.70339-0.73536-0.68941-0.63442-0.17302 0.23822
   3  -1  -2  114.76   26.45   1-0.78380-0.75281 0.61719 0.56246 0.06879-0.34191
   3   1  -2  120.32   24.42   1-0.50859-0.28383 0.70862 0.53809-0.48907-0.79365
   3  -1  -1 6910.60  158.43   1-0.01564-0.00891 0.99981 0.91115-0.01135-0.41196
   3   1  -1 6956.80  151.36   1-0.71883-0.51938 0.45941 0.25454-0.52174-0.81575
  -3  -1   1 6702.85  140.23   1-0.66651-0.86584-0.70256-0.49829-0.24933 0.04495
  -3   1   1 7022.88  153.91   1-0.74284-0.74859-0.66534-0.57716-0.07406 0.32631
   3  -1  -1 6899.89  162.74   1-0.78251-0.77730 0.61943 0.53133 0.06303-0.33686
   3   1  -1 6859.40  163.18   1-0.47700-0.27803 0.70375 0.49984-0.52649-0.82027
   3  -1   1   11.88   17.00   1-0.20390-0.24903 0.96773 0.81249-0.14799-0.52709
   3   1   1   36.11   26.16   1-0.72400-0.57649 0.44683 0.17538-0.52550-0.79805
  -3  -1  -1   21.28   17.04   1-0.74789-0.89549-0.66115-0.39052-0.05947 0.21350
  -3   1  -1    0.24   37.02   1-0.79338-0.74712-0.59736-0.44269 0.11704 0.49581
   3  -1   1   43.93   26.48   1-0.78333-0.82970 0.61801 0.46314 0.06669-0.31159
   3   1   1   15.62   18.50   1-0.41078-0.26338 0.68901 0.41833-0.59709-0.86926
   3  -1   3 1730.17   68.34   1-0.31219-0.40929 0.92259 0.70077-0.22659-0.58429
   3   1   3 1855.60   73.62   1-0.71855-0.62298 0.46007 0.12202-0.52154-0.77265
  -3  -1  -3 1737.57   72.27   1-0.79444-0.89051-0.59471-0.25769 0.12318 0.37492
  -3   1  -3 1779.61   71.18   1-0.80920-0.71149-0.51609-0.29469 0.28078 0.63790
  -3  -1  -3 1800.18   69.67   1 0.34163 0.24384-0.66801-0.33033 0.66109 0.91182
   3  -1   3 1743.76   67.93   1-0.79079-0.88873 0.60338 0.38174 0.10286-0.25382
   3  -1   5 1015.63   61.53   1-0.37320-0.52230 0.88732 0.59886-0.27088-0.60708
   3   1   5 1015.28   63.93   1-0.70770-0.66406 0.48508 0.08044-0.51366-0.74333
  -3  -1  -5 1040.77   54.10   1-0.80915-0.85378-0.51772-0.11397 0.27788 0.50799
  -3   1  -5 1009.96   56.43   1-0.80195-0.65158-0.43688-0.14964 0.40743 0.74366
  -3  -1  -5  986.72   51.28   1 0.27541 0.22926-0.64327-0.23882 0.71438 0.94361
   3  -1   5 1015.16   50.55   1-0.80523-0.95468 0.55616 0.26790 0.20561-0.12963
   3  -1   610183.86  208.01   1-0.39227-0.56735 0.87467 0.55293-0.28471-0.61022
   3   1   610531.76  199.25   1-0.70082-0.68315 0.50009 0.06216-0.50867-0.72761
  -3  -1  -610183.78  209.46   1-0.80804-0.82695-0.48016-0.04304 0.34133 0.56062
  -3   1  -610202.86  187.51   1-0.79379-0.61769-0.40156-0.08092 0.45677 0.78224
  -3  -1  -610632.75  191.28   1 0.24437 0.22404-0.63027-0.19243 0.73691 0.95539
   3  -1   6 9948.52  208.12   1-0.80910-0.98426 0.49783 0.17626 0.31226-0.01218
   3  -1   7  380.03   37.70   1-0.40589-0.60697 0.86513 0.51009-0.29460-0.60941
   3   1   7  384.58   37.98   1-0.69313-0.70143 0.51620 0.04497-0.50309-0.71131
  -3  -1  -7  430.42   41.55   1-0.80357-0.79591-0.44578 0.02431 0.39439 0.60492
  -3   1  -7  382.42   39.49   1-0.78436-0.58253-0.36989-0.01585 0.49794 0.81265
  -3  -1  -7  416.79   37.87   1 0.21556 0.22104-0.61743-0.14621 0.75650 0.96424
   3  -1   810845.60  217.16   1-0.41518-0.64224 0.85838 0.47005-0.30134-0.60544
   3   1   810888.79  219.04   1-0.68468-0.71896 0.53313 0.02861-0.49696-0.69446
  -3  -1  -810718.68  238.96   1-0.79698-0.76358-0.41408 0.08940 0.43971 0.63948
  -3   1  -810966.59  239.75   1-0.77461-0.54703-0.34209 0.04534 0.53192 0.83587
  -3  -1  -810893.45  228.89   1 0.18963 0.22093-0.60527-0.10066 0.77309 0.97008
   3  -1   9  368.80   36.09   1-0.42092-0.67398 0.85409 0.43248-0.30552-0.59891
   3   1   9  360.80   34.34   1-0.67549-0.73564 0.55074 0.01303-0.49029-0.67724
  -3  -1  -9  404.52   49.08   1-0.78940-0.73027-0.38604 0.15084 0.47728 0.66629
  -3   1  -9  376.51   48.24   1-0.76517-0.51187-0.31815 0.10268 0.55971 0.85290
  -3  -1  -9  343.14   34.19   1 0.16723 0.22435-0.59432-0.05632 0.78664 0.97287
   3  -1  1033191.98  432.77   1-0.42375-0.70280 0.85195 0.39705-0.30757-0.59026
   3   1  1033406.71  454.99   1-0.66565-0.75179 0.56874-0.00226-0.48314-0.65939
  -3  -1 -1033138.02  529.22   1-0.78165-0.69678-0.36178 0.20850 0.50805 0.68630
  -3   1 -1033403.21  531.51   1-0.75650-0.47746-0.29789 0.15634 0.58220 0.86463
   3  -1  11 1114.50   58.12   1-0.42412-0.72916 0.85167 0.36348-0.30783-0.57983
   3   1  11 1170.86   63.50   1-0.65516-0.76728 0.58705-0.01724-0.47553-0.64107
  -3  -1 -11 1163.01   79.15   1-0.77428-0.66367-0.34121 0.26247 0.53297 0.70045
  -3   1 -11 1058.31  226.06   1-0.74883-0.44405-0.28108 0.20655 0.60019 0.87186
  -3  -1 -11  914.74   59.87   1 0.13557 0.24432-0.57815 0.02662 0.80458 0.96932
   3  -1  1228140.66  610.44   1-0.42238-0.75340 0.85299 0.33151-0.30657-0.56786
   3   1  1227428.50  631.06   1-0.64402-0.78213 0.60557-0.03201-0.46744-0.62229
  -3  -1 -1228479.32  601.61   1-0.76762-0.63128-0.32414 0.31294 0.55288 0.70960
  -3   1 -1227971.19  590.76   1-0.74231-0.41180-0.26743 0.25360 0.61436 0.87527
   3  -1  13   19.67   31.82   1-0.41880-0.77582 0.85568 0.30091-0.30397-0.55456
   3   1  13    3.32   26.15   1-0.63224-0.79634 0.62423-0.04665-0.45890-0.60304
   3  -1  1414330.89  336.02   1-0.41360-0.79661 0.85953 0.27147-0.30020-0.54009
   3   1  1414221.71  330.33   1-0.61984-0.80991 0.64295-0.06122-0.44989-0.58333
  -3  -1 -1412408.21  285.38   1-0.75719-0.56938-0.29945 0.40443 0.58050 0.71570
  -3   1 -1413955.12  338.28   1-0.73283-0.35084-0.24850 0.33933 0.63339 0.87278
   3  -1  15  431.35   47.34   1-0.40695-0.81595 0.86437 0.24302-0.29537-0.52456
   3   1  15  419.21   39.05   1-0.60679-0.82285 0.66168-0.07579-0.44042-0.56316
  -3  -1 -15  504.66   52.80   1-0.75354-0.53999-0.29129 0.44600 0.58934 0.71378
  -3   1 -15  447.81   67.24   1-0.72983-0.32210-0.24269 0.37855 0.63909 0.86772
   3  -1  16  152.44   32.85   1-0.39896-0.83395 0.87004 0.21539-0.28957-0.50806
   3   1  16  163.25   34.92   1-0.59310-0.83515 0.68036-0.09039-0.43049-0.54253
  -3  -1 -16  183.34   43.14   1-0.75092-0.51163-0.28556 0.48512 0.59545 0.70913
  -3   1 -16  194.45   47.51   1-0.72789-0.29443-0.23900 0.41564 0.64268 0.86055
   3  -1  17  448.24   54.38   1-0.38974-0.85072 0.87640 0.18846-0.28288-0.49066
   3   1  17  456.98   44.87   1-0.57876-0.84680 0.69897-0.10509-0.42008-0.52142
  -3  -1 -17  403.29   65.19   1-0.74928-0.48426-0.28204 0.52205 0.59917 0.70210
  -3   1 -17  471.77   68.03   1-0.72696-0.26776-0.23722 0.45082 0.64440 0.85150
   3  -1  1821414.63  465.53   1-0.37936-0.86633 0.88332 0.16210-0.27535-0.47243
   3   1  1821969.56  515.48   1-0.56376-0.85778 0.71745-0.11990-0.40919-0.49983
  -3  -1 -1821928.27  477.88   1-0.74857-0.45781-0.28052 0.55697 0.60078 0.69295
  -3   1 -1822136.24  494.88   1-0.72693-0.24200-0.23718 0.48426 0.64444 0.84078
  -3   2  18 2938.98  121.24   1 0.13987-0.20745-0.40455-0.94168-0.90375-0.26493
  -3  -2  18 3317.90  110.30   1 0.18119-0.55348-0.37341-0.67892-0.90979-0.48241
   3  -2 -18 3303.60   98.61   1-0.78035-0.43063 0.35801 0.89410 0.51270-0.12296
   3   2 -18 3069.94  115.36   1-0.78069-0.04647 0.62246 0.92816 0.05515-0.36925
  -3  -2  17  898.30   56.50   1 0.14970-0.55922-0.39727-0.66945-0.90540-0.48898
  -3   2  17  806.35   68.25   1 0.09939-0.22218-0.43373-0.93754-0.89554-0.26767
   3  -2 -17  838.58   58.17   1-0.78575-0.46193 0.37419 0.87697 0.49251-0.13239
   3   2 -17  852.00   56.93   1-0.76861-0.06017 0.63966 0.91198 0.00781-0.40578
  -3  -2  16 2029.96   80.35   1 0.11709-0.56607-0.42113-0.65999-0.89940-0.49393
  -3   2  16 1781.03   83.43   1 0.05695-0.23886-0.46295-0.93344-0.88454-0.26764
   3  -2 -16 1996.04   78.67   1-0.79030-0.49268 0.38907 0.85874 0.47333-0.14077
   3   2 -16 1833.51   78.85   1-0.75450-0.07186 0.65510 0.89403-0.03939-0.44218
  -3  -2  15  386.33   55.38   1 0.08325-0.57415-0.44501-0.65054-0.89164-0.49713
  -3   2  15  361.55   42.39   1 0.01236-0.25770-0.49216-0.92932-0.87041-0.26446
   3  -2 -15  386.87   49.26   1-0.79422-0.52250 0.40320 0.83955 0.45456-0.14878
   3   2 -15  316.32   39.45   1-0.73841-0.08155 0.66878 0.87432-0.08644-0.47843
  -3  -2  14 6192.69  169.86   1 0.04805-0.58359-0.46890-0.64111-0.88193-0.49838
  -3   2  14 6119.76  167.92   1-0.03490-0.28020-0.52147-0.92468-0.85255-0.25776
   3  -2 -14 6228.25  170.28   1-0.79751-0.55168 0.41631 0.81934 0.43663-0.15595
   3   2 -14 6224.88  179.52   1-0.72035-0.08927 0.68068 0.85285-0.13328-0.51446
  -3  -2  13 3151.53  106.49   1 0.01135-0.59455-0.49281-0.63169-0.87005-0.49745
  -3   2  13 3199.70  112.73   1-0.08432-0.30378-0.55028-0.92021-0.83070-0.24681
   3  -2 -13 3350.99  104.06   1-0.80023-0.58028 0.42839 0.79810 0.41964-0.16218
   3   2 -13 3253.04  106.08   1-0.70032-0.09503 0.69079 0.82957-0.17986-0.55024
  -3  -2  12  599.56   56.50   1-0.02752-0.60779-0.51701-0.62139-0.85553-0.49441
  -3   2  12  585.66   49.31   1-0.13640-0.33002-0.57858-0.91523-0.80413-0.23113
   3  -2 -12  628.82   42.34   1-0.80243-0.60836 0.43942 0.77581 0.40374-0.16733
   3   2 -12  632.05   47.73   1-0.67834-0.09884 0.69907 0.80448-0.22612-0.58569
  -3  -2  11   78.85   36.74   1-0.06781-0.62225-0.54086-0.61197-0.83836-0.48814
  -3   2  11   56.43   23.33   1-0.19120-0.35899-0.60603-0.90940-0.77211-0.21000
   3  -2 -11   41.13   28.17   1-0.80418-0.63600 0.44937 0.75244 0.38905-0.17126
   3   2 -11   38.89   29.42   1-0.65444-0.10072 0.70550 0.77752-0.27196-0.62073
  -3   2  1011253.03  250.98   1-0.80880-0.95224-0.03465-0.30308-0.58705-0.03704
  -3  -2  1011869.33  244.49   1-0.11013-0.63873-0.56457-0.60240-0.81800-0.47866
  -3   2  1012247.41  234.69   1-0.24870-0.39066-0.63213-0.90223-0.73385-0.18264
   3  -2 -1011834.74  206.79   1-0.80553-0.66324 0.45818 0.72794 0.37574-0.17381
   3   2 -1011729.58  250.84   1-0.62862-0.10069 0.71004 0.74867-0.31727-0.65524
  -3   2   9  103.01   22.54   1-0.79777-0.91459-0.16814-0.40246-0.57904-0.03934
  -3  -2   9  113.21   32.42   1-0.15464-0.65741-0.58799-0.59254-0.79394-0.46550
  -3   2   9   90.41   26.19   1-0.30958-0.42636-0.65657-0.89243-0.68780-0.14754
   3  -2  -9  134.57   31.77   1-0.80654-0.69014 0.46581 0.70224 0.36400-0.17478
   3   2  -9  107.57   32.27   1-0.60095-0.09880 0.71263 0.71788-0.36195-0.68911
  -3   2   8   25.33   18.95   1-0.77044-0.86131-0.30610-0.50716-0.55920-0.03036
  -3  -2   8   19.77   20.25   1-0.20150-0.67844-0.61091-0.58218-0.76562-0.44807
  -3   2   8   32.35   24.68   1-0.37158-0.46249-0.67775-0.88037-0.63448-0.10506
   3  -2  -8   -0.98   29.66   1-0.80727-0.71675 0.47215 0.67527 0.35408-0.17395
   3   2  -8    7.38   28.82   1-0.57145-0.09509 0.71325 0.68512-0.40583-0.72219
  -3   2   7 4249.10  120.39   1-0.72329-0.78879-0.44859-0.61461-0.52498-0.00672
  -3  -2   7 4395.83  122.26   1-0.25081-0.70191-0.63304-0.57103-0.73235-0.42570
  -3   2   7 4338.65  104.14   1-0.43485-0.49988-0.69502-0.86440-0.57257-0.05397
   3  -2  -7 4369.25  112.87   1-0.80777-0.74314 0.47710 0.64690 0.34623-0.17104
   3   2  -7 4284.16  133.84   1-0.54022-0.08965 0.71186 0.65035-0.44877-0.75432
  -3  -2   635216.21  560.28   1-0.30295-0.72828-0.65407-0.55787-0.69310-0.39796
  -3   2   634828.51  549.93   1-0.49820-0.53736-0.70718-0.84332-0.50167 0.00609
   3   2  -634572.31  547.85   1-0.50737-0.08258 0.70846 0.61356-0.49056-0.78531
   3   2  -5 1862.88   67.47   1-0.79455-0.39529-0.18998-0.32051-0.57670-0.86082
  -3   2   5 1981.43   71.19   1-0.57274-0.58625-0.70650-0.80609-0.41571 0.08067
  -3  -2   5 1896.38   74.03   1-0.35713-0.75659-0.67317-0.54372-0.64752-0.36321
  -3   2   5 1967.14   71.00   1-0.56005-0.57335-0.71297-0.81586-0.42190 0.07503
   3  -2  -5 1988.34   78.96   1-0.80820-0.79535 0.48213 0.58529 0.33814-0.15761
   3   2  -5 1975.80   73.89   1-0.47302-0.07402 0.70303 0.57475-0.53103-0.81497
   3   2  -4  793.20   44.82   1-0.80287-0.42930-0.12565-0.28895-0.58274-0.85568
  -3   2   4  774.53   43.47   1-0.47631-0.46382-0.80846-0.87483-0.34571 0.13972
  -3  -2   4  786.28   48.69   1-0.41328-0.78687-0.68967-0.52698-0.59459-0.32111
  -3   2   4  795.54   46.06   1-0.61889-0.60595-0.71119-0.78074-0.33341 0.15250
   3  -2  -4  813.10   49.97   1-0.80817-0.82120 0.48173 0.55158 0.33879-0.14621
   3   2  -4  868.00   49.05   1-0.43736-0.06414 0.69561 0.53395-0.56994-0.84307
   3  -2  -3 1492.39   62.65   1 0.38117 0.34331 0.88213 0.91797 0.27666-0.19865
   3   2  -3 1461.80   59.42   1-0.80754-0.45993-0.06577-0.26235-0.58613-0.84831
  -3  -2   3 1436.40   58.76   1-0.47072-0.81844-0.70260-0.50667-0.53362-0.27097
  -3   2   3 1401.50   60.08   1-0.67173-0.63294-0.70110-0.73737-0.23921 0.23590
  -3  -2   3 1402.79   59.27   1 0.40021 0.05078-0.68614-0.49116 0.60747 0.86958
   3  -2  -3 1437.65   67.94   1-0.80793-0.84685 0.47892 0.51545 0.34331-0.13093
   3  -2  -220693.01  323.17   1 0.28014 0.21631 0.93817 0.94071 0.20333-0.26125
  -3  -2   219821.51  385.23   1-0.52837-0.85021-0.71085-0.48167-0.46423-0.21241
  -3   2   220608.58  322.84   1-0.71706-0.65241-0.68253-0.68555-0.14126 0.32306
  -3  -2   221272.36  290.10   1 0.36274 0.03913-0.67497-0.44660 0.64251 0.89387
   3  -2  -219497.60  405.87   1-0.80738-0.87218 0.47319 0.47640 0.35244-0.11104
   3  -2  -1  289.62   32.17   1 0.18503 0.09522 0.97351 0.94276 0.13429-0.31957
   3   2  -1  320.67   29.69   1-0.80877-0.51308 0.03583-0.22731-0.58702-0.82768
  -3  -2   1  309.04   31.68   1-0.58468-0.88063-0.71322-0.45095-0.38658-0.14536
  -3   2   1  317.16   32.95   1-0.75376-0.66278-0.65581-0.62553-0.04169 0.41159
  -3  -2   1  308.69   32.14   1 0.32480 0.02701-0.66212-0.40037 0.67534 0.91595
   3  -2  -1  293.95   31.92   1-0.80629-0.89698 0.46380 0.43369 0.36711-0.08561
   3  -2   0  110.30   23.96   1 0.09919-0.01658 0.99246 0.92842 0.07199-0.37115
   3   2   0  111.10   22.05   1-0.80668-0.53696 0.08017-0.21625-0.58551-0.81541
  -3  -2   0   91.44   23.65   1-0.63778-0.90787-0.70868-0.41314-0.30164-0.07122
  -3   2   0  119.49   28.25   1-0.78074-0.66331-0.62238-0.55890 0.05536 0.49763
  -3  -2   0   96.40   27.72   1 0.28675 0.01478-0.64780-0.35267 0.70577 0.93563
   3  -2   0  120.66   28.73   1-0.80423-0.92081 0.44974 0.38631 0.38849-0.05347
   3  -2   110845.92  201.70   1 0.02413-0.11762 0.99955 0.90222 0.01751-0.41490
   3   2   111059.91  208.83   1-0.80330-0.55954 0.12142-0.20828-0.58305-0.80220
  -3  -2  -110754.54  217.93   1-0.68563-0.92986-0.69661-0.36780-0.21127 0.00834
  -3   2  -111092.66  190.06   1-0.79803-0.65488-0.58472-0.48787 0.14569 0.57714
  -3  -2  -110651.29  248.20   1 0.24901 0.00286-0.63226-0.30374 0.73363 0.95275
   3  -2   110967.97  215.30   1-0.80046-0.94292 0.42949 0.33274 0.41808-0.01313
  -3  -2  -227553.70  480.53   1-0.72639-0.94476-0.67704-0.31496-0.11820 0.09061
   3  -2   3 1226.56   58.46   1-0.09381-0.28751 0.99325 0.82935-0.06809-0.47907
   3   2   3 1297.26   56.75   1-0.79344-0.60160 0.19695-0.19931-0.57589-0.77352
  -3  -2  -3 1297.72   60.29   1-0.75856-0.95128-0.65106-0.25591-0.02650 0.17196
  -3   2  -3 1339.56   55.91   1-0.80925-0.61466-0.50405-0.34047 0.30171 0.71152
  -3  -2  -3 1319.81   56.42   1 0.17621-0.01829-0.59877-0.20346 0.78129 0.97891
   3  -2   3 1342.64   58.17   1-0.78119-0.97527 0.36043 0.19702 0.50972 0.10007
   3  -2   4 4312.65  111.49   1-0.13846-0.35804 0.98525 0.78808-0.10050-0.50072
   3   2   4 4348.72  100.15   1-0.78720-0.62133 0.23203-0.19752-0.57137-0.75823
  -3  -2  -4 4292.34  116.47   1-0.78200-0.94924-0.62029-0.19209 0.06081 0.24905
  -3   2  -4 4490.93  116.78   1-0.80640-0.58608-0.46470-0.26775 0.36572 0.76472
  -3  -2  -4 4502.89  119.96   1 0.14205-0.02664-0.58153-0.15284 0.80102 0.98789
   3  -2   4 4482.44  123.38   1-0.75823-0.97821 0.30182 0.10510 0.57790 0.17901
   3  -2   5 1861.06   65.49   1-0.17497-0.42054 0.97634 0.74588-0.12700-0.51652
   3   2   5 1823.76   65.09   1-0.78020-0.64029 0.26569-0.19713-0.56629-0.74239
  -3  -2  -5 1841.49   69.29   1-0.79760-0.93912-0.58602-0.12446 0.14281 0.32023
  -3   2  -5 1895.13   73.26   1-0.79998-0.55253-0.42723-0.19801 0.42130 0.80962
  -3  -2  -5 1865.31   71.12   1 0.10997-0.03290-0.56449-0.10241 0.81807 0.99419
   3  -2   5 1729.59   65.26   1-0.71473-0.96060 0.21472-0.01530 0.66562 0.27748
   3  -2   6 3632.89   93.12   1-0.20454-0.47609 0.96753 0.70377-0.14846-0.52728
   3   2   6 3777.80  103.62   1-0.77248-0.65854 0.29814-0.19796-0.56068-0.72603
  -3  -2  -6 3644.86  109.31   1-0.80617-0.92197-0.55058-0.05566 0.21663 0.38323
  -3   2  -6 3647.51  102.13   1-0.79157-0.51838-0.39350-0.13089 0.46750 0.84507
  -3  -2  -6 3849.69  104.79   1 0.08038-0.03668-0.54805-0.05259 0.83257 0.99794
   3  -2   7  251.73   28.80   1-0.22817-0.52571 0.95943 0.66238-0.16561-0.53373
   3   2   7  248.54   31.52   1-0.76399-0.67580 0.32988-0.19938-0.55452-0.70959
  -3  -2  -7  261.53   33.57   1-0.80921-0.89928-0.51574 0.01255 0.28140 0.43718
  -3   2  -7  256.76   35.28   1-0.78220-0.48328-0.36339-0.06737 0.50606 0.87287
  -3  -2  -7  259.03   32.36   1 0.05362-0.03762-0.53260-0.00375 0.84466 0.99928
   3  -2   8 8604.89  183.65   1-0.24674-0.57027 0.95238 0.62204-0.17909-0.53651
   3   2   8 8669.64  177.07   1-0.75492-0.69270 0.36035-0.20220-0.54793-0.69229
  -3  -2  -8 8831.83  203.85   1-0.80826-0.87261-0.48281 0.07883 0.33704 0.48201
  -3   2  -8 8859.84  180.35   1-0.77268-0.44802-0.33700-0.00758 0.53794 0.89398
  -3  -2  -8 9096.62  184.18   1 0.03000-0.03542-0.51851 0.04371 0.85454 0.99841
   3  -2   9 2294.28   81.66   1-0.26099-0.61051 0.94656 0.58293-0.18943-0.53615
   3   2   9 2236.78   79.81   1-0.74521-0.70896 0.38999-0.20586-0.54089-0.67452
  -3  -2  -9 2139.56   78.13   1-0.80471-0.84333-0.45270 0.14231 0.38404 0.51819
  -3   2  -9 2208.80   74.71   1-0.76357-0.41317-0.31428 0.04853 0.56407 0.90935
  -3  -2  -9 2213.64   76.63   1 0.00977-0.02983-0.50610 0.08951 0.86241 0.99553
   3  -2  10 2340.74   76.41   1-0.27154-0.64704 0.94203 0.54510-0.19709-0.53310
   3   2  10 2342.70   78.82   1-0.73487-0.72460 0.41886-0.21028-0.53339-0.65630
  -3  -2 -10 2413.74   85.12   1-0.79996-0.81217-0.42712 0.20119 0.42146 0.54761
  -3   2 -10 2387.30   87.38   1-0.75523-0.37910-0.29505 0.10116 0.58528 0.91980
  -3  -2 -10 2345.48   77.83   1-0.00684-0.02064-0.49567 0.13333 0.86848 0.99085
   3  -2  11   21.94   32.89   1-0.27887-0.68036 0.93875 0.50853-0.20241-0.52772
   3   2  11   18.23   24.72   1-0.72392-0.73961 0.44704-0.21540-0.52543-0.63762
  -3  -2 -11   32.15   34.34   1-0.79441-0.78090-0.40393 0.25778 0.45358 0.56898
  -3   2 -11   -5.77   29.55   1-0.74789-0.34602-0.27907 0.15054 0.60230 0.92606
  -3  -2 -11   11.24   21.09   1-0.01971-0.00768-0.48746 0.17493 0.87292 0.98455
   3  -2  1212697.82  237.98   1-0.28342-0.71090 0.93666 0.47316-0.20571-0.52032
   3   2  1212075.67  195.67   1-0.71235-0.75401 0.47457-0.22116-0.51704-0.61850
  -3  -2 -1212687.34  269.04   1-0.78885-0.74960-0.38420 0.31091 0.47968 0.58431
  -3   2 -1212255.37  211.81   1-0.74165-0.31404-0.26607 0.19694 0.61575 0.92875
  -3  -2 -1211524.97  282.68   1-0.02866 0.00917-0.48166 0.21411 0.87588 0.97676
   3  -2  13  341.66   39.26   1-0.28552-0.73898 0.93569 0.43889-0.20724-0.51114
   3   2  13  300.15   43.06   1-0.70016-0.76779 0.50151-0.22752-0.50819-0.59893
  -3  -2 -13  282.24   38.40   1-0.78367-0.71868-0.36780 0.36072 0.50057 0.59444
  -3   2 -13  331.93   48.06   1-0.73655-0.28321-0.25580 0.24061 0.62614 0.92838
   3  -2  14  723.39   48.68   1-0.28545-0.76489 0.93572 0.40563-0.20718-0.50039
   3   2  14  763.49   52.81   1-0.68734-0.78095 0.52787-0.23446-0.49889-0.57891
  -3  -2 -14  707.50   50.84   1-0.77913-0.68840-0.35451 0.40740 0.51698 0.60009
  -3   2 -14  784.25   55.52   1-0.73258-0.25350-0.24800 0.28181 0.63389 0.92537
   3  -2  15  794.53   50.73   1-0.28342-0.78886 0.93666 0.37328-0.20571-0.48822
   3   2  15  731.79   46.90   1-0.67383-0.79344 0.55384-0.24166-0.48908-0.55861
  -3  -2 -15  574.77   50.55   1-0.77536-0.65889-0.34411 0.45120 0.52952 0.60188
  -3   2 -15  808.90   58.68   1-0.72969-0.22488-0.24243 0.32078 0.63935 0.92006
   3  -2  1614147.41  309.01   1-0.27963-0.81105 0.93840 0.34172-0.20296-0.47477
   3   2  1613274.35  266.27   1-0.65974-0.80534 0.57916-0.24963-0.47885-0.53768
  -3  -2 -1613623.37  277.26   1-0.77243-0.63023-0.33634 0.49237 0.53872 0.60031
  -3   2 -1613917.43  292.08   1-0.72784-0.19729-0.23889 0.35772 0.64279 0.91274
   3  -2  17  382.04   49.39   1-0.27423-0.83164 0.94083 0.31086-0.19904-0.46014
   3   2  17  367.15   43.17   1-0.64500-0.81659 0.60397-0.25812-0.46816-0.51628
  -3  -2 -17  315.57   70.84   1-0.77035-0.60241-0.33099 0.53113 0.54498 0.59581
  -3   2 -17  340.78   86.15   1-0.72693-0.17065-0.23718 0.39283 0.64443 0.90363
   3  -2  18   45.70   40.84   1-0.26733-0.85072 0.94386 0.28060-0.19403-0.44443
   3   2  18   11.91   51.58   1-0.62960-0.82717 0.62830-0.26709-0.45698-0.49441
  -3   2 -18   -3.89   53.93   1-0.72691-0.14489-0.23714 0.42627 0.64447 0.89291
  -3  -3  17 2005.97   94.81   1 0.19792-0.60782-0.36040-0.57467-0.91155-0.54798
   3  -3 -17 1979.48   86.58   1-0.75133-0.52424 0.28646 0.84747 0.59450-0.08337
   3   3 -17 2035.81  100.83   1-0.73436 0.07095 0.67172 0.88613-0.09742-0.45795
  -3  -3  16 9923.24  302.75   1 0.16891-0.61109-0.38281-0.56376-0.90825-0.55563
  -3   3  16 9952.21  228.73   1 0.09017-0.10881-0.44020-0.96859-0.89335-0.22359
   3  -3 -1610566.74  215.21   1-0.75703-0.55584 0.29910 0.82680 0.58089-0.08622
   3   3 -16 9681.96  362.39   1-0.71436 0.06517 0.68400 0.86503-0.14772-0.49746
  -3  -3  15 4380.83  132.65   1 0.13895-0.61528-0.40522-0.55285-0.90359-0.56193
  -3   3  15 4292.72  138.38   1 0.04427-0.12896-0.47141-0.96648-0.88079-0.22198
   3  -3 -15 4494.47  131.27   1-0.76201-0.58671 0.31058 0.80498 0.56821-0.08814
   3   3 -15 3968.41  139.47   1-0.69225 0.06149 0.69413 0.84178-0.19737-0.53630
  -3  -3  14  222.76   37.80   1 0.10796-0.62052-0.42766-0.54196-0.89746-0.56676
  -3   3  14  234.85   41.35   1-0.00460-0.15323-0.50288-0.96416-0.86434-0.21657
   3  -3 -14  231.81   45.36   1-0.76630-0.61690 0.32090 0.78198 0.55658-0.08900
   3   3 -14  219.15   34.08   1-0.66810 0.05985 0.70212 0.81639-0.24626-0.57438
  -3  -3  13 1550.23   72.80   1 0.07582-0.62691-0.45014-0.53111-0.88973-0.56998
  -3   3  13 1415.41   76.32   1-0.05587-0.17867-0.53392-0.96192-0.84368-0.20681
   3  -3 -13 1554.69   74.99   1-0.76996-0.64645 0.33000 0.75777 0.54612-0.08870
   3   3 -13 1664.81   70.88   1-0.64199 0.06018 0.70797 0.78885-0.29430-0.61162
  -3   3  1220443.71  530.24   1-0.80905-0.90793-0.02443-0.41744-0.58722 0.03742
  -3  -3  1221183.25  503.86   1 0.04237-0.63460-0.47267-0.52032-0.88021-0.57143
  -3   3  1221409.34  512.72   1-0.11012-0.20708-0.56457-0.95929-0.81800-0.19203
   3  -3 -1221514.49  470.20   1-0.77300-0.67538 0.33783 0.73230 0.53697-0.08710
   3   3 -1222280.13  460.46   1-0.61398 0.06240 0.71167 0.75917-0.34137-0.64788
  -3   3  11 2961.42  103.54   1-0.80333-0.87625-0.12113-0.48086-0.58307 0.03081
  -3  -3  11 2943.80  100.70   1 0.00695-0.64415-0.49561-0.50865-0.86851-0.57125
  -3   3  11 3014.01  109.30   1-0.16744-0.23856-0.59443-0.95587-0.78652-0.17144
   3  -3 -11 3051.81   98.98   1-0.77544-0.70372 0.34433 0.70548 0.52926-0.08403
   3   3 -11 3093.48  108.86   1-0.58418 0.06642 0.71323 0.72735-0.38733-0.68304
  -3   3  10  286.67   38.02   1-0.78874-0.83495-0.22390-0.54944-0.57248 0.03109
  -3  -3  10  296.01   41.92   1-0.02966-0.65493-0.51831-0.49807-0.85467-0.56831
  -3   3  10  334.96   37.60   1-0.22778-0.27307-0.62296-0.95112-0.74835-0.14416
   3  -3 -10  338.66   44.23   1-0.77729-0.73147 0.34939 0.67723 0.52319-0.07934
   3   3 -10  293.23   44.62   1-0.55268 0.07212 0.71265 0.69338-0.43204-0.71694
  -3   3   9 6046.94  182.72   1-0.76522-0.78548-0.32548-0.61775-0.55541 0.03731
  -3  -3   9 6002.35  179.29   1-0.06810-0.66754-0.54103-0.48752-0.83823-0.56276
  -3   3   9 6134.12  178.13   1-0.29198-0.31222-0.64986-0.94381-0.70172-0.10831
   3  -3  -9 6015.17  182.53   1-0.77855-0.75863 0.35290 0.64743 0.51894-0.07283
   3   3  -9 6121.26  195.68   1-0.51964 0.07938 0.70994 0.65730-0.47533-0.74943
  -3   3   823208.16  406.79   1-0.73199-0.72630-0.42649-0.68550-0.53130 0.05057
   3   3  -821170.71  455.17   1-0.66482-0.09080-0.57022-0.66046-0.48254-0.74535
  -3  -3   823391.46  427.55   1-0.10858-0.68218-0.56373-0.47694-0.81878-0.55421
  -3   3   823448.01  396.13   1-0.35721-0.35158-0.67319-0.93390-0.64745-0.06487
   3  -3  -823343.99  317.37   1-0.77920-0.78517 0.35471 0.61593 0.51674-0.06427
   3   3  -823225.44  574.11   1-0.48519 0.08804 0.70516 0.61912-0.51704-0.78033
  -3   3   7 9353.31  211.29   1-0.68806-0.65705-0.52645-0.75038-0.49941 0.07212
   3   3  -7 8554.94  180.03   1-0.69327-0.14524-0.51590-0.63935-0.50319-0.75506
  -3  -3   7 9358.61  206.82   1-0.15130-0.69906-0.58629-0.46621-0.79584-0.54216
  -3   3   7 9203.74  157.90   1-0.42370-0.39220-0.69233-0.91979-0.58407-0.01232
   3  -3  -7 9212.47  168.75   1-0.77917-0.81103 0.35463 0.58254 0.51683-0.05341
   3   3  -7 9236.66  286.73   1-0.44953 0.09792 0.69833 0.57892-0.55699-0.80948
   3   3  -6 5774.12  134.00   1-0.71880-0.19677-0.45947-0.61614-0.52172-0.76266
  -3   3   6 6333.20  159.16   1-0.63578-0.57878-0.61872-0.80943-0.46147 0.09912
  -3  -3   6 6571.08  173.70   1-0.19646-0.71839-0.60853-0.45518-0.76881-0.52603
  -3   3   6 6593.19  151.14   1-0.49007-0.43270-0.70595-0.90017-0.51132 0.04959
   3  -3  -6 6622.68  149.16   1-0.77839-0.83615 0.35243 0.54703 0.51951-0.03998
   3   3  -5 1562.07   64.26   1-0.74104-0.24521-0.40193-0.59041-0.53786-0.76894
  -3   3   5 1558.85   65.70   1-0.57590-0.49291-0.70257-0.86006-0.41800 0.13165
  -3  -3   5 1627.92   65.29   1-0.24423-0.74033-0.63020-0.44358-0.73701-0.50511
  -3   3   5 1658.20   67.92   1-0.55451-0.47126-0.71274-0.87371-0.42955 0.12053
  -3  -3   5 1686.91   67.57   1 0.37556-0.12221-0.67897-0.49314 0.63082 0.86131
   3  -3  -5 1582.16   75.38   1-0.77672-0.86037 0.34781 0.50910 0.52509-0.02363
  -3   3   432890.91  589.82   1-0.51041-0.40143-0.77603-0.90030-0.37047 0.16825
   3  -3  -434823.64  533.49   1-0.77396-0.88352 0.34039 0.46837 0.53395-0.00401
   3   3  -3 1046.53   51.56   1-0.77510-0.33118-0.28758-0.54258-0.56259-0.77196
  -3   3   3 1022.18   54.32   1-0.44170-0.30672-0.83792-0.92897-0.32060 0.20718
  -3  -3   3  994.06   49.77   1-0.34815-0.79240-0.67021-0.41619-0.65544-0.44595
  -3   3   3 1129.81   57.48   1-0.66954-0.53413-0.70173-0.79601-0.24349 0.28470
  -3  -3   3 1078.04   55.92   1 0.29976-0.14638-0.65286-0.40025 0.69564 0.90463
   3  -3  -3 1029.12   57.88   1-0.76983-0.90528 0.32969 0.42436 0.54649 0.01928
   3  -3  -2  599.15   43.34   1 0.37718 0.21681 0.88475 0.94520 0.27376-0.24408
   3   3  -2  543.81   38.28   1-0.78714-0.36916-0.23236-0.52062-0.57132-0.76984
  -3  -3   2  555.31   40.91   1-0.40364-0.82202-0.68709-0.39982-0.60413-0.40547
  -3   3   2  543.06   41.53   1-0.71549-0.55424-0.68339-0.74441-0.14502 0.37237
  -3  -3   2  725.98   45.28   1 0.26193-0.15839-0.63773-0.35174 0.72435 0.92259
   3  -3  -2  542.18   43.82   1-0.76391-0.92525 0.31509 0.37646 0.56316 0.04671
   3  -3  -1 2852.74   82.83   1 0.30919 0.12284 0.92414 0.95130 0.22441-0.28271
   3   3  -1 2766.66   83.87   1-0.79622-0.40420-0.17897-0.50049-0.57791-0.76558
  -3  -3   1 2715.44   85.73   1-0.46076-0.85327-0.70067-0.38017-0.54474-0.35691
  -3   3   1 2973.41   85.04   1-0.75254-0.56483-0.65696-0.68460-0.04546 0.46073
  -3  -3   1 2800.04   88.71   1 0.22460-0.16991-0.62154-0.30216 0.75049 0.93799
   3  -3  -1 2777.80   91.21   1-0.75557-0.94281 0.29581 0.32387 0.58446 0.07877
   3  -3   010259.52  176.65   1 0.24436 0.03204 0.95332 0.94719 0.17736-0.31904
   3   3   010120.35  182.31   1-0.80261-0.43641-0.12822-0.48266-0.58255-0.75933
  -3  -3   0 9596.08  219.99   1-0.51837-0.88502-0.70980-0.35605-0.47692-0.29992
  -3   3   010374.28  176.09   1-0.77968-0.56536-0.62410-0.61842 0.05084 0.54580
  -3  -3   010065.82  173.76   1 0.18811-0.18058-0.60454-0.25178 0.77403 0.95078
   3  -3   0 9571.78  213.16   1-0.74396-0.95709 0.27082 0.26557 0.61088 0.11596
   3  -3   1  131.95   25.74   1 0.18403-0.05426 0.97380 0.93438 0.13357-0.35210
   3   3   1  125.04   25.12   1-0.80679-0.46655-0.07855-0.46628-0.58558-0.75160
  -3  -3  -1  117.48   23.56   1-0.57488-0.91565-0.71328-0.32629-0.40091-0.23475
  -3   3  -1  101.86   30.26   1-0.79708-0.55704-0.58754-0.54850 0.13942 0.62357
  -3  -3  -1  105.40   31.91   1 0.15280-0.19007-0.58705-0.20090 0.79499 0.96099
   3  -3   1  117.45   25.36   1-0.72777-0.96680 0.23877 0.20021 0.64290 0.15874
   3  -3   211533.62  217.08   1 0.12903-0.13524 0.98720 0.91450 0.09365-0.38130
   3   3   211382.86  217.82   1-0.80890-0.49463-0.03089-0.45189-0.58712-0.74238
  -3  -3  -210938.58  223.04   1-0.62816-0.94315-0.71010-0.29002-0.31805-0.16231
  -3   3  -211370.55  207.79   1-0.80643-0.54067-0.54888-0.47648 0.21995 0.69327
  -3  -3  -211482.22  191.94   1 0.11900-0.19805-0.56937-0.14983 0.81342 0.96867
   3  -3   211046.13  237.89   1-0.70516-0.97013 0.19789 0.12551 0.68087 0.20754
   3  -3   3 3481.11   97.46   1 0.07974-0.21049 0.99513 0.88913 0.05788-0.40635
   3   3   3 3393.29  100.12   1-0.80920-0.52089 0.01486-0.43941-0.58733-0.73183
  -3  -3  -3 3346.22   95.69   1-0.67627-0.96540-0.69973-0.24639-0.23026-0.08532
  -3   3  -3 3420.61   97.21   1-0.80929-0.51780-0.50999-0.40422 0.29147 0.75397
  -3  -3  -3 3473.72  102.99   1 0.08703-0.20420-0.55180-0.09888 0.82941 0.97391
   3  -3   3 3374.44   97.25   1-0.67323-0.96412 0.14570 0.04003 0.72493 0.26239
   3  -3   419833.28  290.83   1 0.03624-0.27997 0.99899 0.85970 0.02630-0.42721
   3   3   419583.39  267.65   1-0.80789-0.54554 0.05884-0.42872-0.58638-0.72012
  -3  -3  -419455.49  314.26   1-0.71735-0.98062-0.68238-0.19577-0.14058-0.00643
  -3   3  -420252.86  332.36   1-0.80729-0.49008-0.47234-0.33320 0.35378 0.80547
  -3  -3  -419635.71  361.46   1 0.05715-0.20826-0.53467-0.04836 0.84312 0.97687
   3  -3   419063.68  363.30   1-0.62784-0.94466 0.07916-0.05979 0.77429 0.32255
   3  -3   5 1475.84   63.95   1-0.00165-0.34385 0.99999 0.82742-0.00120-0.44400
   3   3   5 1542.08   63.16   1-0.80514-0.56875 0.10115-0.41969-0.58439-0.70737
  -3  -3  -5 1521.46   64.26   1-0.74984-0.98768-0.65943-0.13975-0.05365 0.07031
  -3   3  -5 1527.71   66.08   1-0.80180-0.45726-0.43612-0.26493 0.40853 0.84895
  -3  -3  -5 1506.44   66.62   1 0.02961-0.20998-0.51828 0.00141 0.85469 0.97770
   3  -3   5 1485.99   61.25   1-0.56246-0.90519-0.00595-0.17819 0.82680 0.38584
   3  -3   6 6847.87  136.28   1-0.03427-0.40245 0.99910 0.79323-0.02488-0.45695
   3   3   6 6868.87  152.98   1-0.80110-0.59067 0.14192-0.41220-0.58145-0.69367
  -3  -3  -6 6765.34  154.33   1-0.77452-0.98655-0.63183-0.07885 0.02995 0.14313
  -3   3  -6 6761.29  150.92   1-0.79438-0.42410-0.40378-0.19919 0.45378 0.88343
  -3  -3  -6 6718.38  146.59   1 0.00462-0.20916-0.50289 0.05018 0.86433 0.97659
   3  -3   7 7034.40  144.64   1-0.06201-0.45616 0.99706 0.75790-0.04501-0.46636
   3   3   7 6898.99  138.50   1-0.79588-0.61142 0.18128-0.40612-0.57767-0.67913
  -3  -3  -7 7124.14  170.51   1-0.79110-0.97806-0.60268-0.01657 0.10453 0.20762
  -3   3  -7 7078.11  154.84   1-0.78595-0.38994-0.37481-0.13682 0.49172 0.91061
  -3  -3  -7 6998.78  150.21   1-0.01766-0.20563-0.48877 0.09769 0.87223 0.97373
   3  -3   8 1013.99   57.01   1-0.08529-0.50541 0.99443 0.72198-0.06190-0.47253
   3   3   8  967.93   48.85   1-0.78958-0.63108 0.21932-0.40136-0.57310-0.66380
  -3  -3  -8  963.85   55.01   1-0.80175-0.96299-0.57205 0.04741 0.17303 0.26531
  -3   3  -8  991.62   56.17   1-0.77727-0.35552-0.34932-0.07793 0.52327 0.93141
  -3  -3  -8 1022.02   52.00   1-0.03712-0.19927-0.47613 0.14371 0.87858 0.96934
   3  -3   9  804.32   51.16   1-0.10452-0.55053 0.99162 0.68594-0.07586-0.47581
   3   3   9  759.40   54.16   1-0.78228-0.64975 0.25617-0.39779-0.56780-0.64774
  -3  -3  -9  831.08   60.56   1-0.80733-0.94285-0.54220 0.11062 0.23284 0.31429
  -3   3  -9  859.60   56.87   1-0.76887-0.32138-0.32725-0.02246 0.54930 0.94668
  -3  -3  -9  800.58   54.91   1-0.05365-0.18998-0.46517 0.18807 0.88359 0.96360
   3  -3  1014507.08  247.31   1-0.12011-0.59210 0.98892 0.64995-0.08717-0.47642
   3   3  1014164.64  264.19   1-0.77404-0.66747 0.29189-0.39535-0.56182-0.63100
  -3  -3 -1014572.25  283.35   1-0.80924-0.91903-0.51424 0.17195 0.28404 0.35468
  -3   3 -1014406.52  258.97   1-0.76110-0.28788-0.30845 0.02973 0.57059 0.95720
  -3  -3 -1014123.05  258.05   1-0.06719-0.17771-0.45603 0.23059 0.88742 0.95668
   3  -3  11 7140.29  177.88   1-0.13241-0.63039 0.98652 0.61425-0.09610-0.47465
   3   3  11 7010.94  187.25   1-0.76482-0.68403 0.32692-0.39357-0.55512-0.61417
  -3  -3 -11 6834.69  180.78   1-0.80868-0.89275-0.48886 0.23070 0.32718 0.38700
  -3   3 -11 7082.11  187.48   1-0.75418-0.25523-0.29271 0.07887 0.58780 0.96365
  -3  -3 -11 6842.14  166.78   1-0.07769-0.16238-0.44885 0.27116 0.89022 0.94873
   3  -3  12 8530.20  231.37   1-0.14176-0.66572 0.98453 0.57898-0.10289-0.47073
   3   3  12 8321.46  214.81   1-0.75482-0.70000 0.36065-0.39313-0.54787-0.59619
  -3  -3 -12 7930.78  213.44   1-0.80662-0.86497-0.46645 0.28647 0.36300 0.41201
  -3   3 -12 8287.99  196.04   1-0.74824-0.22355-0.27981 0.12518 0.60153 0.96662
  -3  -3 -12 7825.80  221.42   1-0.08544-0.14388-0.44349 0.30964 0.89219 0.93990
   3  -3  13  149.43   31.44   1-0.14844-0.69839 0.98303 0.54418-0.10774-0.46487
   3   3  13  121.33   33.80   1-0.74400-0.71515 0.39348-0.39359-0.54001-0.57761
  -3  -3 -13   89.92   30.41   1-0.80404-0.83614-0.44858 0.33796 0.39023 0.43201
  -3   3 -13  114.94   44.95   1-0.74331-0.19289-0.26950 0.16889 0.61224 0.96657
  -3  -3 -13  129.68   33.71   1-0.08979-0.12241-0.44046 0.34603 0.89326 0.93020
   3  -3  14 8526.66  194.60   1-0.15270-0.72863 0.98203 0.50989-0.11083-0.45726
   3   3  14 8438.66  191.80   1-0.73238-0.72950 0.42547-0.39490-0.53158-0.55845
  -3   3 -14 8562.93  191.98   1-0.73942-0.16326-0.26155 0.21023 0.62035 0.96392
   3  -3  15 3652.28  110.51   1-0.15475-0.75667 0.98154 0.47611-0.11232-0.44805
   3   3  15 3527.12  109.72   1-0.71998-0.74306 0.45665-0.39701-0.52257-0.53873
  -3   3 -15 3496.18  105.34   1-0.73653-0.13463-0.25576 0.24942 0.62617 0.95898
   3  -3  16  339.48   55.86   1-0.15478-0.78269 0.98153 0.44281-0.11234-0.43738
   3   3  16  413.36   47.47   1-0.70679-0.75585 0.48708-0.39988-0.51301-0.51844
  -3   3 -16  297.42   50.33   1-0.73459-0.10696-0.25194 0.28665 0.62999 0.95204
  -3  -4  15 2084.39   90.69   1 0.20693-0.64415-0.35330-0.44302-0.91233-0.62353
   3  -4 -15 2024.66   83.52   1-0.71628-0.63747 0.21751 0.76906 0.66303-0.04662
   3   4 -15 2189.86  100.92   1-0.64798 0.20264 0.70685 0.79660-0.28366-0.56952
  -3  -4  14 5455.74  151.41   1 0.18064-0.64468-0.37383-0.43022-0.90973-0.63189
   3  -4 -14 5613.60  141.91   1-0.72000-0.66733 0.22427 0.74358 0.65673-0.04183
   3   4 -14 5108.02  248.68   1-0.61960 0.20524 0.71112 0.76748-0.33226-0.60732
  -3  -4  13 3155.34  112.28   1 0.15362-0.64595-0.39434-0.41741-0.90603-0.63914
   3  -4 -13 3237.14   98.15   1-0.72337-0.69660 0.23050 0.71650 0.65084-0.03696
   3   4 -13 2791.47  291.01   1-0.58952 0.20953 0.71311 0.73609-0.37937-0.64363
  -3   4  12  554.31   48.72   1-0.80182-0.80422-0.13552-0.58655-0.58198 0.09579
  -3  -4  12  607.84   50.17   1 0.12576-0.64805-0.41487-0.40461-0.90114-0.64521
   3  -4 -12  599.50   50.24   1-0.72594-0.72506 0.23530 0.68799 0.64625-0.03079
   3   4 -12  515.88   60.42   1-0.55791 0.21536 0.71289 0.70248-0.42487-0.67832
  -3   4  11  536.49   45.32   1-0.78941-0.76500-0.22030-0.63704-0.57297 0.09450
  -3  -4  11  487.74   54.48   1 0.09696-0.65110-0.43544-0.39186-0.89497-0.65000
  -3   4  11  485.80   49.64   1-0.11191-0.08637-0.56554-0.98505-0.81708-0.14903
   3  -4 -11  574.94   55.45   1-0.72767-0.75269 0.23858 0.65796 0.64309-0.02319
   3   4 -11  576.10   44.41   1-0.52492 0.22256 0.71051 0.66672-0.46864-0.71129
  -3   4  10 8685.17  211.92   1-0.77133-0.72097-0.30268-0.68616-0.55984 0.09677
  -3  -4  10 8794.30  226.06   1 0.06709-0.65521-0.45610-0.37919-0.88739-0.65337
  -3   4  10 8393.79  221.76   1-0.17507-0.12370-0.59820-0.98443-0.78198-0.12482
   3  -4 -10 8673.80  219.61   1-0.72854-0.77945 0.24022 0.62630 0.64149-0.01402
   3   4 -10 9431.06  226.70   1-0.49073 0.23096 0.70605 0.62888-0.51055-0.74239
  -3   4   9 1003.78   53.35   1-0.74722-0.67092-0.38405-0.73427-0.54235 0.10341
  -3  -4   9  982.07   57.97   1 0.03601-0.66054-0.47686-0.36663-0.87823-0.65517
  -3   4   9  958.55   56.41   1-0.24164-0.16443-0.62908-0.98203-0.73882-0.09255
   3  -4  -9  993.66   65.54   1-0.72847-0.80528 0.24011 0.59287 0.64161-0.00315
   3   4  -9 1005.28   61.96   1-0.45554 0.24036 0.69961 0.58906-0.55047-0.77151
  -3   4   8 1237.84   62.12   1-0.71648-0.61496-0.46498-0.78001-0.52004 0.11570
   3   4  -8 1090.09   59.55   1-0.66163 0.00888-0.57585-0.72398-0.48023-0.68976
  -3  -4   8 1169.82   64.53   1 0.00277-0.66748-0.49825-0.35339-0.86702-0.65542
  -3   4   8 1202.88   61.48   1-0.31235-0.21018-0.65759-0.97639-0.68556-0.04982
   3  -4  -8 1201.87   63.05   1-0.72740-0.83010 0.23806 0.55751 0.64358 0.00958
   3   4  -8 1290.51   68.95   1-0.41957 0.25055 0.69129 0.54735-0.58827-0.79851
  -3   4   7 5303.35  131.64   1-0.68067-0.55316-0.54092-0.82274-0.49404 0.13076
  -3  -4   7 5158.68  135.92   1-0.03145-0.67588-0.51939-0.34125-0.85395-0.65324
  -3   4   7 5036.23  136.40   1-0.38334-0.25529-0.68131-0.96686-0.62358 0.00132
  -3  -4   7 5026.89  127.93   1 0.38343-0.26270-0.68133-0.50466 0.62349 0.82237
   3  -4  -7 5112.45  119.74   1-0.72519-0.85379 0.23389 0.52004 0.64760 0.02436
   3   4  -6 6326.93  160.24   1-0.70208-0.08354-0.49738-0.71194-0.50959-0.69724
  -3   4   6 6393.35  145.72   1-0.63985-0.48635-0.61228-0.86088-0.46442 0.14944
  -3  -4   6 6373.95  157.60   1-0.06754-0.68613-0.54071-0.32929-0.83849-0.64867
  -3   4   6 6352.50  148.33   1-0.45451-0.30059-0.69939-0.95170-0.55159 0.06247
  -3  -4   6 6551.96  137.07   1 0.34664-0.27368-0.66970-0.45964 0.65675 0.84488
   3  -4  -6 6351.51  148.13   1-0.72168-0.87618 0.22737 0.48020 0.65381 0.04133
   3   4  -5 4745.57  144.46   1-0.72068-0.12814-0.45496-0.70274-0.52308-0.69980
  -3   4   5 4750.00  150.31   1-0.59486-0.41536-0.67801-0.89340-0.43176 0.17116
  -3  -4   5 4880.63  140.33   1-0.10576-0.69852-0.56219-0.31750-0.82021-0.64128
  -3   4   5 4848.09  141.51   1-0.52382-0.34403-0.71039-0.92946-0.47004 0.13320
  -3  -4   5 4728.14  137.85   1 0.30982-0.28468-0.65665-0.41320 0.68761 0.86499
   3  -4  -5 4764.22  139.17   1-0.71692-0.89727 0.21866 0.43735 0.66197 0.06019
   3   4  -4 1680.34   70.88   1-0.73785-0.17141-0.41079-0.69049-0.53555-0.70273
  -3   4   4 1676.53   69.35   1-0.54670-0.34121-0.73733-0.91949-0.39681 0.19519
  -3  -4   4 1739.97   76.48   1-0.14642-0.71335-0.58378-0.30581-0.79859-0.63056
  -3   4   4 1705.48   72.98   1-0.58965-0.38349-0.71311-0.89866-0.37917 0.21290
  -3  -4   4 1756.38   75.94   1 0.27322-0.29546-0.64238-0.36555 0.71602 0.88265
   3  -4  -4 1620.71   68.03   1-0.71007-0.91634 0.20646 0.39186 0.67317 0.08218
   3   4  -3  237.53   30.34   1-0.75327-0.21279-0.36557-0.67853-0.54674-0.70307
  -3   4   3  119.08   29.30   1-0.49649-0.26501-0.78969-0.93864-0.36036 0.22069
  -3  -4   3  111.70   25.81   1-0.18982-0.73091-0.60537-0.29411-0.77297-0.61584
  -3   4   3  129.31   26.60   1-0.64815-0.41614-0.70682-0.85911-0.28336 0.29791
  -3  -4   3  212.02   37.17   1 0.23713-0.30573-0.62711-0.31689 0.74195 0.89783
   3  -4  -3  121.74   35.78   1-0.70105-0.93324 0.19086 0.34298 0.68709 0.10688
   3   4  -2 4130.11  108.64   1-0.76681-0.25227-0.31973-0.66594-0.55656-0.70204
  -3   4   2 4115.47  102.15   1-0.44540-0.18792-0.83492-0.95065-0.32328 0.24684
  -3  -4   2 4184.68  116.61   1-0.23625-0.75151-0.62672-0.28219-0.74256-0.59631
  -3   4   2 4067.05  105.06   1-0.69813-0.44026-0.69173-0.81076-0.18469 0.38579
  -3  -4   2 3926.93  102.97   1 0.20182-0.31522-0.61106-0.26745 0.76541 0.91054
   3  -4  -2 4179.89  104.45   1-0.68936-0.94746 0.17139 0.29022 0.70384 0.13443
   3  -4  -1    6.62   19.54   1 0.39833 0.11545 0.87047 0.95555 0.28912-0.27126
   3   4  -1   38.87   27.46   1-0.77840-0.28982-0.27363-0.65310-0.56498-0.69960
  -3  -4   1   11.27   19.53   1-0.28617-0.77523-0.64758-0.26898-0.70621-0.57154
  -3   4   1    7.16   26.65   1-0.73903-0.45459-0.66831-0.75386-0.08473 0.47437
  -3  -4   1   32.01   27.16   1 0.16756-0.32367-0.59449-0.21749 0.78644 0.92083
   3  -4  -1   -2.37   20.56   1-0.67436-0.95839 0.14747 0.23301 0.72351 0.16489
   3  -4   0 1337.86   56.52   1 0.34872 0.03986 0.90239 0.95418 0.25311-0.29655
   3   4   0 1278.71   60.48   1-0.78805-0.32542-0.22759-0.64032-0.57198-0.69576
  -3  -4   0 1262.36   58.11   1-0.33929-0.80248-0.66721-0.25537-0.66310-0.53925
  -3   4   0 1289.70   60.43   1-0.76919-0.45895-0.63893-0.69117 0.00993 0.55824
  -3  -4   0 1262.75   57.89   1 0.13459-0.33082-0.57764-0.16725 0.80511 0.92875
   3  -4   0 1425.55   62.58   1-0.65524-0.96517 0.11841 0.17067 0.74608 0.19824
   3  -4   1 3072.14   93.40   1 0.30113-0.03370 0.92819 0.94669 0.21856-0.32037
   3   4   1 2951.68   84.60   1-0.79579-0.35911-0.18186-0.62786-0.57760-0.69052
  -3  -4  -1 2690.41   85.60   1-0.39539-0.83271-0.68480-0.23972-0.61213-0.49912
  -3   4  -1 3019.01   85.49   1-0.79032-0.45339-0.60440-0.62317 0.10041 0.63725
  -3  -4  -1 2821.10   82.80   1 0.10316-0.33643-0.56076-0.11699 0.82152 0.93440
   3  -4   1 2911.57   94.33   1-0.63089-0.96675 0.08341 0.10238 0.77136 0.23432
   3  -4   2 5174.80  115.92   1 0.25621-0.10459 0.94856 0.93376 0.18596-0.34225
   3   4   2 5201.48  127.12   1-0.80167-0.39092-0.13687-0.61588-0.58187-0.68400
  -3  -4  -2 4872.95  130.92   1-0.45364-0.86508-0.69921-0.22089-0.55254-0.45036
  -3   4  -2 5119.08  122.75   1-0.80269-0.44003-0.56827-0.55368 0.18095 0.70696
  -3  -4  -2 4924.77  118.52   1 0.07347-0.34031-0.54411-0.06696 0.83578 0.93792
   3  -4   2 5096.17  133.58   1-0.59994-0.96171 0.04153 0.02721 0.79896 0.27270
   3  -4   3  356.83   32.59   1 0.21445-0.17234 0.96425 0.91616 0.15565-0.36184
   3   4   3  304.68   36.29   1-0.80585-0.42105-0.09215-0.60445-0.58490-0.67627
  -3   4  -3  302.59   36.80   1-0.80839-0.42002-0.53164-0.48368 0.25267 0.76787
  -3  -4  -3  326.69   38.44   1 0.04570-0.34225-0.52793-0.01738 0.84805 0.93944
   3  -4   3  380.07   38.54   1-0.56054-0.94823-0.00829-0.05589 0.82808 0.31261
   3  -4   410274.11  247.24   1 0.17613-0.23663 0.97602 0.89465 0.12783-0.37893
   3   4   410281.00  255.54   1-0.80835-0.44952-0.04822-0.59379-0.58672-0.66733
  -3   4  -410521.22  255.82   1-0.80903-0.39493-0.49593-0.41461 0.31545 0.81983
  -3  -4  -410355.29  251.28   1 0.02003-0.34211-0.51244 0.03149 0.85848 0.93913
   3  -4   410198.66  276.36   1-0.51088-0.92389-0.06664-0.14881 0.85706 0.35252
   3  -4   5 1026.08   64.22   1 0.14140-0.29733 0.98461 0.86995 0.10263-0.39341
   3   4   5  822.27   51.40   1-0.80928-0.47641-0.00513-0.58399-0.58739-0.65724
  -3   4  -5  841.95   53.49   1-0.80607-0.36625-0.46217-0.34748 0.36963 0.86319
  -3  -4  -5  816.02   53.58   1-0.00341-0.33974-0.49784 0.07947 0.86725 0.93715
   3  -4   5  849.34   49.83   1-0.44660-0.88549-0.13624-0.25172 0.88429 0.39056
   3  -4   6 3785.88  104.43   1 0.11031-0.35440 0.99066 0.84271 0.08006-0.40526
   3   4   6 4029.84  111.95   1-0.80873-0.50183 0.03705-0.57508-0.58700-0.64609
  -3   4  -6 3656.91  101.06   1-0.80054-0.33317-0.42986-0.28330 0.41755 0.89929
  -3  -4  -6 3680.19  104.30   1-0.02455-0.33506-0.48433 0.12636 0.87453 0.93368
   3  -4   7 1403.12   65.17   1 0.08279-0.40789 0.99475 0.81350 0.06009-0.41451
   3   4   7 1416.25   61.39   1-0.80680-0.52586 0.07833-0.56709-0.58559-0.63393
  -3   4  -7 1384.09   66.94   1-0.79382-0.30072-0.40169-0.22173 0.45659 0.92757
  -3  -4  -7 1374.67   65.53   1-0.04328-0.32798-0.47207 0.17201 0.88049 0.92889
   3  -4   8 5133.61  145.17   1 0.05872-0.45794 0.99736 0.78282 0.04262-0.42126
   3   4   8 5268.60  145.22   1-0.80357-0.54859 0.11868-0.56001-0.58325-0.62082
  -3   4  -8 5269.64  143.64   1-0.78654-0.26771-0.37669-0.16332 0.48933 0.94955
  -3  -4  -8 5135.60  144.11   1-0.05956-0.31843-0.46120 0.21627 0.88529 0.92294
   3  -4   9 4435.83  126.55   1 0.03793-0.50470 0.99890 0.75107 0.02753-0.42562
   3   4   9 4344.99  135.21   1-0.79911-0.57009 0.15813-0.55384-0.58001-0.60683
  -3   4  -9 4537.63  133.53   1-0.77924-0.23467-0.35484-0.10807 0.51658 0.96604
  -3  -4  -9 4483.96  143.62   1-0.07334-0.30640-0.45183 0.25902 0.88907 0.91597
   3  -4  10 2385.52   81.99   1 0.02026-0.54835 0.99968 0.71857 0.01470-0.42773
   3   4  10 2382.83   80.40   1-0.79348-0.59043 0.19668-0.54857-0.57593-0.59198
  -3   4 -10 2392.14   82.61   1-0.77231-0.20200-0.33603-0.05587 0.53908 0.97779
  -3  -4 -10 2304.06   89.55   1-0.08476-0.29162-0.44396 0.30010 0.89202 0.90823
   3  -4  11   31.19   31.41   1 0.00549-0.58909 0.99997 0.68557 0.00398-0.42773
   3   4  11   26.17   25.59   1-0.78675-0.60966 0.23436-0.54418-0.57104-0.57634
  -3   4 -11   49.54   37.68   1-0.76598-0.16994-0.32011-0.00654 0.55748 0.98543
  -3  -4 -11   61.11   28.23   1-0.09355-0.27456-0.43784 0.33958 0.89416 0.89960
   3  -4  12 4892.05  126.32   1-0.00654-0.62711 0.99996 0.65227-0.00475-0.42575
   3   4  12 4838.84  129.55   1-0.77896-0.62783 0.27118-0.54064-0.56539-0.55993
  -3   4 -12 4813.00  159.52   1-0.76042-0.13864-0.30687 0.04009 0.57234 0.98953
  -3  -4 -12 4478.27  140.18   1-0.09978-0.25496-0.43346 0.37732 0.89562 0.89029
   3  -4  13 2604.76   87.43   1-0.01605-0.66259 0.99980 0.61881-0.01165-0.42193
   3   4  13 2750.01   91.65   1-0.77008-0.64473 0.30750-0.53762-0.55894-0.54339
  -3   4 -13 2870.01  101.34   1-0.75571-0.10819-0.29612 0.08424 0.58413 0.99055
  -3  -4 -13 2512.13   91.47   1-0.10344-0.23278-0.43087 0.41327 0.89646 0.88034
   3  -4  14  956.78   52.94   1-0.02319-0.69571 0.99958 0.58531-0.01683-0.41639
   3   4  14  837.86   56.74   1-0.76028-0.66090 0.34270-0.53570-0.55183-0.52556
  -3   4 -14 1010.79   63.42   1-0.75188-0.07863-0.28765 0.12611 0.59323 0.98889
  -3  -4 -14  849.64   55.50   1-0.10450-0.20801-0.43012 0.44738 0.89670 0.86981
   3  -4  15  465.23   67.07   1-0.02813-0.72663 0.99939 0.55182-0.02042-0.40925
   3   4  15  415.49   52.47   1-0.74953-0.67612 0.37714-0.53457-0.54402-0.50703
  -3   4 -15  438.10   55.36   1-0.74893-0.04994-0.28128 0.16588 0.59998 0.98487
  -3  -5  13    2.79   40.38   1 0.24356-0.65284-0.32372-0.28888-0.91426-0.70024
   3  -5 -13   29.89   29.95   1-0.66582-0.73563 0.13429 0.67734 0.73392-0.00710
   3   5 -13   17.75   43.26   1-0.54884 0.34709 0.71244 0.67751-0.43725-0.64845
  -3  -5  12 7519.95  192.39   1 0.22192-0.64873-0.34133-0.27317-0.91336-0.71029
   3  -5 -12 8115.31  166.39   1-0.66731-0.76304 0.13658 0.64633 0.73214 0.00190
   3   5 -12 6336.83  660.25   1-0.51573 0.35442 0.70950 0.64119-0.48023-0.68062
  -3   5  11 2798.54  106.00   1-0.78138-0.66041-0.26037-0.73506-0.56714 0.15337
  -3  -5  11 2781.96  106.18   1 0.19997-0.64492-0.35879-0.25730-0.91174-0.71963
   3  -5 -11 2952.37   90.56   1-0.66776-0.78941 0.13727 0.61374 0.73160 0.01215
   3   5 -11 2566.96  200.73   1-0.48173 0.36263 0.70457 0.60288-0.52105-0.71064
  -3   5  10 1410.19   69.44   1-0.76394-0.61702-0.33005-0.77148-0.55448 0.15518
  -3  -5  10 1395.33   70.94   1 0.17768-0.64145-0.37610-0.24129-0.90937-0.72822
   3  -5 -10 1419.45   65.51   1-0.66710-0.81466 0.13625 0.57944 0.73239 0.02373
   3   5 -10 1172.17  102.00   1-0.44705 0.37153 0.69779 0.56272-0.55966-0.73844
  -3   5   9 4260.32  120.85   1-0.74241-0.56954-0.39806-0.80624-0.53885 0.15995
  -3  -5   9 3926.70  134.25   1 0.15500-0.63838-0.39330-0.22517-0.90624-0.73604
   3  -5  -9 4257.31  115.82   1-0.66524-0.83872 0.13341 0.54331 0.73461 0.03673
   3   5  -9 3160.66  446.33   1-0.41190 0.38089 0.68930 0.52085-0.59597-0.76395
  -3   5   8 8406.59  201.62   1-0.71631-0.51828-0.46538-0.83832-0.51991 0.16910
  -3  -5   8 7826.33  182.08   1 0.13187-0.63575-0.41042-0.20895-0.90231-0.74306
  -3  -5   8 8033.77  181.48   1 0.37710-0.39158-0.67944-0.47852 0.62940 0.78592
   3  -5  -8 8148.92  194.97   1-0.66206-0.86146 0.12861 0.50522 0.73832 0.05124
  -3   5   7 8477.16  199.91   1-0.68717-0.46315-0.52823-0.86794-0.49876 0.17932
   3   5  -7 6930.39  284.48   1-0.69020 0.05083-0.52216-0.76140-0.50096-0.64627
  -3  -5   7 7708.85  203.70   1 0.10823-0.63365-0.42747-0.19269-0.89752-0.74923
  -3  -5   7 7834.12  183.69   1 0.34169-0.40117-0.66803-0.43373 0.66104 0.80680
   3  -5  -7 8166.35  173.57   1-0.65743-0.88274 0.12166 0.46499 0.74362 0.06732
   3   5  -6 1062.58   58.92   1-0.70519 0.00984-0.49062-0.76308-0.51184-0.64622
  -3   5   6 1062.79   66.79   1-0.65488-0.40487-0.58752-0.89402-0.47532 0.19182
  -3  -5   6 1032.81   65.75   1 0.08397-0.63215-0.44451-0.17640-0.89182-0.75449
  -3  -5   6 1058.01   57.95   1 0.30650-0.41055-0.65541-0.38772 0.69028 0.82529
   3  -5  -6 1038.85   54.57   1-0.65115-0.90239 0.11239 0.42244 0.75057 0.08506
   3   5  -5 5576.03  170.70   1-0.71977-0.03072-0.45715-0.76282-0.52243-0.64587
  -3   5   5 6141.49  170.86   1-0.61996-0.34395-0.64277-0.91605-0.44998 0.20623
  -3  -5   5 5714.07  152.13   1 0.27174-0.41949-0.64178-0.34071 0.71712 0.84139
   3  -5  -5 5903.21  154.88   1-0.64301-0.92016 0.10057 0.37733 0.75922 0.10450
   3   5  -411459.25  291.75   1-0.73378-0.07079-0.42176-0.75941-0.53260-0.64674
  -3   5   411811.40  282.14   1-0.58299-0.28099-0.69358-0.93364-0.42315 0.22212
  -3  -5   411488.66  283.63   1 0.23764-0.42777-0.62733-0.29287 0.74160 0.85512
   3  -5  -411489.59  266.53   1-0.63271-0.93577 0.08595 0.32942 0.76959 0.12567
   3   5  -3 2926.47  102.95   1-0.74691-0.10987-0.38497-0.75588-0.54212-0.64541
  -3   5   3 3043.79  100.68   1-0.54461-0.21662-0.73969-0.94653-0.39529 0.23905
  -3  -5   3 2920.47   97.43   1 0.20441-0.43518-0.61228-0.24443 0.76375 0.86652
   3  -5  -3 3127.60  111.27   1-0.61991-0.94889 0.06824 0.27843 0.78169 0.14855
   3   5  -2 1644.75   78.39   1-0.75901-0.14791-0.34698-0.75115-0.55090-0.64334
  -3   5   2 1716.57   69.89   1-0.50546-0.15148-0.78096-0.95459-0.36687 0.25652
  -3   5   2 1447.99   72.96   1-0.65940-0.30492-0.70436-0.88139-0.26277 0.36078
  -3  -5   2 1648.74   70.54   1 0.17227-0.44150-0.59682-0.19559 0.78365 0.87567
   3  -5  -2 1696.51   77.61   1-0.60419-0.95908 0.04712 0.22402 0.79544 0.17309
   3   5  -116748.22  399.00   1-0.76994-0.18479-0.30803-0.74545-0.55884-0.64042
  -3   5   117409.82  372.58   1-0.46618-0.08621-0.81742-0.95782-0.33836 0.27410
  -3   5   116179.14  430.21   1-0.70768-0.32735-0.68739-0.83115-0.16329 0.44946
  -3  -5   116450.82  378.13   1 0.14139-0.44656-0.58118-0.14656 0.80139 0.88266
   3  -5  -117071.68  362.43   1-0.58501-0.96583 0.02223 0.16585 0.81071 0.19915
   3   5   0 9814.62  219.86   1-0.77961-0.22041-0.26834-0.73903-0.56585-0.63659
  -3   5   0 9835.10  230.71   1-0.42737-0.02140-0.84919-0.95638-0.31019 0.29133
  -3   5   0 9449.64  251.56   1-0.74605-0.33908-0.66271-0.77286-0.06484 0.53637
  -3  -5   0 9626.70  226.91   1 0.11196-0.45018-0.56556-0.09756 0.81706 0.88758
   3  -5   0 9524.48  234.20   1-0.56176-0.96849-0.00680 0.10352 0.82726 0.22649
   3  -5   1 7877.67  203.65   1 0.39262-0.03876 0.87443 0.95084 0.28497-0.30723
   3   5   1 7769.38  194.19   1-0.78794-0.25470-0.22815-0.73209-0.57191-0.63178
  -3   5  -1 7656.75  218.17   1-0.77403-0.34021-0.63251-0.70910 0.02807 0.61759
  -3  -5  -1 7835.48  197.87   1 0.08412-0.45220-0.55017-0.04877 0.83080 0.89058
   3  -5   1 8059.83  200.07   1-0.53424-0.96640-0.03975 0.03575 0.84439 0.25453
   3  -5   2 6276.80  164.72   1 0.35625-0.10110 0.89789 0.94101 0.25857-0.32290
   3   5   2 6036.18  159.32   1-0.79491-0.28762-0.18764-0.72484-0.57696-0.62599
  -3   5  -2 5912.74  168.33   1-0.79228-0.33273-0.59998-0.64320 0.11091 0.68961
  -3  -5  -2 6119.37  171.92   1 0.05801-0.45249-0.53518-0.00040 0.84274 0.89176
   3  -5   2 6023.36  168.65   1-0.50033-0.95837-0.07849-0.03629 0.86226 0.28321
   3  -5   311865.90  276.07   1 0.32169-0.16163 0.91760 0.92742 0.23349-0.33726
   3   5   311981.05  273.44   1-0.80049-0.31922-0.14705-0.71736-0.58101-0.61926
  -3   5  -312126.01  298.49   1-0.80316-0.31789-0.56625-0.57611 0.18512 0.75301
  -3  -5  -311852.31  265.89   1 0.03375-0.45093-0.52078 0.04738 0.85302 0.89129
   3  -5   312197.02  286.16   1-0.45952-0.94343-0.12273-0.11384 0.87964 0.31139
   3  -5   414072.39  326.87   1 0.28923-0.22007 0.93395 0.91049 0.20993-0.35010
   3   5   414019.22  336.41   1-0.80471-0.34940-0.10627-0.70986-0.58407-0.61156
  -3   5  -413902.95  341.33   1-0.80830-0.29731-0.53279-0.50928 0.25053 0.80760
  -3  -5  -414071.66  329.06   1 0.01143-0.44743-0.50713 0.09441 0.86178 0.88931
   3  -5   413944.35  330.87   1-0.41048-0.92027-0.17289-0.19731 0.89532 0.33788
   3  -5   5 1125.81   60.79   1 0.25908-0.27619 0.94737 0.89061 0.18804-0.36126
   3   5   5 1138.70   61.49   1-0.80754-0.37820-0.06563-0.70250-0.58613-0.60286
  -3   5  -5 1132.72   67.48   1-0.80919-0.27247-0.50069-0.44381 0.30743 0.85368
  -3  -5  -5 1142.25   61.06   1-0.00886-0.44192-0.49439 0.14054 0.86919 0.88597
   3  -5   6 5779.04  136.54   1 0.23138-0.32987 0.95825 0.86821 0.16794-0.37065
   3   5   6 5783.22  141.15   1-0.80903-0.40565-0.02524-0.69539-0.58721-0.59318
  -3   5  -6 5863.95  156.77   1-0.80711-0.24467-0.47066-0.38043 0.35642 0.89185
  -3  -5  -6 5923.30  157.46   1-0.02710-0.43434-0.48268 0.18564 0.87537 0.88141
   3  -5   712797.80  260.13   1 0.20619-0.38103 0.96699 0.84366 0.14966-0.37820
   3   5   712641.22  237.13   1-0.80920-0.43178 0.01481-0.68862-0.58733-0.58254
  -3   5  -712598.68  273.75   1-0.80287-0.21269-0.44185-0.31990 0.40019 0.92326
  -3  -5  -713207.67  267.25   1-0.04322-0.42464-0.47211 0.22959 0.88047 0.87576
   3  -5   8 4841.55  131.68   1 0.18355-0.42965 0.97393 0.81731 0.13322-0.38391
   3   5   8 4799.07  125.84   1-0.80809-0.45663 0.05446-0.68225-0.58653-0.57098
  -3   5  -8 4705.81  134.92   1-0.79770-0.18178-0.41709-0.26175 0.43554 0.94786
  -3  -5  -8 4722.62  133.74   1-0.05720-0.41281-0.46278 0.27231 0.88462 0.86915
   3  -5   9  309.22   39.26   1 0.16344-0.47574 0.97939 0.78948 0.11862-0.38779
   3   5   9  369.96   40.92   1-0.80573-0.48024 0.09365-0.67633-0.58482-0.55851
  -3   5  -9  313.19   51.07   1-0.79204-0.15039-0.39519-0.20645 0.46527 0.96683
  -3  -5  -9  343.36   54.74   1-0.06902-0.39881-0.45478 0.31369 0.88792 0.86170
   3  -5  10 3810.03  104.41   1 0.14579-0.51935 0.98363 0.76043 0.10582-0.38987
   3   5  10 3826.52  108.22   1-0.80217-0.50264 0.13235-0.67092-0.58223-0.54516
  -3   5 -10 3779.08  109.38   1-0.78635-0.11896-0.37609-0.15395 0.49009 0.98089
  -3  -5 -10 3799.93  108.36   1-0.07878-0.38236-0.44810 0.35361 0.89050 0.85366
   3  -5  11 6453.14  138.07   1 0.13056-0.56057 0.98689 0.73040 0.09476-0.39021
   3   5  11 6390.36  149.49   1-0.79744-0.52387 0.17050-0.66605-0.57880-0.53097
  -3   5 -11 6410.62  179.99   1-0.78093-0.08780-0.35969-0.10414 0.51064 0.99067
  -3  -5 -11 6145.41  177.42   1-0.08629-0.36403-0.44290 0.39217 0.89240 0.84479
   3  -5  12 3271.05  108.23   1 0.11764-0.59946 0.98937 0.69959 0.08539-0.38886
   3   5  12 3292.99  114.28   1-0.79157-0.54396 0.20810-0.66173-0.57454-0.51595
  -3   5 -12 3419.91  117.77   1-0.77599-0.05713-0.34583-0.05689 0.52747 0.99674
  -3  -5 -12 3118.16  119.26   1-0.09160-0.34351-0.43920 0.42923 0.89370 0.83531
  -3   6   8   29.10   36.18   1-0.72446-0.42993-0.44569-0.87652-0.52583 0.21646
  -3  -6   8   -8.09   44.15   1 0.35433-0.51108-0.67225-0.41372 0.65001 0.75341
   3  -6  -8   -2.68   31.25   1-0.58843-0.88462 0.02661 0.46129 0.80810 0.06808
  -3   6   7 2956.29   96.02   1-0.70085-0.38033-0.50003-0.89764-0.50869 0.22266
  -3  -6   7 2699.33   84.12   1 0.32082-0.51876-0.66069-0.36877 0.67863 0.77128
   3  -6  -7 2913.70  105.31   1-0.58176-0.90386 0.01810 0.41949 0.81315 0.08392
   3   6  -6 1241.64   79.25   1-0.71745 0.09409-0.46269-0.79304-0.52074-0.60184
  -3   6   6 1490.38   68.46   1-0.67506-0.32855-0.55154-0.91594-0.48997 0.23044
  -3  -6   6 1457.55   69.44   1 0.28784-0.52593-0.64823-0.32293 0.70493 0.78683
   3  -6  -6 1499.73   69.88   1-0.57327-0.92129 0.00742 0.37553 0.81932 0.10088
   3   6  -5 2137.07   94.05   1-0.72866 0.05688-0.43511-0.79868-0.52888-0.59904
  -3   6   5 2406.26   92.01   1-0.64745-0.27494-0.59996-0.93113-0.46994 0.23955
  -3  -6   5 2340.89   85.33   1 0.25556-0.53239-0.63506-0.27636 0.72895 0.80011
   3  -6  -5 2399.46   88.43   1-0.56277-0.93671-0.00556 0.32926 0.82659 0.11893
   3   6  -4 1674.98   78.99   1-0.73971 0.01983-0.40564-0.80124-0.53690-0.59800
  -3   6   4 1946.47   79.95   1-0.61840-0.21990-0.64506-0.94302-0.44885 0.24970
  -3  -6   4 1773.10   77.62   1 0.22417-0.53796-0.62134-0.22926 0.75078 0.81118
   3  -6  -4 1883.00   89.13   1-0.55066-0.95021-0.02026 0.27953 0.83447 0.13768
   3   6  -3 3695.12  127.16   1-0.75029-0.01668-0.37481-0.80368-0.54458-0.59482
  -3   6   3 4264.78  114.30   1-0.58830-0.16381-0.68670-0.95144-0.42700 0.26061
  -3  -6   3 3820.10  115.16   1 0.19381-0.54250-0.60728-0.18181 0.77048 0.82014
   3  -6  -3 4304.59  112.72   1-0.53535-0.96078-0.03844 0.22804 0.84374 0.15776
   3   6  -2 2912.27  110.20   1-0.76029-0.05264-0.34265-0.80477-0.55184-0.59123
  -3   6   2 3011.42   96.19   1-0.55756-0.10708-0.72480-0.95632-0.40469 0.27198
  -3  -6   2 2946.57   94.58   1 0.16465-0.54585-0.59303-0.13418 0.78815 0.82706
   3  -6  -2 3217.59  109.57   1-0.51716-0.96846-0.05951 0.17367 0.85381 0.17863
   3   6  -1  889.21   66.91   1-0.76960-0.08789-0.30932-0.80470-0.55859-0.58713
  -3   6   1  943.31   53.94   1-0.52659-0.05011-0.75934-0.95765-0.38221 0.28353
  -3  -6   1  874.93   52.84   1 0.13681-0.54787-0.57880-0.08656 0.80391 0.83206
   3  -6  -1  962.88   63.17   1-0.49568-0.97286-0.08366 0.11620 0.86446 0.20009
   3   6   0  -10.14   43.01   1-0.77809-0.12234-0.27496-0.80360-0.56476-0.58245
  -3   6   0  -21.58   30.90   1-0.49577 0.00670-0.79039-0.95548-0.35984 0.29496
  -3  -6   0   25.63   42.80   1 0.11041-0.54845-0.56473-0.03910 0.81785 0.83526
   3  -6   0  139.53   34.92   1-0.47044-0.97350-0.11112 0.05543 0.87540 0.22183
   3   6   1 9117.13  218.51   1-0.78569-0.15588-0.23975-0.80165-0.57027-0.57710
  -3   6  -1 9469.62  207.29   1-0.46544 0.06301-0.81806-0.94993-0.33783 0.30603
  -3  -6  -1 9130.39  215.40   1 0.08557-0.54748-0.55098 0.00802 0.83011 0.83678
   3  -6   1 9230.11  227.34   1-0.44093-0.96987-0.14210-0.00885 0.88621 0.24345
   3   6   2 1802.58   86.94   1-0.79230-0.18844-0.20383-0.79898-0.57507-0.57105
  -3   6  -2 1676.59   82.86   1-0.43595 0.11850-0.84250-0.94115-0.31642 0.31651
  -3  -6  -2 1703.72   73.58   1 0.06236-0.54487-0.53771 0.05468 0.84081 0.83673
   3  -6   2 1695.79   80.59   1-0.40652-0.96134-0.17680-0.07686 0.89636 0.26440
   3   6   3 1769.64   74.96   1-0.79788-0.21997-0.16733-0.79575-0.57912-0.56425
  -3  -6  -3 1807.47   76.48   1 0.04086-0.54055-0.52504 0.10074 0.85009 0.83525
   3  -6   4 1054.49   73.53   1 0.38300-0.22284 0.88092 0.91537 0.27799-0.33530
   3   6   4 1039.99   56.71   1-0.80238-0.25059-0.13037-0.79198-0.58239-0.55674
  -3  -6  -4 1139.20   56.34   1 0.02113-0.53446-0.51311 0.14605 0.85805 0.83247
   3  -6   5 6552.07  155.01   1 0.35745-0.27436 0.89716 0.89832 0.25945-0.34312
   3   6   5 6442.82  141.81   1-0.80578-0.27995-0.09303-0.78792-0.58485-0.54845
  -3  -6  -5 6586.83  152.47   1 0.00322-0.52655-0.50202 0.19053 0.86484 0.82851
   3  -6   6  981.74   55.74   1 0.33358-0.32421 0.91109 0.87896 0.24212-0.34972
   3   6   6  947.47   56.46   1-0.80804-0.30818-0.05550-0.78366-0.58649-0.53933
  -3  -6  -6  970.74   73.86   1-0.01282-0.51678-0.49187 0.23407 0.87057 0.82349
   3  -6   7   87.62   35.39   1 0.31150-0.37227 0.92295 0.85753 0.22609-0.35503
   3   6   7   84.51   54.79   1-0.80916-0.33526-0.01787-0.77932-0.58731-0.52939
  -3  -6  -7   77.24   59.45   1-0.02699-0.50514-0.48275 0.27658 0.87534 0.81751
   3  -6   8  144.38   53.01   1 0.29128-0.41847 0.93298 0.83427 0.21141-0.35898
   3   6   8  181.35   55.90   1-0.80913-0.36119 0.01975-0.77497-0.58728-0.51861
  -3  -6  -8  178.60   48.00   1-0.03927-0.49160-0.47472 0.31799 0.87925 0.81068
   4   0 -17  -10.15   30.69   1-0.80675-0.26536 0.54667 0.87414 0.22425-0.40675
  -4   0  1621440.01  331.02   1-0.02363-0.53957-0.51464-0.80867-0.85707-0.23432
   4   0 -1621150.26  316.35   1-0.80397-0.28842 0.56259 0.85671 0.19264-0.42760
  -4   0  15   14.50   32.37   1-0.06499-0.55509-0.53924-0.79999-0.83964-0.22778
   4   0 -15   -2.88   33.04   1-0.80025-0.31054 0.57753 0.83830 0.16137-0.44811
  -4   0  14 1294.16   65.10   1-0.10768-0.57194-0.56324-0.79071-0.81924-0.21828
   4   0 -14 1326.15   61.47   1-0.79593-0.33318 0.59079 0.81897 0.13212-0.46719
  -4   0  13   23.58   40.47   1-0.15171-0.59014-0.58650-0.78069-0.79561-0.20554
   4   0 -13   -5.44   37.32   1-0.79055-0.35360 0.60389 0.79869 0.10162-0.48688
  -4   0  1214561.38  346.70   1-0.19706-0.60966-0.60882-0.76973-0.76844-0.18926
   4   0 -1214259.93  318.99   1-0.78441-0.37324 0.61609 0.77750 0.07157-0.50613
  -4   0  11    7.07   25.12   1-0.24366-0.63042-0.62996-0.75759-0.73740-0.16912
   4   0 -11   26.32   34.56   1-0.77754-0.39216 0.62741 0.75544 0.04200-0.52489
  -4   0  10  170.49   38.07   1-0.29205-0.65345-0.64988-0.74299-0.70167-0.14474
   4   0 -10  164.57   40.79   1-0.77003-0.41043 0.63787 0.73251 0.01299-0.54310
  -4   0   9    3.00   39.41   1-0.34067-0.67620-0.66768-0.72755-0.66192-0.11581
   4   0  -9   -1.03   34.92   1-0.76192-0.42811 0.64748 0.70874-0.01542-0.56071
  -4   0   835527.64  782.42   1-0.38988-0.69954-0.68322-0.70984-0.61740-0.08213
   4   0  -835164.32  463.29   1-0.75329-0.44527 0.65626 0.68414-0.04316-0.57765
  -4   0   7    2.33   31.56   1-0.43925-0.72304-0.69604-0.68942-0.56795-0.04351
   4   0  -7  -10.88   35.12   1-0.74422-0.46198 0.66424 0.65873-0.07015-0.59383
  -4   0   6 1865.64   73.15   1-0.48821-0.74613-0.70565-0.66579-0.51351 0.00009
   4   0  -6 1849.63   72.95   1-0.73478-0.47833 0.67142 0.63253-0.09629-0.60917
  -4   0   5   23.36   24.77   1-0.53609-0.76814-0.71154-0.63843-0.45421 0.04856
   4   0  -5   -0.05   27.87   1-0.72509-0.49443 0.67784 0.60557-0.12147-0.62355
  -4   0   431956.20  488.97   1-0.58208-0.78826-0.71326-0.60690-0.39043 0.10151
   4   0  -430973.89  485.75   1-0.71526-0.51038 0.68352 0.57786-0.14557-0.63684
   4   0  -3   14.76   15.08   1 0.01146 0.19245 0.99989 0.85995 0.00831-0.47269
  -4   0   3   12.26   20.33   1-0.62551-0.80556-0.71044-0.57086-0.32249 0.15866
   4   0  -3   -9.04   28.25   1-0.70542-0.52632 0.68847 0.54943-0.16845-0.64891
   4   0  -215529.56  279.76   1-0.17087-0.01576 0.97745 0.80417-0.12402-0.59418
  -4   0   215383.34  270.55   1-0.66513-0.81933-0.70292-0.53008-0.25196 0.21840
   4   0  -215358.15  328.81   1-0.69572-0.54241 0.69274 0.52032-0.18991-0.65957
   4   0  -1   26.14   18.02   1-0.28457-0.15545 0.93613 0.72956-0.20655-0.66601
  -4   0   1   24.11   34.01   1-0.70038-0.82873-0.69076-0.48465-0.17972 0.27984
   4   0  -1   12.33   40.85   1-0.68635-0.55883 0.69635 0.49055-0.20977-0.66862
   4   0   1   -2.08   17.01   1-0.41159-0.33451 0.86101 0.58769-0.29874-0.73669
  -4   0  -1   -8.09   30.28   1-0.75573-0.83215-0.65391-0.38140-0.03556 0.40255
   4   0   1   21.27   24.95   1-0.66950-0.59355 0.70174 0.42917-0.24356-0.68081
   4   0   2 9050.53  167.83   1-0.44746-0.39637 0.83324 0.52663-0.32478-0.75203
  -4   0  -2 8879.39  158.79   1-0.77539-0.82601-0.63060-0.32477 0.03335 0.46067
   4   0   2 8663.06  206.57   1-0.66258-0.61242 0.70358 0.39763-0.25680-0.68324
   4   0   3   15.91   30.43   1-0.47271-0.44760 0.81167 0.47177-0.34310-0.75965
  -4   0  -3   44.27   23.68   1-0.78996-0.81460-0.60517-0.26626 0.09856 0.51529
   4   0   3   31.21   29.22   1-0.65714-0.63276 0.70489 0.36556-0.26698-0.68261
  -4   0  -429042.70  438.86   1-0.79995-0.79886-0.57858-0.20630 0.15911 0.56502
   4   0   5    3.80   21.35   1-0.50245-0.52932 0.78392 0.37744-0.36469-0.75983
  -4   0  -5   66.02   53.59   1-0.80599-0.77918-0.55170-0.14606 0.21443 0.60953
   4   0   5   23.78   19.26   1-0.65263-0.67983 0.70590 0.29980-0.27526-0.66929
   4   0   625344.62  427.51   1-0.51025-0.56311 0.77619 0.33642-0.37035-0.75479
  -4   0  -625323.66  428.72   1-0.80883-0.75629-0.52533-0.08632 0.26423 0.64850
   4   0   623814.13  446.65   1-0.65487-0.70785 0.70541 0.26592-0.27115-0.65438
   4   0   7   39.25   23.81   1-0.51471-0.59356 0.77168 0.29863-0.37358-0.74732
  -4   0  -7   48.65   42.52   1-0.80917-0.73091-0.50009-0.02772 0.30844 0.68190
   4   0   7   10.14   17.24   1-0.66135-0.74012 0.70389 0.23102-0.25912-0.63154
   4   0   811568.96  191.17   1-0.51647-0.62132 0.76988 0.26353-0.37487-0.73790
  -4   0  -812063.13  201.26   1-0.80771-0.70373-0.47648 0.02925 0.34722 0.70986
   4   0   9   10.41   23.45   1-0.51602-0.64685 0.77035 0.23071-0.37454-0.72687
  -4   0  -9    2.53   44.54   1-0.80503-0.67533-0.45482 0.08427 0.38085 0.73268
   4   0  1011813.93  215.81   1-0.51369-0.67051 0.77272 0.19979-0.37285-0.71448
  -4   0 -1011632.44  226.26   1-0.80172-0.64490-0.43574 0.13594 0.40908 0.75207
   4   0  11   -1.15   35.56   1-0.50975-0.69256 0.77670 0.17048-0.36998-0.70091
  -4   0 -11   22.52   36.09   1-0.79804-0.61548-0.41854 0.18654 0.43352 0.76575
   4   0  12 4047.91  126.15   1-0.50438-0.71319 0.78202 0.14251-0.36609-0.68632
  -4   0 -12 4007.72  132.67   1-0.79433-0.58603-0.40360 0.23488 0.45402 0.77549
   4   0  13    2.38   36.45   1-0.49775-0.73255 0.78849 0.11569-0.36128-0.67080
   4   0  1419319.14  350.45   1-0.48996-0.75075 0.79590 0.08981-0.35562-0.65445
  -4   0 -1419056.59  326.05   1-0.78766-0.52790-0.38029 0.32499 0.48471 0.78466
   4   0  15   -9.26   35.94   1-0.48109-0.76787 0.80411 0.06473-0.34919-0.63731
   4   0  16  692.79   47.10   1-0.47123-0.78399 0.81299 0.04032-0.34202-0.61945
  -4   0 -16  606.50   47.60   1-0.78279-0.47155-0.36513 0.40695 0.50389 0.78232
   4   0  17   -0.13   32.02   1-0.46040-0.79916 0.82240 0.01645-0.33417-0.60089
  -4   0 -17   18.42   57.87   1-0.78116-0.44418-0.36033 0.44516 0.50985 0.77751
  -4  -1  17  304.52   53.72   1 0.04059-0.59729-0.47385-0.74443-0.87966-0.29842
  -4   1  17  260.39   44.36   1 0.00807-0.43614-0.49489-0.88128-0.86891-0.18194
   4  -1 -17  280.75   54.47   1-0.80814-0.36227 0.48131 0.86610 0.33947-0.34441
   4   1 -17  218.73   49.69   1-0.79234-0.15536 0.59984 0.87026 0.11123-0.46743
  -4  -1  16  806.52   58.80   1 0.00241-0.61017-0.49847-0.73444-0.86689-0.29712
  -4   1  16  786.47   52.49   1-0.03453-0.45380-0.52125-0.87334-0.85270-0.17698
   4  -1 -16  781.48   53.22   1-0.80907-0.38909 0.49682 0.84829 0.31395-0.35917
   4   1 -16  755.10   55.92   1-0.78497-0.17377 0.61506 0.85210 0.07418-0.49368
  -4   1  15  -12.04   34.42   1-0.07806-0.47150-0.54673-0.86555-0.83365-0.16883
  -4  -1  15   17.69   34.24   1-0.03644-0.62320-0.52240-0.72508-0.85192-0.29303
   4  -1 -15   -1.53   34.98   1-0.80928-0.41519 0.51142 0.82957 0.28897-0.37339
   4   1 -15   -0.09   34.53   1-0.77641-0.19100 0.62910 0.83276 0.03742-0.51963
  -4  -1  1416588.85  284.80   1-0.07654-0.63747-0.54587-0.71527-0.83436-0.28637
  -4   1  1416729.02  311.09   1-0.12300-0.49060-0.57151-0.85704-0.81132-0.15739
   4  -1 -1416688.29  317.59   1-0.80884-0.44063 0.52513 0.80996 0.26458-0.38702
   4   1 -1416406.07  274.83   1-0.76669-0.20707 0.64200 0.81228 0.00098-0.54527
  -4  -1  13  704.70   68.65   1-0.11792-0.65301-0.56878-0.70491-0.81398-0.27688
  -4   1  13  726.15   58.63   1-0.16935-0.51111-0.59538-0.84763-0.78539-0.14235
   4  -1 -13  667.76   47.82   1-0.80789-0.46664 0.53725 0.78944 0.24221-0.39877
   4   1 -13  697.31   56.94   1-0.75587-0.22203 0.65377 0.79066-0.03511-0.57056
  -4  -1  12 1454.97   70.13   1-0.16059-0.66985-0.59100-0.69385-0.79051-0.26431
  -4   1  12 1387.01   65.82   1-0.21703-0.53296-0.61811-0.83708-0.75553-0.12339
   4  -1 -12 1491.45   79.90   1-0.80637-0.49097 0.54927 0.76811 0.21920-0.41103
   4   1 -12 1498.62   72.32   1-0.74398-0.23592 0.66443 0.76794-0.07083-0.59548
  -4  -1  11   72.46   26.96   1-0.20455-0.68797-0.61234-0.68191-0.76367-0.24835
  -4   1  11   72.52   37.05   1-0.26594-0.55603-0.63939-0.82509-0.72141-0.10016
   4  -1 -11   80.07   28.06   1-0.80441-0.51485 0.56045 0.74594 0.19698-0.42248
   4   1 -11   86.68   25.84   1-0.73106-0.24880 0.67399 0.74412-0.10614-0.61998
  -4  -1  10 8207.11  195.33   1-0.24973-0.70732-0.63257-0.66886-0.73312-0.22871
  -4   1  10 8048.53  173.08   1-0.31662-0.58148-0.65916-0.81036-0.68208-0.07199
   4  -1 -10 8099.67  155.15   1-0.80207-0.53835 0.57080 0.72294 0.17565-0.43304
   4   1 -10 7963.10  156.14   1-0.71718-0.26070 0.68247 0.71921-0.14098-0.64402
  -4  -1   9  786.29   52.69   1-0.29657-0.72865-0.65163-0.65342-0.69814-0.20519
  -4   1   9  751.66   51.63   1-0.36721-0.60620-0.67638-0.79434-0.63847-0.03921
   4  -1  -9  782.27   52.62   1-0.79943-0.56155 0.58032 0.69911 0.15533-0.44260
   4   1  -9  812.44   55.65   1-0.70237-0.27168 0.68988 0.69323-0.17530-0.66754
  -4  -1   8  536.27   47.22   1-0.34379-0.75000-0.66874-0.63728-0.65922-0.17711
  -4   1   8  501.72   44.02   1-0.41808-0.63120-0.69091-0.77561-0.58978-0.00136
   4  -1  -8  565.53   47.65   1-0.79657-0.58454 0.58901 0.67444 0.13614-0.45103
   4   1  -8  532.99   46.74   1-0.68670-0.28179 0.69622 0.66620-0.20905-0.69048
  -4  -1   7 1393.92   68.53   1-0.39164-0.77197-0.68373-0.61902-0.61573-0.14444
  -4   1   7 1405.38   62.03   1-0.46866-0.65591-0.70222-0.75368-0.53594 0.04164
   4  -1  -7 1324.72   66.81   1-0.79382-0.60847 0.59627 0.64866 0.11958-0.45715
   4   1  -7 1357.11   67.42   1-0.67023-0.29111 0.70153 0.63812-0.24215-0.71277
  -4  -1   635924.31  568.23   1-0.43970-0.79416-0.69615-0.59820-0.56747-0.10702
  -4   1   635168.00  555.29   1-0.51828-0.67966-0.70979-0.72801-0.47704 0.08972
   4  -1  -635566.18  524.10   1-0.79083-0.63126 0.60329 0.62230 0.10307-0.46286
   4   1  -634700.35  543.65   1-0.65303-0.29969 0.70581 0.60902-0.27452-0.73434
  -4  -1   5  569.75   46.52   1-0.48745-0.81605-0.70553-0.57433-0.51439-0.06477
  -4   1   5  551.93   40.70   1-0.56612-0.70163-0.71315-0.69813-0.41340 0.14252
   4  -1  -5  574.28   46.32   1-0.78791-0.65413 0.60942 0.59505 0.08821-0.46691
   4   1  -5  585.40   46.75   1-0.63520-0.30765 0.70909 0.57892-0.30610-0.75511
  -4  -1   4 2172.46   78.55   1-0.53425-0.83697-0.71139-0.54695-0.45661-0.01782
  -4   1   4 2148.53   78.05   1-0.61161-0.72091-0.71188-0.66358-0.34517 0.19986
   4  -1  -4 2205.00   85.13   1-0.78521-0.67721 0.61463 0.56688 0.07526-0.46906
   4   1  -4 2165.38   72.55   1-0.61683-0.31507 0.71140 0.54785-0.33676-0.77497
   4  -1  -3  117.70   21.54   1 0.23453 0.31898 0.95708 0.87505 0.17022-0.36404
  -4  -1   3  132.67   33.69   1-0.57932-0.85617-0.71328-0.51560-0.39447 0.03348
  -4   1   3   84.79   30.89   1-0.65325-0.73669-0.70576-0.62419-0.27413 0.26010
   4  -1  -3   97.32   31.83   1-0.78284-0.70063 0.61885 0.53772 0.06452-0.46900
   4   1  -3  105.74   25.09   1-0.59805-0.32207 0.71278 0.51584-0.36642-0.79383
   4  -1  -210199.34  210.32   1 0.09611 0.15459 0.99292 0.87760 0.06976-0.45378
   4   1  -2 9444.61  191.96   1-0.53857-0.28712 0.74641 0.51492-0.39090-0.80772
  -4  -1   210208.88  200.71   1-0.62193-0.87274-0.71086-0.48002-0.32842 0.08886
  -4   1   210026.91  168.10   1-0.69053-0.74812-0.69480-0.57996-0.20102 0.32241
   4  -1  -2 9955.75  227.16   1-0.78098-0.72456 0.62199 0.50748 0.05638-0.46634
   4   1  -210035.84  202.36   1-0.57898-0.32879 0.71328 0.48296-0.39496-0.81156
   4  -1  -1 3096.12   92.74   1-0.01624 0.01626 0.99979 0.85118-0.01178-0.52461
   4   1  -1 3036.83   93.10   1-0.58375-0.35828 0.69261 0.42782-0.42370-0.82981
  -4  -1   1 3284.47   95.17   1-0.66104-0.88599-0.70397-0.43985-0.25971 0.14677
  -4   1   1 3249.01   94.13   1-0.72281-0.75454-0.67923-0.53113-0.12720 0.38543
   4  -1  -1 3221.73   89.54   1-0.77979-0.74915 0.62392 0.47602 0.05130-0.46061
   4   1  -1 3131.67   97.37   1-0.55980-0.33539 0.71296 0.44926-0.42225-0.82805
   4  -1   0 9025.84  159.42   1-0.10565-0.09901 0.99144 0.80952-0.07668-0.57867
   4   1   0 9049.00  190.17   1-0.61000-0.41052 0.65716 0.35908-0.44275-0.83816
  -4  -1   0 8818.94  183.90   1-0.69599-0.89509-0.69263-0.39525-0.18933 0.20635
  -4   1   0 9075.08  188.32   1-0.74984-0.75534-0.65943-0.47813-0.05366 0.44814
   4  -1   0 8739.11  190.10   1-0.77946-0.77461 0.62445 0.44317 0.04991-0.45119
   4   1   0 8534.08  212.52   1-0.54068-0.34206 0.71190 0.41481-0.44817-0.84316
   4  -1   1  852.71   44.79   1-0.17569-0.19504 0.97614 0.76094-0.12752-0.61881
   4   1   1  890.98   46.81   1-0.62577-0.45228 0.63411 0.30273-0.45420-0.83891
  -4  -1  -1  921.47   54.02   1-0.72622-0.89946-0.67714-0.34650-0.11862 0.26626
  -4   1  -1  852.81   47.95   1-0.77117-0.75086-0.63639-0.42179 0.01720 0.50822
   4  -1   1  837.02   48.23   1-0.78019-0.80113 0.62327 0.40861 0.05302-0.43728
   4   1   1  843.43   57.65   1-0.52184-0.34900 0.71019 0.37972-0.47255-0.85674
   4  -1   221118.85  269.01   1-0.23044-0.27577 0.95860 0.71010-0.16726-0.64784
   4   1   221313.26  360.89   1-0.63507-0.48756 0.61984 0.25517-0.46094-0.83496
  -4  -1  -221129.44  352.70   1-0.75131-0.89866-0.65810-0.29437-0.04922 0.32518
  -4   1  -221412.55  306.06   1-0.78727-0.74073-0.61071-0.36298 0.08505 0.56529
   4  -1   220872.46  413.28   1-0.78220-0.82892 0.61995 0.37190 0.06169-0.41780
   4   1   221049.27  302.52   1-0.50352-0.35648 0.70794 0.34409-0.49525-0.86863
   4  -1   3 3592.44   99.05   1-0.27310-0.34442 0.94133 0.65954-0.19822-0.66810
   4   1   3 3690.16  103.50   1-0.64001-0.51849 0.61203 0.21407-0.46453-0.82784
  -4  -1  -3 3685.11   97.46   1-0.77135-0.89290-0.63615-0.23910 0.01789 0.38150
  -4   1  -3 3627.78   97.70   1-0.79837-0.72612-0.58368-0.30259 0.14798 0.61740
   4  -1   3 3652.31  109.00   1-0.78568-0.85818 0.61376 0.33233 0.07745-0.39124
   4   1   3 3564.56  107.90   1-0.48601-0.36475 0.70529 0.30805-0.51608-0.87866
   4  -1   411117.86  210.19   1-0.30623-0.40353 0.92564 0.61055-0.22227-0.68145
   4   1   411077.41  176.69   1-0.64185-0.54631 0.60908 0.17783-0.46587-0.81848
  -4  -1  -410907.94  214.01   1-0.78640-0.88221-0.61238-0.18229 0.08091 0.43413
  -4   1  -411045.37  201.74   1-0.80524-0.70727-0.55608-0.24162 0.20576 0.66437
   4  -1   410956.57  224.88   1-0.79072-0.88901 0.60352 0.28870 0.10251-0.35537
   4   1   410948.44  204.99   1-0.46961-0.37413 0.70240 0.27178-0.53488-0.88665
   4  -1   5 2576.27   85.07   1-0.33177-0.45507 0.91210 0.56372-0.24081-0.68929
   4   1   5 2504.75   79.48   1-0.64134-0.57179 0.60990 0.14535-0.46550-0.80741
  -4  -1  -5 2357.42   86.12   1-0.79715-0.86722-0.58736-0.12390 0.13983 0.48224
  -4   1  -5 2466.58   80.09   1-0.80861-0.68491-0.52873-0.18091 0.25802 0.70580
   4  -1   5 2430.03   81.75   1-0.79718-0.92112 0.58725 0.23912 0.14008-0.30716
   4   1   5 2520.47   88.48   1-0.45467-0.38498 0.69943 0.23542-0.55142-0.89238
   4  -1   6 3844.97  104.08   1-0.35139-0.50071 0.90081 0.51906-0.25505-0.69271
   4   1   6 3756.57  102.33   1-0.63900-0.59543 0.61364 0.11580-0.46380-0.79501
  -4  -1  -6 3827.39  100.39   1-0.80408-0.84843-0.56209-0.06527 0.19367 0.52525
  -4   1  -6 3697.83  107.67   1-0.80922-0.65980-0.50233-0.12114 0.30464 0.74160
   4   1   6 3895.63  117.60   1-0.44160-0.39770 0.69658 0.19920-0.56546-0.89562
   4  -1   7  327.74   39.68   1-0.36592-0.54122 0.89194 0.47690-0.26559-0.69255
   4   1   7  329.95   35.71   1-0.63514-0.61756 0.61973 0.08859-0.46100-0.78151
  -4  -1  -7  321.41   35.86   1-0.80788-0.82651-0.53731-0.00713 0.24209 0.56286
  -4   1  -7  320.94   34.96   1-0.80780-0.63265-0.47741-0.06285 0.34573 0.77187
   4   1   7  323.40   34.95   1-0.43085-0.41273 0.69407 0.16330-0.57673-0.89609
   4  -1   816496.17  258.65   1-0.37639-0.57769 0.88525 0.43693-0.27319-0.68946
   4   1   816585.20  279.28   1-0.63001-0.63842 0.62767 0.06324-0.45727-0.76708
  -4  -1  -816373.28  259.33   1-0.80925-0.80216-0.51365 0.04988 0.28506 0.59501
  -4   1  -816313.00  280.12   1-0.80496-0.60409-0.45436-0.00643 0.38155 0.79688
   4   1   816243.94  332.90   1-0.42293-0.43060 0.69213 0.12798-0.58486-0.89341
   4  -1   9  878.64   54.21   1-0.38351-0.61080 0.88058 0.39896-0.27836-0.68392
   4   1   9  915.20   50.76   1-0.62376-0.65815 0.63713 0.03941-0.45274-0.75184
  -4  -1  -9  969.72   74.53   1-0.80883-0.77602-0.49157 0.10534 0.32271 0.62184
  -4   1  -9  919.74   64.36   1-0.80128-0.57311-0.43352 0.04674 0.41230 0.81814
   4  -1  10 1009.82   51.93   1-0.38778-0.64105 0.87772 0.36281-0.28145-0.67631
   4   1  10 1005.74   51.35   1-0.61651-0.67689 0.64781 0.01680-0.44748-0.73588
  -4  -1 -10 1013.89   59.63   1-0.80719-0.74865-0.47137 0.15890 0.35531 0.64363
  -4   1 -10  946.93   59.22   1-0.79716-0.54325-0.41485 0.09880 0.43865 0.83373
   4  -1  11  206.86   38.73   1-0.38961-0.66888 0.87648 0.32828-0.28279-0.66694
   4   1  11  163.57   34.34   1-0.60835-0.69472 0.65949-0.00481-0.44155-0.71926
  -4  -1 -11  173.31   43.98   1-0.80479-0.72053-0.45324 0.21039 0.38322 0.66072
  -4   1 -11  194.53   39.10   1-0.79295-0.51330-0.39846 0.14860 0.46092 0.84524
   4  -1  1211242.66  282.78   1-0.38934-0.69459 0.87667 0.29518-0.28259-0.65604
   4   1  1211237.69  270.08   1-0.59934-0.71169 0.67197-0.02563-0.43501-0.70202
  -4  -1 -1210918.64  253.58   1-0.80217-0.69096-0.43806 0.25845 0.40572 0.67510
  -4   1 -1211368.28  276.35   1-0.78889-0.48351-0.38432 0.19614 0.47952 0.85307
   4  -1  13  203.75   33.94   1-0.38720-0.71845 0.87811 0.26333-0.28104-0.64379
   4   1  13  203.45   38.53   1-0.58952-0.72786 0.68510-0.04579-0.42789-0.68419
  -4  -1 -13  131.63   84.78   1-0.79935-0.66241-0.42436 0.30555 0.42537 0.68398
  -4   1 -13  188.02  101.59   1-0.78516-0.45405-0.37236 0.24149 0.49482 0.85762
   4  -1  14  229.59   35.14   1-0.38341-0.74065 0.88064 0.23257-0.27829-0.63034
   4   1  14  220.68   31.93   1-0.57893-0.74325 0.69876-0.06542-0.42020-0.66580
  -4  -1 -14  193.84   41.58   1-0.79667-0.63398-0.41280 0.35051 0.44148 0.68934
  -4   1 -14  206.68   48.56   1-0.78189-0.42504-0.36249 0.28476 0.50717 0.85921
   4  -1  15  145.43   40.69   1-0.37812-0.76135 0.88413 0.20277-0.27445-0.61580
   4   1  15  139.19   37.60   1-0.56758-0.75789 0.71283-0.08465-0.41196-0.64686
  -4  -1 -15  113.92   68.04   1-0.79425-0.60584-0.40331 0.39340 0.45441 0.69151
  -4   1 -15  172.78   42.84   1-0.77916-0.39657-0.35460 0.32605 0.51687 0.85814
   4  -1  1611467.10  205.39   1-0.37147-0.78069 0.88843 0.17378-0.26962-0.60026
   4   1  1611389.23  201.94   1-0.55549-0.77178 0.72722-0.10355-0.40319-0.62739
  -4  -1 -1611059.51  235.01   1-0.79221-0.57806-0.39580 0.43431 0.46447 0.69080
  -4   1 -1611306.89  207.65   1-0.77700-0.36867-0.34857 0.36548 0.52417 0.85469
   4  -1  17  834.94   57.29   1-0.36353-0.79874 0.89342 0.14548-0.26386-0.58380
   4   1  17  761.12   58.58   1-0.54267-0.78495 0.74186-0.12221-0.39388-0.60738
  -4  -1 -17  784.28   67.10   1-0.79061-0.55072-0.39016 0.47335 0.47191 0.68748
  -4   1 -17  785.51   75.64   1-0.77542-0.34136-0.34429 0.40317 0.52931 0.84906
  -4  -2  1619004.76  397.73   1 0.04293-0.66604-0.47230-0.65165-0.88038-0.36295
  -4   2  1617113.32  394.45   1-0.02849-0.35109-0.51759-0.92776-0.85514-0.12645
   4  -2 -1618882.18  312.57   1-0.79829-0.47505 0.41964 0.82934 0.43199-0.29411
   4   2 -1618253.79  402.77   1-0.75556-0.04747 0.65408 0.83321-0.03609-0.55090
  -4   2  15  369.79   57.52   1-0.07392-0.37069-0.54437-0.92125-0.83557-0.11778
   4  -2 -15  395.63   54.70   1-0.80115-0.50380 0.43288 0.80926 0.41323-0.30212
   4   2 -15  362.73   43.93   1-0.74188-0.05958 0.66611 0.81186-0.07679-0.58079
  -4  -2  14  410.01   49.33   1-0.03067-0.68826-0.51892-0.63026-0.85426-0.35925
  -4   2  14  445.73   43.13   1-0.12087-0.39180-0.57036-0.91397-0.81244-0.10554
   4  -2 -14  440.19   45.10   1-0.80347-0.53200 0.44516 0.78823 0.39529-0.30929
   4   2 -14  482.11   55.44   1-0.72686-0.07035 0.67674 0.78911-0.11700-0.61020
  -4  -2  13 1333.58   74.51   1-0.06895-0.70070-0.54152-0.61958-0.83785-0.35372
  -4   2  13 1397.18   73.74   1-0.16931-0.41441-0.59536-0.90568-0.78541-0.08940
   4  -2 -13 1350.14   66.11   1-0.80528-0.55970 0.45651 0.76626 0.37828-0.31555
   4   2 -13 1464.38   66.70   1-0.71054-0.07981 0.68598 0.76497-0.15670-0.63909
  -4  -2  1217646.88  309.51   1-0.10846-0.71438-0.56366-0.60844-0.81885-0.34561
  -4   2  1217063.39  352.45   1-0.21914-0.43841-0.61907-0.89611-0.75413-0.06902
   4  -2 -1217258.41  314.30   1-0.80668-0.58698 0.46691 0.74333 0.36230-0.32077
   4   2 -1217728.57  347.00   1-0.69297-0.08803 0.69385 0.73945-0.19583-0.66742
  -4  -2  11 1706.05   76.63   1-0.14923-0.72931-0.58522-0.59673-0.79701-0.33467
  -4   2  11 1728.28   72.76   1-0.27114-0.46533-0.64153-0.88406-0.71757-0.04349
   4  -2 -11 1762.76   78.01   1-0.80769-0.61388 0.47633 0.71944 0.34745-0.32486
   4   2 -11 1733.67   74.08   1-0.67422-0.09507 0.70036 0.71258-0.23433-0.69511
  -4  -2  10  188.01   32.49   1-0.19127-0.74552-0.60606-0.58428-0.77207-0.32063
  -4   2  10  208.40   31.32   1-0.32312-0.49144-0.66152-0.87080-0.67673-0.01349
   4  -2 -10  185.87   32.43   1-0.80840-0.64048 0.48476 0.69455 0.33388-0.32767
   4   2 -10  180.48   38.70   1-0.65434-0.10098 0.70552 0.68436-0.27213-0.72210
  -4  -2   9  613.21   54.04   1-0.23455-0.76297-0.62597-0.57092-0.74373-0.30317
  -4   2   9  597.77   46.03   1-0.37566-0.51811-0.67900-0.85503-0.63074 0.02167
   4  -2  -9  655.94   65.24   1-0.80886-0.66682 0.49215 0.66862 0.32174-0.32905
   4   2  -9  633.93   45.81   1-0.63341-0.10583 0.70936 0.65482-0.30916-0.74833
  -4  -2   843502.11  717.15   1-0.27945-0.78220-0.64490-0.55536-0.71133-0.28237
  -4   2   842344.73  981.30   1-0.42824-0.54482-0.69344-0.83623-0.57942 0.06215
   4  -2  -842538.92  967.85   1-0.80912-0.69297 0.49845 0.64160 0.31122-0.32882
   4   2  -843134.58  707.30   1-0.61150-0.10971 0.71189 0.62396-0.34534-0.77371
  -4  -2   7  160.63   32.43   1-0.32497-0.80184-0.66219-0.53940-0.67519-0.25706
  -4   2   7  157.41   31.06   1-0.48022-0.57093-0.70431-0.81386-0.52279 0.10795
   4  -2  -7  155.73   37.16   1-0.80925-0.71898 0.50357 0.61341 0.30252-0.32676
   4   2  -7  135.32   35.62   1-0.58871-0.11271 0.71313 0.59182-0.38058-0.79814
  -4   2   6  227.94   28.37   1-0.62886-0.69388-0.62943-0.70148-0.45644 0.16259
  -4  -2   6  285.59   39.12   1-0.37129-0.82229-0.67765-0.52162-0.63475-0.22746
  -4   2   6  263.48   37.86   1-0.53080-0.59564-0.71108-0.78738-0.46108 0.15883
   4  -2  -6  336.89   41.04   1-0.80929-0.74491 0.50743 0.58395 0.29589-0.32263
   4   2  -6  246.85   40.92   1-0.56514-0.11492 0.71313 0.55844-0.41478-0.82154
  -4   2   5 7345.96  177.41   1-0.53565-0.57468-0.74960-0.78843-0.38879 0.21930
  -4  -2   5 7653.23  168.06   1-0.41806-0.84320-0.69090-0.50163-0.58979-0.19333
  -4   2   5 7856.53  160.07   1-0.57910-0.61807-0.71328-0.75634-0.39478 0.21430
   4  -2  -5 7896.27  186.53   1-0.80929-0.77080 0.50990 0.55309 0.29163-0.31614
   4   2  -5 7724.47  189.04   1-0.54091-0.11648 0.71192 0.52384-0.44785-0.84381
  -4   2   427385.87  535.93   1-0.43562-0.44865-0.84277-0.84838-0.31618 0.28097
  -4  -2   428827.76  545.28   1-0.46485-0.86411-0.70148-0.47896-0.54020-0.15457
  -4   2   428695.68  356.82   1-0.62458-0.63726-0.71055-0.72025-0.32404 0.27407
   4  -2  -428234.88  474.23   1-0.80928-0.79668 0.51078 0.52066 0.29009-0.30692
   4   2  -429156.21  412.24   1-0.51616-0.11751 0.70955 0.48809-0.47969-0.86484
   4  -2  -3 4298.00  113.28   1 0.34463 0.33255 0.90479 0.88067 0.25014-0.33738
   4   2  -3 3722.01  116.52   1-0.74986-0.37631 0.37613 0.11978-0.54426-0.91871
  -4  -2   3 4129.03  115.27   1-0.51106-0.88445-0.70893-0.45317-0.48602-0.11121
  -4   2   3 4199.77  111.82   1-0.66556-0.65239-0.70281-0.67925-0.25115 0.33616
   4  -2  -3 4078.01  123.36   1-0.80929-0.82257 0.50985 0.48642 0.29170-0.29455
   4   2  -3 4170.75  105.64   1-0.49104-0.11818 0.70610 0.45126-0.51018-0.88453
   4  -2  -2 9751.20  207.79   1 0.24986 0.21180 0.95114 0.89373 0.18135-0.39544
   4   2  -2 9497.50  206.33   1-0.75369-0.40611 0.36426 0.07461-0.54704-0.91077
  -4  -2   2 9645.16  181.32   1-0.55600-0.90352-0.71281-0.42380-0.42750-0.06353
  -4   2   2 9523.19  204.16   1-0.70168-0.66266-0.69019-0.63335-0.17684 0.39967
   4  -2  -2 9482.14  206.96   1-0.80928-0.84845 0.50680 0.45005 0.29698-0.27851
   4   2  -2 9471.87  197.55   1-0.46573-0.11865 0.70165 0.41343-0.53922-0.90276
   4  -2  -1  905.82   50.28   1 0.16329 0.09926 0.97943 0.88872 0.11852-0.44755
   4   2  -1  868.03   50.24   1-0.75447-0.43286 0.36177 0.03882-0.54761-0.90061
  -4  -2   1  838.01   55.34   1-0.59891-0.92047-0.71274-0.39062-0.36510-0.01169
  -4   2   1  874.90   57.34   1-0.73272-0.66730-0.67286-0.58279-0.10177 0.46374
   4  -2  -1  869.69   54.73   1-0.80920-0.87426 0.50119 0.41112 0.30658-0.25815
   4   2  -1  810.92   55.97   1-0.44042-0.11913 0.69631 0.37470-0.56672-0.91945
   4  -2   030357.19  528.82   1 0.08653-0.00347 0.99426 0.87027 0.06280-0.49255
  -4  -2   029199.36  482.54   1-0.63888-0.93459-0.70850-0.35312-0.29973 0.04287
  -4   2   029377.73  389.58   1-0.75779-0.66657-0.65184-0.52846-0.02897 0.52574
   4  -2   028394.58  523.93   1-0.80887-0.89982 0.49242 0.36903 0.32130-0.23267
   4   2   029045.53  618.61   1-0.41532-0.11981 0.69020 0.33521-0.59256-0.93449
   4  -2   1   35.63   19.23   1 0.01990-0.09608 0.99969 0.84241 0.01444-0.53019
   4   2   1   36.70   25.80   1-0.75079-0.48112 0.37328-0.01624-0.54494-0.87650
  -4  -2  -1   51.55   21.72   1-0.67520-0.94505-0.70006-0.31141-0.23239 0.09942
  -4   2  -1    9.45   31.36   1-0.77750-0.65979-0.62748-0.47093 0.04181 0.58556
  -4  -2  -1   15.05   25.71   1 0.39019 0.11786-0.68331-0.29482 0.61711 0.94825
   4  -2   1   -2.33   23.22   1-0.80800-0.92483 0.47962 0.32291 0.34219-0.20103
   4  -2   2 6431.65  129.20   1-0.03702-0.17898 0.99895 0.80838-0.02687-0.56078
   4   2   2 6454.26  139.29   1-0.74717-0.50347 0.38422-0.03860-0.54231-0.86314
  -4  -2  -2 6278.38  161.55   1-0.70723-0.95123-0.68761-0.26569-0.16432 0.15669
  -4   2  -2 6195.25  145.01   1-0.79170-0.64828-0.60132-0.41140 0.10775 0.64068
  -4  -2  -2 6283.87  151.50   1 0.36629 0.11978-0.67610-0.25422 0.63930 0.95969
   4  -2   2 6362.53  159.99   1-0.80599-0.94871 0.46156 0.27153 0.37057-0.16188
   4  -2   3 6624.17  147.37   1-0.08507-0.25301 0.99445 0.77059-0.06175-0.58494
   4   2   3 6646.50  134.70   1-0.74263-0.52490 0.39742-0.05870-0.53902-0.84913
  -4  -2  -3 6505.45  159.84   1-0.73436-0.95264-0.67172-0.21677-0.09743 0.21327
  -4   2  -3 6676.81  153.07   1-0.80123-0.63208-0.57402-0.35074 0.16886 0.69097
  -4  -2  -3 6783.71  151.25   1 0.34336 0.12267-0.66859-0.21333 0.65960 0.96924
   4  -2   3 6622.81  152.22   1-0.80184-0.97044 0.43632 0.21298 0.40824-0.11345
   4  -2   416055.85  301.57   1-0.12534-0.31914 0.98793 0.73079-0.09098-0.60339
   4   2   416097.68  279.97   1-0.73729-0.54553 0.41232-0.07709-0.53514-0.83453
  -4  -2  -415770.63  307.28   1-0.75683-0.94930-0.65282-0.16456-0.03206 0.26784
  -4   2  -415789.61  244.63   1-0.80678-0.61191-0.54649-0.28984 0.22461 0.73590
  -4  -2  -416438.76  260.88   1 0.32166 0.12678-0.66100-0.17234 0.67794 0.97684
   4  -2   415807.22  314.25   1-0.79361-0.98810 0.40090 0.14424 0.45765-0.05329
   4  -2   5 1526.26   63.95   1-0.15860-0.37838 0.98060 0.69018-0.11511-0.61682
   4   2   5 1542.82   62.72   1-0.73121-0.56542 0.42853-0.09418-0.53073-0.81940
  -4  -2  -5 1568.00   69.10   1-0.77457-0.94123-0.63176-0.11020 0.03014 0.31925
  -4   2  -5 1566.48   69.04   1-0.80910-0.58850-0.51947-0.22946 0.27476 0.77524
  -4  -2  -5 1561.22   67.03   1 0.30146 0.13241-0.65351-0.13147 0.69428 0.98243
   4  -2   5 1453.96   65.86   1-0.77774-0.99792 0.35062 0.06061 0.52170 0.02157
   4  -2   629396.37  443.15   1-0.18587-0.43164 0.97326 0.64954-0.13491-0.62591
   4   2   628804.94  363.85   1-0.72445-0.58463 0.44573-0.11028-0.52582-0.80376
  -4  -2  -629113.17  498.06   1-0.78770-0.92895-0.60985-0.05522 0.08716 0.36606
  -4   2  -628199.18  425.08   1-0.80893-0.56261-0.49360-0.17022 0.31934 0.80900
  -4  -2  -628851.70  352.86   1 0.28306 0.13983-0.64634-0.09092 0.70859 0.98599
   4  -2   7  286.50   54.21   1-0.20797-0.47973 0.96641 0.60940-0.15095-0.63125
   4   2   7  274.38   36.63   1-0.71702-0.60317 0.46370-0.12560-0.52043-0.78765
  -4  -2  -7  337.12   54.35   1-0.79723-0.91276-0.58710 0.00088 0.14041 0.40849
  -4   2  -7  270.34   38.92   1-0.80696-0.53492-0.46932-0.11258 0.35852 0.83736
  -4  -2  -7  245.38   41.23   1 0.26674 0.14932-0.63973-0.05091 0.72082 0.98747
   4  -2   8 8912.31  183.45   1-0.22561-0.52335 0.96035 0.57005-0.16375-0.63335
   4   2   8 8774.91  238.71   1-0.70896-0.62108 0.48226-0.14034-0.51458-0.77107
  -4  -2  -8 8755.57  203.58   1-0.80353-0.89333-0.56460 0.05675 0.18852 0.44578
  -4   2  -8 8346.18  158.33   1-0.80374-0.50421-0.44675-0.05791 0.39294 0.86163
  -4  -2  -8 8638.37  192.58   1 0.25279 0.16118-0.63388-0.01168 0.73095 0.98685
   4  -2   9 1320.22   63.07   1-0.23938-0.56311 0.95525 0.53165-0.17374-0.63265
   4   2   9 1306.94   67.15   1-0.70027-0.63836 0.50127-0.15462-0.50827-0.75404
  -4  -2  -9 1307.80   68.82   1-0.80724-0.87132-0.54297 0.11175 0.23137 0.47781
  -4   2  -9 1292.33   80.62   1-0.79983-0.47457-0.42655-0.00431 0.42227 0.88020
  -4  -2  -9 1341.82   59.90   1 0.24149 0.17570-0.62901 0.02656 0.73892 0.98408
   4  -2  1014036.52  316.74   1-0.24978-0.59950 0.95117 0.49428-0.18130-0.62950
   4   2  1014097.42  291.59   1-0.69096-0.65502 0.52062-0.16856-0.50151-0.73656
  -4  -2 -1013958.20  296.62   1-0.80896-0.84732-0.52267 0.16541 0.26903 0.50466
  -4   2 -1013479.05  288.85   1-0.79561-0.44461-0.40854 0.04708 0.44731 0.89448
  -4  -2 -1012439.74  302.74   1 0.23315 0.19319-0.62535 0.06361 0.74469 0.97909
   4  -2  11 3878.83  119.49   1-0.25725-0.63295 0.94813 0.45795-0.18671-0.62421
   4   2  11 3731.43  115.14   1-0.68103-0.67094 0.54023-0.18211-0.49430-0.71879
  -4  -2 -11 3812.51  116.41   1-0.80925-0.82189-0.50404 0.21740 0.30171 0.52652
  -4   2 -11 3668.09  137.19   1-0.79136-0.41463-0.39277 0.09626 0.46847 0.90488
   4  -2  12 3255.56  101.40   1-0.26211-0.66380 0.94609 0.42262-0.19025-0.61704
   4   2  12 3220.95  108.48   1-0.67048-0.68638 0.56002-0.19561-0.48665-0.70043
  -4  -2 -12 3353.74   98.83   1-0.80858-0.79549-0.48730 0.26751 0.32973 0.54372
  -4   2 -12 3231.61   97.35   1-0.78732-0.38485-0.37918 0.14325 0.48614 0.91179
   4  -2  13   57.62   41.58   1-0.26467-0.69235 0.94500 0.38824-0.19211-0.60820
   4   2  13   12.19   28.51   1-0.65931-0.70120 0.57990-0.20902-0.47854-0.68163
  -4  -2 -13    1.62   57.04   1-0.80732-0.76850-0.47257 0.31560 0.35341 0.55658
   4  -2  1419137.36  344.25   1-0.26517-0.71883 0.94479 0.35473-0.19246-0.59786
   4   2  1418953.25  342.76   1-0.64753-0.71539 0.59984-0.22238-0.46999-0.66237
  -4  -2 -1419758.12  346.33   1-0.80577-0.74123-0.45989 0.36165 0.37313 0.56548
  -4   2 -1418875.81  279.60   1-0.78044-0.32650-0.35825 0.23098 0.51241 0.91653
   4  -2  15  598.90   56.66   1-0.26379-0.74344 0.94538 0.32203-0.19146-0.58616
   4   2  15  595.89   47.47   1-0.63511-0.72897 0.61977-0.23574-0.46098-0.64266
  -4  -2 -15  534.56   82.79   1-0.80432-0.71299-0.45025 0.40449 0.38773 0.57273
  -4   2 -15  553.11  124.47   1-0.77777-0.29809-0.35070 0.27193 0.52161 0.91497
   4  -2  16 1096.43   67.51   1-0.26071-0.76634 0.94668 0.29004-0.18923-0.57322
   4   2  16 1038.35   60.94   1-0.62206-0.74190 0.63966-0.24914-0.45150-0.62249
  -4  -2 -16  804.96   70.71   1-0.80284-0.68577-0.44163 0.44651 0.40050 0.57475
  -4   2 -16 1117.51   69.40   1-0.77566-0.27025-0.34494 0.31109 0.52853 0.91114
  -4  -3  15  914.02   62.79   1 0.06328-0.71676-0.45868-0.54680-0.88634-0.43272
  -4   3  15  810.51   61.54   1-0.04981-0.24992-0.53036-0.96531-0.84630-0.07553
   4  -3 -15  850.23   56.93   1-0.77636-0.57537 0.34683 0.78124 0.52627-0.24207
   4   3 -15  919.37   58.69   1-0.70318 0.07599 0.68951 0.77736-0.17350-0.62444
  -4  -3  14 6489.64  169.54   1 0.02974-0.72455-0.48096-0.53575-0.87623-0.43357
  -4   3  14 5918.32  191.01   1-0.09860-0.27287-0.55825-0.95992-0.82379-0.06391
   4  -3 -14 6442.73  150.51   1-0.78000-0.60491 0.35699 0.75810 0.51394-0.24364
   4   3 -14 6358.65  146.39   1-0.68356 0.06983 0.69734 0.75180-0.21553-0.65567
  -4  -3  13 3572.93  106.27   1-0.00550-0.73392-0.50345-0.52344-0.86400-0.43285
  -4   3  13 3327.69  109.56   1-0.14902-0.29746-0.58512-0.95351-0.79713-0.04815
   4  -3 -13 3518.84  105.51   1-0.78310-0.63390 0.36608 0.73387 0.50272-0.24410
   4   3 -13 3471.73  125.65   1-0.66263 0.06497 0.70357 0.72465-0.25670-0.68604
  -4  -3  12  272.86   53.29   1-0.04122-0.74381-0.52526-0.51198-0.84993-0.42967
  -4   3  12  286.36   37.45   1-0.20098-0.32359-0.61067-0.94578-0.76595-0.02786
   4  -3 -12  249.05   42.17   1-0.78570-0.66240 0.37403 0.70852 0.49271-0.24335
   4   3 -12  274.19   40.10   1-0.64048 0.06133 0.70823 0.69594-0.29694-0.71547
  -4  -3  11   10.35   30.72   1-0.07810-0.75485-0.54676-0.50019-0.83363-0.42427
  -4   3  11    5.70   28.69   1-0.25428-0.35105-0.63451-0.93634-0.72988-0.00268
   4  -3 -11   15.25   34.16   1-0.78782-0.69042 0.38081 0.68199 0.48405-0.24125
   4   3 -11   20.98   31.05   1-0.61719 0.05883 0.71137 0.66569-0.33618-0.74390
  -4  -3  10 2985.73  105.89   1-0.11618-0.76710-0.56785-0.48801-0.81488-0.41641
  -4   3  10 2723.66   94.53   1-0.30964-0.38142-0.65659-0.92395-0.68775 0.02864
   4  -3 -10 2847.52  102.37   1-0.78941-0.71822 0.38607 0.65409 0.47725-0.23728
   4   3 -10 3085.28  113.52   1-0.59287 0.05737 0.71300 0.63394-0.37433-0.77124
  -4  -3   9 1186.32   64.56   1-0.15552-0.78060-0.58844-0.47532-0.79343-0.40585
  -4   3   9 1170.35   64.66   1-0.36444-0.41035-0.67551-0.90963-0.64098 0.06458
   4  -3  -9 1171.22   59.51   1-0.79065-0.74535 0.39028 0.62499 0.47174-0.23203
   4   3  -9 1304.40   64.67   1-0.56761 0.05684 0.71319 0.60074-0.41130-0.79741
  -4  -3   8  161.93   38.72   1-0.19614-0.79538-0.60838-0.46198-0.76902-0.39233
  -4   3   8   89.83   28.78   1-0.41921-0.43925-0.69120-0.89207-0.58864 0.10609
   4  -3  -8  120.18   37.44   1-0.79144-0.77203 0.39306 0.59445 0.46809-0.22493
   4   3  -8   78.29   37.65   1-0.54154 0.05712 0.71196 0.56613-0.44702-0.82233
  -4   3   7  145.10   30.73   1-0.67289-0.66740-0.55558-0.71875-0.48840 0.19484
  -4  -3   7  150.76   41.10   1-0.23801-0.81142-0.62750-0.44782-0.74134-0.37554
  -4   3   7  131.50   31.67   1-0.47321-0.46737-0.70306-0.87070-0.53081 0.15309
   4  -3  -7  134.90   37.23   1-0.79178-0.79826 0.39427 0.56233 0.46650-0.21576
   4   3  -7  125.09   31.91   1-0.51480 0.05808 0.70939 0.53018-0.48139-0.84589
  -4   3   6 7381.94  184.77   1-0.61491-0.58343-0.65014-0.78008-0.44631 0.22599
  -4  -3   6 7808.54  162.60   1-0.28144-0.82898-0.64570-0.43158-0.70982-0.35568
  -4   3   6 8005.26  159.19   1-0.52556-0.49386-0.71057-0.84496-0.46782 0.20525
   4  -3  -6 7912.25  186.61   1-0.79163-0.82399 0.39373 0.52848 0.46721-0.20429
   4   3  -6 7378.35  278.19   1-0.48752 0.05957 0.70554 0.49294-0.51431-0.86801
  -4   3   5  436.13   40.66   1-0.55055-0.49308-0.73293-0.82966-0.39960 0.26176
  -4  -3   5  410.81   40.63   1-0.32563-0.84731-0.66242-0.41506-0.67464-0.33133
  -4   3   5  498.93   42.01   1-0.57533-0.51775-0.71328-0.81443-0.40026 0.26197
   4  -3  -5  396.20   43.51   1-0.79092-0.84917 0.39123 0.49266 0.47050-0.19024
   4   3  -5  381.97   38.81   1-0.45987 0.06143 0.70050 0.45452-0.54572-0.88861
   4   3  -4  104.31   27.05   1-0.80861-0.31297 0.04084-0.24060-0.58691-0.91877
  -4   3   4  121.07   26.48   1-0.48243-0.39896-0.80289-0.86640-0.35016 0.30027
  -4  -3   4  151.61   29.29   1-0.37067-0.86647-0.67747-0.39686-0.63532-0.30283
  -4   3   4  138.18   30.55   1-0.62203-0.53810-0.71085-0.77856-0.32826 0.32292
   4  -3  -4  177.60   38.99   1-0.78953-0.87367 0.38649 0.45460 0.47670-0.17328
   4   3  -4  132.48   35.75   1-0.43202 0.06350 0.69435 0.41499-0.57551-0.90760
   4   3  -3  155.26   26.68   1-0.80760-0.33793 0.06446-0.25026-0.58618-0.90728
  -4   3   3  158.71   30.48   1-0.41312-0.30366-0.85989-0.89018-0.29985 0.33964
  -4  -3   3  145.62   35.59   1-0.41622-0.88616-0.69043-0.37658-0.59165-0.27000
  -4   3   3  198.78   33.45   1-0.66376-0.55398-0.70328-0.73772-0.25456 0.38582
   4  -3  -3  184.04   32.10   1-0.78741-0.89717 0.37947 0.41417 0.48576-0.15343
   4  -3  -2 1270.80   58.68   1 0.35140 0.21679 0.90081 0.90131 0.25505-0.37500
   4   3  -2 1171.24   59.26   1-0.80606-0.36234 0.08925-0.25875-0.58505-0.89540
  -4  -3   2 1155.56   57.44   1-0.46184-0.90590-0.70089-0.35379-0.54355-0.23273
  -4   3   2 1224.35   59.74   1-0.70034-0.56471-0.69078-0.69195-0.17982 0.44977
  -4  -3   2 1135.71   56.96   1 0.37652-0.06998-0.67926-0.33331 0.62994 0.94021
   4  -3  -2 1137.98   54.03   1-0.78410-0.91975 0.36910 0.37049 0.49893-0.12951
   4  -3  -1  515.10   40.82   1 0.28609 0.12551 0.93542 0.90264 0.20765-0.41168
   4   3  -1  510.36   39.45   1-0.80393-0.38618 0.11485-0.26643-0.58351-0.88310
  -4  -3   1  447.30   37.82   1-0.50692-0.92512-0.70840-0.32806-0.49110-0.19112
  -4   3   1  541.09   40.08   1-0.73131-0.56982-0.67383-0.64173-0.10550 0.51329
  -4  -3   1  481.35   38.48   1 0.34928-0.07140-0.67058-0.29124 0.65445 0.95397
   4  -3  -1  475.91   38.87   1-0.77934-0.94088 0.35510 0.32318 0.51626-0.10141
   4  -3   0  803.43   50.83   1 0.22491 0.03836 0.96060 0.89452 0.16325-0.44536
   4   3   0  857.10   49.21   1-0.80120-0.40941 0.14100-0.27357-0.58153-0.87036
  -4  -3   0  803.42   48.83   1-0.55079-0.94310-0.71255-0.29897-0.43462-0.14546
  -4   3   0  780.31   49.38   1-0.75686-0.56891-0.65278-0.58731-0.03195 0.57567
  -4  -3   0  840.34   47.83   1 0.32265-0.07221-0.66135-0.24863 0.67712 0.96590
   4  -3   0  832.91   49.87   1-0.77256-0.96000 0.33668 0.27145 0.53832-0.06859
   4  -3   1 2969.04   92.32   1 0.16871-0.04381 0.97802 0.87865 0.12245-0.47543
   4   3   1 2923.31   86.10   1-0.79786-0.43203 0.16750-0.28035-0.57910-0.85717
  -4  -3  -1 2899.66   94.14   1-0.59261-0.95908-0.71301-0.26636-0.37471-0.09597
  -4   3  -1 2927.72   89.74   1-0.77669-0.56209-0.62870-0.52995 0.03853 0.63497
  -4  -3  -1 2973.73   87.11   1 0.29684-0.07220-0.65174-0.20562 0.69793 0.97596
   4  -3   1 2874.75   87.24   1-0.76295-0.97629 0.31282 0.21428 0.56571-0.03044
   4  -3   2 5735.23  126.17   1 0.11792-0.12057 0.98932 0.85666 0.08559-0.50158
   4   3   2 5623.66  134.50   1-0.79388-0.45401 0.19421-0.28692-0.57621-0.84353
  -4  -3  -2 5643.62  136.30   1-0.63164-0.97225-0.70962-0.22970-0.31218-0.04424
  -4   3  -2 5487.17  129.73   1-0.79092-0.55061-0.60307-0.47096 0.10359 0.68921
  -4  -3  -2 5618.14  122.94   1 0.27208-0.07115-0.64192-0.16242 0.71687 0.98415
   4  -3   2 5608.42  151.37   1-0.74931-0.98855 0.28211 0.15026 0.59911 0.01371
   4  -3   3  170.98   38.87   1 0.07265-0.19182 0.99596 0.83001 0.05273-0.52371
   4   3   3  147.54   32.65   1-0.78927-0.47537 0.22103-0.29337-0.57287-0.82942
  -4  -3  -3  166.69   25.88   1-0.66714-0.98189-0.70239-0.18920-0.24812 0.00901
  -4   3  -3  164.42   30.06   1-0.80056-0.53452-0.57645-0.41098 0.16369 0.73849
  -4  -3  -3  151.48   35.22   1 0.24857-0.06883-0.63208-0.11919 0.73395 0.99048
   4  -3   3  160.47   28.15   1-0.72977-0.99490 0.24258 0.07742 0.63919 0.06456
   4  -3   4 2592.44   89.34   1 0.03277-0.25767 0.99917 0.79993 0.02379-0.54193
   4   3   4 2595.76   90.22   1-0.78403-0.49609 0.24788-0.29981-0.56907-0.81486
  -4  -3  -4 2579.52   97.01   1-0.69853-0.98743-0.69156-0.14511-0.18379 0.06253
  -4   3  -4 2589.54   94.22   1-0.80631-0.51455-0.54968-0.35084 0.21840 0.78239
  -4  -3  -4 2569.37   96.50   1 0.22654-0.06505-0.62241-0.07613 0.74918 0.99497
   4  -3   4 2540.64   93.90   1-0.70131-0.99238 0.19131-0.00764 0.68669 0.12291
   4  -3   5 6093.40  144.89   1-0.00196-0.31839 0.99999 0.76746-0.00142-0.55643
   4   3   5 6314.75  149.70   1-0.77816-0.51618 0.27469-0.30628-0.56480-0.79983
  -4  -3  -5 6064.78  143.54   1-0.72548-0.98852-0.67760-0.09789-0.12050 0.11503
  -4   3  -5 6029.97  144.01   1-0.80892-0.49144-0.52347-0.29127 0.26758 0.82075
  -4  -3  -5 6131.20  146.01   1 0.20617-0.05960-0.61309-0.03343 0.76262 0.99766
   4  -3   6 3056.07   92.93   1-0.03191-0.37432 0.99922 0.73340-0.02316-0.56745
   4   3   6 3032.58   88.03   1-0.77165-0.53564 0.30142-0.31284-0.56008-0.78435
  -4  -3  -6 2927.32   86.67   1-0.74752-0.98511-0.66146-0.04868-0.06055 0.16484
  -4   3  -6 2949.32  101.43   1-0.80912-0.46591-0.49840-0.23284 0.31129 0.85364
  -4  -3  -6 2959.70   86.85   1 0.18767-0.05228-0.60433 0.00870 0.77430 0.99859
   4  -3   7   -3.24   37.97   1-0.05746-0.42584 0.99747 0.69836-0.04171-0.57527
   4   3   7    4.17   28.05   1-0.76442-0.55408 0.32834-0.31900-0.55483-0.76891
  -4  -3  -7   39.79   31.69   1-0.76556-0.97735-0.64335 0.00273-0.00300 0.21160
  -4   3  -7  162.32   44.53   1-0.80755-0.43863-0.47489-0.17596 0.34974 0.88127
  -4  -3  -7   23.16   29.29   1 0.17122-0.04292-0.59630 0.05012 0.78428 0.99782
   4  -3   8 4972.72  134.28   1-0.07899-0.47334 0.99522 0.66282-0.05733-0.58017
   4   3   8 4943.38  138.25   1-0.75664-0.57227 0.35479-0.32585-0.54918-0.75254
  -4  -3  -8 4961.22  135.18   1-0.77917-0.96586-0.62490 0.05426 0.04871 0.25328
  -4   3  -8 5018.33  138.97   1-0.80479-0.41014-0.45323-0.12093 0.38325 0.90396
  -4  -3  -8 4816.36  141.49   1 0.15699-0.03133-0.58918 0.09063 0.79260 0.99539
   4  -3   9 3666.71  120.49   1-0.09689-0.51711 0.99280 0.62715-0.07032-0.58246
   4   3   9 3563.63  108.12   1-0.74823-0.58983 0.38105-0.33288-0.54308-0.73571
  -4  -3  -9 3455.75  114.33   1-0.78973-0.95070-0.60567 0.10686 0.09735 0.29111
  -4   3  -9 3590.10  119.59   1-0.80121-0.37886-0.43313-0.06892 0.41286 0.92288
  -4  -3  -9 3434.61  114.74   1 0.14514-0.01736-0.58312 0.13008 0.79931 0.99135
   4  -3  10 2879.50  100.57   1-0.11145-0.55766 0.99047 0.59153-0.08089-0.58232
   4   3  10 2695.69   94.79   1-0.73919-0.60676 0.40710-0.34013-0.53652-0.71843
  -4  -3 -10 2597.38   97.06   1-0.79733-0.93258-0.58681 0.15909 0.14106 0.32400
  -4   3 -10 2773.35   97.19   1-0.79735-0.34926-0.41562-0.01801 0.43759 0.93685
  -4  -3 -10 2574.33   90.24   1 0.13583-0.00085-0.57829 0.16830 0.80444 0.98573
   4  -3  11   49.96   27.87   1-0.12301-0.59521 0.98837 0.55614-0.08928-0.58001
   4   3  11   47.14   25.89   1-0.72952-0.62306 0.43292-0.34760-0.52950-0.70068
  -4  -3 -11   32.70   32.05   1-0.80255-0.91208-0.56884 0.21042 0.17977 0.35189
  -4   3 -11   59.95   34.78   1-0.79343-0.31961-0.40024 0.03077 0.45854 0.94704
  -4  -3 -11   83.31   33.56   1 0.12923 0.01836-0.57481 0.20516 0.80801 0.97855
   4  -3  12 3449.42  103.79   1-0.13187-0.63005 0.98663 0.52111-0.09571-0.57574
   4   3  12 3332.47  103.61   1-0.71921-0.63872 0.45850-0.35532-0.52201-0.68248
  -4   3 -12 3378.96  103.98   1-0.78967-0.29011-0.38694 0.07746 0.47611 0.95384
   4  -3  13 2152.44   84.57   1-0.13825-0.66242 0.98530 0.48648-0.10034-0.56967
   4   3  13 2074.92   83.32   1-0.70826-0.65374 0.48383-0.36328-0.51407-0.66381
  -4   3 -13 2035.73   77.07   1-0.78622-0.26093-0.37568 0.12213 0.49062 0.95760
   4  -3  14 1422.58   65.37   1-0.14239-0.69254 0.98439 0.45229-0.10335-0.56197
   4   3  14 1437.92   61.62   1-0.69666-0.66811 0.50889-0.37152-0.50565-0.64466
  -4   3 -14 1420.97   66.64   1-0.78319-0.23216-0.36635 0.16486 0.50238 0.95860
   4   3  15   19.16   46.60   1-0.68440-0.68182 0.53368-0.38003-0.49675-0.62505
  -4   3 -15   46.38   53.59   1-0.78065-0.20388-0.35885 0.20576 0.51167 0.95712
  -4  -4  13 2561.76  108.02   1 0.07248-0.75289-0.45242-0.41598-0.88885-0.51000
   4  -4 -13 2615.52  102.95   1-0.74406-0.69160 0.27104 0.69707 0.61065-0.18915
   4   4 -13 2872.86  125.88   1-0.61914 0.20534 0.71117 0.67435-0.33300-0.70928
  -4  -4  12 5840.17  158.92   1 0.04136-0.75826-0.47334-0.40358-0.87990-0.51201
   4  -4 -12 5790.99  144.17   1-0.74662-0.72005 0.27638 0.66909 0.60511-0.18392
   4   4 -12 6156.57  151.75   1-0.59393 0.20477 0.71296 0.64276-0.37271-0.73818
  -4  -4  11 5507.41  134.97   1 0.00932-0.76454-0.49410-0.39101-0.86935-0.51241
   4  -4 -11 5477.35  123.17   1-0.74850-0.74782 0.28036 0.63976 0.60095-0.17733
   4   4 -11 5646.02  207.66   1-0.56780 0.20511 0.71319 0.60961-0.41104-0.76570
  -4  -4  10   31.53   40.99   1-0.02463-0.77220-0.51525-0.37734-0.85668-0.51117
  -4   4  10   47.76   38.49   1-0.27226-0.24750-0.64199-0.96744-0.71673 0.05282
   4  -4 -10   84.07   48.37   1-0.74968-0.77490 0.28290 0.60899 0.59827-0.16924
   4   4 -10   48.95   39.80   1-0.54088 0.20625 0.71191 0.57494-0.44790-0.79176
  -4  -4   9  250.32   45.00   1-0.05885-0.78059-0.53566-0.36448-0.84237-0.50776
  -4   4   9  193.19   39.81   1-0.32998-0.27935-0.66396-0.95617-0.67101 0.08771
   4  -4  -9  216.24   50.79   1-0.75014-0.80125 0.28387 0.57666 0.59724-0.15951
   4   4  -9  198.87   41.01   1-0.51331 0.20803 0.70921 0.53886-0.48324-0.81629
  -4   4   814706.52  404.74   1-0.70785-0.63185-0.48474-0.73902-0.51377 0.23368
  -4  -4   815764.49  327.02   1-0.09423-0.79013-0.55583-0.35136-0.82593-0.50221
  -4   4   815295.55  293.76   1-0.38780-0.31130-0.68262-0.94158-0.61938 0.12851
   4  -4  -815697.65  313.01   1-0.74980-0.82682 0.28316 0.54264 0.59799-0.14799
  -4   4   7  588.35   49.85   1-0.66841-0.56642-0.56378-0.78484-0.48515 0.25137
  -4  -4   7  566.80   47.58   1-0.13083-0.80090-0.57566-0.33791-0.80715-0.49432
  -4   4   7  593.86   46.75   1-0.44490-0.34253-0.69732-0.92304-0.56195 0.17510
   4  -4  -7  618.10   46.21   1-0.74861-0.85152 0.28060 0.50676 0.60070-0.13453
   4   4  -7  562.59   45.16   1-0.45681 0.21295 0.69987 0.46276-0.54908-0.86052
  -4   4   6   97.94   27.25   1-0.62420-0.49622-0.63647-0.82431-0.45306 0.27252
  -4  -4   6  109.69   38.77   1-0.16871-0.81295-0.59506-0.32404-0.78576-0.48383
  -4   4   6  127.20   34.62   1-0.50034-0.37210-0.70749-0.89997-0.49909 0.22713
   4  -4  -6  159.92   41.13   1-0.74643-0.87523 0.27598 0.46884 0.60553-0.11894
   4   4  -6   91.48   40.78   1-0.42821 0.21577 0.69344 0.42294-0.57945-0.88009
  -4   4   5 5663.84  155.17   1-0.57636-0.42238-0.70199-0.85661-0.41834 0.29631
  -4  -4   5 5819.43  173.94   1-0.20791-0.82631-0.61390-0.30960-0.76150-0.47046
  -4   4   5 5925.30  171.05   1-0.55309-0.39897-0.71267-0.87190-0.43149 0.28390
  -4  -4   5 5408.67  161.04   1 0.39995-0.22072-0.68607-0.38266 0.60772 0.89713
   4  -4  -5 5943.51  158.30   1-0.74311-0.89781 0.26908 0.42862 0.61267-0.10103
   4   4  -4 7883.85  230.58   1-0.80326-0.21114-0.12181-0.46127-0.58302-0.86176
  -4   4   4 8456.96  200.95   1-0.52612-0.34615-0.75984-0.88124-0.38187 0.32183
  -4  -4   4 8556.49  225.37   1-0.24842-0.84099-0.63201-0.29443-0.73406-0.45391
  -4   4   4 8645.23  226.64   1-0.60274-0.42220-0.71253-0.83824-0.35916 0.34510
  -4  -4   4 8436.65  193.51   1 0.37155-0.22331-0.67774-0.34093 0.63451 0.91317
   4  -4  -4 8496.52  221.12   1-0.73844-0.91904 0.25959 0.38582 0.62234-0.08060
   4   4  -3 2231.69   88.91   1-0.80594-0.23978-0.09091-0.46366-0.58497-0.85294
  -4   4   3 2509.43   96.87   1-0.47473-0.26876-0.80987-0.89806-0.34457 0.34820
  -4  -4   3 2342.29   88.74   1-0.29048-0.85696-0.64927-0.27733-0.70289-0.43439
  -4   4   3 2424.85   89.70   1-0.64708-0.44069-0.70703-0.79947-0.28527 0.40819
  -4  -4   3 2292.25   91.68   1 0.34350-0.22554-0.66864-0.29845 0.65948 0.92739
   4  -4  -3 2529.52   96.30   1-0.73214-0.93863 0.24716 0.34008 0.63472-0.05746
   4   4  -2 7248.60  191.03   1-0.80786-0.26766-0.05951-0.46553-0.58636-0.84358
  -4   4   2 7493.95  179.53   1-0.42335-0.19139-0.85226-0.90723-0.30727 0.37456
  -4  -4   2 7232.27  194.61   1-0.33343-0.87403-0.66518-0.26000-0.66809-0.41043
  -4   4   2 7459.90  198.57   1-0.68606-0.45381-0.69645-0.75563-0.21038 0.47229
  -4  -4   2 7531.06  194.39   1 0.31599-0.22723-0.65893-0.25536 0.68260 0.93976
   4  -4  -2 7399.78  178.78   1-0.72383-0.95621 0.23135 0.29096 0.65003-0.03138
   4  -4  -1 1087.48   66.27   1 0.37807 0.12094 0.88417 0.90929 0.27441-0.39818
   4   4  -1 1123.00   60.71   1-0.80898-0.29474-0.02778-0.46708-0.58717-0.83363
  -4  -4   1 1076.32   61.26   1-0.37724-0.89197-0.67948-0.24106-0.62927-0.38244
  -4   4   1 1204.92   64.48   1-0.71924-0.46114-0.68131-0.70722-0.13598 0.53588
  -4  -4   1 1043.58   64.98   1 0.28920-0.22820-0.64877-0.21181 0.70388 0.95029
   4  -4  -1 1066.38   66.34   1-0.71313-0.97140 0.21186 0.23740 0.66824-0.00240
   4  -4   017438.23  393.15   1 0.32964 0.04655 0.91328 0.90511 0.23926-0.42261
   4   4   016464.93  371.22   1-0.80928-0.32101 0.00412-0.46845-0.58739-0.82309
  -4  -4   016521.86  355.56   1-0.42155-0.91041-0.69179-0.22012-0.58627-0.35027
  -4   4   016991.16  379.05   1-0.74698-0.46229-0.66193-0.65437-0.06213 0.59839
  -4  -4   016415.61  354.24   1 0.26332-0.22826-0.63831-0.16796 0.72333 0.95899
   4  -4   016988.87  393.14   1-0.69905-0.98325 0.18748 0.17973 0.69004 0.03017
   4  -4   1  654.85   45.06   1 0.28373-0.02533 0.93652 0.89506 0.20594-0.44521
   4   4   1  611.38   52.21   1-0.80876-0.34646 0.03610-0.46976-0.58702-0.81196
  -4  -4  -1  593.82   46.34   1-0.46583-0.92882-0.70167-0.19676-0.53911-0.31394
  -4   4  -1  662.49   49.78   1-0.76841-0.45792-0.63991-0.59904 0.00710 0.65685
  -4  -4  -1  618.05   52.12   1 0.23852-0.22725-0.62772-0.12398 0.74099 0.96591
   4  -4   1  652.11   45.09   1-0.68085-0.99096 0.15768 0.11665 0.71524 0.06616
   4  -4   2 2200.32   79.81   1 0.24083-0.09421 0.95469 0.87994 0.17480-0.46563
   4   4   2 2244.40   87.78   1-0.80741-0.37107 0.06804-0.47110-0.58604-0.80022
  -4  -4  -2 2196.63   90.60   1-0.50945-0.94657-0.70873-0.17057-0.48800-0.27367
  -4   4  -2 2277.28   93.45   1-0.78487-0.44766-0.61526-0.54096 0.07369 0.71200
  -4  -4  -2 2211.15   80.86   1 0.21496-0.22499-0.61716-0.08003 0.75690 0.97106
   4  -4   2 2271.18   84.55   1-0.65727-0.99330 0.12142 0.04710 0.74380 0.10551
   4  -4   314446.64  295.81   1 0.20123-0.15978 0.96859 0.86055 0.14606-0.48364
   4   4   314247.18  323.19   1-0.80524-0.39486 0.09987-0.47255-0.58446-0.78789
  -4  -4  -313807.47  374.13   1-0.55165-0.96290-0.71259-0.14119-0.43344-0.22994
  -4   4  -314714.78  336.64   1-0.79620-0.43327-0.59005-0.48239 0.13380 0.76129
  -4  -4  -314202.54  329.42   1 0.19282-0.22131-0.60680-0.03629 0.77110 0.97452
   4  -4   313975.43  348.70   1-0.62658-0.98852 0.07740-0.03020 0.77550 0.14799
   4  -4   4 9209.85  232.84   1 0.16512-0.22187 0.97896 0.83763 0.11985-0.49913
   4   4   4 9173.53  217.58   1-0.80226-0.41784 0.13154-0.47416-0.58230-0.77496
  -4   4  -4 9201.51  236.43   1-0.80354-0.41489-0.56457-0.42354 0.18860 0.80527
  -4  -4  -4 8934.10  215.11   1 0.17223-0.21608-0.59681 0.00708 0.78367 0.97634
   4  -4   5 1091.86   56.78   1 0.13254-0.28043 0.98649 0.81187 0.09620-0.51206
   4   4   5 1072.80   55.78   1-0.79847-0.44001 0.16299-0.47599-0.57954-0.76145
  -4   4  -5 1043.74   55.42   1-0.80765-0.39327-0.53951-0.36512 0.23795 0.84381
  -4  -4  -5 1066.64   64.99   1 0.15335-0.20915-0.58733 0.04994 0.79468 0.97660
   4  -4   613212.59  236.42   1 0.10345-0.33549 0.99179 0.78388 0.07508-0.52245
   4   4   613010.93  266.63   1-0.79388-0.46139 0.19419-0.47807-0.57622-0.74736
  -4   4  -612668.30  265.38   1-0.80922-0.36912-0.51543-0.30768 0.28193 0.87697
  -4  -4  -612641.55  246.55   1 0.13628-0.20039-0.57852 0.09214 0.80419 0.97537
   4  -4   7 3916.79  108.96   1 0.07774-0.38717 0.99537 0.75417 0.05643-0.53039
   4   4   7 3790.27  116.61   1-0.78851-0.48199 0.22512-0.48043-0.57232-0.73271
  -4   4  -7 3852.32  116.88   1-0.80889-0.34307-0.49275-0.25163 0.32075 0.90497
  -4  -4  -7 3700.54  107.81   1 0.12116-0.18970-0.57052 0.13353 0.81229 0.97271
   4  -4   8 8452.07  194.71   1 0.05528-0.43560 0.99766 0.72317 0.04013-0.53596
   4   4   8 8028.25  178.70   1-0.78238-0.50181 0.25574-0.48309-0.56787-0.71749
  -4   4  -8 8409.42  190.46   1-0.80723-0.31568-0.47174-0.19726 0.35472 0.92813
  -4  -4  -8 7820.18  195.33   1 0.10808-0.17696-0.56346 0.17398 0.81904 0.96871
   4  -4   9  551.44   44.82   1 0.03590-0.48096 0.99901 0.69123 0.02606-0.53931
   4   4   9  529.40   46.30   1-0.77547-0.52087 0.28604-0.48607-0.56286-0.70173
  -4   4  -9  472.09   52.03   1-0.80469-0.28742-0.45259-0.14474 0.38421 0.94680
  -4  -4  -9  482.10   54.43   1 0.09715-0.16207-0.55745 0.21337 0.82450 0.96343
   4  -4  10 3662.93  101.03   1 0.01941-0.52343 0.99971 0.65864 0.01409-0.54056
   4   4  10 3637.58  104.28   1-0.76773-0.53881 0.31632-0.48895-0.55724-0.68600
  -4   4 -10 3563.81  116.06   1-0.80153-0.25636-0.43474-0.09515 0.41053 0.96188
  -4  -4 -10 3405.77  119.70   1 0.08846-0.14495-0.55260 0.25160 0.82873 0.95691
   4  -4  11 9339.46  189.97   1 0.00563-0.56318 0.99997 0.62561 0.00409-0.53983
   4   4  11 9275.34  194.78   1-0.75931-0.55636 0.34596-0.49260-0.55113-0.66917
  -4   4 -11 9177.68  178.00   1-0.79827-0.22737-0.41956-0.04657 0.43210 0.97269
   4  -4  12 1796.24   73.89   1-0.00560-0.60040 0.99997 0.59232-0.00406-0.53727
   4   4  12 1821.27   82.92   1-0.75015-0.57317 0.37524-0.49662-0.54447-0.65179
  -4   4 -12 1817.92   78.40   1-0.79505-0.19840-0.40636 0.00002 0.45028 0.98012
   4   4  13  300.51   47.22   1-0.74024-0.58923 0.40417-0.50099-0.53728-0.63388
  -4   4 -13  291.22   59.24   1-0.79201-0.16963-0.39508 0.04470 0.46542 0.98449
   4  -5 -10 2625.19  101.95   1-0.69481-0.81663 0.18038 0.56356 0.69619-0.12449
   4   5 -10 2759.22   99.11   1-0.50232 0.34169 0.70777 0.51290-0.49671-0.78750
   4  -5  -9 2306.45   94.31   1-0.69375-0.84148 0.17861 0.52850 0.69771-0.11218
   4   5  -9 1564.81  121.03   1-0.47401 0.34421 0.70321 0.47496-0.52990-0.80989
   4  -5  -8   13.46   37.78   1-0.69157-0.86523 0.17502 0.49163 0.70077-0.09834
   4   5  -8   -8.48   34.79   1-0.44552 0.34692 0.69746 0.43582-0.56129-0.83048
  -4   5   7 6345.29  172.81   1-0.67766-0.47917-0.54665-0.82560-0.49186 0.29793
   4  -5  -7 6712.32  157.21   1-0.68818-0.88775 0.16947 0.45279 0.70546-0.08286
   4   5  -7 5524.47  319.83   1-0.41700 0.34965 0.69063 0.39561-0.59087-0.84925
  -4   5   6 5164.86  132.76   1-0.64306-0.41857-0.60712-0.85286-0.46675 0.31211
  -4  -5   6 5129.49  133.06   1 0.38921-0.35401-0.68303-0.35538 0.61804 0.86508
   4  -5  -6 5317.15  131.66   1-0.68341-0.90890 0.16177 0.41180 0.71187-0.06565
  -4   5   5 2759.58   89.47   1-0.60609-0.35560-0.66266-0.87518-0.43991 0.32801
  -4  -5   5 2597.86   88.13   1 0.36114-0.35626-0.67446-0.31342 0.64395 0.88024
   4  -5  -5 2771.14   99.97   1-0.67707-0.92847 0.15170 0.36845 0.72011-0.04663
  -4   5   4 1496.17   66.40   1-0.56743-0.29095-0.71301-0.89231-0.41185 0.34513
  -4  -5   4 1314.89   60.60   1 0.33352-0.35806-0.66521-0.27078 0.66802 0.89356
   4  -5  -4 1457.62   69.78   1-0.66890-0.94622 0.13901 0.32247 0.73023-0.02572
   4   5  -3 7704.24  184.74   1-0.79874-0.13610-0.16092-0.59168-0.57974-0.79459
  -4   5   3 8529.17  190.82   1-0.52780-0.22533-0.75806-0.90414-0.38309 0.36296
  -4  -5   3 8230.88  171.96   1 0.30652-0.35924-0.65542-0.22761 0.69026 0.90505
   4  -5  -3 8658.89  180.43   1-0.65860-0.96184 0.12341 0.27359 0.74229-0.00287
   4   5  -2 3928.86  109.73   1-0.80231-0.16564-0.13101-0.59505-0.58234-0.78643
  -4   5   2 4305.57  121.81   1-0.48787-0.15941-0.79786-0.91072-0.35411 0.38100
  -4   5   2 3994.77  130.07   1-0.65548-0.32662-0.70527-0.82246-0.27005 0.46569
  -4  -5   2 4151.29  110.22   1 0.28029-0.35966-0.64524-0.18404 0.71070 0.91475
   4  -5  -2 4201.77  146.57   1-0.64577-0.97492 0.10455 0.22144 0.75633 0.02195
   4   5  -1 1278.27   64.13   1-0.80520-0.19449-0.10038-0.59770-0.58443-0.77776
  -4   5   1 1312.30   61.62   1-0.44828-0.09382-0.83257-0.91222-0.32537 0.39881
  -4   5   1 1263.25   69.54   1-0.69327-0.33855-0.69373-0.77765-0.19520 0.52974
  -4  -5   1 1337.94   60.90   1 0.25498-0.35915-0.63481-0.14022 0.72938 0.92268
   4  -5  -1 1373.44   70.37   1-0.62991-0.98498 0.08203 0.16563 0.77232 0.04872
   4   5   0  651.57   53.53   1-0.80735-0.22260-0.06918-0.59978-0.58599-0.76857
  -4   5   0  694.05   45.16   1-0.40957-0.02912-0.86248-0.90891-0.29727 0.41597
  -4   5   0  646.88   44.39   1-0.72485-0.34429-0.67799-0.72864-0.12208 0.59206
  -4  -5   0  629.02   44.72   1 0.23073-0.35758-0.62428-0.09631 0.74634 0.92890
   4  -5   0  678.58   53.89   1-0.61039-0.99138 0.05538 0.10570 0.79015 0.07735
   4  -5   1 6487.61  156.72   1 0.37633-0.02927 0.88529 0.90175 0.27315-0.43125
   4   5   1 5901.62  163.88   1-0.80872-0.24993-0.03757-0.60145-0.58698-0.75880
  -4   5  -1 6173.59  171.65   1-0.75096-0.34374-0.65842-0.67546-0.05028 0.65236
  -4  -5  -1 6282.34  153.77   1 0.20767-0.35482-0.61379-0.05243 0.76165 0.93346
   4  -5   1 6342.94  149.49   1-0.58643-0.99334 0.02405 0.04108 0.80963 0.10762
   4  -5   2 4211.73  129.91   1 0.34072-0.09086 0.90705 0.89021 0.24730-0.44638
   4   5   2 4147.79  124.20   1-0.80928-0.27645-0.00565-0.60282-0.58739-0.74844
  -4   5  -2 4240.84  124.49   1-0.77078-0.33776-0.63689-0.62063 0.01577 0.70762
  -4  -5  -2 4164.35  109.38   1 0.18594-0.35073-0.60350-0.00875 0.77537 0.93643
   4  -5   2 4222.17  118.94   1-0.55702-0.98984-0.01258-0.02883 0.83039 0.13917
   4  -5   3  105.11   36.88   1 0.30713-0.15042 0.92518 0.87506 0.22292-0.46004
   4   5   3   81.01   32.15   1-0.80901-0.30215 0.02645-0.60399-0.58719-0.73749
  -4   5  -3   85.05   37.28   1-0.78599-0.32617-0.61317-0.56332 0.07894 0.75912
  -4  -5  -3  114.25   40.58   1 0.16564-0.34522-0.59353 0.03459 0.78757 0.93788
   4  -5   4 1697.33   76.09   1 0.27578-0.20775 0.94014 0.85672 0.20017-0.47207
   4   5   4 1582.62   68.62   1-0.80790-0.32700 0.05866-0.60505-0.58639-0.72592
  -4   5  -4 1638.20   75.01   1-0.79639-0.31085-0.58951-0.50630 0.13501 0.80438
  -4  -5  -4 1748.81   73.91   1 0.14688-0.33816-0.58402 0.07749 0.79833 0.93789
   4  -5   5 5113.71  132.57   1 0.24682-0.26268 0.95235 0.83565 0.17915-0.48237
   4   5   5 4965.04  150.24   1-0.80594-0.35100 0.09090-0.60609-0.58497-0.71375
  -4   5  -5 4861.44  145.72   1-0.80323-0.29196-0.56596-0.44938 0.18572 0.84427
  -4  -5  -5 5234.71  139.79   1 0.12976-0.32946-0.57509 0.11980 0.80772 0.93653
   4  -5   6 1383.57   67.90   1 0.22033-0.31515 0.96222 0.81222 0.15992-0.49087
   4   5   6 1317.44   74.60   1-0.80313-0.37416 0.12311-0.60717-0.58293-0.70095
  -4   5  -6 1294.33   65.14   1-0.80722-0.27024-0.54310-0.39315 0.23113 0.87886
  -4  -5  -6 1319.59   72.51   1 0.11436-0.31904-0.56687 0.16142 0.81582 0.93389
   4  -5   7  565.49   55.28   1 0.19634-0.36512 0.97012 0.78683 0.14251-0.49756
   4   5   7  548.44   54.91   1-0.79948-0.39647 0.15521-0.60834-0.58028-0.68754
  -4   5  -7  644.22   46.26   1-0.80902-0.24631-0.52135-0.33804 0.27141 0.90832
  -4  -5  -7  589.96   62.75   1 0.10076-0.30682-0.55944 0.20223 0.82271 0.93003
   4  -5   8 2528.30   82.26   1 0.17484-0.41259 0.97638 0.75980 0.12690-0.50245
   4   5   8 2526.83   83.89   1-0.79498-0.41794 0.18718-0.60966-0.57702-0.67352
  -4   5  -8 2442.01   90.01   1-0.80919-0.22076-0.50103-0.28435 0.30686 0.93295
  -4  -5  -8 2349.29   79.86   1 0.08903-0.29274-0.55292 0.24213 0.82845 0.92502
   4  -5   9 2683.78  101.41   1 0.15579-0.45762 0.98129 0.73142 0.11307-0.50555
   4   5   9 2688.32   94.40   1-0.78965-0.43857 0.21896-0.61116-0.57314-0.65889
  -4   5  -9 2683.86  107.13   1-0.80822-0.19406-0.48234-0.23230 0.33781 0.95308
  -4  -5  -9 2487.69   98.54   1 0.07922-0.27672-0.54740 0.28105 0.83311 0.91892
  -4   6   3 3997.74  127.59   1-0.57531-0.17634-0.70330-0.90728-0.41757 0.38175
  -4  -6   3 3704.34  122.57   1 0.28915-0.47334-0.64875-0.16332 0.70392 0.86560
   4  -6  -3 3870.73  130.58   1-0.57559-0.97562 0.01032 0.21857 0.81766 0.01956
  -4   6   2 1285.71   74.16   1-0.54367-0.11870-0.74074-0.91150-0.39460 0.39378
  -4  -6   2 1246.79   79.11   1 0.26459-0.47208-0.63884-0.12002 0.72240 0.87334
   4  -6  -2 1218.29   70.78   1-0.55942-0.98536-0.00966 0.16529 0.82882 0.04150
  -4   6   1 6634.48  183.86   1-0.51205-0.06109-0.77437-0.91191-0.37166 0.40579
  -4  -6   1 6243.04  170.18   1 0.24104-0.46981-0.62882-0.07661 0.73924 0.87943
   4  -6  -1 5911.91  256.81   1-0.54079-0.99209-0.03204 0.10785 0.84054 0.06412
   4   6   0 4947.57  170.48   1-0.80518-0.12395-0.10060-0.68922-0.58442-0.71386
  -4   6   0 5629.43  154.50   1-0.48085-0.00390-0.80434-0.90866-0.34901 0.41750
  -4  -6   0 5308.29  153.77   1 0.21861-0.46643-0.61882-0.03323 0.75449 0.88393
   4   6   1  147.71   50.53   1-0.80723-0.15197-0.07124-0.69314-0.58591-0.70459
  -4   6  -1  154.34   48.40   1-0.45040 0.05254-0.83082-0.90192-0.32691 0.42867
  -4  -6  -1  169.14   50.02   1 0.19740-0.46182-0.60898 0.00999 0.76822 0.88691
   4   6   2   15.33   45.42   1-0.80860-0.17930-0.04128-0.69646-0.58690-0.69483
  -4   6  -2   28.41   38.52   1-0.42099 0.10795-0.85404-0.89193-0.30556 0.43908
  -4  -6  -2   16.49   37.23   1 0.17751-0.45589-0.59940 0.05296 0.78051 0.88845
   4  -6   310824.68  266.12   1 0.39628-0.15781 0.87190 0.87969 0.28763-0.44859
   4   6   310232.68  272.16   1-0.80924-0.20590-0.01083-0.69929-0.58736-0.68453
  -4  -6  -311091.71  264.37   1 0.15902-0.44856-0.59021 0.09554 0.79143 0.88862
  -5   0  15   -0.05   38.65   1-0.11670-0.63245-0.56813-0.76927-0.81461-0.09064
   5   0 -15   16.23   34.49   1-0.80032-0.28510 0.57728 0.77818 0.16190-0.55959
  -5   0  14 7631.32  164.22   1-0.15804-0.64795-0.58971-0.75757-0.79199-0.07891
   5   0 -14 7590.48  164.14   1-0.79653-0.30836 0.58911 0.75749 0.13590-0.57542
  -5   0  13    6.07   32.35   1-0.20007-0.66414-0.61024-0.74482-0.76653-0.06435
   5   0 -13   -0.91   50.89   1-0.79192-0.32953 0.60082 0.73581 0.10893-0.59158
  -5   0  12   88.78   36.05   1-0.24269-0.68093-0.62954-0.73084-0.73809-0.04680
   5   0 -12  103.93   30.81   1-0.78676-0.35016 0.61169 0.71330 0.08261-0.60710
  -5   0  11   11.30   31.60   1-0.28648-0.69943-0.64770-0.71422-0.70598-0.02605
   5   0 -11   29.87   37.59   1-0.78112-0.37031 0.62176 0.68999 0.05699-0.62191
  -5   0  10 6966.56  173.29   1-0.32980-0.71688-0.66390-0.69718-0.67115-0.00206
   5   0 -10 6992.41  149.90   1-0.77508-0.39005 0.63104 0.66588 0.03214-0.63596
  -5   0   9   19.27   29.08   1-0.37316-0.73437-0.67824-0.67827-0.63303 0.02522
   5   0  -9    7.72   39.74   1-0.76869-0.40945 0.63956 0.64102 0.00812-0.64918
  -5   0   8    1.08   35.30   1-0.41627-0.75161-0.69044-0.65723-0.59160 0.05582
   5   0  -8   26.62   28.45   1-0.76205-0.42859 0.64733 0.61541-0.01498-0.66148
  -5   0   7   17.02   24.99   1-0.45879-0.76825-0.70028-0.63382-0.54691 0.08968
   5   0  -7  -11.63   32.06   1-0.75524-0.44757 0.65439 0.58909-0.03709-0.67279
  -5   0   6 9623.86  210.99   1-0.50033-0.78392-0.70749-0.60779-0.49911 0.12664
   5   0  -6 9290.56  181.80   1-0.74835-0.46646 0.66074 0.56206-0.05810-0.68300
  -5   0   5   -1.82   37.51   1-0.54046-0.79819-0.71188-0.57894-0.44845 0.16647
   5   0  -5    8.06   24.48   1-0.74148-0.48538 0.66642 0.53435-0.07790-0.69199
  -5   0   4 3578.63  110.91   1-0.57875-0.81060-0.71328-0.54710-0.39530 0.20879
   5   0  -4 3584.69  122.00   1-0.73476-0.50444 0.67144 0.50599-0.09636-0.69964
  -5   0   3   26.42   26.19   1-0.61494-0.82061-0.71158-0.51217-0.33983 0.25352
   5   0  -3   17.76   37.66   1-0.72830-0.52377 0.67581 0.47698-0.11331-0.70579
  -5   0   2 8123.07  218.37   1-0.64820-0.82802-0.70681-0.47412-0.28326 0.29928
   5   0  -2 8023.01  221.55   1-0.72225-0.54351 0.67956 0.44735-0.12858-0.71026
   5   0  -1    1.51   16.17   1-0.18639-0.03149 0.97311 0.70657-0.13528-0.70693
  -5   0   1   12.63   36.57   1-0.67841-0.83238-0.69905-0.43310-0.22598 0.34577
   5   0  -1   -5.05   19.80   1-0.71677-0.56381 0.68269 0.41710-0.14196-0.71283
   5   0   0 1472.68   69.73   1-0.26249-0.13357 0.94593 0.64610-0.19052-0.75146
  -5   0   0 1562.06   64.60   1-0.70530-0.83341-0.68853-0.38931-0.16871 0.39223
   5   0   0 1502.70   61.75   1-0.71204-0.58487 0.68521 0.38623-0.15319-0.71326
   5   0   1   -5.64   19.43   1-0.31776-0.21484 0.91968 0.58656-0.23064-0.78088
  -5   0  -1    0.86   35.68   1-0.72872-0.83097-0.67554-0.34306-0.11223 0.43792
   5   0   1   10.93   23.28   1-0.70826-0.60688 0.68711 0.35475-0.16197-0.71123
   5   0   2 3270.33  109.45   1-0.35894-0.28208 0.89626 0.52964-0.26053-0.79994
  -5   0  -2 3024.49  100.30   1-0.74866-0.82485-0.66047-0.29484-0.05716 0.48237
   5   0   2 3117.37  110.79   1-0.70567-0.63007 0.68836 0.32261-0.16789-0.70635
   5   0   3   -2.56   25.00   1-0.38927-0.33840 0.87671 0.47680-0.28254-0.81125
  -5   0  -3   57.79   48.48   1-0.76515-0.81553-0.64382-0.24489-0.00440 0.52433
   5   0   3   -1.65   19.12   1-0.70452-0.65471 0.68889 0.28976-0.17047-0.69812
   5   0   4 8198.32  211.25   1-0.41185-0.38696 0.86082 0.42762-0.29893-0.81694
  -5   0  -4 7849.91  212.86   1-0.77842-0.80278-0.62608-0.19410 0.04558 0.56379
   5   0   4 8017.93  212.03   1-0.70514-0.68112 0.68860 0.25609-0.16907-0.68592
   5   0   5   15.60   30.62   1-0.42849-0.42959 0.84833 0.38184-0.31100-0.81831
  -5   0  -5   61.60   46.54   1-0.78875-0.78739-0.60772-0.14237 0.09238 0.59978
   5   0   5   -2.79   22.57   1-0.70789-0.70965 0.68729 0.22139-0.16281-0.66885
   5   0   6 5979.08  154.98   1-0.44047-0.46757 0.83890 0.33913-0.31970-0.81631
  -5   0  -6 5811.96  136.48   1-0.79650-0.76942-0.58919-0.09048 0.13572 0.63229
   5   0   7    6.85   27.65   1-0.44873-0.50181 0.83220 0.29913-0.32570-0.81160
  -5   0  -7    3.30   27.33   1-0.80204-0.74923-0.57092-0.03885 0.17540 0.66116
   5   0   8 6127.24  176.69   1-0.45393-0.53301 0.82788 0.26152-0.32947-0.80467
  -5   0  -8 5697.28  150.20   1-0.80574-0.72721-0.55326 0.01217 0.21136 0.68630
   5   0   9   17.24   24.73   1-0.45659-0.56165 0.82564 0.22600-0.33140-0.79590
  -5   0  -9    8.32   28.21   1-0.80796-0.70371-0.53650 0.06230 0.24362 0.70774
   5   0  10   98.63   27.02   1-0.45708-0.58814 0.82522 0.19229-0.33176-0.78556
  -5   0 -10  156.14   37.56   1-0.80904-0.67907-0.52086 0.11130 0.27228 0.72558
   5   0  11    5.52   33.51   1-0.45571-0.61276 0.82638 0.16015-0.33077-0.77386
  -5   0 -11    1.58   41.45   1-0.80928-0.65358-0.50652 0.15901 0.29747 0.73995
   5   0  12 8443.83  208.09   1-0.45270-0.63574 0.82890 0.12939-0.32858-0.76097
  -5   0 -12 7931.81  189.55   1-0.80893-0.62751-0.49357 0.20532 0.31938 0.75104
   5   0  13    9.17   33.17   1-0.44823-0.65725 0.83261 0.09980-0.32533-0.74702
   5   0  14 1292.38   71.13   1-0.44242-0.67744 0.83733 0.07124-0.32112-0.73211
  -5   0 -14 1282.18   78.80   1-0.80727-0.57440-0.47213 0.29349 0.35411 0.76414
  -5  -1  15  107.50   63.96   1-0.08842-0.70083-0.55258-0.69566-0.82875-0.15775
  -5   1  15   10.45   58.69   1-0.13066-0.54974-0.57557-0.83478-0.80724-0.03030
   5  -1 -15   41.41   50.09   1-0.80916-0.38943 0.51766 0.77584 0.27799-0.49638
   5   1 -15   21.94   42.82   1-0.77975-0.16890 0.62400 0.76785 0.05112-0.61795
  -5  -1  14 1061.66   73.00   1-0.12775-0.71432-0.57403-0.68383-0.80880-0.14869
  -5   1  14 1007.99   62.37   1-0.17380-0.56705-0.59758-0.82351-0.78274-0.01669
   5  -1 -14 1062.25   62.30   1-0.80857-0.41596 0.52935 0.75501 0.25689-0.50687
   5   1 -14 1111.36   57.42   1-0.77170-0.18664 0.63568 0.74616 0.01920-0.63906
  -5  -1  13  598.46   82.21   1-0.16781-0.72855-0.59461-0.67113-0.78630-0.13709
  -5   1  13  694.32   56.71   1-0.21760-0.58501-0.61836-0.81102-0.75516-0.00000
   5  -1 -13  703.37   66.98   1-0.80748-0.44072 0.54095 0.73326 0.23523-0.51776
   5   1 -13  679.26   51.16   1-0.76289-0.20362 0.64640 0.72349-0.01214-0.65961
  -5  -1  1228476.06  470.20   1-0.20853-0.74343-0.61419-0.65743-0.76110-0.12278
  -5   1  1227332.72  506.19   1-0.26193-0.60351-0.63773-0.79710-0.72435 0.01990
   5  -1 -1226402.64  494.22   1-0.80599-0.46507 0.55172 0.71069 0.21439-0.52784
   5   1 -1227589.87  407.41   1-0.75338-0.21989 0.65618 0.69989-0.04289-0.67955
  -5  -1  11  955.25   65.90   1-0.24983-0.75890-0.63261-0.64257-0.73306-0.10563
  -5   1  11  922.84   59.56   1-0.30740-0.62381-0.65575-0.78036-0.68955 0.04352
   5  -1 -11 1027.76   59.37   1-0.80416-0.48908 0.56170 0.68731 0.19445-0.53702
   5   1 -11  942.11   57.31   1-0.74322-0.23552 0.66504 0.67537-0.07299-0.69885
  -5  -1  10   42.69   40.37   1-0.29218-0.77580-0.64993-0.62513-0.70157-0.08563
  -5   1  10   20.47   38.60   1-0.35214-0.64268-0.67153-0.76289-0.65194 0.07030
   5  -1 -10   26.41   30.10   1-0.80205-0.51282 0.57088 0.66314 0.17550-0.54521
   5   1 -10   18.30   37.69   1-0.73249-0.25057 0.67303 0.64997-0.10240-0.71745
  -5  -1   9  408.73   47.03   1-0.33419-0.79194-0.66544-0.60739-0.66745-0.06234
  -5   1   9  406.07   43.52   1-0.39670-0.66137-0.68516-0.74328-0.61087 0.10054
   5  -1  -9  359.04   54.23   1-0.79975-0.53636 0.57926 0.63817 0.15763-0.55231
   5   1  -9  368.97   51.92   1-0.72125-0.26512 0.68015 0.62371-0.13106-0.73531
  -5  -1   812975.81  278.96   1-0.37626-0.80814-0.67918-0.58789-0.63018-0.03591
  -5   1   812793.41  298.92   1-0.44073-0.67953-0.69638-0.72126-0.56638 0.13420
   5  -1  -812510.09  297.01   1-0.79732-0.55978 0.58685 0.61241 0.14097-0.55820
   5   1  -812793.17  295.09   1-0.70958-0.27924 0.68646 0.59663-0.15891-0.75235
  -5  -1   7 3293.28  113.04   1-0.41811-0.82411-0.69091-0.56638-0.58975-0.00631
  -5   1   7 3276.32  105.21   1-0.48385-0.69677-0.70493-0.69656-0.51860 0.17114
   5  -1  -7 3306.43  108.18   1-0.79508-0.58429 0.59305 0.58565 0.12697-0.56178
   5   1  -7 3127.35  101.07   1-0.69757-0.29302 0.69197 0.56876-0.18589-0.76853
  -5  -1   610496.26  190.18   1-0.45942-0.83955-0.70040-0.54262-0.54622 0.02638
  -5   1   610768.08  193.53   1-0.52561-0.71266-0.71058-0.66896-0.46776 0.21115
   5  -1  -611007.52  194.72   1-0.79268-0.60767 0.59905 0.55827 0.11309-0.56485
   5   1  -610730.48  217.46   1-0.68531-0.30654 0.69672 0.54013-0.21192-0.78376
  -5  -1   5  109.74   49.37   1-0.49983-0.85409-0.70742-0.51639-0.49971 0.06205
  -5   1   5   68.87   34.72   1-0.56555-0.72673-0.71314-0.63828-0.41422 0.25386
   5  -1  -5  107.85   45.24   1-0.79041-0.63120 0.60420 0.53003 0.10089-0.56625
   5   1  -5   75.93   72.35   1-0.67290-0.31991 0.70076 0.51078-0.23693-0.79796
  -5  -1   439922.55  756.08   1-0.53893-0.86732-0.71177-0.48750-0.45048 0.10046
  -5   1   438905.54  604.02   1-0.60348-0.73840-0.71248-0.60433-0.35800 0.29922
   5  -1  -438716.26  679.17   1-0.78839-0.65496 0.60846 0.50092 0.09056-0.56577
   5   1  -438444.34  538.28   1-0.66044-0.33324 0.70411 0.48076-0.26083-0.81105
  -5  -1   3 4009.00  121.58   1-0.57629-0.87881-0.71328-0.45577-0.39887 0.14123
  -5   1   3 4217.28  131.29   1-0.63840-0.74746-0.70858-0.56717-0.30058 0.34585
   5  -1  -3 4357.87  135.87   1-0.78671-0.67907 0.61179 0.47086 0.08237-0.56316
   5   1  -3 4088.42  135.02   1-0.64806-0.34665 0.70684 0.45010-0.28352-0.82294
   5  -1  -2 4065.09  159.87   1 0.12698 0.21122 0.98761 0.81233 0.09216-0.54359
  -5  -1   2 4560.53  138.61   1-0.61161-0.88804-0.71188-0.42119-0.34517 0.18430
  -5   1   2 4522.26  139.35   1-0.67020-0.75341-0.70154-0.52686-0.24220 0.39342
   5  -1  -2 4524.02  145.38   1-0.78550-0.70364 0.61409 0.43977 0.07663-0.55810
   5   1  -2 4480.61  138.15   1-0.63590-0.36027 0.70898 0.41887-0.30490-0.83351
   5  -1  -1  367.62   35.83   1 0.02611 0.08438 0.99947 0.79091 0.01895-0.60608
  -5  -1   1  372.81   41.65   1-0.64424-0.89481-0.70757-0.38361-0.29033 0.22834
  -5   1   1  394.71   40.63   1-0.69861-0.75596-0.69153-0.48358-0.18363 0.44120
   5  -1  -1  360.52   43.22   1-0.78487-0.72880 0.61525 0.40755 0.07370-0.55022
   5   1  -1  459.73   42.15   1-0.62409-0.37425 0.71061 0.38711-0.32484-0.84265
   5  -1   0 4033.89  134.29   1-0.05521-0.02291 0.99766 0.75581-0.04007-0.65438
   5   1   0 3951.74  132.26   1-0.48270-0.25741 0.80264 0.44459-0.35036-0.85795
  -5  -1   0 4179.85  123.25   1-0.67397-0.89869-0.70044-0.34322-0.23483 0.27304
  -5   1   0 4197.47  124.75   1-0.72344-0.75493-0.67885-0.43764-0.12563 0.48839
   5  -1   0 4310.07  145.20   1-0.78495-0.75466 0.61510 0.37402 0.07407-0.53905
   5   1   0 4291.79  133.73   1-0.61282-0.38877 0.71178 0.35489-0.34323-0.85023
   5  -1   1  533.40   41.20   1-0.12076-0.11433 0.98880 0.71362-0.08765-0.69113
   5   1   1  499.98   39.07   1-0.51303-0.31373 0.77338 0.38204-0.37237-0.86926
  -5  -1  -1  498.34   46.76   1-0.70054-0.89941-0.69069-0.30020-0.17937 0.31770
  -5   1  -1  532.07   55.14   1-0.74476-0.75001-0.66379-0.38938-0.06859 0.53464
   5  -1   1  536.45   47.59   1-0.78586-0.78136 0.61342 0.33895 0.07831-0.52400
   5   1   1  514.99   49.88   1-0.60227-0.40400 0.71255 0.32229-0.35990-0.85610
   5  -1   223120.81  548.70   1-0.17312-0.19267 0.97685 0.66838-0.12565-0.71842
   5   1   223353.01  576.53   1-0.53372-0.36040 0.75171 0.32707-0.38738-0.87357
  -5  -1  -223217.21  501.23   1-0.72381-0.89682-0.67863-0.25487-0.12470 0.36158
  -5   1  -222591.86  483.06   1-0.76235-0.74180-0.64701-0.33930-0.01399 0.57845
   5  -1   222943.46  585.96   1-0.78771-0.80900 0.60983 0.30199 0.08721-0.50430
   5   1   222998.27  574.48   1-0.59263-0.42015 0.71301 0.28936-0.37468-0.86008
   5  -1   3   51.95   32.63   1-0.21502-0.26056 0.96405 0.62229-0.15606-0.73814
   5   1   3   36.83   29.61   1-0.54778-0.40050 0.73610 0.27813-0.39759-0.87306
  -5  -1  -3   13.13   45.97   1-0.74367-0.89077-0.66468-0.20784-0.07171 0.40412
  -5   1  -3   34.54   41.64   1-0.77663-0.72982-0.62879-0.28798 0.03829 0.62001
   5  -1   3   70.95   32.40   1-0.79058-0.83766 0.60382 0.26260 0.10178-0.47892
   5   1   3   46.29   41.27   1-0.58415-0.43745 0.71323 0.25620-0.38738-0.86197
   5  -1   420904.71  392.44   1-0.24847-0.31999 0.95170 0.57665-0.18034-0.75171
   5   1   421365.04  322.57   1-0.55703-0.43574 0.72542 0.23416-0.40430-0.86907
  -5  -1  -421362.80  405.92   1-0.76033-0.88163-0.64920-0.15905-0.02071 0.44432
  -5   1  -421256.19  370.22   1-0.78769-0.71516-0.60987-0.23571 0.08711 0.65801
   5  -1   420129.93  416.76   1-0.79449-0.86735 0.59458 0.21997 0.12346-0.44644
   5   1   421335.62  321.46   1-0.57707-0.45616 0.71328 0.22287-0.39774-0.86153
   5  -1   5   89.71   34.93   1-0.27502-0.37253 0.94048 0.53213-0.19962-0.76029
   5   1   5  144.23   36.68   1-0.56267-0.46737 0.71875 0.19419-0.40840-0.86246
  -5  -1  -5  103.42   40.50   1-0.77391-0.86941-0.63268-0.10922 0.02761 0.48185
  -5   1  -5  153.10   33.93   1-0.79598-0.69773-0.59063-0.18310 0.13247 0.69255
   5   1   5   65.06   32.55   1-0.57169-0.47657 0.71325 0.18945-0.40549-0.85847
   5  -1   611302.80  251.44   1-0.29592-0.41942 0.93074 0.48911-0.21479-0.76475
   5   1   611039.86  272.76   1-0.56549-0.49617 0.71536 0.15751-0.41044-0.85381
  -5  -1  -611038.66  263.20   1-0.78458-0.85438-0.61578-0.05926 0.07236 0.51624
  -5   1  -610911.09  257.79   1-0.80189-0.67791-0.57151-0.13061 0.17417 0.72343
   5   1   610767.32  245.64   1-0.56835-0.49902 0.71320 0.15602-0.41025-0.85242
   5  -1   7 1044.98   55.16   1-0.31213-0.46161 0.92263 0.44770-0.22655-0.76581
   5   1   7 1026.87   58.04   1-0.56604-0.52270 0.71470 0.12355-0.41084-0.84351
  -5  -1  -7  990.25   57.06   1-0.79286-0.83695-0.59860-0.00872 0.11414 0.54720
  -5   1  -7 1105.50   60.08   1-0.80580-0.65610-0.55288-0.07862 0.21211 0.75056
   5   1   7  976.95   53.90   1-0.56745-0.52390 0.71318 0.12262-0.41153-0.84290
   5  -1   8  337.17   37.12   1-0.32440-0.49987 0.91614 0.40792-0.23545-0.76402
   5   1   8  353.19   39.09   1-0.56470-0.54735 0.71631 0.09187-0.40987-0.83184
  -5  -1  -8  323.13   46.19   1-0.79901-0.81737-0.58169 0.04156 0.15236 0.57460
  -5   1  -8  306.18   50.08   1-0.80810-0.63268-0.53507-0.02745 0.24629 0.77392
   5  -1   9  619.13   44.93   1-0.33333-0.53479 0.91123 0.36972-0.24194-0.75980
   5   1   9  575.31   56.01   1-0.56177-0.57040 0.71982 0.06209-0.40774-0.81901
  -5  -1  -9  584.36   59.74   1-0.80336-0.79600-0.56537 0.09124 0.18694 0.59837
  -5   1  -9  635.03  148.35   1-0.80914-0.60799-0.51833 0.02265 0.27680 0.79361
   5  -1  1022718.86  427.90   1-0.33952-0.56703 0.90773 0.33282-0.24643-0.75345
   5   1  1021812.06  390.65   1-0.55744-0.59207 0.72494 0.03391-0.40460-0.80517
  -5  -1 -1022131.70  436.37   1-0.80627-0.77319-0.54993 0.14004 0.21790 0.61851
  -5   1 -1021470.93  336.16   1-0.80923-0.58237-0.50284 0.07151 0.30377 0.80977
   5  -1  11 2962.12  109.24   1-0.34311-0.59661 0.90567 0.29746-0.24904-0.74536
   5   1  11 2863.66  105.86   1-0.55189-0.61250 0.73140 0.00708-0.40057-0.79043
  -5  -1 -11 2825.78  114.07   1-0.80805-0.74924-0.53559 0.18775 0.24532 0.63512
  -5   1 -11 2987.65  211.91   1-0.80867-0.55608-0.48873 0.11898 0.32739 0.82256
   5  -1  12 3481.41  111.33   1-0.34453-0.62402 0.90485 0.26335-0.25007-0.73568
   5   1  12 3614.73  100.98   1-0.54522-0.63181 0.73900-0.01861-0.39573-0.77489
  -5  -1 -12 3605.75  108.08   1-0.80897-0.72444-0.52250 0.23421 0.26934 0.64832
  -5   1 -12 4216.58  113.70   1-0.80767-0.52936-0.47609 0.16499 0.34784 0.83219
   5  -1  13   79.58   39.68   1-0.34402-0.64950 0.90514 0.23036-0.24970-0.72461
   5   1  13  117.76   37.17   1-0.53752-0.65010 0.74756-0.04334-0.39014-0.75860
  -5  -1 -13  133.93   67.04   1-0.80928-0.69903-0.51076 0.27931 0.29012 0.65828
  -5   1 -13   97.83   67.72   1-0.80644-0.50240-0.46495 0.20949 0.36533 0.83886
   5  -1  14 8161.36  227.27   1-0.34179-0.67326 0.90643 0.19836-0.24808-0.71229
   5   1  14 8181.74  217.34   1-0.52887-0.66743 0.75692-0.06718-0.38386-0.74163
  -5  -1 -14 8082.18  224.23   1-0.80918-0.67320-0.50045 0.32299 0.30784 0.66518
  -5   1 -14 8424.82  225.73   1-0.80511-0.47535-0.45534 0.25247 0.38006 0.84278
  -5  -2  14 8796.68  249.95   1-0.08354-0.76678-0.54984-0.60157-0.83107-0.22394
  -5   2  14 7941.60  221.14   1-0.17393-0.47051-0.59764-0.88164-0.78266 0.03635
   5  -2 -14 7866.37  212.67   1-0.80541-0.50831 0.45739 0.74049 0.37695-0.43964
   5   2 -14 8768.15  233.35   1-0.73882-0.05687 0.66847 0.72105-0.08533-0.69054
  -5  -2  13 1220.91   68.63   1-0.12129-0.77869-0.57059-0.58904-0.81222-0.21598
  -5   2  13 1282.56   70.96   1-0.21944-0.49019-0.61920-0.86992-0.75393 0.05418
   5  -2 -13 1316.14   64.69   1-0.80679-0.53558 0.46789 0.71767 0.36076-0.44507
   5   2 -13 1277.94   66.40   1-0.72581-0.06965 0.67740 0.69659-0.11967-0.71407
  -5  -2  12  151.08   37.77   1-0.15976-0.79133-0.59058-0.57576-0.79100-0.20565
  -5   2  12  139.04   49.55   1-0.26545-0.51037-0.63919-0.85663-0.72177 0.07545
   5  -2 -12  143.21   36.22   1-0.80780-0.56248 0.47749 0.69396 0.34560-0.44948
   5   2 -12  136.93   29.85   1-0.71199-0.08162 0.68524 0.67104-0.15330-0.73690
  -5  -2  11  677.16   61.39   1-0.19890-0.80463-0.60969-0.56158-0.76727-0.19282
  -5   2  11  595.88   56.73   1-0.31263-0.53250-0.65770-0.84039-0.68533 0.10089
   5  -2 -11  641.48   49.72   1-0.80850-0.58906 0.48618 0.66933 0.33156-0.45276
   5   2 -11  651.71   50.56   1-0.69744-0.09285 0.69203 0.64445-0.18618-0.75898
  -5  -2  10 8581.63  196.46   1-0.23864-0.81853-0.62777-0.54638-0.74091-0.17735
  -5   2  10 8396.30  190.92   1-0.35885-0.55284-0.67372-0.82317-0.64600 0.12940
   5  -2 -10 7977.40  216.53   1-0.80895-0.61539 0.49394 0.64377 0.31876-0.45479
   5   2 -10 8354.79  169.78   1-0.68222-0.10342 0.69779 0.61684-0.21827-0.78026
  -5  -2   9  727.86   55.06   1-0.27938-0.83367-0.64487-0.52874-0.71139-0.15944
  -5   2   9  709.53   54.04   1-0.40472-0.57285-0.68738-0.80359-0.60307 0.16149
   5  -2  -9  738.85   58.25   1-0.80919-0.64152 0.50074 0.61725 0.30734-0.45546
   5   2  -9  738.09   50.26   1-0.66642-0.11341 0.70258 0.58824-0.24950-0.80069
  -5  -2   8   43.50   26.59   1-0.31996-0.84838-0.66038-0.51100-0.67934-0.13822
  -5   2   8   40.51   33.65   1-0.44986-0.59212-0.69841-0.78136-0.55663 0.19710
   5  -2  -8   67.41   39.00   1-0.80928-0.66750 0.50653 0.58972 0.29745-0.45459
   5   2  -8   72.19   31.16   1-0.65011-0.12289 0.70642 0.55870-0.27983-0.82021
  -5  -2   7 1919.60   79.57   1-0.36071-0.86326-0.67432-0.49170-0.64433-0.11405
  -5   2   7 1908.79   78.73   1-0.49384-0.61022-0.70653-0.75625-0.50687 0.23602
   5  -2  -7 1707.33   74.38   1-0.80928-0.69338 0.51126 0.56113 0.28925-0.45203
   5   2  -7 1969.71   80.57   1-0.63340-0.13196 0.70936 0.52826-0.30918-0.83876
  -5  -2   610425.05  248.49   1-0.40137-0.87805-0.68647-0.47060-0.60634-0.08688
  -5   2   610464.76  234.26   1-0.53616-0.62667-0.71155-0.72802-0.45411 0.27795
   5  -2  -610173.24  225.31   1-0.80923-0.71922 0.51485 0.53140 0.28296-0.44757
   5   2  -610211.76  232.38   1-0.61637-0.14072 0.71145 0.49696-0.33751-0.85628
  -5  -2   5 1305.26   70.87   1-0.44167-0.89248-0.69660-0.44749-0.56538-0.05676
  -5   2   5 1227.12   60.81   1-0.57636-0.64100-0.71328-0.69651-0.39878 0.32246
   5  -2  -5 1213.31   67.11   1-0.80917-0.74505 0.51720 0.50044 0.27880-0.44096
   5   2  -5 1246.41   64.96   1-0.59914-0.14927 0.71273 0.46485-0.36474-0.87270
  -5  -2   4 4538.57  128.81   1-0.48128-0.90621-0.70450-0.42214-0.52158-0.02379
  -5   2   4 4684.24  129.53   1-0.61431-0.65261-0.71164-0.66150-0.34085 0.36945
   5  -2  -4 4584.63  145.69   1-0.80914-0.77091 0.51818 0.46810 0.27707-0.43194
   5   2  -4 4608.89  145.99   1-0.58182-0.15774 0.71326 0.43200-0.39080-0.88796
   5  -2  -3 1217.08   61.45   1 0.34925 0.36293 0.90208 0.81801 0.25349-0.44624
  -5  -2   3 1318.65   67.61   1-0.51981-0.91887-0.70996-0.39436-0.47512 0.01183
  -5   2   3 1311.71   67.88   1-0.64884-0.66129-0.70668-0.62327-0.28212 0.41738
   5  -2  -3 1266.41   70.39   1-0.80916-0.79681 0.51761 0.43421 0.27808-0.42017
   5   2  -3 1300.17   69.32   1-0.56455-0.16625 0.71311 0.39847-0.41562-0.90198
   5  -2  -2 7766.47  186.99   1 0.25993 0.24763 0.94701 0.82965 0.18866-0.50035
  -5  -2   2 7917.93  153.74   1-0.55686-0.93006-0.71284-0.36400-0.42631 0.04981
  -5   2   2 8040.35  171.46   1-0.68000-0.66659-0.69854-0.58186-0.22279 0.46591
   5  -2  -2 7933.04  187.20   1-0.80922-0.82276 0.51525 0.39853 0.28224-0.40525
   5   2  -2 8077.57  170.47   1-0.54745-0.17494 0.71235 0.36433-0.43913-0.91468
   5  -2  -1   63.70   25.09   1 0.17945 0.14118 0.97510 0.82445 0.13025-0.54804
  -5  -2   1   75.85   33.48   1-0.59210-0.93929-0.71303-0.33107-0.37548 0.09011
  -5   2   1   49.12   35.72   1-0.70753-0.66827-0.68747-0.53753-0.16364 0.51426
   5  -2  -1   59.72   28.97   1-0.80928-0.84871 0.51080 0.36077 0.29005-0.38669
   5   2  -1   52.44   30.36   1-0.53068-0.18395 0.71107 0.32966-0.46125-0.92600
   5  -2   0 3292.19   96.94   1 0.10846 0.04421 0.99097 0.80703 0.07872-0.58884
   5   2   0 3129.88   98.47   1-0.65156-0.32988 0.59313 0.17700-0.47292-0.92728
  -5  -2   0 3288.94   97.18   1-0.62499-0.94632-0.71050-0.29528-0.32335 0.13144
  -5   2   0 3198.18   88.86   1-0.73132-0.66621-0.67382-0.49061-0.10546 0.56165
   5  -2   0 3282.19   95.62   1-0.80925-0.87456 0.50383 0.32047 0.30208-0.36390
   5   2   0 3439.08   99.00   1-0.51439-0.19345 0.70934 0.29455-0.48190-0.93584
   5  -2   1 1330.53   60.58   1 0.04677-0.04344 0.99832 0.78109 0.03394-0.62290
   5   2   1 1268.04   59.43   1-0.65950-0.36379 0.57959 0.13016-0.47868-0.92233
  -5  -2  -1 1368.76   67.63   1-0.65526-0.95074-0.70532-0.25683-0.27044 0.17356
  -5   2  -1 1323.25   61.82   1-0.75160-0.66013-0.65783-0.44134-0.04833 0.60781
   5  -2   1 1274.14   60.46   1-0.80894-0.90014 0.49374 0.27707 0.31910-0.33612
   5   2   1 1366.23   69.57   1-0.49875-0.20360 0.70727 0.25909-0.50100-0.94414
   5  -2   2 3269.21   89.25   1-0.00623-0.12242 0.99997 0.74944-0.00452-0.65064
   5   2   2 3135.98  102.61   1-0.66376-0.39405 0.57211 0.08939-0.48177-0.91473
  -5  -2  -2 3276.82   96.57   1-0.68265-0.95227-0.69765-0.21589-0.21740 0.21579
  -5   2  -2 3094.22   89.13   1-0.76804-0.65076-0.64037-0.39057 0.00576 0.65112
   5  -2   2 3323.61  106.22   1-0.80800-0.92509 0.47969 0.22970 0.34207-0.30239
   5   2   2 3245.51  104.02   1-0.48396-0.21459 0.70495 0.22340-0.51847-0.95081
   5  -2   3  152.24   32.48   1-0.05136-0.19353 0.99798 0.71416-0.03728-0.67268
   5   2   3  177.83   28.28   1-0.66537-0.42164 0.56925 0.05324-0.48294-0.90519
  -5  -2  -3  182.92   44.58   1-0.70696-0.95072-0.68774-0.17272-0.16495 0.25745
  -5   2  -3  240.63   45.48   1-0.78127-0.63757-0.62152-0.33853 0.05761 0.69202
   5  -2   3  210.87   31.69   1-0.80585-0.94882 0.46046 0.17715 0.37226-0.26144
   5   2   3  177.83   29.67   1-0.47019-0.22661 0.70251 0.18757-0.53422-0.95575
   5  -2   4 9166.64  234.59   1-0.08950-0.25765 0.99386 0.67676-0.06496-0.68964
   5   2   4 9116.07  231.12   1-0.66495-0.44720 0.57000 0.02069-0.48263-0.89419
  -5  -2  -4 8901.30  217.69   1-0.72813-0.94604-0.67593-0.12764-0.11375 0.29784
  -5   2  -4 8918.16  224.66   1-0.79128-0.62186-0.60228-0.28593 0.10547 0.72906
   5   2   4 9255.87  216.62   1-0.45767-0.23987 0.70005 0.15173-0.54814-0.95887
   5  -2   5 2120.34   81.62   1-0.12160-0.31560 0.98864 0.63825-0.08826-0.70216
   5   2   5 2053.58   84.81   1-0.66290-0.47115 0.57362-0.00897-0.48115-0.88200
  -5  -2  -5 2037.13   85.34   1-0.74599-0.93822-0.66276-0.08139-0.06502 0.33631
  -5   2  -5 1998.21   76.34   1-0.79863-0.60349-0.58288-0.23316 0.14974 0.76251
   5   2   5 2183.60   82.43   1-0.44660-0.25459 0.69770 0.11599-0.56014-0.96006
   5  -2   6 3354.30  107.50   1-0.14817-0.36816 0.98309 0.59940-0.10755-0.71074
   5   2   6 3582.05  110.62   1-0.65951-0.49374 0.57955-0.03633-0.47869-0.86884
  -5  -2  -6 3371.92  114.50   1-0.76108-0.92750-0.64840-0.03372-0.01824 0.37229
  -5   2  -6 3342.24  112.01   1-0.80372-0.58286-0.56375-0.18066 0.19027 0.79223
   5   2   6 3416.11  112.21   1-0.43722-0.27099 0.69558 0.08049-0.57009-0.95920
   5  -2   7  638.61   52.63   1-0.17005-0.41602 0.97767 0.56069-0.12342-0.71592
   5   2   7  580.12   50.37   1-0.65497-0.51518 0.58737-0.06180-0.47539-0.85484
  -5  -2  -7  636.63   60.19   1-0.77340-0.91402-0.63339 0.01459 0.02565 0.40539
  -5   2  -7  617.28   47.84   1-0.80695-0.56036-0.54523-0.12878 0.22703 0.81817
   5   2   7  635.83   52.60   1-0.42978-0.28935 0.69382 0.04535-0.57783-0.95614
   5  -2   8 7422.85  161.07   1-0.18780-0.45976 0.97270 0.52242-0.13631-0.71810
   5   2   8 7510.95  165.61   1-0.64940-0.53560 0.59673-0.08573-0.47135-0.84010
  -5  -2  -8 7643.76  168.91   1-0.78303-0.89828-0.61852 0.06253 0.06537 0.43493
  -5   2  -8 7428.30  173.91   1-0.80869-0.53637-0.52762-0.07780 0.26006 0.84038
   5   2   8 7534.65  208.40   1-0.42457-0.30992 0.69254 0.01069-0.58319-0.95070
   5  -2   9 1343.35   61.89   1-0.20196-0.49990 0.96836 0.48479-0.14658-0.71767
   5   2   9 1239.19   59.17   1-0.64291-0.55510 0.60737-0.10839-0.46664-0.82469
  -5  -2  -9 1284.40   64.65   1-0.79073-0.88026-0.60349 0.11093 0.10258 0.46132
  -5   2  -9 1275.63   61.57   1-0.80928-0.51125-0.51113-0.02795 0.28947 0.85897
   5  -2  10   -3.22   36.94   1-0.21293-0.53687 0.96476 0.44790-0.15455-0.71494
   5   2  10   79.26   36.93   1-0.63556-0.57373 0.61907-0.12999-0.46130-0.80865
  -5  -2 -10   38.04   42.76   1-0.79659-0.86040-0.58894 0.15885 0.13630 0.48422
  -5   2 -10   14.71   27.26   1-0.80903-0.48527-0.49594 0.02059 0.31543 0.87411
   5  -2  11 1142.94   63.61   1-0.22110-0.57102 0.96195 0.41180-0.16048-0.71017
   5   2  11 1133.20   64.56   1-0.62741-0.59157 0.63163-0.15072-0.45539-0.79203
  -5  -2 -11 1099.16   76.65   1-0.80093-0.83901-0.57514 0.20601 0.16649 0.50360
  -5   2 -11 1074.27   79.21   1-0.80821-0.45872-0.48215 0.06775 0.33812 0.88598
   5  -2  12 8154.49  177.55   1-0.22677-0.60267 0.95993 0.37649-0.16459-0.70358
   5   2  12 7774.07  171.62   1-0.61849-0.60863 0.64493-0.17072-0.44891-0.77486
  -5  -2 -12 7229.44  162.86   1-0.80403-0.81639-0.56230 0.25221 0.19322 0.51950
  -5   2 -12 7670.22  159.25   1-0.80702-0.43181-0.46982 0.11345 0.35775 0.89479
   5  -2  13 1472.00   75.41   1-0.23019-0.63208 0.95869 0.34196-0.16707-0.69536
   5   2  13 1492.69   78.54   1-0.60883-0.62496 0.65881-0.19012-0.44190-0.75714
  -5  -2 -13 1276.16   98.42   1-0.80617-0.79280-0.55061 0.29727 0.21658 0.53205
  -5   2 -13 1467.25   72.81   1-0.80564-0.40471-0.45898 0.15765 0.37452 0.90074
  -5  -3  1211901.44  298.11   1-0.09642-0.82464-0.55704-0.48415-0.82486-0.29248
  -5   3  1211106.61  373.63   1-0.25162-0.39987-0.63338-0.90888-0.73178 0.11841
   5  -3 -1211767.76  294.34   1-0.79107-0.64248 0.39175 0.66644 0.46982-0.37824
   5   3 -1211838.54  337.20   1-0.66922 0.05803 0.70181 0.62972-0.24410-0.77464
  -5  -3  11 1098.20   72.81   1-0.13282-0.83522-0.57671-0.47054-0.80607-0.28459
  -5   3  11 1051.13   67.96   1-0.30075-0.42408-0.65324-0.89401-0.69485 0.14453
   5  -3 -11 1194.12   68.04   1-0.79292-0.67021 0.39835 0.63973 0.46107-0.37623
   5   3 -11 1132.17   57.91   1-0.65107 0.05040 0.70623 0.60075-0.27810-0.79784
  -5  -3  10  254.16   59.24   1-0.16992-0.84648-0.59566-0.45621-0.78505-0.27446
  -5   3  10  246.69   40.77   1-0.34873-0.44618-0.67040-0.87793-0.65493 0.17362
   5  -3 -10  246.27   47.43   1-0.79439-0.69757 0.40382 0.61188 0.45372-0.37281
   5   3 -10  280.25   41.58   1-0.63228 0.04340 0.70953 0.57067-0.31110-0.82002
  -5  -3   9  681.46   63.89   1-0.20766-0.85839-0.61379-0.44106-0.76166-0.26197
  -5   3   9  576.13   52.83   1-0.39629-0.46787-0.68505-0.85934-0.61127 0.20645
   5  -3  -9  593.18   54.86   1-0.79549-0.72456 0.40809 0.58283 0.44793-0.36785
   5   3  -9  599.19   55.70   1-0.61295 0.03694 0.71177 0.53952-0.34303-0.84115
  -5  -3   8 8630.54  192.25   1-0.24597-0.87086-0.63096-0.42495-0.73578-0.24698
  -5   3   8 8078.21  203.08   1-0.44300-0.48871-0.69690-0.83794-0.56398 0.24291
   5  -3  -8 8319.02  169.96   1-0.79624-0.75119 0.41107 0.55250 0.44385-0.36117
   5   3  -8 8396.31  202.55   1-0.59318 0.03092 0.71299 0.50737-0.37385-0.86117
  -5  -3   7  118.89   30.95   1-0.28518-0.88427-0.64718-0.40648-0.70697-0.22984
  -5   3   7   88.65   33.49   1-0.48838-0.50823-0.70568-0.81348-0.51331 0.28275
   5  -3  -7  142.94   42.47   1-0.79663-0.77747 0.41266 0.52077 0.44167-0.35259
   5   3  -7  133.13   44.98   1-0.57308 0.02523 0.71327 0.47426-0.40350-0.88002
  -5  -3   6 2049.04   79.66   1-0.32432-0.89754-0.66195-0.38800-0.67574-0.20944
  -5   3   6 2010.13   86.86   1-0.53194-0.52591-0.71118-0.78574-0.45961 0.32561
   5  -3  -6 1979.42   84.59   1-0.79665-0.80337 0.41272 0.48751 0.44159-0.34192
   5   3  -6 1966.08   87.19   1-0.55276 0.01977 0.71265 0.44026-0.43193-0.89765
  -5  -3   5 4779.25  139.23   1-0.36360-0.91095-0.67524-0.36805-0.64173-0.18627
  -5   3   5 4674.50  130.97   1-0.57315-0.54126-0.71327-0.75458-0.40339 0.37099
   5  -3  -5 4689.64  128.18   1-0.79624-0.82886 0.41108 0.45255 0.44384-0.32891
   5   3  -5 4750.96  142.82   1-0.53234 0.01440 0.71122 0.40544-0.45909-0.91400
  -5  -3   425037.13  485.59   1-0.40280-0.92427-0.68686-0.34642-0.60495-0.16032
  -5   3   423971.81  475.42   1-0.61200-0.55370-0.71185-0.71971-0.34454 0.41883
   5  -3  -422722.40  505.76   1-0.79535-0.85385 0.40752 0.41567 0.44870-0.31329
   5   3  -423305.04  528.61   1-0.51195 0.00901 0.70904 0.36988-0.48493-0.92903
  -5   3   3   23.24   30.77   1-0.41315-0.32920-0.85987-0.82940-0.29987 0.45134
  -5  -3   3   52.46   46.67   1-0.44162-0.93723-0.69659-0.32290-0.56544-0.13164
  -5   3   3   70.24   39.22   1-0.64713-0.56297-0.70702-0.68162-0.28519 0.46739
   5  -3  -3   54.51   44.37   1-0.79384-0.87823 0.40177 0.37660 0.45649-0.29474
   5   3  -3   40.81   33.03   1-0.49172 0.00345 0.70621 0.33366-0.50938-0.94268
   5  -3  -2 2190.51   88.75   1 0.35475 0.24592 0.89880 0.83934 0.25749-0.48478
  -5  -3   2 2242.87   88.11   1-0.47975-0.94949-0.70423-0.29730-0.52333-0.10036
  -5   3   2 2228.01   89.56   1-0.67869-0.56867-0.69897-0.64029-0.22543 0.51635
   5  -3  -2 2207.66   95.12   1-0.79156-0.90183 0.39346 0.33497 0.46756-0.27291
   5   3  -2 2160.57   89.39   1-0.47179-0.00240 0.70280 0.29688-0.53241-0.95490
   5  -3  -1 8158.38  227.98   1 0.29210 0.15729 0.93258 0.83984 0.21201-0.51953
  -5  -3   1 8393.55  215.31   1-0.51683-0.96069-0.70963-0.26945-0.47885-0.06671
  -5   3   1 8110.81  204.79   1-0.70647-0.57060-0.68797-0.59604-0.16606 0.56492
   5  -3  -1 8121.56  216.88   1-0.78823-0.92439 0.38214 0.29034 0.48234-0.24738
   5   3  -1 8013.58  228.88   1-0.45232-0.00871 0.69893 0.25962-0.55398-0.96566
   5  -3   0 9414.56  256.60   1 0.23394 0.07315 0.95730 0.83127 0.16980-0.55102
   5   3   0 8787.88  263.31   1-0.74441-0.32662 0.39231-0.08200-0.54031-0.94159
  -5  -3   0 9487.79  241.74   1-0.55247-0.97046-0.71264-0.23922-0.43233-0.03102
  -5   3   0 9525.15  222.50   1-0.73040-0.56868-0.67443-0.54923-0.10786 0.61232
   5  -3   0 9369.14  222.32   1-0.78360-0.94535 0.36758 0.24237 0.50084-0.21807
   5   3   0 9429.32  222.68   1-0.43344-0.01562 0.69469 0.22200-0.57403-0.97491
   5  -3   1  133.88   32.49   1 0.18081-0.00594 0.97472 0.81539 0.13123-0.57886
   5   3   1  101.38   31.31   1-0.74288-0.35106 0.39670-0.11090-0.53920-0.92975
  -5  -3  -1  137.31   31.10   1-0.58629-0.97838-0.71319-0.20670-0.38419 0.00672
  -5   3  -1  134.01   39.83   1-0.75084-0.56263-0.65853-0.49995-0.05066 0.65839
   5  -3   1  133.36   33.87   1-0.77687-0.96452 0.34823 0.18971 0.52458-0.18356
   5   3   1  103.67   38.04   1-0.41533-0.02330 0.69020 0.18413-0.59254-0.98262
   5  -3   2 8887.95  219.40   1 0.13292-0.07981 0.98641 0.79380 0.09647-0.60290
   5   3   2 8397.56  229.38   1-0.74025-0.37440 0.40415-0.13676-0.53729-0.91712
  -5  -3  -2 9066.66  233.97   1-0.61791-0.98414-0.71130-0.17153-0.33501 0.04511
  -5   3  -2 8672.00  205.29   1-0.76729-0.55328-0.64128-0.44939 0.00310 0.70136
  -5  -3  -2 8573.72  229.03   1 0.39807 0.02867-0.68555-0.14608 0.60954 0.98885
   5  -3   2 8418.32  214.01   1-0.76731-0.98085 0.32336 0.13153 0.55377-0.14361
   5  -3   3 8949.13  217.51   1 0.09023-0.14848 0.99376 0.76786 0.06549-0.62317
   5   3   3 8923.24  221.99   1-0.73668-0.39680 0.41398-0.16021-0.53470-0.90381
  -5  -3  -3 9259.73  247.76   1-0.64704-0.98741-0.70704-0.13401-0.28536 0.08396
  -5   3  -3 8714.88  208.87   1-0.78061-0.54003-0.62260-0.39742 0.05480 0.74190
  -5  -3  -3 8892.69  236.36   1 0.38200 0.03841-0.68091-0.10806 0.62484 0.99340
   5  -3   420641.24  405.70   1 0.05256-0.21212 0.99788 0.73869 0.03815-0.63979
   5   3   420687.33  430.87   1-0.73229-0.41837 0.42572-0.18177-0.53151-0.88989
  -5  -3  -421682.86  383.35   1-0.67343-0.98795-0.70060-0.09430-0.23588 0.12264
  -5   3  -421009.53  326.65   1-0.79065-0.52434-0.60368-0.34514 0.10214 0.77842
  -5  -3  -419894.81  455.11   1 0.36718 0.04941-0.67638-0.07013 0.63850 0.99631
   5  -3   5  390.80   37.26   1 0.01962-0.27103 0.99970 0.70722 0.01424-0.65297
   5   3   5  376.30   46.02   1-0.72713-0.43919 0.43900-0.20179-0.52777-0.87543
  -5  -3  -5  416.87   41.03   1-0.69696-0.98562-0.69223-0.05267-0.18723 0.16049
  -5   3  -5  391.74   45.61   1-0.79806-0.50603-0.58465-0.29274 0.14585 0.81131
  -5  -3  -5  377.42   48.59   1 0.35378 0.06183-0.67207-0.03245 0.65049 0.99755
   5  -3   6 6746.17  151.86   1-0.00890-0.32554 0.99993 0.67416-0.00646-0.66296
   5   3   6 6807.04  167.39   1-0.72127-0.45930 0.45352-0.22056-0.52351-0.86045
  -5  -3  -6 6845.38  153.54   1-0.71757-0.98038-0.68225-0.00943-0.14004 0.19688
  -5   3  -6 6841.54  160.43   1-0.80324-0.48548-0.56592-0.24064 0.18582 0.84046
  -5  -3  -6 6305.10  194.29   1 0.34198 0.07585-0.66813 0.00488 0.66079 0.99710
   5  -3   7 4574.09  124.64   1-0.03339-0.37600 0.99914 0.64008-0.02423-0.67000
   5   3   7 4354.85  137.39   1-0.71473-0.47873 0.46906-0.23832-0.51877-0.84499
  -5  -3  -7 4487.63  130.51   1-0.73497-0.97232-0.67129 0.03460-0.09578 0.23105
  -5   3  -7 4673.96  118.56   1-0.80659-0.46311-0.54781-0.18917 0.22204 0.86587
  -5  -3  -7 4407.24  132.52   1 0.33195 0.09163-0.66466 0.04173 0.66935 0.99491
   5  -3   8 3381.43  113.29   1-0.05416-0.42275 0.99775 0.60540-0.03931-0.67436
   5   3   8 3027.27  113.24   1-0.70754-0.49751 0.48542-0.25525-0.51355-0.82905
  -5  -3  -8 3114.93  110.05   1-0.74998-0.96153-0.65930 0.07990-0.05322 0.26281
  -5   3  -8 3408.23  100.42   1-0.80848-0.43927-0.53060-0.13860 0.25458 0.88759
  -5  -3  -8 3060.69  101.65   1 0.32386 0.10937-0.66179 0.07799 0.67611 0.99093
   5  -3   9   30.35   43.31   1-0.07155-0.46611 0.99608 0.57043-0.05193-0.67626
   5   3   9  -10.30   48.42   1-0.69971-0.51564 0.50246-0.27151-0.50786-0.81264
  -5  -3  -9   12.61   35.30   1-0.76248-0.94822-0.64686 0.12564-0.01354 0.29169
  -5   3  -9    8.93   37.28   1-0.80923-0.41431-0.51451-0.08914 0.28356 0.90575
  -5  -3  -9   36.23   40.35   1 0.31792 0.12924-0.65964 0.11353 0.68102 0.98509
   5  -3  1012752.43  254.67   1-0.08586-0.50640 0.99435 0.53542-0.06232-0.67592
   5   3  1012076.13  235.04   1-0.69124-0.53315 0.52005-0.28722-0.50172-0.79577
  -5   3 -1012306.17  239.99   1-0.80916-0.38851-0.49967-0.04094 0.30915 0.92053
   5  -3  11 1352.78   85.41   1-0.09738-0.54380 0.99273 0.50053-0.07068-0.67360
   5   3  11 1218.44   60.53   1-0.68214-0.55002 0.53808-0.30248-0.49511-0.77844
  -5   3 -11 1258.11   69.12   1-0.80850-0.36213-0.48619 0.00589 0.33155 0.93210
   5  -3  12 3654.60  121.60   1-0.10631-0.57871 0.99133 0.46584-0.07716-0.66938
   5   3  12 3655.84  123.62   1-0.67244-0.56613 0.55641-0.31727-0.48807-0.76080
  -5   3 -12 3835.68  127.46   1-0.80748-0.33538-0.47413 0.05132 0.35094 0.94068
  -5  -4  10 4316.65  149.41   1-0.08487-0.85810-0.55059-0.35307-0.83044-0.37282
   5  -4 -10 4177.69  159.67   1-0.76038-0.75992 0.30679 0.57290 0.57243-0.30707
   5   4 -10 3667.40  121.70   1-0.58875 0.18381 0.71313 0.51637-0.38053-0.83640
  -5  -4   9  256.67   44.77   1-0.11915-0.86654-0.56945-0.33865-0.81334-0.36661
  -5   4   9  168.77   49.44   1-0.36900-0.34404-0.67694-0.90932-0.63685 0.23402
   5  -4  -9  171.34   48.78   1-0.76101-0.78644 0.30825 0.54105 0.57081-0.29793
   5   4  -9  302.94   44.75   1-0.56718 0.17960 0.71318 0.48303-0.41191-0.85698
  -5  -4   8   17.48   51.45   1-0.15411-0.87566-0.58772-0.32364-0.79425-0.35842
  -5   4   8   15.11   44.73   1-0.41803-0.36720-0.69089-0.89002-0.58983 0.27021
   5  -4  -8   44.49   38.98   1-0.76098-0.81230 0.30817 0.50767 0.57090-0.28709
   5   4  -8   12.29   31.99   1-0.54532 0.17566 0.71222 0.44869-0.44198-0.87624
  -5  -4   7 1759.90   75.30   1-0.18970-0.88542-0.60531-0.30796-0.77305-0.34811
  -5   4   7 1690.57   83.77   1-0.46569-0.38899-0.70165-0.86753-0.53927 0.30994
   5  -4  -7 1701.63   92.24   1-0.76023-0.83745 0.30643 0.47262 0.57283-0.27439
   5   4  -7 1744.13   70.38   1-0.52330 0.17190 0.71034 0.41343-0.47070-0.89415
  -5  -4   6 6127.84  162.05   1-0.22589-0.89577-0.62211-0.29148-0.74962-0.33558
  -5   4   6 5680.28  155.26   1-0.51144-0.40887-0.70898-0.84162-0.48555 0.35283
   5  -4  -6 6029.54  142.88   1-0.75868-0.86180 0.30285 0.43573 0.57677-0.25968
   5   4  -6 5815.83  145.43   1-0.50123 0.16818 0.70762 0.37733-0.49802-0.91067
  -5  -4   5  429.47   52.52   1-0.26259-0.90664-0.63800-0.27410-0.72386-0.32071
  -5   4   5  445.02   45.54   1-0.55475-0.42631-0.71275-0.81215-0.42921 0.39833
   5  -4  -5  533.92   51.01   1-0.75620-0.88521 0.29723 0.39679 0.58292-0.24277
   5   4  -5  420.08   39.97   1-0.47924 0.16439 0.70414 0.34047-0.52392-0.92577
  -5  -4   4 2446.95   94.53   1-0.30007-0.91808-0.65297-0.25445-0.69539-0.30391
  -5   4   4 2192.84   82.70   1-0.59566-0.44075-0.71289-0.77876-0.37007 0.44638
   5  -4  -4 2424.53   86.61   1-0.75263-0.90754 0.28930 0.35556 0.59147-0.22347
   5   4  -4 2462.25   86.63   1-0.45746 0.16038 0.70000 0.30294-0.54837-0.93941
  -5   4   3 2834.44  102.03   1-0.47422-0.29378-0.81032-0.83775-0.34420 0.46028
  -5  -4   3 2801.96   94.09   1-0.33747-0.92962-0.66658-0.23481-0.66466-0.28401
  -5   4   3 3020.80   97.32   1-0.63261-0.45184-0.70948-0.74208-0.31053 0.49512
   5  -4  -3 3026.99   96.64   1-0.74775-0.92855 0.27877 0.31171 0.60262-0.20155
   5   4  -3 2964.78  110.76   1-0.43602 0.15603 0.69530 0.26486-0.57134-0.95157
  -5   4   2 5205.66  133.99   1-0.42337-0.21693-0.85224-0.84645-0.30729 0.48626
  -5  -4   2 5476.90  143.10   1-0.37492-0.94120-0.67878-0.21376-0.63141-0.26159
  -5   4   2 5298.26  141.86   1-0.66584-0.45921-0.70274-0.70207-0.25061 0.54424
   5  -4  -2 5623.40  143.93   1-0.74124-0.94793 0.26523 0.26487 0.61661-0.17680
   5   4  -2 4855.26  151.79   1-0.41507 0.15120 0.69013 0.22630-0.59281-0.96224
   5  -4  -1   84.99   36.89   1 0.38026 0.14891 0.88273 0.84790 0.27600-0.50880
  -5  -4   1   79.14   31.37   1-0.41219-0.95259-0.68938-0.19112-0.59569-0.23670
  -5   4   1   59.09   39.91   1-0.69516-0.46269-0.69297-0.65904-0.19112 0.59294
  -5  -4   1   53.28   41.29   1 0.39504-0.14854-0.68470-0.18777 0.61247 0.97091
   5  -4  -1   68.86   39.11   1-0.73269-0.96528 0.24822 0.21454 0.63367-0.14897
   5  -4   0 2541.23   92.47   1 0.33320 0.07587 0.91130 0.84318 0.24184-0.53223
  -5  -4   0 2538.28   92.44   1-0.44896-0.96350-0.69821-0.16671-0.55760-0.20944
  -5   4   0 2491.80   97.00   1-0.72052-0.46219-0.68058-0.61338-0.13284 0.64041
  -5  -4   0 2647.38   86.49   1 0.37547-0.14229-0.67894-0.14863 0.63090 0.97860
   5  -4   0 2609.26   93.34   1-0.72154-0.98003 0.22711 0.16013 0.65405-0.11784
   5  -4   1 4497.41  138.36   1 0.28888 0.00558 0.93411 0.83270 0.20968-0.55368
   5   4   1 4439.37  136.36   1-0.78201-0.29411 0.25745-0.30854-0.56760-0.90459
  -5  -4  -1 4525.18  132.06   1-0.48493-0.97359-0.70511-0.14037-0.51735-0.18002
  -5   4  -1 4474.49  117.63   1-0.74239-0.45746-0.66570-0.56503-0.07534 0.68662
  -5  -4  -1 4652.91  131.09   1 0.35680-0.13514-0.67306-0.10935 0.64782 0.98477
   5  -4   1 4585.28  139.16   1-0.70710-0.99147 0.20127 0.10022 0.67785-0.08325
   5  -4   2 3905.52  121.74   1 0.24766-0.06161 0.95202 0.81731 0.17976-0.57288
   5   4   2 3867.78  126.93   1-0.77830-0.31637 0.27407-0.32521-0.56491-0.89114
  -5   4  -2 3876.45  125.18   1-0.76008-0.44934-0.64946-0.51549-0.02154 0.72962
  -5  -4  -2 3987.73  113.77   1 0.33914-0.12698-0.66715-0.07007 0.66323 0.98942
   5  -4   3  318.37   43.03   1 0.20976-0.12549 0.96582 0.79783 0.15225-0.58967
   5   4   3  322.09   44.72   1-0.77404-0.33807 0.29190-0.34066-0.56182-0.87729
  -5   4  -3  346.72   43.48   1-0.77433-0.43779-0.63210-0.46481 0.02922 0.76959
  -5  -4  -3  346.32   38.76   1 0.32265-0.11766-0.66135-0.03088 0.67712 0.99257
   5  -4   4 4547.72  126.22   1 0.17525-0.18597 0.97627 0.77498 0.12720-0.60399
   5   4   4 4518.19  147.42   1-0.76914-0.35874 0.31105-0.35448-0.55826-0.86350
  -5   4  -4 4571.48  136.38   1-0.78576-0.42256-0.61360-0.41287 0.07785 0.80682
  -5  -4  -4 4626.21  129.69   1 0.30744-0.10704-0.65577 0.00809 0.68952 0.99422
   5  -4   5 3952.94  121.28   1 0.14415-0.24305 0.98400 0.74943 0.10462-0.61584
   5   4   5 3706.42  114.54   1-0.76375-0.37932 0.33070-0.36813-0.55435-0.84887
  -5   4  -5 3910.48  123.48   1-0.79417-0.40525-0.59538-0.36129 0.12162 0.83978
  -5  -4  -5 3864.30  117.54   1 0.29366-0.09501-0.65051 0.04673 0.70042 0.99437
   5  -4   6 2627.08   94.93   1 0.11637-0.29681 0.98960 0.72174 0.08446-0.62528
   5   4   6 2521.81   89.46   1-0.75780-0.39933 0.35100-0.38113-0.55002-0.83382
  -5   4  -6 2509.13   85.92   1-0.80030-0.38565-0.57738-0.30992 0.16169 0.86903
  -5  -4  -6 2548.61   91.81   1 0.28141-0.08144-0.64569 0.08494 0.70984 0.99305
   5  -4   7   74.22   29.79   1 0.09179-0.34735 0.99354 0.69239 0.06662-0.63240
   5   4   7   55.04   37.10   1-0.75126-0.41877 0.37183-0.39359-0.54528-0.81835
  -5   4  -7   45.87   49.67   1-0.80452-0.36415-0.55992-0.25910 0.19805 0.89457
  -5  -4  -7   70.48   32.88   1 0.27084-0.06619-0.64141 0.12260 0.71779 0.99024
   5  -4   8 6005.14  153.61   1 0.07028-0.39484 0.99622 0.66177 0.05101-0.63729
   5   4   8 5627.25  151.90   1-0.74414-0.43761 0.39309-0.40562-0.54011-0.80246
  -5   4  -8 5810.05  143.91   1-0.80720-0.34111-0.54329-0.20910 0.23077 0.91647
  -5  -4  -8 5282.31  177.69   1 0.26207-0.04914-0.63779 0.15961 0.72424 0.98595
   5  -4   9 1592.57   71.97   1 0.05167-0.43943 0.99795 0.63022 0.03750-0.64008
   5   4   9 1426.60   70.91   1-0.73642-0.45587 0.41469-0.41732-0.53451-0.78614
  -5   4  -9 1540.64   82.39   1-0.80868-0.31687-0.52767-0.16011 0.25997 0.93485
  -5  -4  -9 1312.36   70.84   1 0.25522-0.03017-0.63491 0.19588 0.72920 0.98016
   5  -5  -5 5829.71  174.24   1-0.69645-0.92211 0.18311 0.33985 0.69384-0.18493
   5   5  -5 5428.22  172.57   1-0.44195 0.29856 0.69666 0.27508-0.56509-0.91388
   5  -5  -4 8122.93  216.97   1-0.68959-0.94116 0.17176 0.29522 0.70353-0.16445
   5   5  -4 7678.04  228.27   1-0.41997 0.29476 0.69139 0.23643-0.58787-0.92585
  -5  -5   3  278.57   42.11   1 0.39906-0.29287-0.68583-0.19805 0.60858 0.93541
   5  -5  -3  267.05   43.36   1-0.68085-0.95834 0.15767 0.24784 0.71524-0.14195
  -5  -5   2 2335.41   83.91   1 0.37823-0.28789-0.67978-0.15862 0.62835 0.94443
   5  -5  -2 2114.83   96.20   1-0.66986-0.97327 0.14049 0.19738 0.72906-0.11734
  -5   5   1 5235.78  136.26   1-0.44820-0.11927-0.83263-0.85151-0.32531 0.51058
  -5  -5   1 5216.01  130.45   1 0.35814-0.28216-0.67349-0.11894 0.64663 0.95196
  -5   5   0 3489.29  106.05   1-0.40999-0.05506-0.86217-0.84784-0.29758 0.52738
  -5   5   0 3334.98  111.36   1-0.69971-0.34477-0.69105-0.68186-0.18121 0.64512
  -5  -5   0 3660.61  106.84   1 0.33891-0.27558-0.66707-0.07914 0.66343 0.95801
   5  -5   1    2.40   38.61   1 0.37845-0.00138 0.88392 0.84042 0.27469-0.54193
  -5   5  -1    7.72   32.50   1-0.72392-0.34312-0.67856-0.63610-0.12443 0.69111
  -5  -5  -1   32.12   41.76   1 0.32065-0.26802-0.66063-0.03931 0.67877 0.96261
   5  -5   2 3205.35  118.51   1 0.34368-0.06213 0.90534 0.82855 0.24945-0.55644
  -5   5  -2 2923.40  113.14   1-0.74472-0.33726-0.66382-0.58775-0.06869 0.73538
  -5  -5  -2 3112.18  117.65   1 0.30348-0.25937-0.65427 0.00043 0.69269 0.96577
   5  -5   3 2988.61  105.25   1 0.31102-0.12076 0.92320 0.81312 0.22575-0.56942
   5   5   3 2769.78  116.40   1-0.79153-0.25908 0.20835-0.48222-0.57451-0.83686
  -5   5  -3 2928.94  115.55   1-0.76136-0.32808-0.64809-0.53872-0.01730 0.77597
  -5  -5  -3 3197.33  110.22   1 0.28749-0.24954-0.64810 0.03999 0.70520 0.96753
   5  -5   4 3121.94  106.82   1 0.28064-0.17712 0.93794 0.79457 0.20370-0.58075
   5   5   4 2966.73  111.14   1-0.78750-0.28101 0.23049-0.49336-0.57158-0.82317
  -5   5  -4 3226.60  122.66   1-0.77472-0.31565-0.63154-0.48886 0.03076 0.81325
  -5  -5  -4 3347.99  121.21   1 0.27280-0.23841-0.64221 0.07926 0.71633 0.96792
  -6   0  11   -9.14   54.47   1-0.30465-0.74328-0.65472-0.66141-0.69175 0.10032
   6   0 -11    0.09   37.73   1-0.78782-0.35157 0.60960 0.61803 0.08777-0.70315
  -6   0  10  643.12   56.44   1-0.34395-0.75670-0.66879-0.64224-0.65909 0.12215
   6   0 -10  673.51   55.91   1-0.78329-0.37283 0.61807 0.59312 0.06654-0.71358
  -6   0   9   20.41   39.91   1-0.38284-0.76972-0.68116-0.62136-0.62405 0.14636
   6   0  -9   19.79   47.34   1-0.77859-0.39391 0.62582 0.56748 0.04627-0.72304
  -6   0   812824.18  252.43   1-0.42112-0.78213-0.69168-0.59864-0.58670 0.17287
   6   0  -812990.23  280.46   1-0.77377-0.41488 0.63287 0.54116 0.02706-0.73144
  -6   0   7  -13.68   31.82   1-0.45855-0.79369-0.70023-0.57394-0.54717 0.20157
   6   0  -7   27.95   37.22   1-0.76893-0.43583 0.63925 0.51415 0.00900-0.73870
  -6   0   6 1237.83   62.40   1-0.49488-0.80414-0.70669-0.54716-0.50564 0.23227
   6   0  -6 1245.32   65.43   1-0.76416-0.45684 0.64497 0.48648-0.00782-0.74472
  -6   0   5   34.25   47.29   1-0.52983-0.81323-0.71099-0.51822-0.46233 0.26475
   6   0  -5   22.02   47.97   1-0.75955-0.47801 0.65003 0.45816-0.02328-0.74938
  -6   0   415328.14  308.04   1-0.56317-0.82070-0.71307-0.48706-0.41755 0.29870
   6   0  -415593.03  319.32   1-0.75519-0.49944 0.65444 0.42919-0.03726-0.75256
  -6   0   3   12.86   26.89   1-0.59483-0.82612-0.71293-0.45367-0.37134 0.33420
   6   0  -3   -3.58   37.80   1-0.75119-0.52123 0.65821 0.39958-0.04959-0.75408
  -6   0   210616.79  213.12   1-0.62418-0.82962-0.71060-0.41807-0.32470 0.37004
   6   0  -211108.15  217.94   1-0.74767-0.54350 0.66133 0.36932-0.06010-0.75379
  -6   0   1   59.13   37.77   1-0.65126-0.83084-0.70619-0.38039-0.27775 0.40618
   6   0  -1   42.15   50.37   1-0.74476-0.56637 0.66379 0.33839-0.06858-0.75147
  -6   0   015245.44  273.33   1-0.67592-0.82965-0.69984-0.34078-0.23095 0.44219
   6   0   015090.36  289.82   1-0.74259-0.58999 0.66555 0.30677-0.07478-0.74686
  -6   0  -1   13.77   32.09   1-0.69810-0.82597-0.69175-0.29942-0.18474 0.47760
   6   0   1   14.59   38.20   1-0.74131-0.61450 0.66656 0.27439-0.07838-0.73965
  -6   0  -2 6834.56  157.50   1-0.71776-0.81979-0.68214-0.25655-0.13957 0.51197
   6   0   2 6809.03  174.83   1-0.74109-0.64006 0.66673 0.24119-0.07901-0.72948
   6   0   3   24.16   31.23   1-0.29397-0.21723 0.93169 0.47201-0.21337-0.85440
  -6   0  -3  103.94   44.96   1-0.73497-0.81091-0.67128-0.21255-0.09577 0.54519
   6   0   3   29.60   29.18   1-0.74209-0.66685 0.66594 0.20701-0.07619-0.71585
   6   0   4 9856.92  208.35   1-0.32176-0.27100 0.91756 0.42459-0.23354-0.86386
  -6   0  -4 9976.20  211.41   1-0.74977-0.79990-0.65949-0.16745-0.05388 0.57629
   6   0   5   10.29   37.18   1-0.34345-0.31879 0.90547 0.37898-0.24928-0.86875
  -6   0  -5    2.42   33.49   1-0.76232-0.78664-0.64704-0.12169-0.01409 0.60529
   6   0   616930.70  351.78   1-0.35977-0.36110 0.89574 0.33596-0.26113-0.86990
  -6   0  -616274.50  279.95   1-0.77280-0.77132-0.63421-0.07555 0.02335 0.63193
   6   0   7   15.40   31.44   1-0.37197-0.39929 0.88810 0.29503-0.26998-0.86805
   6   0   8 7164.28  197.62   1-0.38076-0.43406 0.88240 0.25604-0.27636-0.86372
  -6   0  -8 7584.57  175.75   1-0.78834-0.73526-0.60856 0.01658 0.09033 0.67757
   6   0   9   23.50   31.03   1-0.38667-0.46596 0.87847 0.21882-0.28065-0.85731
   6   0  10 8597.93  225.86   1-0.39012-0.49541 0.87614 0.18319-0.28316-0.84912
  -6   0 -10 8964.54  175.97   1-0.79817-0.69365-0.58430 0.10757 0.14663 0.71223
  -6  -1  11  116.08   40.25   1-0.27168-0.80684-0.64175-0.59036-0.71717 0.02174
  -6   1  11   92.91   43.73   1-0.32387-0.66595-0.66179-0.72657-0.67611 0.16911
   6  -1 -11  132.43   53.06   1-0.80570-0.46511 0.55351 0.61925 0.21087-0.63261
   6   1 -11  104.06   45.60   1-0.75803-0.22490 0.65159 0.60212-0.02819-0.76606
  -6  -1  10 4366.50  115.95   1-0.30991-0.81921-0.65669-0.57205-0.68753 0.04055
  -6   1  10 4346.75  118.91   1-0.36415-0.68036-0.67542-0.70695-0.64124 0.19316
   6  -1 -10 4403.26  117.89   1-0.80415-0.48940 0.56174 0.59413 0.19437-0.63834
   6   1 -10 4449.96  120.17   1-0.74999-0.24264 0.65929 0.57644-0.05321-0.78027
  -6  -1   9 1543.19   72.16   1-0.34796-0.83138-0.67014-0.55226-0.65561 0.06164
  -6   1   9 1514.71   78.40   1-0.40386-0.69420-0.68715-0.68544-0.60391 0.21965
   6  -1  -9 1609.96   74.04   1-0.80247-0.51357 0.56919 0.56823 0.17903-0.64292
   6   1  -9 1597.81   68.86   1-0.74169-0.26012 0.66626 0.55003-0.07733-0.79359
  -6  -1   8  610.83   51.62   1-0.38563-0.84318-0.68198-0.53086-0.62143 0.08499
  -6   1   8  567.86   52.35   1-0.44275-0.70722-0.69684-0.66188-0.56425 0.24848
   6  -1  -8  562.76   49.18   1-0.80073-0.53767 0.57586 0.54154 0.16495-0.64624
   6   1  -8  624.24   54.35   1-0.73320-0.27742 0.67253 0.52291-0.10051-0.80597
  -6  -1   7   96.84   35.20   1-0.42272-0.85440-0.69208-0.50771-0.58508 0.11051
  -6   1   7   76.82   32.28   1-0.48054-0.71914-0.70437-0.63617-0.52242 0.27948
   6  -1  -7   46.51   35.87   1-0.79899-0.56178 0.58173 0.51407 0.15226-0.64817
   6   1  -7   88.66   41.51   1-0.72461-0.29462 0.67814 0.49513-0.12268-0.81733
  -6  -1   6 6596.71  152.77   1-0.45901-0.86482-0.70032-0.48271-0.54667 0.13809
  -6   1   6 6519.82  153.70   1-0.51699-0.72971-0.70964-0.60820-0.47866 0.31241
   6  -1  -6 6546.04  164.46   1-0.79734-0.58597 0.58679 0.48578 0.14109-0.64857
   6   1  -6 6801.51  160.00   1-0.71602-0.31182 0.68310 0.46672-0.14376-0.82760
  -6  -1   5   75.71   33.71   1-0.49426-0.87419-0.70660-0.45574-0.50638 0.16755
  -6   1   5   44.53   35.52   1-0.55179-0.73865-0.71260-0.57791-0.43325 0.34698
   6  -1  -5   52.14   32.37   1-0.79604-0.61138 0.59049 0.45653 0.13280-0.64635
   6   1  -5   97.59   41.15   1-0.70751-0.32910 0.68747 0.43771-0.16368-0.83672
  -6  -1   4 2737.66   95.97   1-0.52821-0.88228-0.71083-0.42673-0.46442 0.19867
  -6   1   4 2633.52   84.73   1-0.58499-0.74553-0.71322-0.54523-0.38613 0.38328
   6  -1  -4 2712.56   94.44   1-0.79478-0.63591 0.59385 0.42650 0.12515-0.64319
   6   1  -4 2759.24   93.71   1-0.69919-0.34656 0.69128 0.40813-0.18234-0.84458
  -6  -1   3   62.44   53.25   1-0.56063-0.88883-0.71299-0.39564-0.42109 0.23116
  -6   1   3  114.56   34.65   1-0.61575-0.75043-0.71151-0.51025-0.33852 0.42010
   6  -1  -3   81.71   36.52   1-0.79383-0.66075 0.59625 0.39552 0.11961-0.63793
   6   1  -3   93.71   33.57   1-0.69117-0.36433 0.69455 0.37802-0.19966-0.85109
  -6  -1   2 4255.04  127.35   1-0.59141-0.89346-0.71305-0.36252-0.37653 0.26513
  -6   1   2 4182.79  119.63   1-0.64417-0.75300-0.70758-0.47306-0.29044 0.45737
   6  -1  -2 4179.27  113.32   1-0.79327-0.68598 0.59762 0.36351 0.11644-0.63030
   6   1  -2 4258.88  111.98   1-0.68357-0.38251 0.69733 0.34742-0.21551-0.85614
  -6  -1   1   82.82   40.98   1-0.62006-0.89625-0.71107-0.32727-0.33151 0.29936
  -6   1   1   90.48   40.27   1-0.67012-0.75309-0.70156-0.43377-0.24236 0.49465
   6  -1  -1  106.72   26.62   1-0.79319-0.71168 0.59783 0.33033 0.11595-0.61998
   6   1  -1  132.42   38.11   1-0.67651-0.40124 0.69966 0.31636-0.22978-0.85960
  -6  -1   0 4748.64  129.19   1-0.64655-0.89688-0.70713-0.29007-0.28623 0.33383
  -6   1   0 4493.19  123.20   1-0.69348-0.75060-0.69365-0.39259-0.19475 0.53147
   6  -1   0 4699.18  128.79   1-0.79364-0.73792 0.59671 0.29583 0.11855-0.60658
   6   1   0 4903.26  137.69   1-0.67014-0.42066 0.70155 0.28487-0.24231-0.86132
  -6  -1  -1  303.40   43.63   1-0.67075-0.89523-0.70138-0.25105-0.24114 0.36813
  -6   1  -1  312.72   44.48   1-0.71422-0.74549-0.68407-0.34975-0.14805 0.56737
   6  -1   1  346.47   43.77   1-0.79470-0.76477 0.59403 0.25977 0.12472-0.58960
   6   1   1  282.53   40.83   1-0.66462-0.44092 0.70306 0.25299-0.25293-0.86115
   6  -1   2 1816.03   91.42   1-0.09766-0.09143 0.99269 0.62425-0.07088-0.77585
  -6  -1  -2 2108.36   79.31   1-0.69258-0.89122-0.69400-0.21041-0.19666 0.40181
  -6   1  -2 1887.66   76.97   1-0.73249-0.73750-0.67302-0.30551-0.10239 0.60228
   6  -1   2 1855.39   77.98   1-0.79640-0.79226 0.58947 0.22183 0.13509-0.56843
   6   1   2 2177.53   83.92   1-0.66011-0.46219 0.70419 0.22074-0.26145-0.85886
   6  -1   3 1100.24   60.83   1-0.14076-0.16052 0.98475 0.58302-0.10217-0.79643
   6   1   3 1116.74   62.95   1-0.44211-0.26901 0.83759 0.31966-0.32089-0.90854
  -6  -1  -3 1204.13   59.77   1-0.71203-0.88481-0.68522-0.16835-0.15321 0.43446
  -6   1  -3 1186.74   60.35   1-0.74812-0.72732-0.66095-0.26012-0.05879 0.63508
   6   1   3 1161.58   61.97   1-0.65679-0.48467 0.70497 0.18814-0.26761-0.85422
   6  -1   4 5347.14  131.86   1-0.17591-0.22165 0.97609 0.54107-0.12768-0.81124
   6   1   4 5496.91  133.03   1-0.45916-0.31206 0.82346 0.27224-0.33327-0.91022
  -6  -1  -4 5516.19  129.07   1-0.72913-0.87605-0.67528-0.12515-0.11118 0.46569
  -6   1  -4 5458.12  136.98   1-0.76137-0.71477-0.64808-0.21395-0.01726 0.66582
   6   1   4 5352.43  155.97   1-0.65489-0.50854 0.70540 0.15519-0.27113-0.84693
   6  -1   5 2633.39   90.37   1-0.20446-0.27619 0.96755 0.49924-0.14840-0.82126
   6   1   5 2622.43   88.79   1-0.47138-0.35027 0.81285 0.22834-0.34214-0.90838
  -6  -1  -5 2702.59   97.28   1-0.74386-0.86491-0.66453-0.08127-0.07118 0.49529
  -6   1  -5 2784.54   91.19   1-0.77243-0.70003-0.63471-0.16727 0.02195 0.69424
   6  -1   6 2291.23   90.01   1-0.22750-0.32522 0.95967 0.45806-0.16513-0.82728
   6   1   6 2214.61   90.59   1-0.47981-0.38469 0.80528 0.18748-0.34826-0.90380
  -6  -1  -6 2377.92   89.41   1-0.75652-0.85177-0.65312-0.03656-0.03304 0.52262
  -6   1  -6 2312.25   87.29   1-0.78155-0.68302-0.62106-0.12045 0.05882 0.72039
   6  -1   7  119.52   36.48   1-0.24591-0.36961 0.95271 0.41781-0.17849-0.82994
   6   1   7   59.76   37.32   1-0.48519-0.41605 0.80035 0.14926-0.35216-0.89700
  -6  -1  -7  115.25   43.88   1-0.76720-0.83665-0.64139 0.00848 0.00278 0.54766
  -6   1  -7  108.58   40.76   1-0.78884-0.66459-0.60754-0.07357 0.09282 0.74357
   6  -1   8 6780.24  189.38   1-0.26038-0.41006 0.94682 0.37863-0.18899-0.82974
   6   1   8 6679.94  208.54   1-0.48805-0.44490 0.79769 0.11331-0.35424-0.88837
  -6  -1  -8 6885.84  151.96   1-0.77596-0.81977-0.62976 0.05319 0.03565 0.57020
  -6   1  -8 6771.42  160.90   1-0.79460-0.64462-0.59431-0.02698 0.12409 0.76401
   6  -1   9 1188.96   64.25   1-0.27146-0.44713 0.94206 0.34058-0.19703-0.82708
   6   1   9 1211.34   69.86   1-0.48879-0.47164 0.79700 0.07932-0.35477-0.87821
  -6  -1  -9 1274.50   67.71   1-0.78325-0.80134-0.61814 0.09817 0.06636 0.59008
  -6   1  -9 1259.68   73.49   1-0.79904-0.62335-0.58158 0.01911 0.15260 0.78170
   6  -1  10   17.20   38.02   1-0.27961-0.48127 0.93841 0.30364-0.20295-0.82229
   6   1  10   58.00   46.41   1-0.48771-0.49655 0.79800 0.04704-0.35399-0.86672
  -6  -1 -10   -0.66   49.29   1-0.78915-0.78152-0.60689 0.14279 0.09440 0.60731
  -6   1 -10   32.66   48.21   1-0.80239-0.60097-0.56951 0.06454 0.17836 0.79665
  -6  -2  10 2261.53   95.57   1-0.26114-0.86668-0.63740-0.49641-0.72492-0.04925
  -6   2  10 2419.78  100.58   1-0.37041-0.59008-0.67738-0.76700-0.63555 0.25199
   6  -2 -10 2001.11  126.82   1-0.80879-0.58960 0.49074 0.58060 0.32408-0.56148
   6   2 -10 2308.11   92.10   1-0.71022-0.10598 0.68614 0.54539-0.15745-0.83145
  -6  -2   9  434.93   63.22   1-0.29863-0.87859-0.65242-0.47646-0.69653-0.03242
  -6   2   9  557.77   51.59   1-0.41110-0.60490-0.68909-0.74546-0.59677 0.27994
   6  -2  -9  504.47   53.16   1-0.80907-0.61577 0.49684 0.55338 0.31393-0.56088
   6   2  -9  491.66   46.72   1-0.69842-0.11997 0.69161 0.51747-0.18404-0.84724
  -6  -2   814175.66  239.57   1-0.33544-0.88953-0.66588-0.45667-0.66639-0.01311
  -6   2   814198.99  250.56   1-0.45080-0.61873-0.69861-0.72173-0.55562 0.31026
   6  -2  -813173.16  286.84   1-0.80922-0.64180 0.50197 0.52519 0.30526-0.55879
   6   2  -813208.87  361.16   1-0.68640-0.13374 0.69633 0.48881-0.20968-0.86207
  -6  -2   7   55.81   38.49   1-0.37196-0.90019-0.67786-0.43541-0.63413 0.00830
  -6   2   7  102.40   41.95   1-0.48923-0.63129-0.70581-0.69570-0.51231 0.34274
   6  -2  -7   87.72   34.12   1-0.80928-0.66775 0.50608 0.49598 0.29823-0.55506
   6   2  -7   94.53   36.56   1-0.67423-0.14736 0.70036 0.45945-0.23430-0.87589
  -6  -2   6 1668.15   74.32   1-0.40801-0.91036-0.68827-0.41257-0.59983 0.03177
  -6   2   6 1739.53   73.13   1-0.52610-0.64229-0.71063-0.66727-0.46712 0.37710
   6  -2  -6 1600.52   86.70   1-0.80929-0.69365 0.50910 0.46569 0.29301-0.54952
   6   2  -6 1667.60   81.13   1-0.66202-0.16094 0.70372 0.42943-0.25785-0.88863
  -6  -2   5 3092.00  102.44   1-0.44338-0.91986-0.69698-0.38804-0.56357 0.05719
  -6   2   5 3148.84  110.26   1-0.56114-0.65146-0.71301-0.63640-0.42038 0.41301
   6  -2  -5 2818.40   99.63   1-0.80928-0.71953 0.51094 0.43421 0.28981-0.54196
   6   2  -5 3034.10  105.64   1-0.64986-0.17456 0.70648 0.39881-0.28028-0.90026
  -6  -2   411434.74  239.65   1-0.47784-0.92845-0.70390-0.36171-0.52552 0.08441
  -6   2   411244.24  236.02   1-0.59443-0.65836-0.71294-0.60296-0.37195 0.45054
   6  -2  -410841.78  226.07   1-0.80928-0.74541 0.51149 0.40144 0.28885-0.53216
   6   2  -411008.82  257.57   1-0.63785-0.18833 0.70867 0.36762-0.30152-0.91070
  -6  -2   3   11.13   48.34   1-0.51118-0.93591-0.70894-0.33351-0.48588 0.11323
  -6   2   3  -11.89   29.82   1-0.62502-0.66310-0.71050-0.56725-0.32330 0.48839
   6  -2  -3   50.28   37.11   1-0.80928-0.77130 0.51059 0.36722 0.29042-0.51983
   6   2  -3  -20.59   40.60   1-0.62610-0.20237 0.71036 0.33593-0.32151-0.91988
  -6  -2   210209.27  225.28   1-0.54314-0.94201-0.71207-0.30340-0.44490 0.14338
  -6   2   2 9684.16  203.58   1-0.65310-0.66532-0.70580-0.52928-0.27440 0.52649
   6  -2  -2 8521.07  389.51   1-0.80929-0.79720 0.50804 0.33135 0.29485-0.50465
   6   2  -210085.58  203.34   1-0.61472-0.21678 0.71161 0.30379-0.34018-0.92774
  -6  -2   1  799.82   66.15   1-0.57351-0.94651-0.71327-0.27135-0.40288 0.17456
  -6   2   1  816.26   62.64   1-0.67855-0.66491-0.69901-0.48923-0.22571 0.56439
   6  -2  -1  791.97   53.49   1-0.80925-0.82304 0.50357 0.29357 0.30252-0.48622
   6   2  -1  826.15   62.67   1-0.60385-0.23169 0.71246 0.27125-0.35744-0.93420
  -6  -2   0 7818.54  182.07   1-0.60214-0.94909-0.71256-0.23749-0.36009 0.20689
  -6   2   0 7341.10  174.34   1-0.70129-0.66180-0.69036-0.44731-0.17770 0.60159
   6  -2   0 7050.29  190.61   1-0.80907-0.84875 0.49684 0.25351 0.31393-0.46405
   6   2   0 7789.18  177.12   1-0.59360-0.24723 0.71298 0.23839-0.37321-0.93917
  -6  -2  -1 1711.55   74.42   1-0.62872-0.94982-0.71002-0.20169-0.31711 0.23907
  -6   2  -1 1638.99   76.28   1-0.72134-0.65600-0.68010-0.40378-0.13083 0.63766
   6  -2   1 1622.13   69.84   1-0.80858-0.87415 0.48734 0.21070 0.32967-0.43756
   6   2   1 1780.57   76.78   1-0.58413-0.26355 0.71323 0.20526-0.38740-0.94255
   6  -2   2 5234.48  156.28   1 0.04659-0.04383 0.99834 0.68786 0.03382-0.72451
  -6  -2  -2 5715.59  144.19   1-0.65319-0.94843-0.70578-0.16418-0.27425 0.27114
  -6   2  -2 5497.62  141.93   1-0.73894-0.64722-0.66838-0.35878-0.08499 0.67259
   6   2   2 5926.61  144.94   1-0.57559-0.28079 0.71328 0.17193-0.39989-0.94424
   6  -2   3 2589.25   96.35   1 0.00236-0.11403 0.99999 0.65622 0.00171-0.74589
  -6  -2  -3 2709.02   89.10   1-0.67545-0.94483-0.69998-0.12512-0.23190 0.30269
  -6   2  -3 2700.71   88.88   1-0.75379-0.63627-0.65578-0.31287-0.04161 0.70517
   6   2   3 2833.62   95.43   1-0.56813-0.29911 0.71320 0.13846-0.41057-0.94411
   6  -2   4 2404.30   83.51   1-0.03539-0.17777 0.99904 0.62198-0.02568-0.76258
   6   2   4 2295.55   93.88   1-0.57254-0.32904 0.70675 0.09744-0.41556-0.93927
  -6  -2  -4 2414.13   86.30   1-0.69546-0.93900-0.69284-0.08471-0.19047 0.33331
  -6   2  -4 2289.14   81.44   1-0.76629-0.62295-0.64249-0.26627-0.00045 0.73553
   6   2   4 2380.20   95.62   1-0.56193-0.31870 0.71303 0.10492-0.41929-0.94202
   6  -2   5  274.92   50.84   1-0.06743-0.23578 0.99652 0.58617-0.04894-0.77511
   6   2   5  307.40   39.01   1-0.57651-0.35900 0.70180 0.05919-0.41844-0.93145
  -6  -2  -5  265.27   56.73   1-0.71325-0.93092-0.68459-0.04319-0.15035 0.36263
  -6   2  -5  245.75   74.99   1-0.77674-0.60705-0.62861-0.21919 0.03876 0.76383
   6   2   5  237.76   40.11   1-0.55719-0.33974 0.71286 0.07136-0.42587-0.93780
   6  -2   614781.76  333.71   1-0.09442-0.28875 0.99317 0.54953-0.06853-0.78398
   6   2   614941.65  314.93   1-0.57813-0.38660 0.69976 0.02386-0.41962-0.92193
  -6  -2  -615592.75  286.53   1-0.72885-0.92068-0.67545-0.00079-0.11188 0.39031
  -6   2  -614727.13  289.84   1-0.78511-0.58970-0.61480-0.17201 0.07483 0.78908
   6  -2   7  626.02   57.61   1-0.11707-0.33726 0.98948 0.51253-0.08497-0.78965
   6   2   7  642.86   50.83   1-0.57782-0.41228 0.70015-0.00904-0.41940-0.91101
  -6  -2  -7  645.41   52.20   1-0.74219-0.90837-0.66587 0.04191-0.07591 0.41605
  -6   2  -7  659.95   79.39   1-0.79178-0.57064-0.60113-0.12498 0.10819 0.81162
   6  -2   8 1891.48   78.84   1-0.13567-0.38184 0.98584 0.47560-0.09847-0.79245
   6   2   8 1946.83   83.34   1-0.57588-0.43633 0.70259-0.03989-0.41799-0.89890
  -6  -2  -8 1781.01   73.05   1-0.75379-0.89416-0.65579 0.08530-0.04163 0.43954
  -6   2  -8 1869.02   82.28   1-0.79698-0.55012-0.58783-0.07831 0.13878 0.83140
   6  -2   9  830.41   66.67   1-0.15079-0.42295 0.98248 0.43895-0.10945-0.79273
   6   2   9  808.10   64.58   1-0.57253-0.45896 0.70675-0.06902-0.41556-0.88576
  -6   2  -9  795.72  297.25   1-0.80094-0.52836-0.57508-0.03220 0.16661 0.84840
  -6  -3   7 2030.86   97.26   1-0.30477-0.92953-0.65476-0.35422-0.69165-0.10237
  -6   3   7 2003.01   94.35   1-0.48435-0.52986-0.70502-0.75298-0.51802 0.39019
   6  -3  -7 2054.70   91.36   1-0.79725-0.75246 0.41520 0.46334 0.43817-0.46810
   6   3  -7 2052.87   89.17   1-0.62532-0.00156 0.71046 0.41165-0.32280-0.91133
  -6  -3   6 9550.55  206.98   1-0.34004-0.93893-0.66746-0.33368-0.66246-0.08401
  -6   3   6 9028.91  216.46   1-0.52219-0.54183-0.71022-0.72495-0.47211 0.42527
   6  -3  -6 8961.73  204.90   1-0.79725-0.77835 0.41523 0.43006 0.43812-0.45739
   6   3  -6 9160.62  216.53   1-0.61030-0.01233 0.71199 0.37980-0.34726-0.92498
  -6  -3   5   -0.28   39.23   1-0.37499-0.94801-0.67879-0.31177-0.63135-0.06373
  -6   3   5   -2.84   32.93   1-0.55805-0.55182-0.71289-0.69437-0.42467 0.46187
   6  -3  -5   17.46   46.92   1-0.79689-0.80387 0.41370 0.39521 0.44024-0.44452
   6   3  -5   30.56   37.90   1-0.59536-0.02318 0.71291 0.34733-0.37053-0.93745
  -6  -3   4 1615.50   74.48   1-0.40945-0.95660-0.68866-0.28838-0.59840-0.04161
  -6   3   4 1508.54   80.64   1-0.59209-0.55940-0.71303-0.66105-0.37551 0.50006
   6  -3  -4 1565.07   67.70   1-0.79607-0.82894 0.41041 0.35860 0.44476-0.42923
   6   3  -4 1518.92   82.50   1-0.58061-0.03421 0.71327 0.31432-0.39258-0.94870
  -6  -3   3 6201.38  155.53   1-0.44323-0.96451-0.69695-0.26343-0.56373-0.01777
  -6   3   3 5913.69  135.31   1-0.62320-0.56467-0.71072-0.62547-0.32632 0.53845
   6  -3  -3 5776.99  156.48   1-0.79473-0.85348 0.40513 0.32000 0.45195-0.41128
   6   3  -3 5932.48  133.91   1-0.56615-0.04554 0.71315 0.28082-0.41336-0.95867
  -6  -3   2 5782.91  156.06   1-0.47611-0.97152-0.70359-0.23683-0.52751 0.00761
  -6   3   2 5483.04  131.32   1-0.65168-0.56729-0.70610-0.58758-0.27699 0.57698
   6  -3  -2 5156.02  131.98   1-0.79270-0.87734 0.39755 0.27910 0.46214-0.39034
   6   3  -2 5207.20  212.48   1-0.55210-0.05727 0.71262 0.24690-0.43284-0.96734
  -6  -3   1  676.97   53.32   1-0.50787-0.97741-0.70852-0.20852-0.48994 0.03434
  -6   3   1  676.45   55.60   1-0.67741-0.56716-0.69937-0.54759-0.22799 0.61518
   6  -3  -1  645.62   52.84   1-0.78977-0.90030 0.38727 0.23551 0.47568-0.36604
   6   3  -1  640.16   57.93   1-0.53857-0.06953 0.71174 0.21263-0.45095-0.97465
  -6  -3   0 4263.47  124.99   1-0.53831-0.98197-0.71172-0.17847-0.45130 0.06216
  -6   3   0 4113.67  118.48   1-0.70035-0.56424-0.69078-0.50573-0.17980 0.65257
   6   3   0 4356.87  116.02   1-0.52569-0.08244 0.71059 0.17810-0.46765-0.98055
  -6  -3  -1 1048.06   59.95   1-0.56721-0.98501-0.71318-0.14669-0.41187 0.09075
  -6   3  -1 1081.07   66.53   1-0.72051-0.55856-0.68058-0.46227-0.13287 0.68870
   6   3   1 1051.98   61.96   1-0.51359-0.09612 0.70924 0.14337-0.48289-0.98498
   6  -3   2 3060.63  114.27   1 0.16980-0.01717 0.97774 0.72517 0.12324-0.68835
  -6  -3  -2 3331.10  107.31   1-0.59439-0.98624-0.71295-0.11334-0.37201 0.12030
  -6   3  -2 3075.41   97.64   1-0.73826-0.54981-0.66889-0.41720-0.08685 0.72363
   6   3   2 3625.15   99.57   1-0.50239-0.11071 0.70778 0.10853-0.49662-0.98790
   6  -3   3   29.37   35.93   1 0.12841-0.08452 0.98733 0.70147 0.09320-0.70766
  -6  -3  -3   19.13   41.74   1-0.61968-0.98567-0.71111-0.07824-0.33213 0.14938
  -6   3  -3   50.69   36.81   1-0.75314-0.53889-0.65640-0.37140-0.04361 0.75607
   6   3   3   29.77   32.48   1-0.49224-0.12635 0.70629 0.07365-0.50876-0.98924
   6  -3   4 3784.57  118.39   1 0.09176-0.14715 0.99355 0.67440 0.06660-0.72354
  -6  -3  -4 4110.38  115.77   1-0.64297-0.98312-0.70780-0.04166-0.29256 0.17815
  -6   3  -4 4118.97  117.89   1-0.76565-0.52559-0.64324-0.32493-0.00266 0.78623
   6   3   4 4182.58  118.67   1-0.48328-0.14317 0.70484 0.03882-0.51925-0.98893
   6  -3   5 1419.96   73.16   1 0.05955-0.20534 0.99728 0.64485 0.04322-0.73620
  -6  -3  -5 1434.30   75.07   1-0.66421-0.97850-0.70316-0.00376-0.25371 0.20620
  -6   3  -5 1546.74   72.35   1-0.77619-0.50961-0.62943-0.27781 0.03655 0.81431
   6   3   5 1429.48   83.19   1-0.47567-0.16134 0.70351 0.00411-0.52801-0.98688
   6  -3   6  968.90   65.74   1 0.03147-0.25939 0.99924 0.61351 0.02284-0.74586
  -6   3  -6 1041.12   78.62   1-0.78457-0.49227-0.61579-0.23082 0.07233 0.83928
   6  -3   7   -1.80   32.48   1 0.00721-0.30963 0.99996 0.58094 0.00523-0.75274
   6   3   7   21.80   42.00   1-0.64683-0.38484 0.60098-0.16625-0.46948-0.90788
  -7   0   4 6922.10  192.76   1-0.53888-0.82208-0.71176-0.42591-0.45055 0.37786
   7   0  -4 6896.71  205.27   1-0.77442-0.49324 0.63196 0.34692 0.02959-0.79771
  -7   0   3   28.00   42.97   1-0.56729-0.82462-0.71318-0.39408-0.41176 0.40582
   7   0  -3   24.87   48.02   1-0.77221-0.51681 0.63501 0.31658 0.02109-0.79540
  -7   0   212466.04  300.08   1-0.59420-0.82526-0.71295-0.36058-0.37230 0.43463
   7   0  -212209.63  333.19   1-0.77044-0.54083 0.63733 0.28552 0.01451-0.79118
  -7   0   1   11.11   47.91   1-0.61913-0.82434-0.71117-0.32553-0.33301 0.46312
   7   0  -1   15.96   53.82   1-0.76923-0.56541 0.63888 0.25369 0.01007-0.78482
  -7   0   0 4110.17  128.59   1-0.64221-0.82156-0.70793-0.28903-0.29392 0.49141
  -7   0  -1   -2.28   64.17   1-0.66337-0.81687-0.70338-0.25121-0.25530 0.51923
  -7   0  -2 1826.52   85.78   1-0.68262-0.81026-0.69766-0.21222-0.21745 0.54628
  -7  -1   2 5808.33  165.22   1-0.56364-0.89164-0.71309-0.30266-0.41689 0.33669
  -7   1   2 5520.04  164.79   1-0.61291-0.74736-0.71177-0.41740-0.34309 0.51692
   7  -1  -2 5209.02  196.55   1-0.80122-0.66771 0.57406 0.27977 0.16878-0.68984
   7   1  -2 5829.71  165.71   1-0.72379-0.39729 0.67864 0.26893-0.12476-0.87739
  -7  -1   1 1338.04   77.68   1-0.58974-0.89156-0.71311-0.26946-0.37904 0.36401
  -7   1   1 1339.63   79.97   1-0.63713-0.74573-0.70879-0.38116-0.30277 0.54644
   7   1  -1 1306.50   73.19   1-0.71991-0.41920 0.68093 0.23783-0.13434-0.87618
  -7  -1   0 3312.93  112.04   1-0.61401-0.88997-0.71167-0.23476-0.34132 0.39093
  -7   1   0 3116.76  104.69   1-0.65937-0.74211-0.70437-0.34347-0.26283 0.57557
   7   1   0 3098.56  113.54   1-0.71674-0.44182 0.68271 0.20623-0.14204-0.87307
  -7  -1  -1   73.69   56.18   1-0.63651-0.88662-0.70889-0.19871-0.30384 0.41762
  -7   1  -1   39.07   45.22   1-0.67960-0.73649-0.69867-0.30450-0.22358 0.60403
  -7  -1  -211177.52  282.12   1-0.65720-0.88146-0.70488-0.16144-0.26686 0.44380
  -7   1  -210893.71  261.02   1-0.69784-0.72888-0.69185-0.26442-0.18530 0.63151
;
_shelx_hkl_checksum              51019
loop_
_space_group_symop_operation_xyz
'x, y, z'
'-x, y+1/2, -z+1/2'
'-x, -y, -z'
'x, -y-1/2, z-1/2'
loop_
_atom_site_label
_atom_site_type_symbol
_atom_site_fract_x
_atom_site_fract_y
_atom_site_fract_z
_atom_site_U_iso_or_equiv
_atom_site_adp_type
_atom_site_occupancy
_atom_site_site_symmetry_order
_atom_site_calc_flag
_atom_site_refinement_flags_posn
_atom_site_refinement_flags_adp
_atom_site_refinement_flags_occupancy
_atom_site_disorder_assembly
_atom_site_disorder_group
Mo1 Mo 0.22902(3) 0.72555(3) 0.11635(2) 0.00863(7) Uani 1 1 d . . . . .
Na1 Na 0.26089(13) 0.28075(13) 0.24859(5) 0.01435(17) Uani 1 1 d . . . . .
Na2 Na -0.26818(13) 0.23041(13) 0.12111(4) 0.01202(16) Uani 1 1 d . . . . .
O1 O 0.3391(3) 0.7404(2) 0.02102(9) 0.0180(3) Uani 1 1 d . . . . .
O2 O -0.0415(2) 0.8801(2) 0.10794(9) 0.0164(3) Uani 1 1 d . . . . .
F1 F 0.14304(19) 0.6764(2) 0.24126(6) 0.0131(2) Uani 1 1 d . . . . .
F2 F 0.52032(18) 0.53959(18) 0.16327(6) 0.0128(2) Uani 1 1 d . . . . .
F3 F 0.41859(19) 0.98879(19) 0.16161(6) 0.0133(2) Uani 1 1 d . . . . .
F4 F 0.0896(2) 0.41774(19) 0.10928(7) 0.0165(2) Uani 1 1 d . . . . .
loop_
_atom_site_aniso_label
_atom_site_aniso_U_11
_atom_site_aniso_U_22
_atom_site_aniso_U_33
_atom_site_aniso_U_23
_atom_site_aniso_U_13
_atom_site_aniso_U_12
Mo1 0.00915(10) 0.00862(10) 0.00812(10) 0.00005(5) 0.00012(6) -0.00060(5)
Na1 0.0132(4) 0.0135(4) 0.0163(4) 0.0010(3) 0.0007(3) 0.0013(3)
Na2 0.0122(4) 0.0114(4) 0.0125(4) 0.0002(3) 0.0013(3) 0.0000(2)
O1 0.0209(8) 0.0205(7) 0.0126(7) 0.0006(5) 0.0017(6) -0.0013(5)
O2 0.0143(6) 0.0138(7) 0.0209(7) 0.0001(5) -0.0038(5) 0.0025(5)
F1 0.0143(5) 0.0154(5) 0.0098(5) 0.0011(4) 0.0021(4) 0.0010(4)
F2 0.0110(5) 0.0119(5) 0.0152(5) -0.0004(4) -0.0020(4) 0.0031(4)
F3 0.0137(5) 0.0109(5) 0.0153(5) -0.0018(4) 0.0006(4) -0.0029(4)
F4 0.0160(5) 0.0116(5) 0.0220(6) -0.0025(4) -0.0003(4) -0.0037(4)
loop_
_atom_type_symbol
_atom_type_description
_atom_type_scat_dispersion_real
_atom_type_scat_dispersion_imag
_atom_type_scat_source
Na Na 0.0362 0.0249 'International Tables Vol C Tables 4.2.6.8 and 6.1.1.4'
Mo Mo -1.6832 0.6857 'International Tables Vol C Tables 4.2.6.8 and 6.1.1.4'
O O 0.0106 0.0060 'International Tables Vol C Tables 4.2.6.8 and 6.1.1.4'
F F 0.0171 0.0103 'International Tables Vol C Tables 4.2.6.8 and 6.1.1.4'
loop_
_geom_angle_atom_site_label_1
_geom_angle_atom_site_label_2
_geom_angle_atom_site_label_3
_geom_angle
_geom_angle_site_symmetry_1
_geom_angle_site_symmetry_3
O1 Mo1 O2 103.05(7) . .
O1 Mo1 F4 98.12(6) . .
O2 Mo1 F4 97.00(8) . .
O1 Mo1 F3 96.40(6) . .
O2 Mo1 F3 94.93(8) . .
F4 Mo1 F3 158.59(5) . .
O1 Mo1 F2 94.52(6) . .
O2 Mo1 F2 162.37(6) . .
F4 Mo1 F2 81.66(7) . .
F3 Mo1 F2 81.59(8) . .
O1 Mo1 F1 170.70(6) . .
O2 Mo1 F1 86.24(6) . .
F4 Mo1 F1 80.79(5) . .
F3 Mo1 F1 82.33(5) . .
F2 Mo1 F1 76.18(4) . .
O1 Mo1 Na1 128.49(6) . .
O2 Mo1 Na1 118.15(6) . .
F4 Mo1 Na1 49.98(6) . .
F3 Mo1 Na1 108.62(7) . .
F2 Mo1 Na1 48.37(4) . .
F1 Mo1 Na1 44.49(4) . .
O1 Mo1 Na1 150.12(5) . 2
O2 Mo1 Na1 48.68(5) . 2
F4 Mo1 Na1 79.11(4) . 2
F3 Mo1 Na1 95.78(4) . 2
F2 Mo1 Na1 114.22(3) . 2
F1 Mo1 Na1 38.93(3) . 2
Na1 Mo1 Na1 72.09(3) . 2
O1 Mo1 Na1 106.07(6) . 2_655
O2 Mo1 Na1 132.02(5) . 2_655
F4 Mo1 Na1 115.32(4) . 2_655
F3 Mo1 Na1 44.93(4) . 2_655
F2 Mo1 Na1 38.28(5) . 2_655
F1 Mo1 Na1 66.57(3) . 2_655
Na1 Mo1 Na1 68.58(3) . 2_655
Na1 Mo1 Na1 101.82(2) 2 2_655
F1 Na1 F2 106.75(6) 2_545 2_645
F1 Na1 F1 89.31(5) 2_545 .
F2 Na1 F1 137.97(6) 2_645 .
F1 Na1 F3 103.11(6) 2_545 1_545
F2 Na1 F3 76.28(6) 2_645 1_545
F1 Na1 F3 138.55(6) . 1_545
F1 Na1 F2 138.94(5) 2_545 .
F2 Na1 F2 113.94(5) 2_645 .
F1 Na1 F2 64.10(6) . .
F3 Na1 F2 81.98(8) 1_545 .
F1 Na1 F3 136.77(5) 2_545 2_645
F2 Na1 F3 65.04(7) 2_645 2_645
F1 Na1 F3 76.57(6) . 2_645
F3 Na1 F3 114.55(5) 1_545 2_645
F2 Na1 F3 69.66(5) . 2_645
F1 Na1 F4 79.00(5) 2_545 .
F2 Na1 F4 155.52(5) 2_645 .
F1 Na1 F4 64.36(4) . .
F3 Na1 F4 79.24(6) 1_545 .
F2 Na1 F4 61.74(4) . .
F3 Na1 F4 126.94(6) 2_645 .
F1 Na1 O2 63.03(4) 2_545 2_545
F2 Na1 O2 79.67(5) 2_645 2_545
F1 Na1 O2 73.56(4) . 2_545
F3 Na1 O2 147.09(5) 1_545 2_545
F2 Na1 O2 128.81(7) . 2_545
F3 Na1 O2 73.78(4) 2_645 2_545
F4 Na1 O2 122.76(5) . 2_545
F1 Na1 Na2 98.65(4) 2_545 2
F2 Na1 Na2 93.56(7) 2_645 2
F1 Na1 Na2 44.96(5) . 2
F3 Na1 Na2 157.84(4) 1_545 2
F2 Na1 Na2 84.40(7) . 2
F3 Na1 Na2 43.78(3) 2_645 2
F4 Na1 Na2 109.32(6) . 2
O2 Na1 Na2 44.61(3) 2_545 2
F1 Na1 Mo1 101.95(4) 2_545 .
F2 Na1 Mo1 151.23(4) 2_645 .
F1 Na1 Mo1 39.26(4) . .
F3 Na1 Mo1 99.29(7) 1_545 .
F2 Na1 Mo1 37.88(3) . .
F3 Na1 Mo1 92.48(6) 2_645 .
F4 Na1 Mo1 34.96(3) . .
O2 Na1 Mo1 112.46(6) 2_545 .
Na2 Na1 Mo1 80.06(7) 2 .
F1 Na1 Na2 140.82(4) 2_545 1_655
F2 Na1 Na2 86.54(4) 2_645 1_655
F1 Na1 Na2 105.33(4) . 1_655
F3 Na1 Na2 43.31(4) 1_545 1_655
F2 Na1 Na2 41.45(5) . 1_655
F3 Na1 Na2 82.37(4) 2_645 1_655
F4 Na1 Na2 75.40(4) . 1_655
O2 Na1 Na2 155.77(4) 2_545 1_655
Na2 Na1 Na2 117.54(3) 2 1_655
Mo1 Na1 Na2 72.18(3) . 1_655
F1 Na1 Mo1 35.39(3) 2_545 2_545
F2 Na1 Mo1 87.10(4) 2_645 2_545
F1 Na1 Mo1 84.56(4) . 2_545
F3 Na1 Mo1 127.34(5) 1_545 2_545
F2 Na1 Mo1 148.55(5) . 2_545
F3 Na1 Mo1 101.90(4) 2_645 2_545
F4 Na1 Mo1 108.25(4) . 2_545
O2 Na1 Mo1 28.53(3) 2_545 2_545
Na2 Na1 Mo1 70.60(3) 2 2_545
Mo1 Na1 Mo1 116.32(2) . 2_545
Na2 Na1 Mo1 169.98(3) 1_655 2_545
F2 Na2 F4 96.42(8) 1_455 .
F2 Na2 F3 89.32(8) 1_455 1_445
F4 Na2 F3 164.75(5) . 1_445
F2 Na2 O1 100.00(6) 1_455 3_565
F4 Na2 O1 90.37(5) . 3_565
F3 Na2 O1 102.57(5) 1_445 3_565
F2 Na2 F1 87.19(5) 1_455 2_545
F4 Na2 F1 84.74(5) . 2_545
F3 Na2 F1 81.44(4) 1_445 2_545
O1 Na2 F1 171.74(5) 3_565 2_545
F2 Na2 O2 167.11(6) 1_455 1_545
F4 Na2 O2 86.12(8) . 1_545
F3 Na2 O2 85.28(8) 1_445 1_545
O1 Na2 O2 92.60(5) 3_565 1_545
F1 Na2 O2 80.45(5) 2_545 1_545
F2 Na2 Na1 114.24(7) 1_455 2_545
F4 Na2 Na1 115.05(5) . 2_545
F3 Na2 Na1 49.93(4) 1_445 2_545
O1 Na2 Na1 133.18(5) 3_565 2_545
F1 Na2 Na1 44.85(4) 2_545 2_545
O2 Na2 Na1 53.78(6) 1_545 2_545
F2 Na2 Na1 47.89(4) 1_455 1_455
F4 Na2 Na1 134.15(5) . 1_455
F3 Na2 Na1 44.61(5) 1_445 1_455
O1 Na2 Na1 119.52(5) 3_565 1_455
F1 Na2 Na1 68.40(4) 2_545 1_455
O2 Na2 Na1 122.71(5) 1_545 1_455
Na1 Na2 Na1 70.67(3) 2_545 1_455
F2 Na2 Na1 100.33(4) 1_455 .
F4 Na2 Na1 46.13(4) . .
F3 Na2 Na1 118.96(4) 1_445 .
O1 Na2 Na1 133.55(5) 3_565 .
F1 Na2 Na1 39.93(3) 2_545 .
O2 Na2 Na1 72.37(5) 1_545 .
Na1 Na2 Na1 71.92(3) 2_545 .
Na1 Na2 Na1 105.02(3) 1_455 .
F2 Na2 Na1 33.94(4) 1_455 2
F4 Na2 Na1 69.91(5) . 2
F3 Na2 Na1 109.36(6) 1_445 2
O1 Na2 Na1 119.66(6) 3_565 2
F1 Na2 Na1 64.76(5) 2_545 2
O2 Na2 Na1 138.72(6) 1_545 2
Na1 Na2 Na1 106.21(7) 2_545 2
Na1 Na2 Na1 65.21(2) 1_455 2
Na1 Na2 Na1 66.75(2) . 2
Mo1 O1 Na2 149.48(9) . 3_565
Mo1 O2 Na2 151.09(8) . 1_565
Mo1 O2 Na1 102.78(6) . 2
Na2 O2 Na1 81.60(6) 1_565 2
Mo1 F1 Na1 105.68(5) . 2
Mo1 F1 Na1 96.24(5) . .
Na1 F1 Na1 120.55(5) 2 .
Mo1 F1 Na2 146.46(6) . 2
Na1 F1 Na2 99.04(5) 2 2
Na1 F1 Na2 90.19(5) . 2
Mo1 F2 Na2 134.44(6) . 1_655
Mo1 F2 Na1 108.30(8) . 2_655
Na2 F2 Na1 113.44(7) 1_655 2_655
Mo1 F2 Na1 93.75(6) . .
Na2 F2 Na1 90.66(8) 1_655 .
Na1 F2 Na1 107.41(6) 2_655 .
Mo1 F3 Na2 137.73(6) . 1_665
Mo1 F3 Na1 124.57(7) . 1_565
Na2 F3 Na1 92.08(8) 1_665 1_565
Mo1 F3 Na1 102.25(8) . 2_655
Na2 F3 Na1 86.29(6) 1_665 2_655
Na1 F3 Na1 103.80(6) 1_565 2_655
Mo1 F4 Na2 141.10(6) . .
Mo1 F4 Na1 95.06(6) . .
Na2 F4 Na1 94.68(5) . .
loop_
_geom_bond_atom_site_label_1
_geom_bond_atom_site_label_2
_geom_bond_distance
_geom_bond_site_symmetry_2
Mo1 O1 1.6837(15) .
Mo1 O2 1.7273(14) .
Mo1 F4 1.916(2) .
Mo1 F3 1.9599(18) .
Mo1 F2 2.0499(12) .
Mo1 F1 2.1212(11) .
Mo1 Na1 3.332(3) .
Mo1 Na1 3.5265(9) 2
Mo1 Na1 3.5338(9) 2_655
Na1 F1 2.3017(14) 2_545
Na1 F2 2.3059(16) 2_645
Na1 F1 2.349(3) .
Na1 F3 2.3639(19) 1_545
Na1 F2 2.4956(17) .
Na1 F3 2.5537(15) 2_645
Na1 F4 2.5615(15) .
Na1 O2 2.7160(17) 2_545
Na1 Na2 3.330(3) 2
Na1 Na2 3.3640(11) 1_655
Na1 Mo1 3.5265(9) 2_545
Na2 F2 2.227(2) 1_455
Na2 F4 2.2447(15) .
Na2 F3 2.3092(16) 1_445
Na2 O1 2.3486(17) 3_565
Na2 F1 2.3534(13) 2_545
Na2 O2 2.364(3) 1_545
Na2 Na1 3.330(3) 2_545
Na2 Na1 3.3640(11) 1_455
Na2 Na1 3.790(3) 2
O1 Na2 2.3487(17) 3_565
O2 Na2 2.364(3) 1_565
O2 Na1 2.7160(16) 2
F1 Na1 2.3016(14) 2
F1 Na2 2.3534(13) 2
F2 Na2 2.227(2) 1_655
F2 Na1 2.3059(16) 2_655
F3 Na2 2.3092(16) 1_665
F3 Na1 2.3639(19) 1_565
F3 Na1 2.5537(15) 2_655
loop_
_cod_changelog_entry_id
_cod_changelog_entry_author
_cod_changelog_entry_date
_cod_changelog_entry_text
1 'Vaitkus, Antanas' 2023-12-08T19:22:00+02:00
;
 Corrected the ATOM_TYPE loop by changing data name
 '_atom_type_scat_dispersitom_type_scat_dispersion_imag' to
 '_atom_type_scat_dispersion_real' and adding the 
 '_atom_type_scat_dispersion_imag' data name.
;
