#------------------------------------------------------------------------------
#$Date: 2015-07-16 18:06:10 +0300 (Thu, 16 Jul 2015) $
#$Revision: 152131 $
#$URL: svn://www.crystallography.net/cod/cif/7/11/75/7117549.cif $
#------------------------------------------------------------------------------
#
# This file is available in the Crystallography Open Database (COD),
# http://www.crystallography.net/
#
# All data on this site have been placed in the public domain by the
# contributors.
#
data_7117549
loop_
_publ_author_name
'Jie Liu'
'Jieshun Cui'
'Filipe Vilela'
'Jun He'
'Matthias Zeller'
'Allen D. Hunter'
'Zhengtao Xu'
_publ_section_title
;
 In situ production of silver nanoparticles on an aldehyde-equipped
 conjugated porous polymer and subsequent heterogeneous reduction of
 aromatic nitro groups at room temperature
;
_journal_name_full               Chem.Commun.
_journal_page_first              12197
_journal_paper_doi               10.1039/C5cc04476F
_journal_volume                  51
_journal_year                    2015
_chemical_formula_sum            'C40 H20 O4 S8'
_chemical_formula_weight         821.04
_space_group_crystal_system      monoclinic
_space_group_IT_number           14
_space_group_name_Hall           '-P 2ybc'
_space_group_name_H-M_alt        'P 1 21/c 1'
_symmetry_space_group_name_Hall  '-P 2ybc'
_symmetry_space_group_name_H-M   'P 1 21/c 1'
_atom_sites_solution_hydrogens   geom
_atom_sites_solution_primary     direct
_atom_sites_solution_secondary   difmap
_audit_creation_method           SHELXL-2014/7
_audit_update_record
;
2015-05-15 deposited with the CCDC.
2015-06-24 downloaded from the CCDC.
;
_cell_angle_alpha                90
_cell_angle_beta                 96.5712(18)
_cell_angle_gamma                90
_cell_formula_units_Z            1
_cell_length_a                   3.9761(2)
_cell_length_b                   20.6573(11)
_cell_length_c                   9.8948(6)
_cell_measurement_reflns_used    7874
_cell_measurement_temperature    100(2)
_cell_measurement_theta_max      36.3080
_cell_measurement_theta_min      2.2945
_cell_volume                     807.38(8)
_computing_cell_refinement       'SAINT V8.34A (Bruker, 2014)'
_computing_data_collection       'Apex2 v2014.1-1 (Bruker, 2014)'
_computing_data_reduction        'SAINT V8.34A (Bruker, 2014)'
_computing_structure_refinement
;  
SHELXL-2014/7 (Sheldrick, 2014), 
SHELXLE Rev656 (H\"ubschle et al., 2011)
;
_computing_structure_solution    'SHELXS-97 (Sheldrick, 2008)'
_diffrn_ambient_temperature      100(2)
_diffrn_measured_fraction_theta_full 0.994
_diffrn_measured_fraction_theta_max 0.953
_diffrn_measurement_device_type  'Bruker AXS D8 Quest CMOS diffractometer'
_diffrn_measurement_method       'omega and phi scans'
_diffrn_radiation_monochromator  'laterally graded multilayer (Goebel) mirror'
_diffrn_radiation_type           MoK\a
_diffrn_radiation_wavelength     0.71073
_diffrn_reflns_av_R_equivalents  0.0233
_diffrn_reflns_av_unetI/netI     0.0280
_diffrn_reflns_laue_measured_fraction_full 0.994
_diffrn_reflns_laue_measured_fraction_max 0.953
_diffrn_reflns_limit_h_max       6
_diffrn_reflns_limit_h_min       -6
_diffrn_reflns_limit_k_max       33
_diffrn_reflns_limit_k_min       -34
_diffrn_reflns_limit_l_max       16
_diffrn_reflns_limit_l_min       -13
_diffrn_reflns_number            10104
_diffrn_reflns_point_group_measured_fraction_full 0.994
_diffrn_reflns_point_group_measured_fraction_max 0.953
_diffrn_reflns_theta_full        25.242
_diffrn_reflns_theta_max         36.308
_diffrn_reflns_theta_min         2.295
_diffrn_source                   'I-mu-S microsource X-ray tube'
_exptl_absorpt_coefficient_mu    0.602
_exptl_absorpt_correction_T_max  0.7471
_exptl_absorpt_correction_T_min  0.6454
_exptl_absorpt_correction_type   multi-scan
_exptl_absorpt_process_details   'Apex2 v2014.1-1 (Bruker, 2014)'
_exptl_crystal_colour            red
_exptl_crystal_density_diffrn    1.689
_exptl_crystal_description       rod
_exptl_crystal_F_000             420
_exptl_crystal_size_max          0.450
_exptl_crystal_size_mid          0.190
_exptl_crystal_size_min          0.170
_refine_diff_density_max         0.630
_refine_diff_density_min         -0.297
_refine_diff_density_rms         0.089
_refine_ls_extinction_coef       .
_refine_ls_extinction_method     none
_refine_ls_goodness_of_fit_ref   1.093
_refine_ls_hydrogen_treatment    constr
_refine_ls_matrix_type           full
_refine_ls_number_parameters     118
_refine_ls_number_reflns         3740
_refine_ls_number_restraints     0
_refine_ls_restrained_S_all      1.093
_refine_ls_R_factor_all          0.0399
_refine_ls_R_factor_gt           0.0341
_refine_ls_shift/su_max          0.001
_refine_ls_shift/su_mean         0.000
_refine_ls_structure_factor_coef Fsqd
_refine_ls_weighting_details
'w=1/[\s^2^(Fo^2^)+(0.0361P)^2^+0.5085P] where P=(Fo^2^+2Fc^2^)/3'
_refine_ls_weighting_scheme      calc
_refine_ls_wR_factor_gt          0.0827
_refine_ls_wR_factor_ref         0.0856
_reflns_Friedel_coverage         0.000
_reflns_friedel_fraction_full    .
_reflns_friedel_fraction_max     .
_reflns_number_gt                3360
_reflns_number_total             3740
_reflns_threshold_expression     'I > 2\s(I)'
_cod_data_source_file            c5cc04476f2.cif
_cod_data_source_block           Quest15mz002_0m
_cod_original_cell_volume        807.37(8)
_cod_database_code               7117549
_audit_block_doi                 10.5517/cc1j0zl3
_shelx_shelxl_version_number     2014/7
_shelx_space_group_comment
;
The symmetry employed for this shelxl refinement is uniquely defined
by the following loop, which should always be used as a source of
symmetry information in preference to the above space-group names.
They are only intended as comments.
;
_shelx_estimated_absorpt_t_min   0.773
_shelx_estimated_absorpt_t_max   0.905
_shelx_res_file
;

    Quest15mz002_0m.res created by SHELXL-2014/7


TITL Quest15mz002_0m in P2(1)/c
CELL 0.71073   3.9761   20.6573    9.8948   90.0000   96.5712   90.0000
ZERR    1.00   0.0002    0.0011    0.0006    0.0000    0.0018    0.0000
LATT  1
SYMM -X, 0.5+Y, 0.5-Z
SFAC C H O S
UNIT 40 20 4 8
LIST 4 ! automatically inserted. Change 6 to 4 for CHECKCIF!!
TEMP -173.16
SIZE 0.17 0.19 0.45

L.S. 5
FMAP 2
PLAN -20
ACTA
BOND $H
CONF
OMIT -4 2 10

WGHT    0.036100    0.508500
FVAR       1.02739
C1    1    0.949904    0.011462    0.635590    11.00000    0.00997    0.00916 =
         0.00632   -0.00002    0.00049   -0.00067
C2    1    0.840787    0.057760    0.536803    11.00000    0.00895    0.00815 =
         0.00793   -0.00030    0.00028    0.00016
C3    1    0.886935    0.045596    0.400000    11.00000    0.01015    0.00832 =
         0.00701   -0.00010    0.00030   -0.00025
C4    1    0.757891    0.091776    0.291054    11.00000    0.01503    0.01053 =
         0.00833    0.00100   -0.00040    0.00044
AFIX  43
H4    2    0.874053    0.094898    0.212580    11.00000   -1.20000
AFIX   0
C5    1    0.999461    0.103937    0.833644    11.00000    0.01151    0.00916 =
         0.00832   -0.00101    0.00206   -0.00043
C6    1    0.895545    0.150632    0.736170    11.00000    0.01111    0.00941 =
         0.00821   -0.00102    0.00127    0.00002
C7    1    0.982020    0.215404    0.760944    11.00000    0.01593    0.00926 =
         0.01180   -0.00063    0.00153   -0.00107
AFIX  43
H7    2    0.916871    0.247301    0.693861    11.00000   -1.20000
AFIX   0
C8    1    1.163378    0.233211    0.883725    11.00000    0.01717    0.01144 =
         0.01403   -0.00303    0.00110   -0.00297
AFIX  43
H8    2    1.214527    0.277501    0.901928    11.00000   -1.20000
AFIX   0
C9    1    1.270434    0.186182    0.980269    11.00000    0.01538    0.01462 =
         0.01104   -0.00270    0.00006   -0.00209
AFIX  43
H9    2    1.395684    0.198456    1.063884    11.00000   -1.20000
AFIX   0
C10   1    1.194111    0.121308    0.954339    11.00000    0.01412    0.01284 =
         0.00817   -0.00092    0.00027   -0.00058
AFIX  43
H10   2    1.274201    0.089048    1.018520    11.00000   -1.20000
AFIX   0
O1    3    0.511175    0.125667    0.297654    11.00000    0.01737    0.01443 =
         0.01333    0.00060   -0.00143    0.00451
S1    4    0.871011    0.022871    0.806592    11.00000    0.01597    0.00905 =
         0.00759   -0.00015    0.00315   -0.00184
S2    4    0.647137    0.130422    0.582692    11.00000    0.01185    0.00977 =
         0.00910   -0.00162   -0.00116    0.00262
HKLF 4

REM  Quest15mz002_0m in P2(1)/c
REM R1 =  0.0341 for    3360 Fo > 4sig(Fo)  and  0.0399 for all    3740 data
REM    118 parameters refined using      0 restraints

END

WGHT      0.0362      0.5143

REM Highest difference peak  0.630,  deepest hole -0.297,  1-sigma level  0.089
Q1    1   1.2336  0.1528  0.9788  11.00000  0.05    0.63
Q2    1   1.0944  0.1100  0.9008  11.00000  0.05    0.62
Q3    1   0.8704  0.0498  0.4643  11.00000  0.05    0.61
Q4    1   0.9229  0.1281  0.7883  11.00000  0.05    0.59
Q5    1   1.2140  0.2111  0.9374  11.00000  0.05    0.58
Q6    1   1.1795 -0.0688  0.6556  11.00000  0.05    0.57
Q7    1   0.9312  0.1819  0.7429  11.00000  0.05    0.56
Q8    1   1.0226 -0.0181  0.6133  11.00000  0.05    0.56
Q9    1   1.0769  0.2267  0.8209  11.00000  0.05    0.51
Q10   1   0.8961  0.0345  0.5770  11.00000  0.05    0.51
Q11   1   0.9074  0.0155  0.7233  11.00000  0.05    0.41
Q12   1   0.6508  0.1059  0.2926  11.00000  0.05    0.41
Q13   1   0.4947  0.1377  0.5631  11.00000  0.05    0.40
Q14   1   0.6960  0.0281  0.7797  11.00000  0.05    0.39
Q15   1   0.5424  0.1222  0.6413  11.00000  0.05    0.39
Q16   1   0.7733  0.1380  0.6767  11.00000  0.05    0.37
Q17   1   0.7182  0.0937  0.5428  11.00000  0.05    0.36
Q18   1   0.9528  0.0637  0.8167  11.00000  0.05    0.35
Q19   1   1.0437  0.0170  0.8328  11.00000  0.05    0.34
Q20   1   0.6285  0.1608  0.5387  11.00000  0.05    0.31
;
_shelx_res_checksum              30373
_shelx_hkl_file
;
   1   0   0 9066.36 221.633   2
  -1   0   0 8568.21 221.129   2
   2   0   0 -1.8086 0.87359   2
   2   0   0 -1.3438 0.61946   1
  -2   0   0 -1.2930 0.69610   2
   3   0   0 151.381 6.83252   1
  -3   0   0 149.705 7.57102   2
   3   0   0 148.659 7.01064   2
  -4   0   0 840.137 27.1118   2
   4   0   0 821.642 25.2883   1
   5   0   0 61.5362 5.48748   1
   6   0   0 268.163 12.4773   1
   1  -1   0 440.912 12.1574   2
  -1  -1   0 425.009 12.2699   2
  -1   1   0 421.388 12.0832   2
   1   1   0 430.815 11.9109   1
   1   1   0 447.140 12.2583   2
  -2  -1   0 143.659 6.37420   2
   2  -1   0 136.219 5.34522   1
   2  -1   0 139.722 5.90726   2
  -2   1   0 140.811 6.21003   2
   2   1   0 141.190 5.89732   2
   3  -1   0 787.496 22.9768   1
  -3  -1   0 800.018 24.6464   2
   3  -1   0 788.762 24.0838   2
  -3   1   0 790.313 24.2863   2
   3   1   0 798.762 23.3916   1
   3   1   0 803.050 24.1742   2
   4  -1   0 260.666 10.6425   1
  -4  -1   0 257.641 11.8749   2
   4   1   0 267.106 8.19606   3
   4   1   0 270.691 11.0697   1
  -4   1   0 265.155 11.8738   2
  -5  -1   0 115.616 7.96866   2
   5  -1   0 110.598 6.95387   1
   5   1   0 103.139 6.96194   1
   6  -1   0 15.3614 4.60601   1
   6   1   0 15.9090 4.84607   1
  -1  -2   0 2540.93 67.5751   2
   1  -2   0 2695.01 68.0715   2
   1   2   0 2664.52 70.5068   1
  -1   2   0 2667.32 68.8530   2
   1   2   0 2662.68 68.1231   2
  -2  -2   0 32.6506 2.77233   2
   2  -2   0 35.8838 2.45288   2
   2  -2   0 32.3682 1.98777   1
   2   2   0 34.7200 2.59342   1
  -2   2   0 34.3091 2.69203   2
   2   2   0 38.4414 2.47572   2
   3  -2   0 636.342 20.0933   2
  -3  -2   0 624.012 20.5850   2
   3  -2   0 647.454 18.9247   1
   3   2   0 593.115 19.3076   1
  -3   2   0 647.899 20.2939   2
   3   2   0 640.643 20.0836   2
  -4  -2   0 574.576 20.7710   2
   4  -2   0 570.217 18.5485   1
   4   2   0 577.097 19.3048   1
   4   2   0 573.870 16.1084   3
  -5  -2   0 127.700 8.40120   2
   5  -2   0 121.367 7.14218   1
   5   2   0 117.328 7.29721   1
   6   2   0 4.47522 4.81712   1
  -1  -3   0 9504.58 243.989   2
   1  -3   0 9516.53 240.585   2
   1   3   0 9869.25 238.564   3
   1   3   0 9999.99 243.206   2
   1   3   0 9362.10 242.433   1
   2  -3   0 262.434 9.23276   2
  -2  -3   0 259.829 9.87750   2
   2   3   0 274.200 9.44069   2
   2   3   0 257.510 9.24354   1
  -3  -3   0 277.429 11.6212   2
   3  -3   0 293.247 11.0976   2
   3  -3   0 291.567 10.0905   1
   3   3   0 283.364 10.8556   2
   3   3   0 282.012 10.8852   1
  -4  -3   0 9.05767 2.51689   2
   4  -3   0 7.73151 2.02897   1
   4   3   0 7.44417 1.68910   3
   4   3   0 5.07073 2.03094   1
  -5  -3   0 358.939 16.0350   2
   5  -3   0 362.679 13.7549   1
   5   3   0 366.025 14.7751   1
   6  -3   0 43.8619 6.26781   1
   6   3   0 40.6879 5.86675   1
   0  -4   0 1995.05 51.4060   1
   0  -4   0 1959.72 52.4671   3
   0   4   0 1921.43 51.1572   1
   0   4   0 2017.19 52.4996   3
  -1  -4   0 9700.14 243.155   1
  -1  -4   0 9363.35 242.830   2
   1   4   0 9791.59 239.442   3
   1   4   0 9581.16 243.427   1
  -2  -4   0 52.3036 3.67696   2
   2  -4   0 55.9658 3.23516   2
   2   4   0 53.7012 3.21938   2
   2   4   0 57.4226 3.57104   1
   2   4   0 57.7262 2.60570   3
   3  -4   0 964.233 26.4241   1
  -3  -4   0 909.525 28.8080   2
   3  -4   0 974.747 28.3946   2
   3   4   0 931.299 27.7868   1
   3   4   0 993.201 25.5863   3
   3   4   0 972.216 28.2548   2
  -4  -4   0 104.726 7.04706   2
   4  -4   0 103.432 5.58258   1
   4   4   0 99.3689 4.74128   3
   4   4   0 100.107 6.48491   1
  -5  -4   0 74.7248 6.57150   2
   5  -4   0 63.5944 4.95121   1
   5   4   0 75.1297 5.69410   1
   6  -4   0 79.6318 7.11026   1
  -6  -4   0 88.3766 9.21832   2
   6   4   0 72.9044 7.67826   1
   0  -5   0 3.59472 0.37424   1
   0   5   0 2.22405 0.43990   3
  -1  -5   0 208.838 7.04011   1
   1  -5   0 210.503 6.01700   3
  -1  -5   0 204.910 7.14878   2
   1   5   0 203.291 6.96727   1
   1   5   0 210.616 6.66751   3
  -2  -5   0 3955.91 106.018   2
   2  -5   0 4305.84 105.615   2
   2   5   0 4359.41 107.042   3
   2   5   0 4366.85 105.860   2
  -3  -5   0 1.26872 1.34442   2
   3  -5   0 -0.5813 1.90856   2
   3   5   0 -0.8153 2.08039   2
   3   5   0 1.20163 1.36527   1
   3   5   0 -0.5655 1.08291   3
   4  -5   0 118.857 6.06486   1
  -4  -5   0 128.603 7.99745   2
   4   5   0 116.540 5.41976   3
   4   5   0 121.577 7.13001   1
  -5  -5   0 40.1656 6.45301   2
   5  -5   0 47.4878 4.28219   1
   5   5   0 47.7382 5.01155   1
  -6  -5   0 108.445 10.2087   2
   6   5   0 107.915 8.50871   1
   0  -6   0 298.700 9.04100   3
   0  -6   0 304.513 8.57901   1
   0   6   0 299.888 8.96534   3
   0   6   0 293.181 8.41460   1
  -1  -6   0 13.1401 1.25907   1
   1  -6   0 12.9118 0.91646   3
  -1  -6   0 12.2347 1.19912   2
   1  -6   0 12.6725 0.63040   1
  -1   6   0 14.9036 0.80744   3
   1   6   0 12.5503 1.21149   1
   1   6   0 12.0066 1.07522   3
  -2  -6   0 53.3407 3.77862   2
   2  -6   0 54.6847 3.20438   2
   2  -6   0 52.5398 2.02132   3
   2   6   0 55.0580 2.87436   3
   2   6   0 50.8184 3.11654   2
   2   6   0 53.9694 3.67923   1
   3  -6   0 3.37153 1.95612   2
   3  -6   0 3.69019 1.25165   1
  -3  -6   0 2.88367 1.44887   2
   3   6   0 0.33944 2.09871   2
   3   6   0 2.62894 1.24273   3
   3   6   0 2.39317 1.40290   1
   4  -6   0 410.869 13.4810   1
  -4  -6   0 409.081 16.6055   2
   4   6   0 395.331 15.3481   1
   4   6   0 382.045 12.6864   3
   5  -6   0 316.885 11.7508   1
   5   6   0 299.787 13.7419   1
  -6  -6   0 37.3275 6.72127   2
   6   6   0 41.7229 7.19435   1
   0  -7   0 0.92555 0.36133   1
   0   7   0 0.03445 0.42406   3
  -1  -7   0 556.648 15.5493   1
   1  -7   0 543.514 14.5059   3
  -1  -7   0 450.154 17.4057   2
   1  -7   0 554.409 13.3897   1
  -1   7   0 538.074 13.9293   3
   1   7   0 511.733 15.4187   1
   1   7   0 559.085 15.2093   3
   2  -7   0 6479.16 160.833   3
   2  -7   0 6465.48 162.284   2
  -2  -7   0 6339.43 165.730   2
   2   7   0 6489.15 171.309   1
   2   7   0 6663.82 164.292   3
   3  -7   0 631.525 16.2527   3
   3  -7   0 646.500 20.1941   2
  -3  -7   0 601.652 21.1826   2
   3   7   0 652.974 18.4569   3
   3   7   0 624.367 19.9729   2
   3   7   0 610.217 20.1808   1
  -4  -7   0 148.520 8.71441   2
   4  -7   0 153.261 6.53018   1
   4  -7   0 140.362 4.36585   3
   4   7   0 144.484 8.09504   1
   4   7   0 130.791 6.33128   3
  -5  -7   0 165.985 11.2465   2
   5  -7   0 163.451 7.56264   1
   5   7   0 165.324 9.54010   1
  -6  -7   0 128.627 11.3257   2
   6   7   0 157.774 9.93787   1
   0  -8   0 9253.30 223.588   1
   0  -8   0 8328.58 223.592   3
   0   8   0 9080.82 222.303   1
   1  -8   0 211.282 5.63452   1
   1  -8   0 207.799 6.72954   3
  -1  -8   0 184.255 7.76330   1
   1   8   0 211.690 7.29052   3
   1   8   0 182.289 8.11955   1
  -1   8   0 213.313 6.26545   3
   2  -8   0 354.217 11.6756   2
   2  -8   0 351.346 9.96109   3
  -2  -8   0 336.955 12.5764   2
   2   8   0 352.184 11.1309   3
   2   8   0 328.442 11.9331   1
   3  -8   0 96.0059 4.10432   1
   3  -8   0 88.0125 5.37212   2
  -3  -8   0 98.3169 6.40342   2
   3  -8   0 95.2969 3.41686   3
   3   8   0 99.5315 5.98262   1
   3   8   0 92.6975 4.69405   3
   4  -8   0 263.548 7.65134   3
   4  -8   0 276.074 9.60810   1
  -4  -8   0 273.744 12.9570   2
   4   8   0 248.340 9.66981   3
   4   8   0 263.234 11.8321   1
  -5  -8   0 5.15035 3.69650   2
   5  -8   0 2.02670 2.41410   1
   5   8   0 4.52905 3.64948   1
  -6  -8   0 190.598 12.5722   2
   6   8   0 188.753 11.1715   1
   0  -9   0 0.93894 0.52113   1
   0   9   0 -0.5746 0.60634   3
  -1  -9   0 3566.11 88.9528   3
  -1  -9   0 3358.36 86.5467   1
   1  -9   0 3588.15 86.8325   1
   1  -9   0 3540.93 91.2737   3
   1   9   0 3521.11 86.5461   3
   1   9   0 3293.68 87.9009   1
  -1   9   0 3496.50 85.0890   3
  -2  -9   0 8.33497 1.68561   2
   2  -9   0 8.74172 0.69701   1
   2  -9   0 10.4069 1.07705   3
   2   9   0 10.2742 1.45329   3
   2   9   0 9.31032 1.71593   1
   3  -9   0 1416.36 39.8055   2
   3  -9   0 1446.92 35.9755   3
  -3  -9   0 1404.41 41.2617   2
   3  -9   0 1434.65 36.3724   1
   3   9   0 1400.80 38.0603   3
   3   9   0 1394.58 39.9264   1
  -4  -9   0 406.592 17.1059   2
   4  -9   0 396.844 12.5868   1
   4  -9   0 387.997 11.1369   3
   4   9   0 396.697 15.7328   1
   5  -9   0 452.216 14.3859   1
  -5  -9   0 456.359 19.5621   2
   5   9   0 434.586 20.3470   1
  -6  -9   0 90.3429 10.0437   2
   6   9   0 69.3300 8.44894   1
   0 -10   0 6.06027 1.42674   3
   0 -10   0 6.48388 1.00928   1
   0  10   0 9.18088 0.99396   1
  -1 -10   0 106.711 5.10599   3
   1 -10   0 100.908 4.44214   3
   1 -10   0 108.890 3.49951   1
  -1 -10   0 99.1999 4.58673   1
   1  10   0 106.777 4.75124   3
  -1  10   0 103.659 4.03364   3
   1  10   0 105.358 4.91815   1
  -2 -10   0 72.7883 4.87385   2
   2 -10   0 72.9889 2.43690   1
   2 -10   0 73.4790 3.39192   3
   2  10   0 72.6780 3.97921   3
   2  10   0 71.2599 4.56345   1
   3 -10   0 248.488 7.72444   1
   3 -10   0 250.164 7.83817   3
   3 -10   0 241.579 10.0867   2
  -3 -10   0 247.799 11.4198   2
   3  10   0 236.952 9.22588   3
   3  10   0 235.367 10.4923   1
  -4 -10   0 982.351 32.6447   2
   4 -10   0 957.008 25.5100   3
   4 -10   0 992.079 26.4246   1
   4  10   0 973.169 30.7705   1
   5 -10   0 120.296 5.77252   1
  -5 -10   0 124.411 9.35936   2
   5  10   0 118.301 8.12472   1
  -6 -10   0 29.7410 6.96452   2
   6  10   0 19.9493 6.12242   1
   0 -11   0 1.89468 0.80312   3
   0 -11   0 1.12524 0.66457   1
   0  11   0 1.28051 0.76869   3
   0  11   0 1.67927 0.48051   1
   1 -11   0 391.015 10.5226   1
  -1 -11   0 381.947 12.7246   3
  -1 -11   0 396.275 12.5978   1
   1  11   0 367.693 12.2375   1
   1  11   0 380.648 12.3884   3
  -1  11   0 379.679 10.3350   1
  -1  11   0 381.825 11.3187   3
  -2 -11   0 64.4598 4.63599   2
   2 -11   0 67.1749 3.37369   3
   2 -11   0 69.0344 2.32134   1
   2  11   0 67.3797 4.52997   1
   2  11   0 72.4845 4.03567   3
   3 -11   0 559.070 18.9603   2
   3 -11   0 608.838 15.2063   1
  -3 -11   0 569.150 20.7665   2
   3 -11   0 591.874 15.7672   1
   3 -11   0 589.863 16.5108   3
   3  11   0 592.399 19.8530   1
   3  11   0 553.874 17.9869   3
   4 -11   0 71.2319 3.61632   3
  -4 -11   0 94.4719 7.02439   2
   4  11   0 80.8356 5.84091   1
  -5 -11   0 116.377 8.79214   2
   5  11   0 100.669 7.78121   1
  -6 -11   0 5.46648 6.82470   2
   6  11   0 11.0236 6.15596   1
   0 -12   0 4074.65 105.903   3
   0 -12   0 4166.95 101.375   1
   0  12   0 3838.55 104.467   1
   0  12   0 4211.27 101.179   3
  -1 -12   0 470.538 15.2928   3
  -1 -12   0 462.991 14.8340   1
   1 -12   0 479.336 14.8035   3
   1 -12   0 481.609 12.9316   1
  -1  12   0 475.122 13.8098   3
   1  12   0 462.332 14.7037   1
   1  12   0 489.585 15.0914   3
  -1  12   0 477.495 12.6999   1
   2 -12   0 44.5282 1.68383   1
  -2 -12   0 41.6502 3.54376   2
   2  12   0 41.6218 3.36762   1
   2  12   0 36.3413 3.11973   3
   3 -12   0 21.3236 4.25205   2
   3 -12   0 25.0324 1.29997   1
   3 -12   0 23.7527 1.59192   1
   3 -12   0 27.6991 2.17036   3
  -3 -12   0 26.0109 3.58473   2
   3  12   0 29.7572 3.24077   1
   3  12   0 32.7905 3.93762   3
  -4 -12   0 299.064 14.4120   2
   4 -12   0 292.215 8.79094   1
   4 -12   0 298.479 8.35681   1
   4 -12   0 293.079 9.48664   3
   4  12   0 292.953 13.2852   1
  -5 -12   0 2.09081 4.29588   2
   5  12   0 -0.7278 3.95281   1
  -6 -12   0 229.282 15.4308   2
   6  12   0 256.477 13.6963   1
   0 -13   0 1.24304 1.00395   3
   0 -13   0 0.20857 0.96041   1
   0  13   0 -0.8416 1.01741   3
   1 -13   0 26.9384 2.54490   3
  -1 -13   0 26.0052 2.70096   3
   1 -13   0 28.8467 1.63694   1
  -1 -13   0 25.6518 2.43765   1
  -1  13   0 28.0387 1.48975   1
   1  13   0 27.1165 2.43191   1
   1  13   0 21.8132 2.27192   3
  -2 -13   0 2177.21 59.3889   2
   2 -13   0 2262.74 56.8872   3
   2 -13   0 2223.87 53.9453   1
   2  13   0 2205.34 58.0098   3
   2  13   0 2195.48 58.3982   1
  -3 -13   0 0.97928 1.87020   2
   3 -13   0 1.36833 0.57923   1
   3 -13   0 2.74671 1.77733   3
   3 -13   0 2.47803 0.72725   1
   3  13   0 4.64792 1.78272   1
  -4 -13   0 75.6680 6.70351   2
   4 -13   0 80.3137 4.75356   3
   4 -13   0 79.5354 2.71382   1
   4 -13   0 79.5587 2.92931   1
   4  13   0 79.4929 6.18762   1
  -5 -13   0 140.926 9.92661   2
   5  13   0 126.526 9.08425   1
  -6 -13   0 54.9863 8.80839   2
   6  13   0 81.7323 9.71019   1
   0 -14   0 -0.7943 0.86233   3
   0 -14   0 0.21509 1.03790   1
   0  14   0 -0.4776 1.28568   3
   0  14   0 -0.8246 0.63019   1
   1 -14   0 146.966 6.72707   3
  -1 -14   0 146.882 7.07644   3
  -1 -14   0 147.745 6.61173   1
   1 -14   0 150.464 5.13405   1
  -1  14   0 146.782 5.77097   3
   1  14   0 128.397 6.10209   3
   1  14   0 145.965 6.45610   1
  -1  14   0 149.646 4.86202   1
   2 -14   0 44.8230 3.32381   3
  -2 -14   0 41.3033 3.65814   2
   2 -14   0 36.4957 1.65336   1
   2  14   0 41.4240 3.52553   1
   3 -14   0 302.828 10.7294   3
  -3 -14   0 306.435 13.7291   2
   3  14   0 294.510 12.6543   1
  -4 -14   0 13.4636 3.66547   2
   4 -14   0 11.6502 2.34373   3
   4  14   0 14.3520 3.07510   1
  -5 -14   0 5.66172 4.84173   2
   5  14   0 -0.2343 4.19020   1
  -6 -14   0 10.6014 8.43157   2
   6  14   0 19.3604 7.13547   1
   0 -15   0 -0.4108 1.03725   3
   0 -15   0 1.29907 1.18390   1
   0  15   0 1.17580 1.31181   3
   0  15   0 1.49736 0.75328   1
  -1 -15   0 655.303 21.0354   3
  -1 -15   0 656.747 20.3151   1
   1 -15   0 681.339 20.5946   3
   1 -15   0 684.553 18.2683   1
  -1  15   0 670.152 17.7996   1
   1  15   0 662.792 19.9718   1
  -1  15   0 678.516 19.3128   3
  -2 -15   0 996.612 30.9478   2
   2 -15   0 1028.22 25.3991   1
   2 -15   0 1062.32 28.9995   3
   2  15   0 963.730 29.5658   1
  -3 -15   0 21.6263 3.36519   2
   3 -15   0 17.7306 2.77958   3
   3  15   0 19.7584 3.29286   1
  -4 -15   0 27.2429 5.15955   2
   4 -15   0 22.4199 3.44296   3
   4  15   0 29.1543 4.39762   1
  -5 -15   0 63.2003 8.16128   2
   5  15   0 55.7686 6.64981   1
   0 -16   0 152.287 6.24353   1
   0 -16   0 139.342 7.22835   3
   0  16   0 159.224 6.93760   3
   0  16   0 154.093 5.93046   1
   1 -16   0 2163.54 56.4995   3
  -1 -16   0 2159.42 57.2441   3
   1 -16   0 2190.08 53.7692   1
  -1 -16   0 2137.77 56.3601   1
  -1  16   0 2221.12 55.1714   3
   1  16   0 2091.45 55.5252   1
   1  16   0 1995.60 56.2672   3
  -1  16   0 2158.68 53.1893   1
   2 -16   0 60.0190 2.36777   1
   2 -16   0 60.8240 4.29610   3
  -2 -16   0 64.3466 4.97869   2
   2  16   0 63.2808 4.55517   1
   3 -16   0 164.882 7.55598   3
  -3 -16   0 166.481 9.46436   2
   3  16   0 169.893 9.04335   1
   4 -16   0 7.86643 2.34911   3
  -5 -16   0 3.12763 5.12229   2
   5  16   0 12.3681 4.69714   1
   0 -17   0 -0.6874 1.48795   1
   0 -17   0 1.92408 1.22628   3
   0  17   0 0.98843 0.81970   1
   0  17   0 0.27719 1.71768   3
   1 -17   0 503.379 16.6375   3
   1 -17   0 494.563 14.1570   1
  -1 -17   0 497.268 17.0474   3
  -1 -17   0 479.974 16.0540   1
   1  17   0 436.199 15.6381   3
  -1  17   0 426.338 14.5897   1
   1  17   0 499.447 15.7008   1
  -1  17   0 501.887 15.1090   3
  -2 -17   0 170.010 9.05875   2
   2 -17   0 170.658 8.01279   3
   2 -17   0 169.521 5.12612   1
   2  17   0 165.906 8.14261   1
   3 -17   0 384.932 13.7341   3
  -3 -17   0 370.574 16.3925   2
   3  17   0 392.480 15.5079   1
   4 -17   0 62.5664 5.22618   3
  -4 -17   0 59.0849 6.52168   2
   4  17   0 58.3479 5.64197   1
  -5 -17   0 257.974 14.9192   2
   5  17   0 282.130 14.0047   1
   0 -18   0 592.774 17.9195   1
   0 -18   0 586.461 19.8479   3
   0  18   0 586.018 17.1120   1
   0  18   0 594.632 18.8485   3
   1 -18   0 123.422 6.82615   3
   1 -18   0 106.557 5.43945   1
  -1 -18   0 121.992 6.81956   3
  -1  18   0 109.845 5.27725   3
  -1  18   0 111.250 5.86335   1
   1  18   0 123.361 6.06965   1
   2 -18   0 242.259 10.2422   3
  -2 -18   0 250.672 11.7143   2
   2  18   0 242.849 10.5640   1
  -3 -18   0 -1.9846 2.51199   2
   3 -18   0 2.51227 1.98055   3
   3  18   0 1.74135 2.20482   1
  -4 -18   0 333.749 16.3708   2
   4 -18   0 332.060 12.8098   3
   4  18   0 339.396 15.0460   1
  -5 -18   0 162.069 11.9285   2
   5  18   0 181.301 10.5899   1
   0 -19   0 1.81364 1.90825   1
   0  19   0 -0.9171 2.28609   3
  -1 -19   0 7.98110 1.90839   3
   1 -19   0 11.3323 2.44000   3
   1 -19   0 8.77838 1.52308   1
  -1  19   0 11.1560 1.43832   1
   1  19   0 11.6926 2.09175   1
  -1  19   0 8.11791 2.08848   3
   2 -19   0 7.07684 1.93961   3
  -2 -19   0 4.20131 1.85213   2
   2  19   0 6.71011 2.02966   1
   3 -19   0 147.009 7.71414   3
  -3 -19   0 152.241 9.62459   2
   3  19   0 140.070 8.10551   1
   4 -19   0 36.1635 5.17973   3
  -4 -19   0 42.3366 6.48544   2
   4  19   0 46.0936 5.31436   1
  -5 -19   0 8.82180 6.60016   2
   5  19   0 12.4991 5.85241   1
   0 -20   0 1502.02 42.2755   3
   0 -20   0 1410.79 39.4933   1
   0  20   0 1476.01 38.4995   1
   1 -20   0 163.472 6.56053   1
   1 -20   0 176.429 8.94004   3
  -1  20   0 179.349 6.34420   1
  -1  20   0 169.675 7.40532   3
   1  20   0 175.346 7.75797   1
   2 -20   0 38.4101 4.09052   3
  -2 -20   0 32.6308 3.94163   2
   2  20   0 36.2574 3.75238   1
  -3 -20   0 25.6241 4.74937   2
   3 -20   0 29.3062 4.33096   3
   3  20   0 38.4105 4.21762   1
  -4 -20   0 275.887 14.5514   2
   4 -20   0 263.699 11.6584   3
   4  20   0 269.619 13.0705   1
  -5 -20   0 4.66265 7.03945   2
   5  20   0 1.41149 5.88790   1
   1 -21   0 25.8148 3.52348   3
   1  21   0 22.3442 2.63357   1
  -1  21   0 24.6126 2.07893   1
  -1  21   0 21.4722 2.79084   3
  -2 -21   0 1320.09 41.1060   2
   2 -21   0 1346.38 39.2924   3
   2  21   0 1360.77 38.8886   1
   3 -21   0 1.19509 2.61867   3
  -3 -21   0 -0.2677 3.47617   2
   3  21   0 2.54996 2.80302   1
  -4 -21   0 36.4804 6.08627   2
   4 -21   0 33.5630 6.22498   3
   4  21   0 36.8798 5.50907   1
  -5 -21   0 46.9794 7.35075   2
   5  21   0 39.9641 8.36275   1
   0 -22   0 31.8917 3.78044   3
   0  22   0 22.7511 2.30171   1
   1 -22   0 545.722 19.7337   3
  -1  22   0 552.134 15.6278   1
   1  22   0 552.326 17.6502   1
  -1  22   0 497.731 16.9936   3
   2 -22   0 156.237 8.59451   3
  -2 -22   0 155.419 9.35244   2
   2  22   0 153.473 8.07823   1
   3 -22   0 456.295 17.1141   3
  -3 -22   0 447.114 19.3757   2
   3  22   0 423.399 19.4489   1
   4 -22   0 47.6148 6.80494   3
  -4 -22   0 56.8269 7.82614   2
   4  22   0 37.8451 6.04192   1
  -5 -22   0 -13.141 8.12362   2
   5  22   0 0.63219 6.56682   1
   0 -23   0 9.44974 2.39664   3
   1 -23   0 40.3792 4.41912   3
   1  23   0 35.7270 3.07695   1
  -1  23   0 28.7467 2.40990   1
  -2 -23   0 54.6262 5.58753   2
   2 -23   0 50.8102 5.41614   3
   2  23   0 56.0913 4.80394   1
  -3 -23   0 5.66703 3.97146   2
   3 -23   0 9.41434 3.24844   3
   3  23   0 11.3420 3.30832   1
   4 -23   0 9.70367 5.00473   3
  -4 -23   0 -1.3436 5.49569   2
   4  23   0 -6.8691 4.49071   1
   0 -24   0 103.188 7.36375   3
   0  24   0 105.477 5.24244   1
   1 -24   0 1114.78 34.6109   3
  -1  24   0 1071.99 29.0878   1
   1  24   0 1080.00 31.3535   1
   2 -24   0 5.59572 2.90393   3
  -2 -24   0 5.83414 3.07249   2
   2  24   0 9.16593 2.54080   1
  -3 -24   0 255.612 14.0474   2
   3 -24   0 245.057 12.3823   3
   3  24   0 243.176 12.0162   1
  -4 -24   0 46.9106 7.30440   2
   4  24   0 31.7330 5.68840   1
   0 -25   0 10.7688 2.71667   3
   0  25   0 14.3355 2.38510   1
   1 -25   0 510.646 19.8947   3
   1  25   0 510.557 17.1516   1
   2 -25   0 349.378 15.2870   3
  -2 -25   0 352.034 17.0711   2
   2  25   0 352.314 14.1236   1
   3 -25   0 2.21727 3.98534   3
  -3 -25   0 -5.5767 4.76646   2
   3  25   0 6.47084 3.79429   1
  -4 -25   0 76.7539 10.2935   2
   4  25   0 53.3366 7.58531   1
   0 -26   0 982.978 32.7972   3
   0  26   0 990.357 27.8184   1
   1  26   0 19.9533 3.28637   1
  -2 -26   0 2.78800 3.66437   2
   2 -26   0 2.48506 3.35479   3
  -3 -26   0 58.2546 8.53370   2
   3  26   0 66.4686 6.67083   1
  -4 -26   0 109.508 11.5479   2
   4  26   0 84.5614 8.71632   1
   0  27   0 22.9423 2.95189   1
   1  27   0 221.091 9.55934   1
  -2 -27   0 67.2543 7.13166   2
   2 -27   0 69.1245 7.66973   3
   2  27   0 81.7202 6.00712   1
   3 -27   0 9.69125 5.07322   3
  -3 -27   0 0.22756 5.30100   2
   3  27   0 3.85485 4.42500   1
  -4 -27   0 76.7380 12.1664   2
   4  27   0 50.9385 8.87647   1
   0  28   0 1027.70 29.0295   1
   1 -28   0 22.9316 4.56108   3
   1  28   0 29.7544 3.85926   1
  -2 -28   0 110.863 9.25655   2
   2 -28   0 106.219 9.24778   3
   2  28   0 124.286 7.70449   1
  -3 -28   0 245.009 14.8143   2
   3 -28   0 231.517 13.8518   3
   3  28   0 249.380 12.3246   1
   0  29   0 20.9445 3.42933   1
   1 -29   0 439.390 19.4358   3
   1  29   0 468.630 16.1557   1
  -2 -29   0 119.328 9.84106   2
   2 -29   0 118.063 10.0015   3
   2  29   0 139.788 8.17856   1
  -3 -29   0 -2.5717 6.75266   2
   3 -29   0 -0.4556 6.61848   3
   0  30   0 27.7940 4.05544   1
  -1 -30   0 366.767 16.7855   2
   1  30   0 353.034 14.4130   1
  -2 -30   0 24.4567 5.31407   2
   2 -30   0 28.5202 5.77883   3
   2  30   0 33.1278 5.88713   1
  -3 -30   0 111.167 12.8452   2
   3  30   0 140.281 9.71288   1
   0  31   0 5.10891 3.13925   1
  -1 -31   0 81.5770 8.91508   2
   1  31   0 106.759 6.76483   1
  -2 -31   0 438.198 19.5866   2
   2  31   0 418.385 16.4088   1
  -1 -32   0 117.213 10.3693   2
   1  32   0 133.107 7.97457   1
  -2 -32   0 75.9275 10.3308   2
   2  32   0 58.4422 7.36784   1
  -1 -33   0 -0.1124 6.68376   2
   1  33   0 10.9339 4.64870   1
  -1 -34   0 27.0863 7.40970   2
   6   0  -1 2.89993 4.72970   1
  -5   0   1 5.12217 2.99326   2
   5   0  -1 0.66028 2.87397   1
   4   0  -1 3.08823 1.86504   1
  -4   0   1 1.48153 1.72219   2
   3   0  -1 0.85187 1.69734   2
  -3   0   1 2.69688 1.39245   2
   3   0  -1 -0.0805 1.15162   1
   2   0  -1 -0.8384 0.83791   2
   1   0  -1 -0.5843 0.28215   2
  -1   0   1 0.42907 0.28664   2
   1   0   1 -10.902 0.39960   2
  -1   0  -1 -11.560 0.32002   1
   1   0   1 -10.809 0.25350   1
  -1   0  -1 -10.991 0.36576   2
  -2   0  -1 -0.6820 0.81769   2
   2   0   1 0.34724 0.53020   1
   2   0   1 0.37852 0.92248   2
   3   0   1 -1.8621 2.01555   2
  -3   0  -1 4.08385 1.41877   2
   4   0   1 0.66467 1.54254   1
  -4   0  -1 -0.7899 1.96094   2
   5   0   1 0.57515 2.56314   1
   6   0   1 5.72580 4.74203   1
   6  -1  -1 62.4708 7.29035   1
   6   1  -1 79.5144 7.55182   1
  -5  -1   1 229.917 11.8446   2
   5  -1  -1 226.789 10.7119   1
   5   1  -1 229.213 10.9881   1
  -4  -1   1 522.692 18.9908   2
   4  -1  -1 519.824 13.6240   3
   4  -1  -1 520.061 17.7436   1
  -4   1   1 508.343 18.4674   2
   4   1  -1 520.935 18.0597   1
   4   1  -1 516.094 14.2639   3
   3  -1  -1 300.518 11.0043   1
  -3  -1   1 296.292 11.6641   2
   3  -1  -1 291.271 10.9304   2
   3   1  -1 308.855 8.49152   3
   3   1  -1 299.451 11.2314   1
   3   1  -1 300.040 11.0674   2
  -3   1   1 295.494 11.4925   2
  -2  -1   1 466.902 15.2691   2
   2   1  -1 492.610 14.8061   2
   2   1  -1 502.910 12.5720   3
  -1  -1   1 2661.33 71.0363   2
   1  -1  -1 2821.56 71.2510   2
   1   1  -1 2847.05 68.9720   3
   1   1  -1 2777.44 71.4164   2
  -1   1   1 2586.57 68.1764   2
   0  -1  -1 1955.85 50.3326   1
   0  -1  -1 1852.35 47.6086   2
   1  -1   1 377.075 11.1640   2
   1  -1   1 387.546 10.2070   1
  -1  -1  -1 374.144 11.2109   2
  -1  -1  -1 389.308 10.7006   1
   1   1   1 382.458 10.5818   1
  -1   1  -1 380.405 10.2724   1
   1   1   1 386.838 11.2769   2
  -1   1  -1 374.680 11.0882   2
   2  -1   1 990.278 26.6857   1
   2  -1   1 1042.88 28.4835   2
  -2  -1  -1 998.346 28.4517   2
  -2   1  -1 1007.06 28.2471   2
   2   1   1 1054.14 28.5153   2
   3  -1   1 2028.10 54.5506   2
   3  -1   1 2010.66 52.2140   1
  -3  -1  -1 2039.65 54.8649   2
  -3   1  -1 1994.87 54.3901   2
   3   1   1 2018.01 52.6874   1
   3   1   1 2053.79 54.5518   2
   4  -1   1 12.2705 2.42244   1
  -4  -1  -1 12.2193 2.63515   2
   4   1   1 12.1195 2.43963   1
  -4   1  -1 13.3683 2.47939   2
   5  -1   1 353.507 13.5828   1
   5   1   1 353.088 13.9751   1
   6   1   1 1.80272 4.71899   1
   6  -2  -1 228.241 11.5618   1
   6   2  -1 230.477 11.8040   1
   5  -2  -1 90.1730 6.54562   1
  -5  -2   1 90.8520 7.29664   2
   5   2  -1 93.6444 6.77548   1
   4  -2  -1 298.248 11.6810   1
  -4  -2   1 297.584 12.8872   2
  -4   2   1 292.289 12.2806   2
   4   2  -1 284.622 11.9785   1
   4   2  -1 287.085 8.96795   3
  -3  -2   1 672.176 21.2300   2
   3  -2  -1 677.829 20.5694   2
   3   2  -1 686.151 17.5996   3
   3   2  -1 638.750 20.2583   2
   3   2  -1 653.830 20.5129   1
  -3   2   1 631.947 20.4271   2
  -2  -2   1 266.548 9.96288   2
   2   2  -1 295.942 8.01243   3
   2   2  -1 279.918 9.58945   2
   0  -2  -1 2968.28 72.8199   2
   0  -2  -1 3036.40 74.1116   1
   0  -2   1 2701.06 73.6718   3
   0   2  -1 2963.34 74.3688   3
   0   2   1 2925.29 73.6663   1
  -1  -2  -1 996.421 26.4769   2
   1  -2   1 1015.58 26.2949   2
   1  -2   1 1014.91 26.7652   1
  -1  -2  -1 997.808 25.8969   1
   1   2   1 1005.07 26.3616   2
   1   2   1 1002.68 25.7952   1
   2  -2   1 271.184 9.76253   2
   2  -2   1 271.504 8.51157   1
  -2  -2  -1 273.472 10.2342   2
  -2   2  -1 271.888 9.90643   2
   2   2   1 276.798 9.30318   1
   2   2   1 286.299 9.92613   2
  -3  -2  -1 398.897 15.1803   2
   3  -2   1 426.042 14.8584   2
   3  -2   1 411.122 13.1654   1
   3   2   1 414.003 14.6700   2
   3   2   1 434.294 14.0663   1
  -3   2  -1 421.377 15.0245   2
  -4  -2  -1 687.181 23.8907   2
   4  -2   1 679.197 20.9404   1
   4   2   1 701.076 21.9005   1
  -5  -2  -1 381.655 18.9918   2
   5  -2   1 386.634 14.2080   1
   5   2   1 380.637 14.8711   1
   6  -2   1 2.11690 4.83460   1
   6   2   1 9.97042 4.92695   1
   6   3  -1 4.82071 5.12954   1
  -5  -3   1 12.6220 3.52270   2
   5  -3  -1 10.7481 3.44960   1
   5   3  -1 17.3665 3.28400   1
  -4  -3   1 956.974 30.0671   2
   4  -3  -1 931.345 27.7723   1
   4   3  -1 915.281 28.7951   1
   4   3  -1 943.793 25.1245   3
  -3  -3   1 304.404 12.1987   2
   3  -3  -1 318.864 11.4866   2
   3   3  -1 320.448 11.5174   2
   3   3  -1 304.474 11.7717   1
  -3   3   1 307.580 11.6112   2
  -2  -3   1 1633.98 44.0056   2
   2   3  -1 1664.88 43.7477   1
   2   3  -1 1704.68 41.6788   3
   2   3  -1 1688.40 43.7104   2
   1  -3  -1 735.866 17.5114   3
   1  -3  -1 679.517 18.3679   2
  -1  -3   1 700.385 18.0693   3
  -1  -3   1 696.316 18.9428   2
   1   3  -1 722.221 18.2384   3
   0  -3  -1 162.414 4.69124   1
   0  -3   1 159.657 4.89090   3
   0   3  -1 166.469 4.88719   3
   1  -3   1 3496.79 85.2567   1
  -1  -3  -1 3406.22 89.7151   2
   1  -3   1 3506.36 89.1980   2
   1   3   1 3262.52 89.3626   1
   1   3   1 3448.94 88.4553   2
   2  -3   1 959.868 25.1852   1
  -2  -3  -1 953.681 27.6259   2
   2  -3   1 1016.33 27.3859   2
   2   3   1 997.781 27.4024   2
   2   3   1 922.406 26.3087   1
   3  -3   1 66.4685 3.66970   1
   3  -3   1 61.6637 4.71905   2
  -3  -3  -1 70.6866 4.95478   2
   3   3   1 58.9055 4.17020   2
   3   3   1 63.6731 4.26932   1
  -4  -3  -1 91.8015 6.54537   2
   4  -3   1 85.4588 4.84506   1
   4   3   1 84.6614 5.45011   1
   5  -3   1 19.9382 3.52165   1
  -5  -3  -1 24.7344 6.86616   2
   5   3   1 18.7985 3.77148   1
   6  -3   1 186.556 11.7107   1
   6   3   1 206.816 10.7924   1
   6  -4  -1 34.3685 6.64867   1
  -6  -4   1 25.4493 5.44374   2
   6   4  -1 31.6518 5.45137   1
   5  -4  -1 1.12873 2.83465   1
  -5  -4   1 6.05163 3.31496   2
   5   4  -1 7.09647 3.10949   1
   4  -4  -1 178.266 8.20817   1
  -4  -4   1 186.102 9.68966   2
   4   4  -1 184.548 9.22037   1
   4   4  -1 184.652 6.71337   3
   3  -4  -1 5.72217 1.67769   2
  -3  -4   1 8.16746 2.00865   2
   3   4  -1 11.2802 2.34276   1
   3   4  -1 5.36133 1.86538   2
   3   4  -1 7.59026 1.04076   3
  -2  -4   1 522.179 16.4891   2
   2   4  -1 534.775 14.5088   3
   2   4  -1 529.684 15.9430   2
   2   4  -1 522.824 16.2480   1
   1  -4  -1 25.8756 1.16714   3
  -1  -4   1 23.9795 1.59348   2
  -1  -4   1 24.6330 1.40959   3
   1   4  -1 23.5462 1.38804   3
   0  -4  -1 282.658 8.02378   1
   0  -4   1 298.963 8.38953   3
   0   4  -1 302.542 8.32482   3
   0   4   1 283.390 8.37575   3
   0   4   1 297.079 8.01885   1
   1  -4   1 5.54444 0.37930   1
   1   4   1 5.75276 0.76118   1
   1   4   1 5.42290 0.85459   2
   2  -4   1 145.203 6.23278   2
  -2  -4  -1 150.629 7.02541   2
   2  -4   1 152.108 5.05644   1
   2   4   1 152.819 6.29811   1
   2   4   1 147.110 6.33720   2
   3  -4   1 208.337 7.46999   1
  -3  -4  -1 204.078 9.65787   2
   3  -4   1 204.136 8.96720   2
   3   4   1 192.410 8.61776   2
   3   4   1 202.312 8.60576   1
   4  -4   1 17.8582 2.35060   1
  -4  -4  -1 17.1606 3.49849   2
   4   4   1 14.7702 2.57421   1
   4   4   1 12.8494 2.15507   3
   5  -4   1 0.76096 2.34582   1
   5   4   1 4.35532 3.04960   1
   6   4   1 23.7768 5.13237   1
   6  -5  -1 2.36779 4.64680   1
  -6  -5   1 10.8425 5.25860   2
   6   5  -1 6.65165 5.33312   1
  -5  -5   1 0.80327 3.43172   2
   5  -5  -1 -2.5264 2.73218   1
   5   5  -1 -2.6667 3.04691   1
   4  -5  -1 226.337 9.40560   1
  -4  -5   1 225.470 11.0499   2
   4   5  -1 227.553 7.99518   3
   4   5  -1 225.801 10.6929   1
   3  -5  -1 171.201 7.55080   2
  -3  -5   1 165.459 8.46575   2
   3   5  -1 183.709 6.40044   3
   3   5  -1 178.593 8.28723   1
   3   5  -1 166.327 7.51468   2
  -2  -5   1 436.560 14.6708   2
   2  -5  -1 454.447 14.0534   2
   2  -5  -1 466.947 11.5864   3
   2   5  -1 471.116 13.1159   3
   2   5  -1 449.031 14.6011   1
   1  -5  -1 0.21823 0.28114   3
  -1  -5   1 0.36784 0.34153   3
   1   5  -1 -0.0378 0.50454   1
   1   5  -1 -0.1837 0.40884   3
  -1   5   1 0.61837 0.20943   3
   0  -5   1 1777.37 45.3014   3
   0  -5  -1 1707.40 44.3795   1
   0  -5  -1 1640.63 43.0894   3
   0   5   1 1819.04 44.2456   3
   0   5  -1 1750.19 44.7139   1
   0   5   1 1753.29 45.8763   1
   0   5  -1 1667.74 42.9107   3
  -1  -5  -1 4031.10 107.541   2
   1  -5   1 4106.97 103.393   3
  -1  -5  -1 4154.80 106.446   1
   1   5   1 4076.23 107.220   1
   1   5   1 4111.32 104.915   2
   2  -5   1 3341.88 82.3668   2
  -2  -5  -1 3285.93 81.8850   1
   2  -5   1 3342.55 84.0410   1
  -2  -5  -1 3140.60 82.7220   2
   2   5   1 3418.99 82.5332   2
   2   5   1 3003.81 81.3096   1
  -3  -5  -1 47.7934 4.23934   2
   3  -5   1 46.8380 3.65697   2
   3   5   1 41.9544 3.95337   2
   3   5   1 51.8693 3.90080   1
  -4  -5  -1 182.322 9.82134   2
   4  -5   1 170.409 7.12783   1
   4   5   1 173.433 8.61625   1
   4   5   1 165.115 6.96997   3
   5  -5   1 178.510 7.97629   1
  -5  -5  -1 192.907 12.1094   2
   5   5   1 183.695 9.65965   1
  -6  -5  -1 62.0149 9.13987   2
   6   5   1 62.2737 7.78015   1
  -6  -6   1 50.0300 8.91918   2
   6   6  -1 62.8294 7.95379   1
  -5  -6   1 67.7668 6.68300   2
   5  -6  -1 63.8790 5.39375   1
   5   6  -1 57.0816 5.99234   1
  -4  -6   1 6.33783 2.22034   2
   4  -6  -1 6.69300 1.95653   1
   4   6  -1 5.67769 2.09942   3
   4   6  -1 4.38054 2.25901   1
   3  -6  -1 1428.59 39.4388   2
  -3  -6   1 1363.84 40.4544   2
   3   6  -1 1436.27 39.9548   1
   3   6  -1 1463.91 37.3265   3
   2  -6  -1 2643.87 64.5175   3
   2  -6  -1 2661.04 66.2826   2
  -2  -6   1 2584.19 67.2030   2
   2   6  -1 2632.38 65.2737   3
   2   6  -1 2558.34 66.8587   1
   1  -6  -1 39.1864 1.65922   1
   1  -6  -1 43.3669 1.93536   3
  -1  -6   1 44.2917 2.22216   3
  -1   6   1 39.8106 1.65888   3
   1   6  -1 38.6007 2.07450   3
   1   6  -1 40.0329 2.38817   1
   0  -6  -1 1541.56 38.7748   1
   0  -6   1 1569.04 39.3223   3
   0  -6  -1 1587.18 39.4759   3
   0   6   1 1638.61 39.4031   3
   0   6  -1 1488.26 39.1059   3
   0   6  -1 1544.29 39.8414   1
   0   6   1 1552.63 40.8251   1
  -1  -6  -1 1192.01 30.2571   1
   1  -6   1 1138.78 29.0552   3
  -1  -6  -1 1076.00 30.2103   2
   1   6   1 1189.96 30.0035   3
   1   6   1 1111.70 29.8803   1
  -2  -6  -1 206.966 8.06850   1
   2  -6   1 206.148 6.19610   1
   2  -6   1 217.069 8.19451   2
  -2  -6  -1 205.482 8.86484   2
   2   6   1 216.403 8.24565   2
   2   6   1 213.797 8.24455   1
  -3  -6  -1 611.645 21.0259   2
   3  -6   1 601.572 17.2026   1
   3  -6   1 618.003 19.9493   2
   3   6   1 606.061 19.8239   2
   3   6   1 624.543 17.9592   3
   3   6   1 617.428 19.5555   1
  -4  -6  -1 162.230 9.35328   2
   4  -6   1 161.779 6.65051   1
   4   6   1 164.497 8.43973   1
   4   6   1 145.387 6.76108   3
  -5  -6  -1 414.647 17.9505   2
   5  -6   1 402.724 13.5898   1
   5   6   1 400.780 16.1937   1
  -6  -6  -1 118.711 10.9694   2
   6   6   1 138.113 9.48242   1
  -6  -7   1 56.4631 9.09422   2
   6   7  -1 62.4410 8.03249   1
  -5  -7   1 135.188 13.5122   2
   5  -7  -1 145.024 7.54000   1
   5   7  -1 143.336 8.68999   1
  -4  -7   1 153.097 8.93856   2
   4  -7  -1 157.583 7.26609   1
   4   7  -1 158.967 8.79660   1
   4   7  -1 155.337 6.61748   3
   3  -7  -1 233.457 6.67933   3
   3  -7  -1 232.301 9.34084   2
  -3  -7   1 229.959 10.5535   2
   3   7  -1 247.154 8.47712   3
   3   7  -1 231.018 10.1940   1
   2  -7  -1 218.530 6.52205   3
  -2  -7   1 205.103 8.77272   2
   2  -7  -1 213.627 7.86867   2
   2   7  -1 226.310 7.67415   3
   2   7  -1 219.849 8.80758   1
   1  -7  -1 6829.98 164.448   1
   1  -7  -1 6647.84 168.601   3
  -1  -7   1 6391.97 167.245   3
   1   7  -1 6285.34 169.586   1
   1   7  -1 6961.38 170.454   3
  -1   7   1 6607.62 164.607   3
   0  -7  -1 926.302 23.4746   1
   0  -7   1 878.049 23.9279   3
   0  -7  -1 920.432 24.1375   3
   0   7  -1 905.498 23.8508   3
   0   7  -1 895.898 23.1287   1
   0   7   1 906.993 23.2408   1
   0   7   1 932.163 24.0044   3
   1  -7   1 348.171 10.1312   3
   2  -7   1 623.270 18.5332   2
  -2  -7  -1 577.721 19.1453   2
   2  -7   1 617.372 15.5910   1
  -2  -7  -1 623.719 18.6163   1
   2  -7   1 606.087 16.1930   3
   2   7   1 631.168 18.6099   2
   2   7   1 615.153 17.6425   3
   2   7   1 569.935 18.1655   1
  -3  -7  -1 2307.68 62.8401   2
   3  -7   1 2350.63 61.8812   2
   3  -7   1 2325.02 57.6203   1
   3  -7   1 2322.94 57.0487   3
   3   7   1 2200.44 60.6944   1
   3   7   1 2388.98 59.4365   3
   3   7   1 2299.46 61.5459   2
   4  -7   1 28.0290 2.61937   1
   4  -7   1 23.7374 1.75612   3
  -4  -7  -1 29.8787 4.32485   2
   4   7   1 29.9944 3.73324   1
   4   7   1 22.8981 4.12656   3
  -5  -7  -1 129.421 9.19167   2
   5  -7   1 140.491 6.40687   1
   5   7   1 135.708 8.18759   1
  -6  -7  -1 10.9085 6.30620   2
   6   7   1 1.56448 5.52210   1
  -6  -8   1 11.7663 5.95341   2
   6   8  -1 23.1583 6.06360   1
  -5  -8   1 214.020 14.9541   2
   5  -8  -1 231.719 9.57978   1
   5   8  -1 195.738 13.1399   1
  -4  -8   1 194.868 10.4837   2
   4  -8  -1 193.476 8.00882   1
   4   8  -1 179.091 7.73531   3
   4   8  -1 188.659 9.74770   1
   3  -8  -1 290.634 8.38928   3
   3  -8  -1 293.570 11.0127   2
  -3  -8   1 285.364 12.3154   2
   3   8  -1 289.220 11.9101   1
   3   8  -1 296.815 10.0514   3
  -2  -8   1 1087.80 31.7930   2
   2  -8  -1 1179.31 30.8603   2
   2  -8  -1 1147.72 28.9531   3
   2   8  -1 1102.65 30.2382   3
   2   8  -1 1138.74 31.6806   1
   1  -8  -1 38.1317 2.01848   3
   1  -8  -1 34.0206 1.60967   1
  -1   8   1 38.3803 1.80532   3
   1   8  -1 33.5269 2.09256   3
   0  -8  -1 1798.67 45.3315   1
   0  -8   1 1809.93 46.0384   3
   0  -8  -1 1784.38 46.0839   3
   0   8   1 1891.98 46.0693   3
   0   8  -1 1771.80 45.7722   3
   0   8  -1 1796.26 45.7248   1
   0   8   1 1817.68 47.8516   1
  -1  -8  -1 97.5117 4.80330   2
   1  -8   1 94.1904 3.94650   3
  -1  -8  -1 97.5572 4.45201   1
   1   8   1 98.3776 4.50096   1
   1   8   1 96.4259 4.33436   3
  -1   8  -1 95.7929 3.56035   3
  -2  -8  -1 86.7885 5.23774   2
  -2  -8  -1 79.4873 4.36999   1
   2  -8   1 87.5786 3.44682   3
   2  -8   1 77.6505 4.32668   2
   2  -8   1 87.7272 2.66000   1
   2   8   1 87.5479 4.81859   1
   2   8   1 85.2940 4.09824   3
   3  -8   1 655.753 17.5193   3
  -3  -8  -1 649.963 22.3865   2
   3  -8   1 665.512 17.5254   1
   3  -8   1 636.046 20.8710   2
   3   8   1 667.666 20.9949   1
   3   8   1 639.471 21.5651   2
   3   8   1 656.582 19.4001   3
   4  -8   1 1048.17 27.4751   1
   4  -8   1 1006.33 26.3774   3
  -4  -8  -1 992.157 33.2175   2
   4   8   1 1043.18 31.4383   1
   5  -8   1 246.829 9.02640   1
  -5  -8  -1 259.932 13.5886   2
   5   8   1 238.565 16.0989   1
  -6  -8  -1 78.6080 10.1198   2
   6   8   1 59.1371 8.50617   1
  -6  -9   1 46.8670 9.60504   2
   6   9  -1 51.5624 8.33030   1
   5  -9  -1 7.32697 2.77767   1
  -5  -9   1 6.56255 3.72575   2
   5   9  -1 8.28403 4.12073   1
   4  -9  -1 55.7528 3.92408   1
  -4  -9   1 60.3846 5.53735   2
   4  -9  -1 48.7861 2.49110   3
   4   9  -1 55.6481 5.10095   1
  -3  -9   1 180.397 9.18203   2
   3  -9  -1 188.888 5.91554   3
   3  -9  -1 165.869 7.63182   2
   3   9  -1 172.539 8.67200   1
   3   9  -1 172.518 7.04613   3
   2  -9  -1 36.0181 1.69833   1
   2  -9  -1 37.3652 2.03071   3
  -2  -9   1 34.3610 3.10827   2
   2  -9  -1 37.6454 2.52942   2
   2   9  -1 31.5586 2.45622   3
  -1  -9   1 1536.88 40.2057   3
   1  -9  -1 1544.00 39.5498   3
   1  -9  -1 1586.30 38.3522   1
  -1   9   1 1531.16 38.9147   3
   1   9  -1 1521.15 40.2409   1
   1   9  -1 1543.18 40.1176   3
   0  -9  -1 323.689 9.67608   1
   0   9  -1 310.271 9.25441   1
   0   9   1 322.750 10.1931   3
   0   9  -1 330.140 10.0977   3
   0   9   1 318.670 9.38499   1
   1  -9   1 1247.55 31.3847   3
  -1  -9  -1 1162.62 32.1390   2
  -1  -9  -1 1209.07 32.0638   1
  -1   9  -1 1187.77 30.5239   3
   1   9   1 1246.97 32.0854   3
   1   9   1 1115.61 31.4932   1
  -2  -9  -1 1.39176 1.42364   1
   2  -9   1 5.45720 0.97091   3
  -2  -9  -1 3.54228 1.34716   2
   2   9   1 3.73012 1.20001   3
   2   9   1 2.21490 1.13898   1
   3  -9   1 1471.47 41.9056   2
   3  -9   1 1499.42 37.2754   1
  -3  -9  -1 1488.40 43.4645   2
   3  -9   1 1484.28 37.9716   3
   3   9   1 1493.57 40.2101   3
   3   9   1 1517.92 41.7101   1
   4  -9   1 227.580 8.34164   1
  -4  -9  -1 240.357 12.1107   2
   4  -9   1 224.554 7.32148   3
   4   9   1 245.734 11.0537   1
  -5  -9  -1 31.9638 5.81123   2
   5  -9   1 25.2197 3.11222   1
   5   9   1 27.7524 4.73256   1
  -6  -9  -1 3.42809 6.70787   2
   6   9   1 2.73996 5.88402   1
  -6 -10   1 337.405 17.4732   2
   6  10  -1 336.103 16.0751   1
  -5 -10   1 56.9813 7.00931   2
   5 -10  -1 60.8381 4.80721   1
   5  10  -1 69.5902 6.20775   1
  -4 -10   1 371.270 16.1652   2
   4 -10  -1 366.981 10.7542   3
   4 -10  -1 382.287 12.4759   1
   4  10  -1 360.205 15.0949   1
  -3 -10   1 161.875 8.68507   2
   3 -10  -1 162.745 7.48368   2
   3 -10  -1 168.725 5.78462   3
   3  10  -1 151.713 6.77588   3
   3  10  -1 167.294 8.53763   1
  -2 -10   1 1233.90 36.2656   2
   2 -10  -1 1343.81 32.6031   1
   2 -10  -1 1327.56 33.7753   3
   2  10  -1 1253.09 35.9238   1
   2  10  -1 1339.97 35.1333   3
   1 -10  -1 4751.88 115.347   1
   1 -10  -1 4572.16 117.423   3
  -1 -10   1 4354.67 117.301   3
   1  10  -1 4742.97 114.014   3
   1  10  -1 4643.86 120.706   1
  -1  10   1 4633.58 114.198   3
   0 -10  -1 4860.12 128.307   3
   0 -10   1 4740.20 127.111   3
   0 -10  -1 5145.05 126.902   1
   0  10  -1 4950.46 126.655   1
   0  10   1 4941.36 126.950   1
   0  10   1 4973.36 126.228   3
   0  10  -1 4807.23 121.792   3
  -1 -10  -1 868.170 24.5258   1
  -1 -10  -1 875.563 24.7571   2
   1 -10   1 847.482 24.5606   3
   1  10   1 878.349 24.2232   1
  -1  10  -1 894.212 23.2082   3
   1  10   1 892.552 24.5808   3
   2 -10   1 126.638 4.93841   3
  -2 -10  -1 115.951 5.71805   1
  -2 -10  -1 123.956 6.74889   2
   2  10   1 121.955 6.12480   1
   2  10   1 130.829 5.75236   3
   3 -10   1 14.6648 0.98280   1
   3 -10   1 11.7593 2.70947   2
   3 -10   1 14.4339 1.46917   3
  -3 -10  -1 11.6518 2.50779   2
   3  10   1 14.1616 2.20402   3
   3  10   1 16.8065 2.41860   1
   4 -10   1 812.083 21.5545   1
  -4 -10  -1 815.403 28.5492   2
   4 -10   1 813.735 22.0545   3
   4  10   1 835.885 26.7708   1
  -5 -10  -1 173.705 10.8918   2
   5  10   1 170.398 9.64609   1
  -6 -10  -1 76.5210 10.2627   2
   6  10   1 67.3011 8.56611   1
  -6 -11   1 -2.5264 7.00025   2
   6  11  -1 8.62209 6.03904   1
  -5 -11   1 8.21097 4.20237   2
   5 -11  -1 5.72980 2.62707   1
   5  11  -1 9.63389 3.78486   1
   4 -11  -1 427.734 12.5385   3
   4 -11  -1 431.708 13.6967   1
  -4 -11   1 424.559 18.0656   2
   4  11  -1 434.254 17.2261   1
   3 -11  -1 557.120 15.4039   1
   3 -11  -1 555.521 18.0920   2
  -3 -11   1 542.218 19.7547   2
   3 -11  -1 562.716 15.7443   3
   3  11  -1 537.914 19.0603   1
   3  11  -1 531.480 17.2289   3
   2 -11  -1 62.2055 2.49381   1
  -2 -11   1 63.7154 4.43962   2
   2 -11  -1 60.4710 3.15108   3
   2  11  -1 65.0672 4.52751   1
   2  11  -1 59.9174 3.60029   3
   1 -11  -1 1333.05 32.5927   1
  -1 -11   1 1275.17 34.6926   3
  -1  11   1 1321.19 33.3838   3
   1  11  -1 1251.53 34.4241   3
   1  11  -1 1255.18 34.3426   1
   0 -11  -1 2023.65 56.2124   1
   0 -11  -1 2183.76 56.4210   3
   0 -11   1 2229.68 56.4188   3
   0  11  -1 2242.96 56.0180   3
   0  11   1 2324.16 56.3008   3
   0  11  -1 2198.10 55.8398   1
   1 -11   1 0.92933 0.83446   3
  -1 -11  -1 0.95964 1.03297   1
  -1 -11  -1 1.04941 0.72236   2
  -1  11  -1 0.62540 0.69472   3
   1  11   1 1.72073 1.00016   3
   1  11   1 1.49339 0.88976   1
  -2 -11  -1 435.802 15.0773   1
   2 -11   1 449.844 14.0821   3
  -2 -11  -1 464.452 16.2716   2
   2  11   1 458.923 14.7032   3
   2  11   1 468.882 15.3828   1
   3 -11   1 186.314 6.69217   3
  -3 -11  -1 190.294 9.85598   2
   3  11   1 186.702 8.89470   1
   3  11   1 184.143 7.85618   3
   4 -11   1 57.7498 3.13857   3
  -4 -11  -1 50.5376 5.42017   2
   4 -11   1 51.8216 2.19921   1
   4 -11   1 55.3310 2.15276   1
   4  11   1 57.0367 5.16449   1
  -5 -11  -1 102.447 9.19366   2
   5  11   1 111.907 7.68129   1
  -6 -11  -1 112.332 11.7178   2
   6  11   1 100.473 9.62350   1
  -6 -12   1 21.9530 7.59664   2
   6  12  -1 8.08067 6.13599   1
  -5 -12   1 228.323 12.9223   2
   5  12  -1 229.963 12.0462   1
  -4 -12   1 9.41537 3.14477   2
   4 -12  -1 7.82188 1.85043   1
   4 -12  -1 6.61693 1.53241   3
   4 -12  -1 6.27673 1.57188   1
   4  12  -1 0.85281 2.56067   1
  -3 -12   1 616.372 21.8716   2
   3 -12  -1 621.130 17.8184   3
   3 -12  -1 604.089 19.9073   2
   3 -12  -1 636.472 16.5878   1
   3  12  -1 627.200 20.0192   3
   3  12  -1 625.970 21.1755   1
  -2 -12   1 1.08851 1.20482   2
   2  12  -1 0.04863 1.42481   3
   2  12  -1 -1.3996 1.05004   1
   1 -12  -1 26.1263 2.43023   3
   1 -12  -1 25.8748 1.54386   1
  -1 -12   1 26.8435 2.52995   3
   1  12  -1 21.5889 2.13865   1
  -1  12   1 25.4690 1.79839   3
  -1  12   1 26.0805 1.54139   1
   1  12  -1 23.5277 2.35244   3
   0 -12  -1 249.260 9.30480   3
   0 -12   1 228.125 9.05193   3
   0 -12  -1 253.884 8.33681   1
   0  12   1 232.633 8.60557   3
   0  12  -1 259.771 8.83557   3
   0  12  -1 239.403 7.72963   1
   0  12   1 247.904 8.02378   1
   1 -12   1 1669.29 43.7061   3
  -1 -12  -1 1676.98 44.1876   1
  -1  12  -1 1696.84 42.7099   3
   1  12   1 1727.38 44.3587   3
   1  12   1 1587.29 43.4211   1
  -1  12  -1 1656.83 41.9475   1
  -2 -12  -1 476.350 16.8044   2
  -2 -12  -1 462.324 15.9242   1
   2 -12   1 482.236 14.7544   3
   2  12   1 470.491 15.8274   1
   2  12   1 465.712 15.2954   3
  -3 -12  -1 14.0334 2.96169   2
   3  12   1 17.3879 2.69676   1
   4 -12   1 139.383 5.66593   3
  -4 -12  -1 136.849 9.02789   2
   4  12   1 138.930 8.19935   1
  -5 -12  -1 580.636 23.4874   2
   5  12   1 564.357 21.2487   1
  -6 -12  -1 10.8059 7.36181   2
   6  12   1 -1.1017 6.23048   1
  -6 -13   1 5.73595 7.98552   2
   6  13  -1 -5.9971 6.41630   1
  -5 -13   1 37.6461 6.83975   2
   5  13  -1 31.7087 5.84185   1
   4 -13  -1 37.5296 3.01388   1
   4 -13  -1 33.4316 2.34399   1
   4 -13  -1 33.7646 2.90184   3
  -4 -13   1 28.4609 4.85955   2
   4  13  -1 37.8085 4.58910   1
   3 -13  -1 30.2747 4.34733   2
  -3 -13   1 36.8570 3.99696   2
   3 -13  -1 29.6391 1.72546   1
   3  13  -1 33.5314 3.57061   1
   2 -13  -1 117.104 5.46488   3
   2 -13  -1 111.792 3.89344   1
  -2 -13   1 118.767 6.65983   2
   2  13  -1 111.768 6.19474   1
   2  13  -1 96.3939 5.22155   3
   1 -13  -1 242.612 9.23665   3
  -1 -13   1 246.118 9.63899   3
   1 -13  -1 252.438 7.76975   1
   1  13  -1 243.353 9.05524   3
   1  13  -1 235.522 9.06143   1
  -1  13   1 246.175 7.62495   1
   0 -13   1 2.05670 0.97585   3
   0 -13  -1 2.83935 0.89198   1
   0 -13  -1 2.89541 1.00565   3
   0  13   1 1.86385 1.12384   3
   0  13   1 4.33674 0.91644   1
   0  13  -1 1.74749 0.98560   3
   0  13  -1 2.86834 0.65520   1
  -1 -13  -1 14.3948 2.09364   1
   1 -13   1 16.3315 2.05073   3
  -1  13  -1 18.2080 0.92922   1
   1  13   1 13.2971 2.14396   3
  -2 -13  -1 0.59915 2.19919   1
   2 -13   1 0.04942 0.99660   3
  -2 -13  -1 -0.0809 1.24090   2
   2  13   1 -3.2887 1.91115   3
   2  13   1 0.64757 1.14343   1
   3 -13   1 21.5317 2.51142   3
  -3 -13  -1 18.5650 3.30144   2
   3  13   1 24.5534 3.06472   1
   4 -13   1 364.551 12.2593   3
  -4 -13  -1 372.184 16.7130   2
   4  13   1 351.512 14.8112   1
  -5 -13  -1 125.512 9.70327   2
   5  13   1 124.599 8.01873   1
  -6 -13  -1 2.21427 8.18919   2
   6  13   1 9.00343 6.23508   1
  -6 -14   1 5.89202 8.24449   2
   6  14  -1 5.26305 7.12967   1
  -5 -14   1 2.96522 4.61091   2
   5  14  -1 12.3307 4.54338   1
   4 -14  -1 125.950 6.98036   3
  -4 -14   1 132.910 9.23082   2
   4  14  -1 133.028 8.38486   1
  -3 -14   1 1447.55 43.2088   2
   3 -14  -1 1466.55 36.1634   1
   3 -14  -1 1401.05 40.7475   2
   3 -14  -1 1467.16 38.7045   3
   3  14  -1 1437.14 41.8501   1
   2 -14  -1 979.795 24.8125   1
  -2 -14   1 986.669 29.5966   2
   2 -14  -1 996.434 27.2753   3
   2  14  -1 924.353 27.7738   3
   2  14  -1 928.289 28.3944   1
  -1 -14   1 73.4501 4.69748   3
   1 -14  -1 74.8734 4.50940   3
   1 -14  -1 77.4605 3.34656   1
  -1  14   1 70.1228 3.56558   1
   1  14  -1 74.0489 4.27255   1
   1  14  -1 71.1472 4.20498   3
  -1  14   1 71.8818 3.72946   3
   0 -14  -1 1181.61 34.0382   3
   0 -14  -1 1271.19 32.9492   1
   0 -14   1 1232.28 34.1346   3
   0  14   1 1235.73 33.6871   3
   0  14  -1 1272.10 33.6343   3
   0  14   1 1188.68 32.0517   1
  -1 -14  -1 4617.55 113.646   1
   1 -14   1 4423.07 113.165   3
   1  14   1 4625.04 113.854   3
  -1  14  -1 4487.22 112.988   1
   1  14   1 4547.09 116.909   1
  -1  14  -1 4553.34 111.995   3
  -2 -14  -1 306.836 12.5383   2
   2 -14   1 310.965 10.8456   3
  -2 -14  -1 276.441 11.2934   1
   2  14   1 308.057 11.6473   1
   2  14   1 278.598 10.9539   3
  -3 -14  -1 381.335 16.1581   2
   3 -14   1 386.638 12.9452   3
   3  14   1 390.848 14.9552   1
   4 -14   1 80.4041 4.90305   3
  -4 -14  -1 76.3199 6.68643   2
   4  14   1 83.2458 6.17031   1
  -5 -14  -1 1069.70 37.2987   2
   5  14   1 1062.77 34.4374   1
  -5 -15   1 9.80426 5.12817   2
   5  15  -1 15.2562 4.38578   1
   4 -15  -1 545.617 17.1721   3
  -4 -15   1 543.475 21.9684   2
   4 -15  -1 536.989 14.7181   1
   4  15  -1 545.454 20.5670   1
   3 -15  -1 244.169 7.20730   1
  -3 -15   1 242.467 12.0741   2
   3 -15  -1 246.920 9.53637   3
   3  15  -1 250.933 11.4757   1
   2 -15  -1 290.428 8.60217   1
  -2 -15   1 288.462 12.2518   2
   2 -15  -1 297.769 10.8817   3
   2  15  -1 283.372 11.5478   1
   1 -15  -1 224.385 9.08888   3
  -1 -15   1 223.362 9.39164   3
   1 -15  -1 184.121 8.46506   1
   1  15  -1 213.820 8.60746   3
   1  15  -1 204.098 8.39093   1
  -1  15   1 227.461 8.00594   3
   0 -15   1 1726.53 45.6862   3
   0 -15  -1 1731.80 44.2487   1
   0 -15  -1 1593.23 45.4009   3
   0  15   1 1677.52 43.2911   1
   0  15   1 1620.92 44.8278   3
   0  15  -1 1694.47 43.1188   1
   0  15  -1 1781.85 45.1093   3
  -1 -15  -1 25.2774 2.73106   1
   1 -15   1 36.4334 3.08830   3
  -1  15  -1 32.0274 1.43717   1
  -1  15  -1 27.7948 2.36358   3
   1  15   1 26.1770 2.88381   3
   1  15   1 35.0625 2.83299   1
   2 -15   1 296.487 10.9547   3
  -2 -15  -1 290.428 12.4186   2
   2  15   1 290.030 11.5001   1
  -3 -15  -1 56.6449 5.46007   2
   3 -15   1 66.5044 4.31582   3
   3  15   1 64.0490 4.91370   1
   4 -15   1 95.2798 5.50107   3
  -4 -15  -1 83.0154 7.35774   2
   4  15   1 95.9606 6.63494   1
  -5 -15  -1 0.78692 4.95334   2
   5  15   1 9.37074 4.57554   1
  -5 -16   1 66.3221 9.12736   2
   5  16  -1 74.4135 7.81546   1
   4 -16  -1 70.7641 5.23981   3
  -4 -16   1 68.8658 7.23198   2
   4  16  -1 68.3791 8.75809   1
  -3 -16   1 26.3557 4.09149   2
   3 -16  -1 27.7097 3.22617   3
   3 -16  -1 29.7201 1.80836   1
   3  16  -1 30.6131 3.66777   1
   2 -16  -1 674.563 17.9189   1
   2 -16  -1 677.987 20.7723   3
  -2 -16   1 660.936 22.5139   2
   2  16  -1 649.367 21.3818   1
   1 -16  -1 76.7744 4.95683   3
  -1 -16   1 76.7105 5.16788   3
   1 -16  -1 82.0924 3.74038   1
   1  16  -1 73.7379 4.60207   3
   1  16  -1 77.8515 4.64718   1
  -1  16   1 81.0895 3.72541   1
  -1  16   1 84.0175 4.25804   3
   0 -16  -1 885.733 26.7895   3
   0 -16   1 876.919 26.5864   3
   0 -16  -1 929.406 25.3772   1
   0  16  -1 901.003 24.2259   1
   0  16   1 870.029 25.8767   3
   0  16   1 898.672 24.4363   1
   0  16  -1 914.115 25.9661   3
  -1 -16  -1 383.380 13.4275   1
   1 -16   1 402.555 13.9764   3
   1  16   1 373.377 12.9465   1
   1  16   1 377.131 13.6015   3
  -1  16  -1 388.325 10.5992   1
  -1  16  -1 384.185 12.3386   3
  -2 -16  -1 875.380 28.0375   2
   2 -16   1 911.323 26.2821   3
   2  16   1 873.269 26.6542   1
   3 -16   1 7.53871 1.91838   3
  -3 -16  -1 6.04996 2.33589   2
   3  16   1 5.69104 1.92101   1
   4 -16   1 945.845 26.0518   3
  -4 -16  -1 865.463 37.2059   2
   4  16   1 793.994 33.5924   1
  -5 -16  -1 254.927 14.2278   2
   5  16   1 241.860 12.9484   1
  -5 -17   1 155.968 12.1111   2
   5  17  -1 155.004 10.5523   1
  -4 -17   1 162.025 10.3588   2
   4 -17  -1 158.666 7.85309   3
   4  17  -1 154.537 9.74587   1
   3 -17  -1 218.470 9.32439   3
   3 -17  -1 210.387 6.31168   1
  -3 -17   1 221.038 11.6085   2
   3  17  -1 207.773 10.5813   1
   2 -17  -1 1287.78 32.9014   1
   2 -17  -1 1265.77 36.1118   3
  -2 -17   1 1313.12 38.4186   2
  -2  17   1 1267.59 32.9632   3
   2  17  -1 1282.72 36.8765   1
   1 -17  -1 226.734 7.83442   1
  -1 -17   1 222.044 9.87809   3
   1 -17  -1 227.722 9.84873   3
   1  17  -1 225.626 9.01760   1
  -1  17   1 234.218 8.54069   3
   1  17  -1 214.620 9.22098   3
  -1  17   1 228.674 7.71589   1
   0 -17   1 74.2537 5.00585   3
   0 -17  -1 68.0421 3.89972   1
   0 -17  -1 70.7636 5.08756   3
   0  17  -1 66.7159 4.11306   3
   0  17  -1 71.8188 3.64377   1
   0  17   1 81.1144 3.92995   1
   0  17   1 62.0669 4.05087   3
  -1 -17  -1 184.000 8.08069   1
   1 -17   1 190.625 8.67466   3
   1  17   1 188.890 7.88919   1
  -1  17  -1 185.806 5.70751   1
  -1  17  -1 191.004 7.21582   3
   1  17   1 152.915 7.39266   3
   2 -17   1 362.326 13.2207   3
  -2 -17  -1 349.370 14.4016   2
   2  17   1 347.044 13.2949   1
   3 -17   1 260.930 10.5916   3
  -3 -17  -1 263.064 12.9848   2
   3  17   1 256.949 11.7068   1
   4 -17   1 75.5161 5.87760   3
  -4 -17  -1 84.6735 7.65926   2
   4  17   1 85.0727 6.25624   1
  -5 -17  -1 56.2054 8.40789   2
   5  17   1 40.9416 7.02227   1
  -5 -18   1 46.0194 9.05584   2
   5  18  -1 49.8572 7.41660   1
  -4 -18   1 255.797 13.9028   2
   4 -18  -1 251.114 10.6392   3
   4  18  -1 244.375 12.6405   1
  -3 -18   1 9.30570 2.61041   2
   3 -18  -1 8.89707 1.44474   1
   3 -18  -1 11.8433 2.52186   3
   3  18  -1 12.0983 2.99490   1
  -2 -18   1 1386.64 42.0311   2
   2 -18  -1 1461.43 40.3353   3
   2 -18  -1 1455.24 36.6678   1
  -2  18   1 1418.98 36.7974   3
   2  18  -1 1438.26 40.6852   1
   1 -18  -1 878.957 24.1543   1
   1 -18  -1 845.018 26.6003   3
  -1 -18   1 838.187 26.8970   3
   1  18  -1 874.096 25.4595   1
  -1  18   1 912.474 25.2130   3
  -1  18   1 897.001 23.7574   1
   0 -18  -1 500.839 17.5769   3
   0 -18   1 486.710 17.2987   3
   0 -18  -1 486.906 15.5774   1
   0  18  -1 502.513 14.7154   1
   0  18  -1 495.720 16.1262   3
   0  18   1 481.963 16.1368   3
   0  18   1 492.700 14.9009   1
  -1 -18  -1 141.934 7.08552   1
   1 -18   1 156.368 7.81485   3
  -1  18  -1 151.615 6.41674   3
  -1  18  -1 160.401 5.09064   1
   1  18   1 152.788 7.02013   1
   2 -18   1 12.9310 2.49445   3
  -2 -18  -1 15.9605 2.76836   2
   2  18   1 11.8456 2.57362   1
   3 -18   1 0.35882 2.11238   3
   3  18   1 7.27257 2.29119   1
   4 -18   1 436.460 15.5070   3
  -4 -18  -1 437.718 19.6519   2
   4  18   1 436.470 17.6876   1
  -5 -18  -1 30.8025 5.99955   2
   5  18   1 26.9128 5.82579   1
  -5 -19   1 428.853 20.0695   2
   5  19  -1 410.729 18.3380   1
  -4 -19   1 17.5095 4.25305   2
   4 -19  -1 22.6600 4.05201   3
   4  19  -1 15.7119 3.60116   1
   3 -19  -1 370.795 13.9745   3
  -3 -19   1 347.857 16.1433   2
   3  19  -1 360.911 15.1645   1
   2 -19  -1 13.6668 2.40461   1
   2 -19  -1 18.1453 2.91647   3
  -2  19   1 16.8835 2.33064   3
   2  19  -1 20.6895 3.01249   1
  -1 -19   1 1933.65 53.4844   3
   1 -19  -1 1918.08 52.9456   3
   1 -19  -1 1949.01 50.0430   1
  -1  19   1 1952.68 51.1489   3
   1  19  -1 1927.49 51.2882   1
  -1  19   1 1951.90 49.3976   1
   0 -19  -1 4.87837 1.56638   3
   0 -19  -1 1.04255 2.03564   1
   0 -19   1 2.23155 1.43950   3
   0  19  -1 3.20656 0.97846   1
   0  19  -1 3.40492 2.42204   3
   0  19   1 4.10814 1.17579   1
   0  19   1 -1.7082 2.39228   3
   1 -19   1 37.1900 3.70193   3
  -1 -19  -1 24.8675 4.01194   1
   1  19   1 39.4096 3.08166   1
  -1  19  -1 36.4133 3.50735   3
  -1  19  -1 33.3997 1.80412   1
  -2 -19  -1 106.268 6.98251   2
   2 -19   1 111.292 6.55450   3
   2  19   1 105.144 6.40013   1
  -3 -19  -1 1556.88 47.6385   2
   3 -19   1 1560.63 43.7921   3
   3  19   1 1571.48 45.2930   1
  -4 -19  -1 -0.0436 4.07933   2
   4 -19   1 10.1333 3.28186   3
   4  19   1 3.91466 3.34072   1
  -5 -19  -1 79.9413 10.5635   2
   5  19   1 81.4102 8.27440   1
  -5 -20   1 55.5900 10.4418   2
   5  20  -1 52.4535 8.42539   1
  -4 -20   1 -3.9901 4.21024   2
   4 -20  -1 -3.9704 3.57895   3
   4  20  -1 1.88348 3.67586   1
  -3 -20   1 6.12541 2.94984   2
   3 -20  -1 1.86733 2.49502   3
   3  20  -1 2.27163 2.76855   1
   2 -20  -1 531.224 18.8204   3
  -2 -20   1 519.998 20.0294   2
   2  20  -1 533.992 18.6425   1
  -2  20   1 556.949 16.7491   3
   1 -20  -1 31.2881 2.85884   1
   1 -20  -1 44.0970 4.09816   3
  -1 -20   1 40.0562 3.78115   3
  -1  20   1 29.0269 3.74453   3
  -1  20   1 39.0483 2.52070   1
   1  20  -1 38.6684 3.21085   1
   0 -20  -1 257.807 9.94233   1
   0 -20  -1 270.628 11.8620   3
   0 -20   1 250.204 11.4263   3
   0  20  -1 271.476 9.21776   1
   0  20   1 270.630 9.48887   1
   1 -20   1 1396.12 39.0862   3
  -1  20  -1 1241.34 35.7653   1
  -1  20  -1 1363.55 36.7827   3
   1  20   1 1358.65 37.0669   1
   2 -20   1 9.65565 2.46615   3
  -2 -20  -1 15.8171 3.30817   2
   2  20   1 13.3984 2.64511   1
   3 -20   1 4.87246 2.45934   3
  -3 -20  -1 10.7530 2.97263   2
   3  20   1 7.21630 2.64653   1
   4 -20   1 214.479 10.2760   3
  -4 -20  -1 207.318 13.0884   2
   4  20   1 199.482 11.2531   1
  -5 -20  -1 8.56491 7.26122   2
   5  20   1 18.3655 5.80444   1
  -5 -21   1 76.8965 11.3298   2
   5  21  -1 61.2991 9.25295   1
  -4 -21   1 73.8287 8.89271   2
   4 -21  -1 85.8746 7.61381   3
   4  21  -1 94.7253 7.58549   1
   3 -21  -1 0.51469 2.69759   3
  -3 -21   1 0.08286 3.55320   2
   3  21  -1 4.05882 2.83166   1
   2 -21  -1 375.853 14.9015   3
  -2 -21   1 372.053 16.0570   2
   2  21  -1 389.057 14.7125   1
   1 -21  -1 1207.99 36.7123   3
  -1 -21   1 1238.04 37.2924   3
   1 -21  -1 1239.82 33.5755   1
  -1  21   1 1229.62 34.4618   3
  -1  21   1 1281.83 32.9800   1
   1  21  -1 1225.07 34.6429   1
   0 -21  -1 100.058 6.60771   3
   0 -21  -1 85.2221 5.26615   1
   0 -21   1 91.9143 6.31761   3
   0  21   1 94.5108 4.80460   1
   0  21  -1 95.8364 4.59174   1
   1 -21   1 119.958 7.14423   3
  -1  21  -1 98.3413 6.12953   3
   1  21   1 116.751 5.97875   1
   2 -21   1 521.310 18.7737   3
  -2 -21  -1 537.077 20.3409   2
   2  21   1 522.176 18.3492   1
   3 -21   1 371.150 14.3310   3
  -3 -21  -1 322.989 20.3274   2
   3  21   1 330.670 18.9644   1
   4 -21   1 35.8265 6.21159   3
  -4 -21  -1 45.7705 7.59135   2
   4  21   1 26.3283 5.59041   1
  -5 -21  -1 -6.2126 7.12105   2
   5  21   1 19.1626 6.33708   1
  -5 -22   1 9.97071 7.75389   2
   5  22  -1 -11.253 7.33277   1
  -4 -22   1 1.63085 4.86806   2
   4 -22  -1 6.35822 4.43401   3
   4  22  -1 14.1020 4.67612   1
  -3 -22   1 169.195 10.3881   2
   3 -22  -1 157.620 8.99350   3
   2 -22  -1 890.615 28.5608   3
  -2 -22   1 902.460 30.2545   2
   2  22  -1 905.893 27.9257   1
  -2  22   1 858.713 24.5118   3
   1 -22  -1 17.6290 3.46753   1
   1 -22  -1 28.0469 3.75942   3
  -1 -22   1 16.9020 3.45475   3
   1  22  -1 25.4594 2.72033   1
  -1  22   1 24.3523 2.25047   1
   0 -22   1 69.5498 5.50196   3
   0 -22  -1 55.3338 5.03802   1
   0 -22  -1 66.6874 5.53669   3
   0  22   1 66.1806 3.96209   1
   0  22  -1 70.9800 3.90209   1
   1 -22   1 117.184 7.28229   3
   1  22   1 112.213 6.05213   1
  -1  22  -1 117.140 4.55936   1
  -1  22  -1 92.0714 6.33007   3
   2 -22   1 82.6325 6.02046   3
  -2 -22  -1 78.0325 6.11598   2
   2  22   1 75.9725 5.27517   1
   3 -22   1 80.3914 6.38061   3
  -3 -22  -1 80.2244 7.20215   2
   3  22   1 79.3392 5.97777   1
  -4 -22  -1 51.6594 8.14072   2
   4 -22   1 43.1228 7.05032   3
   4  22   1 47.1940 6.09768   1
  -5 -22  -1 167.678 17.8355   2
  -4 -23   1 331.342 17.0977   2
   4  23  -1 355.791 15.7236   1
  -3 -23   1 339.372 16.2909   2
   3 -23  -1 337.406 14.6570   3
   3  23  -1 361.413 15.0436   1
  -2 -23   1 840.635 29.2324   2
   2 -23  -1 851.574 27.9090   3
   2  23  -1 844.481 26.7828   1
  -1 -23   1 86.2207 6.74328   3
   1 -23  -1 83.6487 5.17429   1
   1 -23  -1 88.4736 6.61088   3
  -1  23   1 88.9920 4.51410   1
   1  23  -1 97.1010 5.41355   1
  -1  23   1 69.8811 6.02371   3
   0 -23   1 1129.05 35.8456   3
   0 -23  -1 1215.82 35.6650   1
   0  23   1 1137.85 31.7497   1
   0  23  -1 1155.47 31.3668   1
   1 -23   1 284.702 12.8463   3
  -1  23  -1 274.472 12.1368   3
   1  23   1 279.935 10.9956   1
  -1  23  -1 283.423 8.90499   1
  -2 -23  -1 1163.95 37.1465   2
   2 -23   1 1167.75 35.6738   3
   2  23   1 1139.88 34.3585   1
  -3 -23  -1 6.80862 3.80776   2
   3 -23   1 -0.7982 3.35530   3
   3  23   1 4.09729 3.22266   1
   4 -23   1 86.0629 8.53305   3
  -4 -23  -1 86.5257 9.27559   2
   4  23   1 69.5114 7.36929   1
  -4 -24   1 133.964 11.4397   2
   4  24  -1 126.413 9.43667   1
   3 -24  -1 637.863 23.1550   3
  -3 -24   1 670.549 25.8470   2
   3  24  -1 637.516 23.0881   1
  -2 -24   1 7.65333 3.03751   2
   2 -24  -1 12.5785 3.11161   3
   2  24  -1 16.7445 3.50012   1
   1 -24  -1 115.101 8.07469   3
  -1 -24   1 119.873 7.94323   3
   1 -24  -1 99.1218 6.06495   1
   1  24  -1 121.084 6.31454   1
  -1  24   1 114.091 5.37672   1
   0  24  -1 17.2212 2.28862   1
   0  24   1 15.0270 2.35683   1
   1 -24   1 380.097 15.9323   3
  -1  24  -1 374.706 11.2651   1
   1  24   1 369.041 13.5713   1
   2 -24   1 218.589 11.2814   3
  -2 -24  -1 233.525 12.1037   2
   2  24   1 231.040 10.4445   1
  -3 -24  -1 129.466 9.38035   2
   3 -24   1 115.436 8.47867   3
   3  24   1 119.995 7.94748   1
  -4 -24  -1 26.8221 6.37593   2
   4  24   1 19.3372 4.68248   1
  -4 -25   1 4.14091 6.87475   2
   4  25  -1 -0.4935 5.17923   1
  -3 -25   1 220.725 13.1753   2
   3 -25  -1 231.665 11.9364   3
   3  25  -1 207.728 11.0113   1
   2 -25  -1 744.926 26.0042   3
  -2 -25   1 751.780 27.2477   2
   2  25  -1 710.405 24.0095   1
  -1 -25   1 298.938 13.8947   3
   1 -25  -1 309.641 14.1667   3
   1  25  -1 301.394 11.6272   1
   0 -25   1 4.15469 2.60973   3
   0  25  -1 4.03608 1.71813   1
   0  25   1 5.74298 1.80924   1
   1 -25   1 184.967 10.2544   3
   1  25   1 193.006 8.63068   1
   2 -25   1 156.395 9.62998   3
  -2 -25  -1 161.236 11.4253   2
   2  25   1 154.925 8.58021   1
  -3 -25  -1 68.6913 7.60066   2
   3 -25   1 52.0022 7.08746   3
   3  25   1 55.8798 5.71769   1
  -4 -25  -1 6.49780 6.92824   2
   4  25   1 -9.0126 5.41080   1
  -4 -26   1 -2.1876 7.43471   2
   4  26  -1 0.12476 5.54439   1
  -3 -26   1 463.760 20.5834   2
   3  26  -1 445.651 17.9885   1
   2 -26  -1 18.6406 3.71472   3
  -2 -26   1 12.1003 3.69064   2
   1  26  -1 23.2767 3.32583   1
   0 -26   1 319.161 14.9901   3
   0  26   1 338.575 11.7827   1
   0  26  -1 320.715 11.1803   1
  -1 -26  -1 720.261 25.4615   2
   1 -26   1 705.709 25.6783   3
   1  26   1 712.518 22.4139   1
  -2 -26  -1 93.6493 7.58890   2
   2 -26   1 85.6542 7.34411   3
   2  26   1 89.6846 6.28110   1
  -3 -26  -1 4.48605 5.10499   2
   3 -26   1 4.08483 5.88186   3
   3  26   1 1.73341 3.69989   1
  -4 -26  -1 21.0790 7.79790   2
   4  26   1 25.3473 5.81403   1
  -4 -27   1 22.3597 8.28247   2
   4  27  -1 24.4742 6.27242   1
  -3 -27   1 27.9620 5.66620   2
   3  27  -1 30.9673 5.96091   1
   2 -27  -1 52.5505 8.85536   3
  -2 -27   1 42.4698 6.54157   2
   2  27  -1 46.4074 5.08438   1
   1  27  -1 415.584 14.7361   1
   0 -27   1 399.093 17.7623   3
   0  27   1 427.282 14.1955   1
   0  27  -1 425.103 13.6415   1
  -1 -27  -1 6.57117 4.37641   2
   1 -27   1 4.72613 3.66210   3
   1  27   1 9.04239 2.53682   1
  -2 -27  -1 49.9087 6.30557   2
   2 -27   1 45.7433 6.48397   3
   2  27   1 43.5095 5.02396   1
   3 -27   1 416.297 18.3955   3
  -3 -27  -1 427.970 19.6790   2
   3  27   1 429.310 17.1331   1
  -4 -27  -1 11.2012 8.53959   2
   4  27   1 9.06348 6.05572   1
  -3 -28   1 18.4042 6.22612   2
   3  28  -1 7.29077 4.82288   1
  -2 -28   1 401.368 18.4498   2
   2  28  -1 382.565 15.2386   1
   1  28  -1 16.2067 2.83493   1
   0 -28   1 170.771 10.8213   3
   0  28  -1 187.066 7.68107   1
   0  28   1 184.638 8.06236   1
   1 -28   1 0.27405 3.60978   3
  -1 -28  -1 0.64023 3.73972   2
   1  28   1 0.35304 2.65267   1
   2 -28   1 173.807 10.7503   3
  -2 -28  -1 187.502 11.3734   2
   2  28   1 180.419 9.35263   1
  -3 -28  -1 24.2917 6.20649   2
   3 -28   1 14.1518 5.78597   3
   3  28   1 19.3161 4.81853   1
  -3 -29   1 86.2858 11.0504   2
   3  29  -1 80.1003 8.29587   1
  -2 -29   1 8.09615 4.66729   2
   2  29  -1 8.84386 3.77069   1
   1  29  -1 5.96798 2.89288   1
   0 -29   1 15.4284 4.47445   3
   0  29   1 20.6138 3.72159   1
   0  29  -1 21.9316 3.47124   1
   1 -29   1 43.7435 6.78078   3
  -1 -29  -1 40.8891 6.63813   2
   2 -29   1 369.377 17.1915   3
  -2 -29  -1 367.177 17.5893   2
   2  29   1 374.491 14.8936   1
   3 -29   1 110.139 10.6180   3
  -3 -29  -1 113.114 11.5952   2
   3  29   1 105.970 8.55677   1
  -3 -30   1 150.602 13.6082   2
   3  30  -1 172.725 10.6358   1
  -2 -30   1 270.269 14.6451   2
   2  30  -1 265.970 12.1330   1
   1  30  -1 190.077 11.2147   1
   0 -30   1 58.2394 7.96530   3
   0  30   1 77.2689 5.34473   1
   0  30  -1 78.3296 5.06198   1
  -1 -30  -1 -2.2696 4.65158   2
   1 -30   1 2.67072 4.74135   3
   1  30   1 6.12333 3.31478   1
  -2 -30  -1 5.10794 5.79737   2
   2 -30   1 6.75450 5.57328   3
   2  30   1 11.7555 4.01897   1
  -3 -30  -1 21.6722 8.08696   2
   3 -30   1 6.76133 7.40497   3
   3  30   1 3.74327 5.75076   1
  -2 -31   1 34.1556 6.59153   2
   2  31  -1 44.2396 5.94604   1
   1  31  -1 91.5517 6.75868   1
   0  31   1 89.8652 6.07572   1
   1 -31   1 98.0467 10.1677   3
  -1 -31  -1 118.790 9.81360   2
   1  31   1 105.421 7.30108   1
  -2 -31  -1 146.493 12.4795   2
   2 -31   1 151.230 12.6193   3
   2  31   1 177.212 9.95883   1
  -2 -32   1 43.8280 7.22230   2
   2  32  -1 52.9563 7.39529   1
   1  32  -1 24.4573 4.47918   1
   1 -32   1 401.136 19.0890   3
  -1 -32  -1 391.398 18.5239   2
   1  32   1 396.355 14.9851   1
   2 -32   1 25.4956 7.48258   3
  -2 -32  -1 30.5279 7.40271   2
   2  32   1 29.5757 5.66007   1
  -1 -33   1 -5.8185 6.80575   2
  -1 -33  -1 3.01808 6.55428   2
   1  33   1 7.49359 4.66610   1
   6   0  -2 229.250 12.0326   1
   5   0  -2 356.572 14.9872   1
  -5   0   2 382.393 15.8599   2
  -4   0   2 209.607 9.82861   2
   4   0  -2 188.745 6.58967   3
   4   0  -2 206.860 9.58900   1
  -3   0   2 530.064 17.4442   2
   3   0  -2 535.283 14.0418   3
   3   0  -2 538.100 16.9888   2
   2   0  -2 342.542 8.87670   3
   2   0  -2 332.402 10.5150   2
  -2   0   2 307.609 10.5217   2
   1   0  -2 8359.33 203.200   2
  -1   0   2 8279.81 200.776   3
   1   0  -2 8194.60 201.666   3
  -1   0   2 7878.12 203.036   2
   0   0  -2 2117.32 53.8321   1
  -1   0  -2 224.334 7.56206   2
   1   0   2 233.436 6.73092   1
  -1   0  -2 232.287 6.90659   1
   1   0   2 230.795 7.67592   2
  -2   0  -2 7473.69 197.949   2
   2   0   2 8055.34 192.646   2
  -2   0  -2 7272.29 188.314   1
   2   0   2 7677.86 197.565   1
   3   0   2 276.215 9.59886   1
  -3   0  -2 261.752 11.2116   2
   3   0   2 254.885 10.6662   2
  -4   0  -2 6.91315 2.26798   2
   4   0   2 11.4804 2.27885   1
   5   0   2 1.26987 2.62369   1
   6   0   2 576.872 19.6602   1
   6  -1  -2 33.0930 5.63211   1
   6   1  -2 36.2637 6.07502   1
   5  -1  -2 183.457 9.90707   1
  -5  -1   2 196.438 10.5084   2
   5   1  -2 184.032 9.87111   1
   4  -1  -2 198.283 9.33951   1
   4  -1  -2 193.711 5.85295   3
  -4  -1   2 196.426 9.69156   2
   4   1  -2 196.562 9.53953   1
   4   1  -2 201.464 6.42072   3
  -4   1   2 196.967 9.45177   2
   3  -1  -2 1010.20 28.0238   2
  -3  -1   2 930.202 28.2136   2
   3  -1  -2 996.341 24.2766   3
  -3   1   2 974.385 28.1722   2
   3   1  -2 956.242 27.7495   2
   3   1  -2 963.159 24.8205   3
   2  -1  -2 1099.48 28.7937   2
   2  -1  -2 1120.73 26.5980   3
  -2   1   2 1059.73 28.7546   2
   2   1  -2 992.693 29.8078   2
   2   1  -2 1109.05 27.0608   3
   1  -1  -2 4977.98 125.063   2
  -1  -1   2 4816.02 127.086   2
  -1  -1   2 5039.27 124.489   3
  -1   1   2 4981.63 122.988   3
  -1   1   2 4974.19 124.648   2
   1   1  -2 5112.76 125.449   3
   0  -1  -2 881.937 22.6474   1
   0   1   2 846.119 22.2102   1
   0   1   2 834.716 21.9414   2
   1  -1   2 1.19678 0.53029   2
  -1  -1  -2 2.71629 0.54383   1
   1   1   2 2.18332 0.42246   1
  -1   1  -2 2.04061 0.42950   1
  -2  -1  -2 395.292 13.6013   2
  -2  -1  -2 373.797 13.0240   1
   2  -1   2 415.686 13.5725   2
   2  -1   2 409.339 11.7465   1
  -2   1  -2 404.803 13.5081   2
   2   1   2 418.569 13.5270   2
   3  -1   2 500.024 14.9663   1
  -3  -1  -2 494.327 17.3853   2
   3  -1   2 490.335 16.9020   2
  -3   1  -2 490.083 17.1769   2
   3   1   2 475.863 15.2264   1
   3   1   2 476.672 16.6616   2
   4  -1   2 301.275 11.0468   1
  -4  -1  -2 303.446 13.5284   2
   4   1   2 298.416 11.3740   1
   5  -1   2 127.524 6.91492   1
   5   1   2 127.497 7.24551   1
   6  -1   2 15.7029 6.46660   1
   6   1   2 31.1695 6.42868   1
   6  -2  -2 74.3527 7.96643   1
   6   2  -2 72.4248 8.14474   1
  -5  -2   2 35.1308 5.17427   2
   5  -2  -2 41.4019 5.06227   1
   5   2  -2 44.0364 5.07236   1
   4  -2  -2 13.0520 2.61788   1
   4   2  -2 6.85945 1.40782   3
   4   2  -2 9.02306 2.42355   1
  -4   2   2 9.27351 2.54128   2
   3  -2  -2 362.587 9.36280   3
  -3  -2   2 349.595 13.1884   2
   3  -2  -2 349.936 12.3985   2
   3   2  -2 367.240 12.6050   2
  -3   2   2 356.331 12.7127   2
   3   2  -2 373.937 10.4520   3
  -2  -2   2 2461.49 68.3179   2
   2  -2  -2 2553.07 61.6471   3
   2  -2  -2 2583.46 63.2384   2
  -2   2   2 2499.61 63.0817   2
   2   2  -2 2582.45 62.2217   3
   2   2  -2 2387.58 64.3202   2
  -1  -2   2 2617.99 67.8317   3
   1  -2  -2 2624.46 66.7199   2
  -1  -2   2 2427.58 65.7708   2
   1   2  -2 2714.13 69.0041   3
  -1   2   2 2586.25 66.7849   2
  -1   2   2 2781.73 66.0066   3
  -1   2   2 2602.24 65.4326   3
   0  -2  -2 769.047 19.7630   2
   0  -2  -2 776.209 19.2154   1
   0   2   2 724.880 19.1850   1
   0   2   2 760.319 18.8405   2
   1  -2   2 1797.15 44.2171   2
   1  -2   2 1760.78 44.1984   1
  -1  -2  -2 1698.60 43.4588   1
  -1  -2  -2 1732.41 44.1971   2
   1   2   2 1654.65 44.1142   1
  -1   2  -2 1756.54 43.6156   1
   1   2   2 1731.56 44.1788   2
  -2  -2  -2 145.635 6.84957   2
   2  -2   2 149.902 5.17827   1
  -2  -2  -2 148.969 5.96634   1
   2  -2   2 148.620 6.44224   2
   2   2   2 145.584 6.37686   2
   2   2   2 150.066 5.92310   1
  -3  -2  -2 11.1745 2.38426   2
   3  -2   2 10.1373 1.59571   1
   3   2   2 8.58883 1.71187   1
  -4  -2  -2 221.488 11.0730   2
   4  -2   2 214.225 8.53448   1
   4   2   2 207.069 9.11956   1
  -5  -2  -2 515.968 20.8339   2
   5  -2   2 500.959 16.8865   1
   5   2   2 517.228 17.9135   1
   6   2   2 229.357 11.2240   1
   6  -3  -2 91.3037 8.24237   1
  -6  -3   2 105.511 9.32944   2
   6   3  -2 81.6789 8.61365   1
   5  -3  -2 8.87675 2.91844   1
  -5  -3   2 8.06009 3.16479   2
   5   3  -2 10.0645 3.29780   1
  -4  -3   2 34.7622 4.05886   2
   4  -3  -2 31.1665 3.54977   1
   4   3  -2 35.1635 3.89381   1
   3  -3  -2 433.293 14.1897   2
  -3  -3   2 416.788 15.1067   2
   3   3  -2 420.991 12.2999   3
  -3   3   2 416.549 14.2569   2
   3   3  -2 445.083 14.4087   2
   2  -3  -2 1408.97 36.5471   2
  -2  -3   2 1335.14 37.1218   2
   2   3  -2 1440.15 35.3756   3
   2   3  -2 1461.40 36.8808   2
  -2   3   2 1350.26 36.1970   2
   1  -3  -2 883.622 22.4891   2
  -1  -3   2 870.893 22.8147   3
   1   3  -2 901.146 22.9675   3
  -1   3   2 914.117 22.2068   3
   0  -3  -2 44.2240 1.71833   2
   0  -3  -2 45.9787 1.92934   1
   0  -3   2 43.4019 2.06720   3
   0   3   2 40.9553 1.87378   1
   1  -3   2 267.478 6.99866   1
   1  -3   2 278.887 8.70916   2
  -1  -3  -2 258.806 8.69141   2
  -1  -3  -2 267.076 8.31091   1
   1   3   2 264.413 8.10474   1
   1   3   2 257.740 8.55167   2
  -1   3  -2 267.863 7.21394   1
  -2  -3  -2 1.37163 0.97648   1
   2  -3   2 1.01822 1.04404   2
  -2  -3  -2 1.60181 0.98856   2
   2  -3   2 0.51028 0.44445   1
   2   3   2 1.79706 0.86604   1
   2   3   2 -0.5464 1.05550   2
   3  -3   2 118.930 5.03259   1
   3  -3   2 102.956 6.08525   2
  -3  -3  -2 120.551 7.00830   2
   3   3   2 103.253 5.90811   2
   3   3   2 123.529 5.97294   1
  -4  -3  -2 431.213 17.2199   2
   4  -3   2 417.752 13.7266   1
   4   3   2 422.866 14.9761   1
  -5  -3  -2 136.109 8.98536   2
   5  -3   2 117.824 6.43991   1
   5   3   2 132.532 7.32078   1
   6   3   2 9.73154 4.85424   1
  -6  -4   2 83.7182 8.75968   2
   6  -4  -2 65.5517 9.31807   1
   6   4  -2 58.7705 7.75376   1
   5  -4  -2 869.592 27.6745   1
  -5  -4   2 889.517 30.0783   2
   5   4  -2 884.219 29.3496   1
  -4  -4   2 952.120 30.5946   2
   4  -4  -2 980.732 29.0080   1
   4   4  -2 987.348 26.3488   3
   4   4  -2 968.391 30.3560   1
   3  -4  -2 25.1605 2.72368   2
  -3  -4   2 22.2966 2.99601   2
   3   4  -2 19.9447 2.72170   2
   3   4  -2 17.1837 1.84093   3
   3   4  -2 27.1564 2.98079   1
   2  -4  -2 13.4351 1.49907   2
  -2  -4   2 15.1712 1.90984   2
   2   4  -2 14.1731 1.33805   3
   1  -4  -2 260.833 7.37740   2
  -1  -4   2 255.334 7.83841   3
   1   4  -2 261.809 7.93144   3
  -1   4   2 263.036 7.20228   3
   0  -4   2 864.647 23.1338   3
   0  -4  -2 900.951 22.8143   1
   0  -4  -2 917.635 22.5694   2
   0   4   2 885.738 22.7529   1
   0   4  -2 908.233 23.1174   3
  -1  -4  -2 3785.70 95.3039   1
   1  -4   2 3725.12 89.6210   1
  -1  -4  -2 3502.47 93.1906   2
  -1   4  -2 3608.98 89.9621   1
   1   4   2 3589.93 96.1689   1
   1   4   2 3644.07 92.4295   2
   2  -4   2 1116.68 28.4626   1
  -2  -4  -2 1126.01 30.7134   1
  -2  -4  -2 1106.54 31.8046   2
   2  -4   2 1126.21 31.4430   2
   2   4   2 1173.14 31.6069   2
  -3  -4  -2 577.346 20.2277   2
   3  -4   2 605.672 16.8054   1
   3  -4   2 610.162 19.7834   2
   3   4   2 584.840 18.4084   1
   3   4   2 579.243 19.3002   2
   4  -4   2 244.062 8.90693   1
  -4  -4  -2 243.531 12.0679   2
   4   4   2 236.906 10.1416   1
   5  -4   2 402.502 13.8386   1
  -5  -4  -2 406.912 17.9580   2
   5   4   2 415.691 15.5481   1
   6   4   2 48.4336 6.86463   1
  -6  -5   2 63.5630 8.70925   2
   6   5  -2 57.8844 7.98249   1
   5  -5  -2 218.052 10.2699   1
  -5  -5   2 232.248 12.0742   2
   5   5  -2 226.238 11.5195   1
  -4  -5   2 549.808 20.3226   2
   4   5  -2 546.666 16.5211   3
   4   5  -2 594.471 20.4326   1
   3  -5  -2 153.491 6.67521   2
  -3  -5   2 147.007 7.68042   2
   3   5  -2 141.453 5.57262   3
   3   5  -2 147.253 7.65607   1
   2  -5  -2 1050.58 25.7590   3
  -2  -5   2 979.707 28.4354   2
   2  -5  -2 1035.61 27.4998   2
  -1  -5   2 163.728 5.77173   3
   1  -5  -2 169.412 5.37495   1
   1   5  -2 174.535 5.87432   3
  -1   5   2 172.615 5.21012   3
   0  -5  -2 3766.75 98.1651   1
   0  -5   2 3865.07 101.573   3
   0   5   2 3883.57 100.306   1
   0   5  -2 4083.63 101.168   3
  -1  -5  -2 68.6772 3.47025   2
  -1  -5  -2 75.5690 3.45750   1
   1   5   2 70.8292 3.34637   2
  -1   5  -2 71.2879 2.03650   1
   2  -5   2 0.76995 1.23457   2
   2  -5   2 1.18200 0.38063   1
  -2  -5  -2 0.72219 1.18483   1
  -2  -5  -2 0.90325 0.98401   2
   2   5   2 -0.6686 1.15958   2
   2   5   2 2.22811 0.85192   1
  -3  -5  -2 3.23929 1.53433   2
   3  -5   2 -0.4932 2.39998   2
   3   5   2 -2.5000 2.23953   2
   3   5   2 2.36165 1.28922   1
  -4  -5  -2 1499.39 44.7445   2
   4  -5   2 1505.96 38.9497   1
   4   5   2 1440.44 41.4130   1
   5  -5   2 5.11870 2.30780   1
  -5  -5  -2 8.46144 3.83198   2
   5   5   2 8.86468 3.06841   1
   6   5   2 -1.8034 4.83363   1
   6  -6  -2 74.0860 7.99643   1
  -6  -6   2 89.4801 9.26546   2
   6   6  -2 98.8321 8.86255   1
   5  -6  -2 15.9982 3.17315   1
  -5  -6   2 9.59341 3.51994   2
   5   6  -2 10.4554 3.34471   1
  -4  -6   2 110.025 7.23558   2
   4   6  -2 114.312 7.05922   1
   4   6  -2 89.1521 5.16194   3
   3  -6  -2 869.779 24.6909   2
  -3  -6   2 797.225 25.7007   2
   3   6  -2 803.181 25.5735   1
   3   6  -2 847.600 23.0000   3
   2  -6  -2 219.100 6.55912   3
   2  -6  -2 222.291 7.68147   2
  -2  -6   2 210.534 8.54742   2
   2   6  -2 212.145 7.39840   3
   1  -6  -2 259.897 7.56897   1
  -1  -6   2 251.629 8.21876   3
   1   6  -2 249.158 8.18534   3
  -1   6   2 266.952 7.56779   3
   0  -6   2 104.343 4.12786   3
   0  -6  -2 101.140 3.73122   1
   0   6   2 101.181 4.08941   3
   0   6   2 93.8552 3.59779   1
   0   6  -2 100.941 3.92566   3
  -1  -6  -2 859.637 24.0459   1
   1  -6   2 868.584 22.3561   3
  -1  -6  -2 846.956 23.4366   2
   1   6   2 888.455 23.1711   2
   1   6   2 778.754 23.6990   1
   2  -6   2 818.320 23.8594   2
   2  -6   2 795.321 20.3757   1
  -2  -6  -2 801.998 24.5435   2
  -2  -6  -2 814.442 23.5497   1
   2   6   2 856.254 24.0594   2
   2   6   2 816.036 23.2046   1
  -3  -6  -2 326.793 13.3948   2
   3  -6   2 292.272 11.8536   2
   3  -6   2 321.871 9.37298   1
   3   6   2 298.949 11.7235   2
   3   6   2 332.590 11.9345   1
   4  -6   2 1258.63 32.6844   1
  -4  -6  -2 1276.28 38.9356   2
   4   6   2 1166.72 33.7917   3
   4   6   2 1241.30 35.8365   1
   5  -6   2 337.319 11.5222   1
  -5  -6  -2 344.747 16.0288   2
   5   6   2 351.772 14.2269   1
  -6  -6  -2 46.6631 7.17001   2
   6   6   2 54.1431 7.14812   1
  -6  -7   2 101.720 9.62901   2
   6   7  -2 88.5136 8.76716   1
   5  -7  -2 495.855 17.3085   1
  -5  -7   2 481.944 20.1673   2
   5   7  -2 485.898 19.6471   1
  -4  -7   2 357.336 15.0558   2
   4   7  -2 337.213 14.2795   1
   4   7  -2 314.128 11.3190   3
   3  -7  -2 247.593 9.58270   2
  -3  -7   2 246.998 10.9472   2
   3  -7  -2 258.059 7.41370   3
   3   7  -2 247.715 8.72762   3
   3   7  -2 253.302 10.9307   1
  -2  -7   2 119.691 6.02088   2
   2  -7  -2 128.198 4.45912   3
   2   7  -2 124.613 6.24507   1
   2   7  -2 122.636 5.07389   3
   1  -7  -2 69.0395 3.18486   3
   1  -7  -2 69.6088 2.78096   1
   1   7  -2 63.0862 3.67115   3
  -1   7   2 65.5181 2.80223   3
   0  -7  -2 37.8332 1.98167   1
   0  -7   2 39.6109 2.31151   3
   0   7   2 35.8812 1.89264   1
   0   7   2 39.6458 2.28204   3
   0   7  -2 40.1228 2.18094   3
  -1  -7  -2 299.696 9.90343   1
   1  -7   2 298.898 9.33768   3
   1   7   2 318.304 9.89262   1
   2  -7   2 154.810 4.13852   1
   2  -7   2 153.512 6.79794   2
  -2  -7  -2 153.918 6.81429   1
   2  -7   2 154.001 5.40568   3
  -2  -7  -2 152.919 7.48076   2
   2   7   2 158.127 6.76510   2
   2   7   2 157.021 6.73079   1
  -3  -7  -2 99.6340 6.57720   2
   3  -7   2 93.6372 3.55066   1
   3   7   2 107.090 7.56447   2
   3   7   2 99.7665 5.62998   1
   4  -7   2 1556.96 39.5974   1
  -4  -7  -2 1531.04 46.3880   2
   4   7   2 1534.18 43.4313   1
  -5  -7  -2 13.1637 4.00166   2
   5  -7   2 14.2339 2.78615   1
   5   7   2 15.3524 3.30229   1
  -6  -7  -2 13.0891 6.28009   2
   6   7   2 20.2889 5.35365   1
  -6  -8   2 99.7986 10.2636   2
   6   8  -2 108.379 9.36172   1
   5  -8  -2 507.428 17.5207   1
  -4  -8   2 294.382 13.2045   2
   4   8  -2 237.759 9.74104   3
   4   8  -2 296.224 12.9970   1
   3  -8  -2 167.841 7.26008   2
  -3  -8   2 157.621 8.31771   2
   3  -8  -2 169.069 5.50682   3
   3   8  -2 161.657 6.61165   3
   3   8  -2 173.423 8.64875   1
   2  -8  -2 16.0583 1.76463   2
  -2  -8   2 18.3378 1.75955   3
   2  -8  -2 17.7282 1.37857   3
  -2  -8   2 17.8550 2.20785   2
   2   8  -2 14.2584 1.78339   3
   2   8  -2 16.0063 2.21892   1
   1  -8  -2 2173.73 54.7021   3
   1  -8  -2 2288.90 54.5655   1
  -1  -8   2 2232.00 55.2440   3
  -1   8   2 2199.80 54.0756   3
   1   8  -2 1916.75 56.4296   1
   1   8  -2 2243.26 55.1906   3
   0  -8  -2 1267.40 32.1953   1
   0   8   2 1312.73 32.9997   3
   0   8   2 1237.98 31.8917   1
   0   8  -2 1231.21 32.5084   3
   0   8  -2 1219.30 31.6925   1
   1  -8   2 428.364 13.0583   3
  -1  -8  -2 448.326 14.0992   2
  -1  -8  -2 461.290 13.8699   1
   1   8   2 438.703 13.4597   1
   1   8   2 464.724 13.8853   3
  -2  -8  -2 924.994 27.6652   2
   2  -8   2 927.595 24.6564   3
   2  -8   2 926.931 26.7794   2
  -2  -8  -2 943.740 26.8895   1
   2   8   2 948.137 26.7926   2
   2   8   2 912.417 26.2564   1
   3  -8   2 1119.86 28.8590   3
   3  -8   2 1106.38 27.5977   1
  -3  -8  -2 1143.94 34.1589   2
   3   8   2 1090.67 30.6670   3
   3   8   2 1050.32 31.5098   1
   4  -8   2 27.7175 2.24961   3
  -4  -8  -2 43.3686 4.90996   2
   4  -8   2 34.4702 3.64044   1
  -5  -8  -2 2.94273 4.09215   2
   5  -8   2 6.90155 1.91312   1
  -6  -8  -2 213.918 14.0651   2
   6   8   2 206.241 11.5260   1
  -6  -9   2 167.241 12.8274   2
   6   9  -2 186.185 11.5181   1
   5  -9  -2 234.935 10.3440   1
  -5  -9   2 244.291 13.9667   2
   5   9  -2 257.495 12.7244   1
  -4  -9   2 268.924 12.9448   2
   4   9  -2 263.431 12.4149   1
  -3  -9   2 592.447 20.3672   2
   3  -9  -2 595.107 16.2321   3
   3  -9  -2 594.168 18.5920   2
   3   9  -2 585.193 20.0975   1
   3   9  -2 572.406 17.7554   3
   2  -9  -2 2655.06 65.2065   1
  -2  -9   2 2612.26 66.3987   3
  -2  -9   2 2541.36 68.2601   2
   2  -9  -2 2651.53 65.6784   3
   2  -9  -2 2729.47 66.7626   2
   2   9  -2 2764.03 67.0261   3
   2   9  -2 2509.84 68.0873   1
   1  -9  -2 384.280 11.8512   3
   1  -9  -2 396.070 10.8909   1
  -1  -9   2 383.069 12.2693   3
   1   9  -2 403.823 12.2312   3
  -1   9   2 389.327 11.2719   3
   1   9  -2 351.395 12.1373   1
   0  -9  -2 1.29693 0.61837   1
   0  -9   2 1.14049 0.63443   3
   0   9  -2 1.20633 0.46516   1
  -1  -9  -2 550.129 16.7177   2
   1  -9   2 551.257 16.0735   3
  -1  -9  -2 584.252 16.6505   1
   1   9   2 525.328 15.9942   1
   1   9   2 537.226 16.4182   3
  -2  -9  -2 1478.12 41.3330   2
  -2  -9  -2 1494.13 40.4979   1
   2  -9   2 1458.41 38.1922   3
   2   9   2 1444.91 39.7537   1
   2   9   2 1540.78 39.8698   3
   3  -9   2 4170.44 100.320   1
   3  -9   2 4128.12 101.500   3
  -3  -9  -2 4109.28 107.127   2
   3   9   2 4231.98 103.969   3
   3   9   2 3994.61 104.468   1
  -4  -9  -2 22.4183 4.33585   2
   4  -9   2 16.9034 1.47282   1
   4  -9   2 18.0819 2.07097   3
  -5  -9  -2 4.80617 4.12975   2
   5   9   2 6.42349 3.23120   1
  -6  -9  -2 72.5098 10.4471   2
   6   9   2 87.8968 8.43737   1
  -6 -10   2 41.8504 7.28881   2
   6  10  -2 61.8871 8.88792   1
   5 -10  -2 253.841 10.5119   1
  -5 -10   2 262.664 13.7369   2
   5  10  -2 250.043 12.6415   1
  -4 -10   2 14.6358 3.17512   2
   4  10  -2 16.8471 3.05680   1
   3 -10  -2 74.5298 3.37551   3
   3 -10  -2 67.8550 4.44836   2
  -3 -10   2 79.5446 5.59089   2
   3  10  -2 64.9579 4.29436   3
   3  10  -2 66.7559 5.02746   1
   2 -10  -2 128.979 5.18338   1
  -2 -10   2 142.592 6.07434   3
   2 -10  -2 144.906 5.81587   2
   2 -10  -2 139.572 5.42541   3
  -2 -10   2 131.866 6.85816   2
   2  10  -2 130.105 6.73977   1
   2  10  -2 135.636 5.92541   3
   1 -10  -2 0.32104 0.52177   1
  -1 -10   2 0.63919 0.70601   3
   1  10  -2 0.44376 0.81274   1
   1  10  -2 0.88202 0.86496   3
  -1  10   2 0.49950 0.63505   3
   0 -10  -2 531.817 15.0979   1
   0 -10   2 506.261 15.8019   3
   0  10  -2 542.053 15.4983   3
   0  10   2 523.895 14.7934   1
   0  10   2 529.768 15.6879   3
   0  10  -2 523.350 14.5280   1
  -1 -10  -2 563.006 16.8784   1
   1 -10   2 553.853 16.7153   3
  -1 -10  -2 539.700 17.0660   2
   1  10   2 561.350 16.5000   1
   1  10   2 569.659 17.0240   3
   2 -10   2 31.6584 2.60651   3
  -2 -10  -2 35.9610 2.87292   1
  -2 -10  -2 41.1492 3.60508   2
   2  10   2 40.8966 3.17247   1
   2  10   2 35.3387 2.77916   3
   3 -10   2 0.75512 0.93660   3
  -3 -10  -2 5.02542 1.81882   2
   3  10   2 1.50821 2.32516   3
  -4 -10  -2 15.4197 3.15014   2
   4  10   2 12.9505 2.84718   1
  -5 -10  -2 2.10779 4.14290   2
   5  10   2 6.61650 3.60599   1
  -6 -10  -2 60.8564 11.0974   2
   6  10   2 74.4142 8.43360   1
  -6 -11   2 1.89456 7.22373   2
   6  11  -2 5.75989 6.47468   1
   5 -11  -2 83.8793 5.76650   1
  -5 -11   2 103.290 7.98983   2
   5  11  -2 74.9598 7.51833   1
  -4 -11   2 100.594 7.71750   2
   4  11  -2 97.8565 7.27194   1
  -3 -11   2 309.423 13.3082   2
   3 -11  -2 323.994 11.6169   2
   3 -11  -2 318.867 9.58503   1
   3 -11  -2 322.818 10.0826   3
   3  11  -2 317.438 13.1501   1
   3  11  -2 283.809 10.9849   3
   2 -11  -2 1155.78 30.6680   3
  -2 -11   2 1135.73 32.9616   2
  -2 -11   2 1146.89 31.3836   3
   2  11  -2 1173.68 31.6571   3
   2  11  -2 1108.37 32.5746   1
   1 -11  -2 2287.96 58.6864   3
  -1 -11   2 2209.81 58.9277   3
   1 -11  -2 2373.13 57.3030   1
  -1  11   2 2351.29 57.8566   3
   1  11  -2 2216.17 58.8163   3
   1  11  -2 2348.38 58.9824   1
   0 -11  -2 681.189 18.9937   1
   0 -11   2 683.868 19.9171   3
   0  11   2 654.399 19.4871   3
   0  11  -2 663.068 18.2779   1
   0  11   2 674.199 18.5840   1
   0  11  -2 708.581 19.4875   3
  -1 -11  -2 6.03444 1.62444   1
   1 -11   2 6.03348 1.51143   3
  -1 -11  -2 5.57134 1.67058   2
   1  11   2 4.06794 1.19319   3
   1  11   2 8.98293 1.42397   1
  -1  11  -2 7.58832 1.21718   3
  -2 -11  -2 631.913 19.8227   1
   2 -11   2 626.602 18.1631   3
  -2 -11  -2 601.518 20.3165   2
   2  11   2 596.929 18.9008   3
   2  11   2 629.171 19.2824   1
  -3 -11  -2 690.462 23.7101   2
   3  11   2 645.879 21.4208   1
  -4 -11  -2 79.5983 6.69626   2
   4  11   2 74.9051 5.65107   1
  -5 -11  -2 -6.3281 4.61929   2
   5  11   2 -0.3573 3.53350   1
  -6 -11  -2 62.9364 10.6837   2
   6  11   2 49.9360 8.72222   1
  -6 -12   2 119.450 12.5840   2
   6  12  -2 130.741 10.5745   1
   5 -12  -2 207.375 8.96066   1
  -5 -12   2 220.123 12.7034   2
   5  12  -2 200.701 11.6496   1
  -4 -12   2 242.437 12.5022   2
   4 -12  -2 239.321 8.06754   1
   4  12  -2 249.551 12.2833   1
   3 -12  -2 157.759 6.31010   3
   3 -12  -2 156.892 5.60587   1
  -3 -12   2 164.944 8.96989   2
   3 -12  -2 162.731 7.39592   2
   3  12  -2 167.792 8.85816   1
   2 -12  -2 49.1776 3.40606   3
  -2 -12   2 47.8746 3.49345   3
  -2 -12   2 48.7063 3.88866   2
   2 -12  -2 45.3931 2.62547   1
   2  12  -2 41.6169 3.22617   3
   2  12  -2 45.9316 3.74377   1
  -1 -12   2 193.792 8.02609   3
   1 -12  -2 182.977 6.99972   1
   1 -12  -2 195.914 7.88103   3
  -1  12   2 204.996 7.16978   3
   1  12  -2 194.392 7.84653   1
   1  12  -2 190.941 7.70725   3
   0 -12  -2 252.989 8.53316   1
   0 -12   2 227.313 9.14697   3
   0  12  -2 247.369 8.70040   3
   0  12   2 256.955 9.07187   3
   0  12  -2 245.253 7.86893   1
  -1 -12  -2 386.808 13.3997   2
  -1 -12  -2 386.009 12.9868   1
   1 -12   2 398.522 13.0991   3
   1  12   2 390.829 12.6971   1
   1  12   2 397.771 13.1985   3
  -2 -12  -2 2968.28 79.3707   2
   2 -12   2 3121.46 76.8077   3
  -2 -12  -2 2981.99 78.7134   1
   2  12   2 2997.97 77.8649   1
   2  12   2 3147.46 78.3527   3
  -3 -12  -2 1.82522 1.91424   2
   3 -12   2 -0.0166 1.26356   3
   3  12   2 1.86715 1.57436   1
   4 -12   2 130.890 6.02505   3
  -4 -12  -2 121.318 8.40724   2
   4  12   2 135.850 7.83120   1
  -5 -12  -2 43.1471 7.60181   2
   5  12   2 47.5412 5.82881   1
  -6 -12  -2 75.3219 11.2841   2
   6  12   2 70.0826 9.19213   1
  -6 -13   2 24.4842 7.93130   2
   6  13  -2 29.4741 7.52218   1
  -5 -13   2 244.272 13.7954   2
   5 -13  -2 247.331 12.3696   1
   5  13  -2 232.122 12.6450   1
  -4 -13   2 407.157 17.6372   2
   4 -13  -2 394.747 11.8431   1
   4  13  -2 404.998 16.8165   1
   3 -13  -2 310.042 9.29338   1
   3 -13  -2 302.564 11.6936   2
   3 -13  -2 314.991 11.1013   3
  -3 -13   2 303.963 13.6171   2
   3  13  -2 306.264 13.1088   1
  -2 -13   2 11.3610 2.15846   3
  -2 -13   2 16.2976 2.42735   2
   2 -13  -2 14.5772 1.36541   1
   2 -13  -2 16.7805 2.18804   3
  -2  13   2 16.4917 1.08100   3
   2  13  -2 12.1209 2.32327   1
   2  13  -2 14.3224 1.82056   3
  -1 -13   2 1729.13 46.7837   3
   1 -13  -2 1783.68 46.6180   3
   1 -13  -2 1813.57 44.7565   1
   1  13  -2 1686.83 46.4349   3
  -1  13   2 1822.35 45.6647   3
  -1  13   2 1761.83 44.7340   1
   1  13  -2 1735.42 46.2791   1
   0 -13   2 1627.51 46.0330   3
   0 -13  -2 1805.18 45.2840   1
   0  13  -2 1693.98 44.0904   1
   0  13  -2 1806.58 45.7429   3
   0  13   2 1803.46 46.1548   3
   0  13   2 1725.37 44.4693   1
  -1 -13  -2 1792.92 46.6515   1
  -1 -13  -2 1739.13 46.7464   2
   1 -13   2 1781.11 46.2859   3
   1  13   2 1749.87 46.6371   3
   1  13   2 1688.36 45.6021   1
  -1  13  -2 1716.24 42.6420   1
  -1  13  -2 1774.74 45.0640   3
   2 -13   2 700.679 20.1728   3
  -2 -13  -2 642.944 21.0917   1
  -2 -13  -2 675.779 22.2520   2
   2  13   2 666.261 20.8191   1
   2  13   2 656.683 20.6477   3
  -3 -13  -2 8.46062 2.22415   2
   3 -13   2 11.3627 2.18597   3
   3  13   2 12.7071 2.58376   1
  -4 -13  -2 567.345 22.5380   2
   4 -13   2 571.730 17.5992   3
   4  13   2 565.863 20.3742   1
  -5 -13  -2 281.874 15.3187   2
   5  13   2 277.389 13.2011   1
  -6 -14   2 38.2919 8.94155   2
   6  14  -2 37.5525 7.68494   1
  -5 -14   2 97.9983 9.20515   2
   5  14  -2 93.4263 8.28213   1
  -4 -14   2 287.055 14.0371   2
   4  14  -2 279.000 13.1393   1
   3 -14  -2 182.257 8.37628   2
   3 -14  -2 198.630 6.40091   1
  -3 -14   2 198.187 10.3240   2
   3 -14  -2 197.120 8.06466   3
   3  14  -2 190.440 9.75722   1
  -2 -14   2 62.1008 4.70096   2
   2 -14  -2 68.9199 4.30496   3
  -2 -14   2 67.9621 4.58245   3
   2 -14  -2 69.5279 3.05021   1
  -2  14   2 66.5060 2.61092   3
   2  14  -2 64.6405 4.39413   3
   2  14  -2 68.7642 4.86086   1
   1 -14  -2 625.210 19.1870   3
  -1 -14   2 580.660 19.1311   3
   1 -14  -2 631.001 17.3293   1
  -1  14   2 611.698 17.2773   1
  -1  14   2 626.394 18.0077   3
   1  14  -2 608.576 18.6728   1
   1  14  -2 605.191 18.8146   3
   0 -14  -2 7.16077 1.21673   1
   0 -14   2 7.04327 1.70887   3
   0  14  -2 4.72517 1.36553   3
   0  14   2 5.45143 1.36246   3
   1 -14   2 184.141 7.97792   3
  -1 -14  -2 179.700 8.10205   2
  -1 -14  -2 184.285 7.79533   1
   1  14   2 178.350 7.45328   1
   1  14   2 175.197 7.70595   3
  -1  14  -2 187.983 6.91192   3
  -1  14  -2 185.953 5.00761   1
   2 -14   2 2.50798 1.20346   3
  -2 -14  -2 2.99380 1.52060   2
   2  14   2 4.99147 1.41417   1
   2  14   2 0.71238 2.61267   3
   3 -14   2 69.5392 4.43122   3
  -3 -14  -2 71.5675 5.89846   2
   3  14   2 70.4688 5.39018   1
  -4 -14  -2 3.11378 3.09296   2
   4 -14   2 9.93369 2.44465   3
   4  14   2 18.2805 3.66636   1
  -5 -14  -2 48.5669 8.06047   2
   5  14   2 46.3946 5.98213   1
  -5 -15   2 61.3831 8.70109   2
   5  15  -2 77.2968 7.57775   1
  -4 -15   2 104.437 8.07438   2
   4  15  -2 97.9703 7.22045   1
   3 -15  -2 351.545 12.2657   3
   3 -15  -2 336.200 10.0428   1
   3 -15  -2 318.966 12.4444   2
  -3 -15   2 344.648 14.8897   2
   3  15  -2 347.096 14.2979   1
   2 -15  -2 242.626 9.61620   3
  -2 -15   2 243.238 10.8211   2
   2 -15  -2 236.587 7.65899   1
  -2 -15   2 231.520 9.87079   3
   2  15  -2 237.679 10.3244   1
  -2  15   2 238.464 7.21702   3
   1 -15  -2 371.534 11.4769   1
  -1 -15   2 365.403 13.4718   3
   1 -15  -2 372.286 13.3429   3
  -1  15   2 372.253 11.5131   1
   1  15  -2 371.778 12.9559   3
  -1  15   2 377.840 12.2214   3
   1  15  -2 363.496 12.7031   1
   0 -15  -2 21.6873 2.11013   1
   0 -15   2 21.3392 2.57551   3
   0  15  -2 20.8950 1.89188   1
   0  15   2 23.8707 2.07633   1
   0  15   2 14.8837 2.50527   3
   0  15  -2 18.9797 2.43806   3
   1 -15   2 486.796 16.3351   3
  -1 -15  -2 486.054 16.5650   2
  -1 -15  -2 490.280 16.1023   1
   1  15   2 483.032 16.2454   3
  -1  15  -2 512.183 15.1075   3
   1  15   2 493.241 15.6522   1
  -1  15  -2 494.101 12.6114   1
  -2 -15  -2 1285.09 38.1059   2
   2 -15   2 1326.71 35.9420   3
   2  15   2 1264.17 36.3179   1
  -3 -15  -2 558.920 21.3092   2
   3 -15   2 565.194 17.8282   3
   3  15   2 549.248 19.3467   1
   4 -15   2 244.797 9.90426   3
  -5 -15  -2 125.915 9.90553   2
   5  15   2 94.4538 7.77344   1
  -5 -16   2 243.047 14.3385   2
   5  16  -2 232.411 13.0546   1
  -4 -16   2 294.277 15.8308   2
   3 -16  -2 41.5555 3.79583   3
  -3 -16   2 42.8590 4.67795   2
   3 -16  -2 41.8822 2.53807   1
   3  16  -2 41.7454 4.49501   1
   2 -16  -2 236.082 9.65818   3
  -2 -16   2 230.427 10.6774   2
   2 -16  -2 224.334 7.46640   1
  -2 -16   2 223.338 9.85671   3
   2  16  -2 225.181 10.0517   1
  -2  16   2 220.169 7.06986   3
  -1 -16   2 64.7684 4.60220   3
   1 -16  -2 64.6635 3.37132   1
   1 -16  -2 59.9880 4.52207   3
  -1  16   2 61.5867 3.80200   3
   1  16  -2 49.5422 4.15044   3
  -1  16   2 63.1908 3.42499   1
   1  16  -2 62.9099 4.09076   1
   0 -16   2 2768.23 74.9781   3
   0 -16  -2 2931.81 73.6996   1
   0  16  -2 2951.34 74.2578   3
   0  16   2 2864.71 74.5149   3
   0  16  -2 2927.41 72.1635   1
   0  16   2 2932.98 72.6551   1
  -1 -16  -2 3519.71 89.3495   1
  -1 -16  -2 3477.51 89.4949   2
   1 -16   2 3496.09 89.2539   3
  -1  16  -2 3593.58 87.7158   3
   1  16   2 3480.55 88.0353   1
  -1  16  -2 3423.57 85.9578   1
   1  16   2 3456.47 89.5011   3
  -2 -16  -2 376.965 15.3078   2
   2 -16   2 394.326 13.9005   3
   2  16   2 388.187 14.1583   1
  -3 -16  -2 123.870 8.08263   2
   3 -16   2 127.532 6.61967   3
   3  16   2 124.838 7.29311   1
   4 -16   2 59.1136 5.06981   3
  -4 -16  -2 64.2674 6.73138   2
   4  16   2 57.8509 5.48355   1
  -5 -16  -2 103.702 9.59608   2
   5  16   2 88.4675 7.77536   1
  -5 -17   2 12.0184 5.82628   2
   5  17  -2 14.8189 5.37803   1
  -4 -17   2 3.77437 3.74483   2
   4  17  -2 1.29799 3.44638   1
  -3 -17   2 805.436 28.3004   2
   3 -17  -2 856.777 25.2857   3
   3 -17  -2 836.568 22.0143   1
   3  17  -2 799.824 27.1094   1
  -2 -17   2 415.648 16.0212   2
   2 -17  -2 412.287 14.6713   3
   2 -17  -2 413.701 12.1569   1
  -2 -17   2 405.049 14.9801   3
   2  17  -2 392.951 14.9803   1
  -2  17   2 387.487 11.6865   3
   1 -17  -2 30.4272 2.43723   1
   1 -17  -2 26.8666 3.23559   3
  -1 -17   2 36.3794 3.46436   3
  -1  17   2 31.4680 2.43648   1
  -1  17   2 26.8796 2.87859   3
   1  17  -2 24.0963 4.15162   3
   1  17  -2 36.5294 3.07604   1
   0 -17   2 747.075 23.3463   3
   0 -17  -2 730.376 21.7094   1
   0  17  -2 740.146 20.4586   1
   0  17   2 736.391 20.9200   1
   0  17  -2 725.682 21.9949   3
   0  17   2 733.416 22.4192   3
   1 -17   2 12.8204 2.38061   3
  -1 -17  -2 8.16527 2.37973   1
  -1 -17  -2 16.8934 2.27356   2
  -1  17  -2 12.1667 2.52770   3
  -1  17  -2 11.4748 0.80502   1
   2 -17   2 554.553 18.3775   3
  -2 -17  -2 546.510 19.9575   2
   2  17   2 554.437 18.5231   1
   3 -17   2 901.905 26.9622   3
  -3 -17  -2 897.537 30.6090   2
   3  17   2 887.105 28.2938   1
  -4 -17  -2 152.804 10.3377   2
   4 -17   2 160.384 7.99899   3
   4  17   2 151.759 8.70735   1
  -5 -17  -2 82.2730 9.65309   2
   5  17   2 57.1786 7.28267   1
  -5 -18   2 37.6799 6.71728   2
   5  18  -2 37.6330 5.81447   1
  -4 -18   2 14.6746 4.03076   2
   4  18  -2 8.19807 3.87483   1
  -3 -18   2 1003.96 33.3430   2
   3 -18  -2 1035.80 30.1023   3
   3 -18  -2 996.827 26.3202   1
   3  18  -2 977.764 31.7309   1
   2 -18  -2 1129.69 32.8327   3
   2 -18  -2 1113.55 29.6434   1
  -2 -18   2 1156.74 34.7863   2
  -2 -18   2 1099.26 33.1777   3
   2  18  -2 1133.38 33.2504   1
  -2  18   2 1082.95 29.2767   3
   1 -18  -2 105.429 4.95060   1
  -1 -18   2 103.010 6.40744   3
   1 -18  -2 104.148 6.35791   3
  -1  18   2 111.455 4.99196   1
  -1  18   2 100.198 5.13477   3
   1  18  -2 107.409 5.62656   1
   0 -18   2 171.468 8.52461   3
   0 -18  -2 163.435 7.11241   1
   0  18   2 156.015 7.20255   3
   0  18   2 181.596 6.98508   1
   0  18  -2 172.295 6.50768   1
   0  18  -2 161.600 7.51265   3
  -1 -18  -2 393.418 14.7061   1
  -1 -18  -2 396.816 14.8303   2
   1 -18   2 395.020 14.7733   3
  -1  18  -2 394.101 12.9837   3
   1  18   2 404.787 13.6982   1
  -1  18  -2 396.757 10.6662   1
   2 -18   2 342.186 13.1775   3
  -2 -18  -2 349.893 14.5592   2
   2  18   2 334.446 13.0600   1
   3 -18   2 673.253 21.4697   3
  -3 -18  -2 652.312 24.5053   2
   3  18   2 651.641 22.4521   1
   4 -18   2 516.182 17.6758   3
  -4 -18  -2 516.821 22.0343   2
   4  18   2 507.589 19.5815   1
  -5 -18  -2 9.67585 6.32593   2
   5  18   2 22.3218 5.15126   1
  -5 -19   2 7.35129 6.73661   2
   5  19  -2 13.8574 6.20159   1
  -4 -19   2 4.45040 3.97438   2
   4  19  -2 -3.1398 3.96554   1
   3 -19  -2 28.9202 2.77199   1
   3 -19  -2 35.1539 4.38883   3
  -3 -19   2 33.6167 4.55964   2
   3  19  -2 40.2734 4.41520   1
   2 -19  -2 19.6061 3.28968   3
   2 -19  -2 18.0316 2.42138   1
  -2 -19   2 23.6808 3.44039   3
  -2 -19   2 21.0835 3.35586   2
   2  19  -2 23.2942 3.04154   1
  -1 -19   2 10.4215 2.16709   3
   1 -19  -2 17.0094 3.00998   3
   1  19  -2 14.6643 2.33942   1
  -1  19   2 16.4035 1.96552   1
  -1  19   2 12.1645 2.27358   3
   0 -19  -2 2.39023 2.30931   1
   0 -19   2 2.26065 1.52682   3
   0  19   2 -2.3664 2.61172   3
   0  19  -2 -3.8422 2.61731   3
   0  19   2 3.12498 1.06742   1
   0  19  -2 3.14515 1.07490   1
  -1 -19  -2 1.30341 1.54433   2
   1 -19   2 0.41502 1.55317   3
  -1  19  -2 2.36965 2.20046   3
   1  19   2 1.73504 1.28959   1
   2 -19   2 79.6462 5.56045   3
  -2 -19  -2 79.2225 5.87118   2
   2  19   2 75.2321 5.19336   1
   3 -19   2 246.958 10.8258   3
  -3 -19  -2 239.246 12.6268   2
   3  19   2 244.217 11.3525   1
   4 -19   2 -2.4811 3.48097   3
  -4 -19  -2 -2.3725 4.32474   2
   4  19   2 0.84587 3.66173   1
  -5 -19  -2 -0.7261 6.97423   2
   5  19   2 -0.9440 5.15634   1
  -5 -20   2 114.811 12.1408   2
   5  20  -2 129.733 10.1530   1
  -4 -20   2 0.59982 4.51804   2
   4  20  -2 -2.1019 4.07192   1
   3 -20  -2 534.072 18.8970   3
  -3 -20   2 525.768 21.2307   2
   3  20  -2 541.189 20.1591   1
   2 -20  -2 162.853 6.62193   1
  -2 -20   2 172.570 9.62949   2
   2 -20  -2 177.873 9.16525   3
   2  20  -2 186.945 9.05858   1
  -1 -20   2 284.380 12.4290   3
   1 -20  -2 282.731 12.1674   3
   1 -20  -2 274.369 9.89102   1
  -1  20   2 272.481 10.4744   3
  -1  20   2 284.263 9.82686   1
   1  20  -2 286.319 10.8608   1
   0 -20   2 35.0584 3.61834   3
   0 -20  -2 32.9408 3.84990   1
   0  20  -2 37.7556 2.65730   1
   0  20   2 39.8783 2.94921   1
  -1 -20  -2 1.87773 1.74799   2
   1 -20   2 3.78035 1.92561   3
  -1  20  -2 1.73044 0.70658   1
   1  20   2 0.53542 1.38299   1
  -1  20  -2 3.98541 2.56006   3
  -2 -20  -2 943.371 30.9100   2
   2 -20   2 966.512 29.4584   3
   2  20   2 931.906 28.7355   1
   3 -20   2 269.486 11.7467   3
  -3 -20  -2 269.583 13.7572   2
   3  20   2 262.022 12.1676   1
   4 -20   2 47.0960 6.39561   3
  -4 -20  -2 42.5168 7.17095   2
   4  20   2 39.0987 5.51279   1
  -5 -20  -2 21.3255 7.47955   2
  -5 -21   2 -1.1725 7.78595   2
   5  21  -2 22.4722 6.40907   1
  -4 -21   2 1.83323 4.74948   2
   4  21  -2 -1.7978 4.29672   1
   3 -21  -2 1136.18 34.1215   3
   3  21  -2 1116.53 35.2867   1
   2 -21  -2 115.871 5.18390   1
   2 -21  -2 110.406 7.30976   3
  -2 -21   2 111.127 7.58096   2
  -2  21   2 98.8812 6.70936   3
   2  21  -2 112.211 6.87772   1
  -1 -21   2 93.2613 6.53279   3
   1 -21  -2 89.5738 5.12687   1
  -1  21   2 92.8604 4.75071   1
   1  21  -2 93.5535 5.31103   1
  -1  21   2 87.5686 5.85761   3
   0 -21   2 51.7131 4.58900   3
   0 -21  -2 45.8452 4.54356   1
   0  21   2 63.1377 3.78001   1
   0  21  -2 57.1910 3.32301   1
   1 -21   2 258.644 11.5979   3
  -1 -21  -2 264.104 11.6816   2
  -1  21  -2 251.134 9.70159   3
  -1  21  -2 259.818 7.49735   1
   1  21   2 255.543 10.2430   1
  -2 -21  -2 19.5861 3.84912   2
   2 -21   2 18.1486 3.44011   3
   2  21   2 18.9773 2.99116   1
   3 -21   2 102.798 7.25310   3
   3  21   2 104.866 7.84144   1
   4 -21   2 364.234 14.9213   3
  -4 -21  -2 371.959 17.9610   2
   4  21   2 355.513 15.5163   1
  -5 -21  -2 95.9526 11.8553   2
   5  21   2 76.4243 8.72238   1
  -5 -22   2 13.9059 7.97424   2
   5  22  -2 9.90441 7.39747   1
  -4 -22   2 399.202 19.1919   2
   4  22  -2 418.184 17.7982   1
  -3 -22   2 81.9555 7.28208   2
   2 -22  -2 6.14322 2.63803   1
   2 -22  -2 4.83309 2.56461   3
  -2 -22   2 1.83991 2.32782   2
   2  22  -2 4.21012 2.27745   1
  -2  22   2 0.05549 2.47303   3
  -1 -22   2 49.9035 4.80176   3
   1 -22  -2 42.8918 4.16020   1
  -1  22   2 49.7483 3.45843   1
   1  22  -2 51.4479 4.01505   1
  -1  22   2 43.2210 5.30793   3
   0 -22   2 691.015 23.8154   3
   0  22   2 696.721 20.5494   1
   0  22  -2 676.454 19.6963   1
   1 -22   2 681.893 23.3443   3
  -1 -22  -2 692.987 23.3950   2
  -1  22  -2 646.153 20.6722   3
   1  22   2 687.541 21.2881   1
  -1  22  -2 681.570 17.7819   1
   2 -22   2 4.50013 2.53219   3
  -2 -22  -2 5.84424 2.58731   2
   2  22   2 2.85295 2.23678   1
   3 -22   2 44.5658 5.42475   3
  -3 -22  -2 37.5220 6.26481   2
   3  22   2 36.9889 4.68987   1
  -4 -22  -2 154.928 11.4360   2
   4 -22   2 161.167 9.68061   3
   4  22   2 153.588 9.84700   1
  -4 -23   2 46.1859 8.71801   2
   4  23  -2 63.7816 7.11186   1
  -3 -23   2 0.60941 3.80811   2
   3  23  -2 2.44334 3.40237   1
  -2 -23   2 109.346 7.79111   2
   2  23  -2 107.355 6.84832   1
  -1 -23   2 8.41163 2.64021   3
   1  23  -2 6.68545 2.04250   1
  -1  23   2 12.1779 2.19674   1
   0 -23   2 18.7043 3.59594   3
   0  23  -2 17.0854 2.21889   1
   0  23   2 21.1793 2.55092   1
   1 -23   2 5.76257 2.38890   3
  -1 -23  -2 2.01914 2.26751   2
   2 -23   2 23.0143 4.56795   3
  -2 -23  -2 29.3836 4.62450   2
   2  23   2 28.9102 3.65650   1
   3 -23   2 36.7090 5.72236   3
  -3 -23  -2 39.2718 6.49236   2
   3  23   2 32.2726 4.90467   1
  -4 -23  -2 39.1985 6.90989   2
   4 -23   2 47.3381 9.78330   3
   4  23   2 40.2875 6.31600   1
  -4 -24   2 466.512 21.5905   2
   4  24  -2 484.964 19.9100   1
  -3 -24   2 78.6517 8.05050   2
   3  24  -2 80.2989 6.72412   1
   2  24  -2 39.1582 4.45633   1
  -1 -24   2 11.2268 2.47436   3
   1 -24  -2 10.5926 3.90474   1
   1  24  -2 13.9906 2.91601   1
   0 -24   2 269.333 13.0210   3
   0  24  -2 278.887 9.63068   1
   0  24   2 275.671 10.3407   1
   1 -24   2 551.644 20.9900   3
  -1 -24  -2 580.016 21.1086   2
   1  24   2 567.207 18.7167   1
   2 -24   2 53.4969 5.62092   3
  -2 -24  -2 55.0551 5.99015   2
   2  24   2 52.4497 4.81687   1
  -3 -24  -2 17.4493 4.34481   2
   3 -24   2 29.9984 4.80200   3
   3  24   2 26.4672 4.65539   1
  -4 -24  -2 254.739 15.7563   2
   4  24   2 261.816 12.9857   1
  -4 -25   2 30.7750 6.46570   2
   4  25  -2 38.4512 7.90368   1
  -3 -25   2 476.537 20.9422   2
   3  25  -2 476.557 18.6538   1
  -2 -25   2 1.79231 3.36777   2
   2  25  -2 2.34080 2.93347   1
  -1 -25   2 289.999 13.6537   3
   1  25  -2 266.756 10.8414   1
   0 -25   2 634.260 23.6612   3
   0  25  -2 644.699 18.9063   1
   0  25   2 655.532 19.9893   1
  -1 -25  -2 218.627 11.1766   2
   1 -25   2 198.682 11.1293   3
   1  25   2 212.187 9.34273   1
   2 -25   2 28.7054 4.90287   3
  -2 -25  -2 40.6814 6.30873   2
   2  25   2 29.2366 5.58354   1
  -3 -25  -2 19.7520 4.76127   2
   3 -25   2 18.6781 4.84678   3
   3  25   2 26.1379 5.02417   1
  -4 -25  -2 229.462 14.7571   2
   4  25   2 219.875 11.8282   1
  -4 -26   2 200.003 14.2057   2
   4  26  -2 186.286 12.1474   1
  -3 -26   2 28.9062 5.29224   2
   3  26  -2 22.2348 4.37162   1
  -2 -26   2 301.530 15.2412   2
   2  26  -2 328.998 13.5487   1
  -1 -26   2 112.896 8.63292   3
   1  26  -2 116.825 6.42422   1
   0 -26   2 84.3430 7.74337   3
   0  26   2 92.4926 5.31643   1
   0  26  -2 94.2671 4.81126   1
   1 -26   2 174.611 10.6323   3
  -1 -26  -2 192.830 10.5212   2
   1  26   2 180.105 8.58830   1
  -2 -26  -2 392.488 17.6145   2
   2  26   2 406.444 15.5837   1
  -3 -26  -2 46.2763 8.48461   2
   3 -26   2 36.3146 7.51715   3
  -4 -26  -2 1.63001 7.23914   2
   4  26   2 6.95970 5.85976   1
  -4 -27   2 12.8583 8.08741   2
   4  27  -2 -4.7965 6.64161   1
  -3 -27   2 202.638 12.3952   2
   3  27  -2 185.057 10.7605   1
  -2 -27   2 209.934 12.5014   2
   2  27  -2 224.643 11.2403   1
  -1 -27   2 69.5159 7.10614   3
   1  27  -2 75.2446 5.24626   1
   0 -27   2 1.01173 2.99932   3
   0  27   2 6.51027 2.27565   1
   0  27  -2 7.45232 2.02362   1
   1 -27   2 88.6891 7.63727   3
   1  27   2 85.9531 5.80684   1
   2 -27   2 13.8836 4.20894   3
  -2 -27  -2 15.1157 4.12649   2
  -3 -27  -2 1.61847 5.94774   2
   3 -27   2 -1.7161 5.35324   3
   3  27   2 3.17982 4.30608   1
  -3 -28   2 68.5813 9.68013   2
   3  28  -2 76.4401 7.44865   1
  -2 -28   2 101.509 8.82071   2
   2  28  -2 101.930 7.08861   1
  -1 -28   2 6.20056 3.98153   3
   1  28  -2 4.80285 2.90786   1
   0 -28   2 4.82232 3.54083   3
   0  28  -2 8.23476 2.33197   1
   0  28   2 8.33996 2.50284   1
   1 -28   2 77.7792 7.50804   3
  -1 -28  -2 86.5506 7.49654   2
   2 -28   2 37.1255 5.67829   3
  -2 -28  -2 42.9081 7.37312   2
   2  28   2 42.0445 5.20816   1
  -3 -28  -2 102.824 11.3128   2
   3 -28   2 105.891 10.5736   3
   3  28   2 98.0118 8.21816   1
  -3 -29   2 242.667 15.3576   2
   3  29  -2 270.565 13.0179   1
  -2 -29   2 223.558 13.2659   2
   2  29  -2 219.594 10.7005   1
   1  29  -2 150.154 7.74245   1
   0 -29   2 -0.8332 4.16578   3
   0  29   2 2.77959 2.63244   1
   0  29  -2 6.13535 2.49428   1
  -1 -29  -2 218.864 12.3308   2
   1 -29   2 204.625 12.2077   3
   1  29   2 222.321 9.94547   1
  -2 -29  -2 56.7139 8.40770   2
   2 -29   2 58.8163 8.15615   3
   2  29   2 59.4065 6.12417   1
   3 -29   2 184.549 13.5506   3
  -3 -29  -2 202.037 14.2674   2
   3  29   2 210.652 11.0982   1
  -3 -30   2 5.82248 7.43990   2
   3  30  -2 -6.6907 6.03386   1
  -2 -30   2 56.8126 8.77187   2
   2  30  -2 69.6558 6.48198   1
   1  30  -2 82.1981 5.78661   1
   0 -30   2 116.708 10.0707   3
   0  30   2 138.510 7.24723   1
  -1 -30  -2 271.660 14.3199   2
   1 -30   2 261.530 14.2576   3
   1  30   2 272.899 11.5954   1
   2 -30   2 11.5792 5.47087   3
  -2 -30  -2 11.9929 6.00860   2
   2  30   2 6.41037 4.19417   1
   3 -30   2 84.3975 11.6278   3
  -3 -30  -2 90.1842 12.9910   2
   3  30   2 101.700 8.65561   1
  -2 -31   2 39.0047 6.46180   2
   1  31  -2 270.559 11.8121   1
   0 -31   2 93.6214 9.70298   3
  -1 -31  -2 275.801 14.7666   2
   1 -31   2 283.475 15.1409   3
   1  31   2 284.795 12.0874   1
  -2 -31  -2 153.530 12.2016   2
   2 -31   2 132.672 11.5749   3
   2  31   2 149.678 9.25472   1
  -2 -32   2 14.1336 6.97702   2
   2  32  -2 11.8581 5.56680   1
   1  32  -2 38.0683 7.26454   1
   0 -32   2 0.30344 6.09542   3
   0  32   2 0.83539 3.90557   1
  -1 -32  -2 15.3681 6.00657   2
   1 -32   2 13.6823 6.12430   3
  -2 -32  -2 66.8519 12.0249   2
   2 -32   2 81.4626 11.6022   3
   2  32   2 92.9369 8.36117   1
   0 -33  -2 388.610 17.9869   2
   1 -33   2 27.6659 7.17416   3
  -1 -33  -2 20.3536 6.97108   2
   1  33   2 26.5469 5.14171   1
   0 -34  -2 31.5974 7.45761   2
   6   0  -3 -4.3179 5.31138   1
  -5   0   3 -0.0082 2.88914   2
   5   0  -3 -0.5053 3.26216   1
   4   0  -3 2.16261 1.18319   3
  -4   0   3 1.67977 1.75725   2
   3   0  -3 0.02297 1.47178   2
  -3   0   3 -1.2250 1.06931   2
   2   0  -3 1.00111 0.48019   3
  -2   0   3 0.16938 0.61852   2
  -1   0   3 2.23126 0.52569   2
   0   0  -3 -0.4301 0.27556   1
   1   0   3 -0.1669 0.59577   2
  -1   0  -3 0.48834 0.48810   2
   1   0   3 0.57619 0.30345   1
  -2   0  -3 1.42073 0.96337   1
   2   0   3 -0.7275 1.22277   2
  -2   0  -3 0.17580 0.90356   2
   2   0   3 2.25414 0.91241   1
   3   0   3 0.07827 0.97467   1
  -3   0  -3 -2.1757 1.32372   2
   3   0   3 -2.5228 2.45429   2
   4   0   3 1.94632 1.48076   1
   5   0   3 2.41357 2.44911   1
   6  -1  -3 38.0835 7.56541   1
   6   1  -3 50.3503 7.30605   1
   5  -1  -3 -4.4066 3.23687   1
  -5  -1   3 -3.7414 2.82888   2
   5   1  -3 -1.3103 3.34128   1
   4  -1  -3 977.967 25.3344   3
  -4  -1   3 989.805 30.2856   2
   4  -1  -3 961.745 29.4150   2
  -4   1   3 1008.51 29.9490   2
   4   1  -3 1000.60 25.9126   3
   4   1  -3 993.678 30.6163   1
   3  -1  -3 11.0104 1.07513   3
   3  -1  -3 11.6657 1.68559   2
  -3  -1   3 13.0447 2.12178   2
  -3   1   3 16.1236 2.16284   2
   3   1  -3 10.5361 2.25128   2
   2  -1  -3 2961.02 72.3708   2
  -2  -1   3 2741.18 72.7448   2
   2  -1  -3 3001.37 73.2581   3
   2   1  -3 3013.91 73.6579   3
  -2   1   3 2847.22 72.4240   2
  -1  -1   3 1352.58 34.5524   2
  -1  -1   3 1365.92 34.7555   3
  -1   1   3 1406.57 35.0288   2
  -1   1   3 1417.84 35.5488   3
   0  -1  -3 115.553 3.99999   1
   0   1   3 119.541 3.82055   2
   1  -1   3 2031.57 51.5937   2
   1  -1   3 2040.06 53.2580   1
  -1  -1  -3 1925.08 51.2415   2
  -1  -1  -3 2116.98 52.8843   1
  -1   1  -3 2113.03 53.6554   1
   1   1   3 2023.17 51.5667   2
   1   1   3 1966.60 50.9496   1
   2  -1   3 2336.88 59.4428   2
  -2  -1  -3 2159.48 58.8772   2
  -2  -1  -3 2240.36 57.5126   1
   2  -1   3 2211.79 57.8272   1
   2   1   3 2446.38 59.6781   2
   2   1   3 2206.55 56.8319   1
  -2   1  -3 2278.82 57.0627   1
   3  -1   3 321.879 10.4013   1
  -3  -1  -3 324.174 13.0015   2
   3  -1   3 288.190 11.9000   2
   3   1   3 297.754 12.2067   2
   3   1   3 325.719 10.8482   1
   4  -1   3 238.937 9.17950   1
  -4  -1  -3 242.224 11.8271   2
   4   1   3 236.778 9.53578   1
   5  -1   3 6.77393 2.52658   1
   6   1   3 480.582 17.1005   1
   6  -2  -3 126.256 9.69494   1
   6   2  -3 129.150 9.74737   1
  -5  -2   3 4.49886 2.94636   2
   5  -2  -3 5.81111 3.16879   1
   5   2  -3 9.24606 3.52953   1
  -4  -2   3 48.0470 4.33580   2
   4  -2  -3 32.5028 3.56218   2
   4   2  -3 39.9631 4.05710   1
   4   2  -3 39.4653 2.64776   3
  -4   2   3 42.5304 3.98241   2
   3  -2  -3 182.323 5.58998   3
   3  -2  -3 188.906 7.46683   2
  -3  -2   3 185.303 8.34172   2
  -3   2   3 177.853 7.66161   2
   3   2  -3 193.513 6.26777   3
   3   2  -3 185.389 7.52383   2
   2  -2  -3 136.412 5.25656   2
   2   2  -3 143.987 4.95309   3
  -2   2   3 134.781 5.24124   2
  -1  -2   3 1325.45 33.4160   3
  -1   2   3 1336.70 32.6724   2
   1   2  -3 1302.96 33.4750   3
   0  -2  -3 4807.09 119.443   1
   0   2   3 4613.82 116.125   2
   0   2   3 4482.06 118.471   1
  -1  -2  -3 6170.68 152.142   1
   1  -2   3 5887.65 150.998   2
  -1  -2  -3 5629.22 147.399   2
   1  -2   3 5758.61 146.175   1
   1   2   3 5953.47 148.980   2
   1   2   3 5523.11 147.148   1
  -1   2  -3 5961.40 146.903   1
   2  -2   3 1120.41 30.6890   2
  -2  -2  -3 1052.25 29.1324   1
   2  -2   3 1071.86 27.6560   1
  -2  -2  -3 1075.31 30.6219   2
   2   2   3 1024.03 28.4922   1
  -2   2  -3 1074.98 28.2725   1
   2   2   3 1120.97 30.6556   2
   3  -2   3 309.063 12.2746   2
  -3  -2  -3 319.597 12.8753   2
   3  -2   3 315.565 10.0198   1
   3   2   3 278.440 11.7510   2
   3   2   3 305.368 10.7255   1
  -4  -2  -3 3.48082 2.44578   2
   4  -2   3 5.61423 1.58039   1
   4   2   3 1.99364 1.58443   1
   5  -2   3 210.315 8.91034   1
   5   2   3 217.271 9.61038   1
   6   2   3 205.215 10.1791   1
   6  -3  -3 -0.5858 5.34382   1
  -6  -3   3 5.89475 5.19401   2
   6   3  -3 -1.3430 5.40569   1
  -5  -3   3 1046.94 33.5477   2
   5  -3  -3 1019.37 32.2694   1
   5   3  -3 1049.88 33.6113   1
   4  -3  -3 47.2797 5.09876   2
  -4  -3   3 66.6654 5.03837   2
   4   3  -3 58.5266 5.29198   1
   4   3  -3 64.7173 3.44649   3
   3  -3  -3 333.793 11.4721   2
  -3  -3   3 326.477 12.4840   2
   3   3  -3 340.581 10.2489   3
  -3   3   3 333.402 11.6666   2
  -2  -3   3 2111.62 51.9491   3
   2  -3  -3 2149.25 52.6664   2
  -2  -3   3 1979.04 53.7563   2
   2   3  -3 2137.96 52.8531   3
  -2   3   3 2074.67 52.4606   2
  -1  -3   3 320.580 9.56318   3
   1  -3  -3 315.216 8.36362   2
   1   3  -3 332.575 9.64015   3
   0  -3   3 3758.06 98.0767   3
   0  -3  -3 3890.62 97.2636   1
   0  -3  -3 3674.22 94.7363   2
   0   3   3 3611.72 97.0243   1
   0   3   3 3727.07 93.7443   2
   1  -3   3 563.325 18.5412   2
  -1  -3  -3 629.321 17.3446   1
   1  -3   3 642.622 16.0401   1
  -1  -3  -3 595.935 17.7273   2
  -1   3  -3 662.931 16.2669   1
   1   3   3 647.178 17.9138   2
   1   3   3 643.117 17.0700   1
   2  -3   3 90.1486 3.36846   1
  -2  -3  -3 91.5814 4.41134   1
  -2  -3  -3 85.2734 5.08014   2
   2  -3   3 87.8784 4.61740   2
  -2   3  -3 89.6920 3.69059   1
   2   3   3 90.8203 4.32532   1
   2   3   3 88.5557 4.79497   2
   3  -3   3 1667.43 41.8876   1
   3  -3   3 1576.77 45.6911   2
  -3  -3  -3 1690.85 46.5572   2
   3   3   3 1672.87 43.4936   1
   3   3   3 1573.42 45.4887   2
   4  -3   3 300.472 10.2332   1
  -4  -3  -3 290.258 13.5871   2
   4   3   3 289.491 11.3688   1
   5  -3   3 68.5300 4.56195   1
   5   3   3 70.2106 5.40958   1
   6   3   3 13.7404 4.84222   1
   6  -4  -3 36.8855 5.98469   1
  -6  -4   3 43.1230 8.05664   2
   6   4  -3 32.0498 5.94253   1
  -5  -4   3 72.2522 6.35292   2
   5  -4  -3 63.0844 5.81564   1
   5   4  -3 62.6408 6.13905   1
  -4  -4   3 11.0937 2.11952   2
   4  -4  -3 6.92508 3.17850   2
   4   4  -3 12.6468 2.89185   1
   4   4  -3 12.8032 2.59769   3
   3  -4  -3 411.593 13.5292   2
  -3  -4   3 402.837 14.7714   2
   3   4  -3 421.448 12.4177   3
   2  -4  -3 1144.19 29.5020   2
  -2  -4   3 1063.61 30.4884   2
  -2  -4   3 1107.48 28.4405   3
   2   4  -3 1175.24 29.4052   3
   1  -4  -3 257.502 6.82679   2
  -1  -4   3 244.169 7.99342   3
   1   4  -3 252.724 8.03920   3
   0  -4  -3 7.76324 0.75374   1
   0  -4   3 10.2521 0.95653   3
   0  -4  -3 9.00143 0.76927   2
   0   4   3 8.47386 0.87288   1
  -1   4  -3 6.93595 0.51935   1
   1   4   3 5.14927 0.99952   2
  -2  -4  -3 248.956 8.89065   1
   2  -4   3 238.754 7.01377   1
  -2  -4  -3 245.182 9.88823   2
   2  -4   3 246.873 9.46075   2
   2   4   3 240.717 9.23390   2
   2   4   3 229.390 8.47602   1
  -3  -4  -3 106.480 6.76092   2
   3  -4   3 89.6534 6.22087   2
   3  -4   3 109.147 4.37221   1
   3   4   3 92.7659 6.52206   2
   3   4   3 114.480 5.65698   1
   4  -4   3 400.156 12.6512   1
  -4  -4  -3 405.288 16.9369   2
   4   4   3 403.876 14.5210   1
  -5  -4  -3 476.347 19.7529   2
   5  -4   3 465.665 14.8284   1
   5   4   3 457.965 16.7115   1
   6   4   3 25.8815 5.18715   1
  -6  -5   3 -0.3682 5.31488   2
   6  -5  -3 5.01138 5.51240   1
   6   5  -3 13.4324 5.81920   1
   5  -5  -3 383.253 15.2733   1
  -5  -5   3 397.370 16.7552   2
   5   5  -3 384.722 16.6744   1
   4  -5  -3 96.7761 6.10621   2
  -4  -5   3 106.531 6.70166   2
   4   5  -3 89.1925 4.76157   3
   4   5  -3 103.782 6.76836   1
  -3  -5   3 575.762 19.3877   2
   3  -5  -3 587.219 17.9934   2
   3   5  -3 598.268 16.9803   3
  -2  -5   3 248.541 7.69065   3
   2  -5  -3 251.531 8.18259   2
  -2  -5   3 239.160 9.18104   2
   2   5  -3 254.739 8.28569   3
   1  -5  -3 1125.01 27.6211   2
  -1  -5   3 1145.65 29.2982   3
   1  -5  -3 1088.59 28.5781   1
   1   5  -3 1065.49 29.8748   3
  -1   5   3 1155.56 28.6789   3
   0  -5  -3 584.370 14.9190   2
   0  -5   3 550.677 15.7635   3
   0  -5  -3 574.890 15.3459   1
   0   5   3 536.420 15.2204   1
  -1  -5  -3 2717.70 66.4685   1
  -1  -5  -3 2581.30 66.8222   2
  -1   5  -3 2694.21 66.3000   1
   1   5   3 2544.59 67.2863   1
   1   5   3 2732.08 66.6271   2
   2  -5   3 18.4936 1.00735   1
   2  -5   3 20.1106 2.33179   2
  -2  -5  -3 20.8255 2.10909   1
  -2  -5  -3 15.7786 2.17088   2
   2   5   3 19.3071 1.93006   1
   2   5   3 14.1136 2.21986   2
  -3  -5  -3 1433.68 41.0210   1
  -3  -5  -3 1524.24 43.2459   2
   3   5   3 1520.31 40.4977   1
   4  -5   3 366.862 11.7436   1
  -4  -5  -3 398.693 16.6865   2
   4   5   3 378.542 14.0868   1
   5  -5   3 25.1975 3.24098   1
  -5  -5  -3 34.6273 5.97321   2
   5   5   3 39.5770 4.44934   1
   6   5   3 9.88946 4.99996   1
   6  -6  -3 478.650 18.9359   1
  -6  -6   3 497.684 20.9059   2
   6   6  -3 508.017 20.4986   1
   5  -6  -3 31.2215 4.95112   1
  -5  -6   3 39.6836 5.66037   2
   5   6  -3 25.3185 5.31734   1
   4  -6  -3 188.875 8.94507   2
  -4  -6   3 218.263 10.5847   2
   4   6  -3 194.388 7.73810   3
   4   6  -3 219.551 10.7610   1
  -3  -6   3 65.6027 4.66368   2
   3  -6  -3 61.2672 3.86820   2
   3   6  -3 57.6483 3.41618   3
   2  -6  -3 96.5765 4.10618   2
  -2  -6   3 97.5015 5.11020   2
   2   6  -3 98.8319 4.36993   3
   1  -6  -3 1748.16 43.6757   1
   1   6  -3 1724.47 44.3922   3
  -1   6   3 1757.90 43.7970   3
   0  -6   3 8313.60 222.187   3
   0  -6  -3 8695.76 215.257   2
   0  -6  -3 8539.39 217.492   1
   0   6  -3 8915.09 219.506   3
  -1  -6  -3 37.5155 2.46695   1
   1  -6   3 41.2596 2.25531   3
   1   6   3 40.3042 2.56259   1
  -1   6  -3 41.6539 1.45619   1
   1   6   3 39.9178 2.88941   2
  -2  -6  -3 302.689 10.7055   1
   2  -6   3 298.396 7.85934   1
   2  -6   3 294.296 10.8845   2
  -2  -6  -3 289.331 11.4968   2
   2   6   3 290.329 10.6743   2
   2   6   3 296.473 10.3042   1
  -3  -6  -3 508.804 18.6131   2
   3  -6   3 507.951 13.6732   1
  -3  -6  -3 483.950 16.6740   1
   3   6   3 517.164 16.5840   1
   4  -6   3 320.898 10.0284   1
  -4  -6  -3 324.776 14.8768   2
   4   6   3 312.561 12.5217   1
   5  -6   3 39.1762 3.22994   1
  -5  -6  -3 37.5466 6.29451   2
   5   6   3 42.5574 4.72985   1
   6   6   3 1.16190 5.17256   1
  -6  -7   3 321.319 15.8297   2
   6   7  -3 294.379 15.0927   1
  -5  -7   3 -1.7381 3.62490   2
   5  -7  -3 3.50150 3.19393   1
  -4  -7   3 565.652 20.4827   2
   4  -7  -3 518.804 17.9812   2
   4   7  -3 524.957 16.7114   3
   4   7  -3 576.382 20.6748   1
   3  -7  -3 63.9820 3.89486   2
  -3  -7   3 66.9759 4.84730   2
   3   7  -3 65.5856 4.82284   1
   3   7  -3 51.8767 3.29628   3
  -2  -7   3 451.498 15.2522   2
   2  -7  -3 480.512 13.8266   2
  -2  -7   3 459.036 13.7966   3
   2   7  -3 486.845 14.3066   3
  -1  -7   3 62.5655 3.50524   3
   1  -7  -3 55.5674 3.00289   1
  -1   7   3 65.4736 2.92447   3
   1   7  -3 64.0553 3.16773   3
   0  -7  -3 211.491 6.54512   2
   0   7  -3 188.070 7.52792   3
   1  -7   3 75.1969 3.61319   3
  -1  -7  -3 78.4129 4.45082   2
  -1  -7  -3 75.7781 3.71027   1
  -1   7  -3 84.7311 2.29274   1
   1   7   3 71.8113 3.65971   2
   1   7   3 81.6262 3.94469   1
   2  -7   3 2907.86 74.8807   2
  -2  -7  -3 2912.75 74.4242   1
  -2  -7  -3 2875.59 75.3802   2
   2   7   3 3077.18 75.0203   2
   2   7   3 2764.38 73.3681   1
  -3  -7  -3 81.7820 5.90331   2
   3  -7   3 73.5063 2.70533   1
  -3  -7  -3 63.9875 4.74638   1
   3   7   3 78.3322 4.84428   1
   4  -7   3 42.5205 2.48512   1
   4   7   3 40.0825 4.05172   1
   5  -7   3 158.744 6.66409   1
  -5  -7  -3 163.554 10.4382   2
   6   7   3 44.0838 7.46425   1
  -6  -8   3 1.15534 6.33061   2
   6   8  -3 0.21280 6.26002   1
   5  -8  -3 3.21951 3.18662   1
  -5  -8   3 1.92095 3.84855   2
   5   8  -3 -2.8800 3.79723   1
   4  -8  -3 46.5594 5.49722   2
  -4  -8   3 61.7749 5.31866   2
   4   8  -3 58.5722 5.41472   1
   3  -8  -3 1279.80 34.5835   2
  -3  -8   3 1194.42 36.1668   2
   3   8  -3 1253.20 33.8912   3
   3   8  -3 1264.78 36.7570   1
  -2  -8   3 1252.87 35.0552   2
   2  -8  -3 1276.04 33.1958   2
  -2  -8   3 1222.72 33.2778   3
   2   8  -3 1301.65 33.8804   3
  -1  -8   3 18.7035 1.95032   3
   1  -8  -3 17.5819 1.57854   1
  -1   8   3 17.7850 1.43279   3
   1   8  -3 18.8669 1.65319   3
   0  -8  -3 698.627 19.0330   1
   0  -8  -3 684.241 18.6178   2
   0  -8   3 712.467 19.8505   3
   0   8   3 692.017 19.7123   3
   0   8  -3 684.491 19.3220   3
  -1  -8  -3 2446.84 62.0583   2
  -1  -8  -3 2456.80 61.8190   1
   1   8   3 2382.06 61.0908   1
  -2  -8  -3 90.8542 5.66040   2
  -2  -8  -3 87.9824 4.82648   1
   2  -8   3 82.0350 4.76057   2
   2   8   3 88.6151 4.79115   2
   2   8   3 100.095 5.09393   1
   3  -8   3 651.583 16.3183   1
  -3  -8  -3 646.098 22.5210   2
   3   8   3 644.021 20.4409   1
   4  -8   3 377.099 10.5878   1
   4  -8   3 340.750 12.9808   3
  -4  -8  -3 410.438 17.0557   2
   4   8   3 377.945 14.4778   1
  -5  -8  -3 408.253 18.3353   2
   5   8   3 407.745 15.9714   1
  -6  -8  -3 214.063 13.8623   2
   6   8   3 210.568 11.4209   1
  -6  -9   3 -8.1447 6.59314   2
   6   9  -3 -11.075 6.58364   1
   5  -9  -3 4.22372 3.22383   1
  -5  -9   3 4.50957 6.23346   2
   5   9  -3 -2.7022 4.06359   1
  -4  -9   3 336.440 14.9528   2
   4   9  -3 350.647 15.1428   1
  -3  -9   3 0.47449 1.48939   2
   3  -9  -3 1.06626 1.82982   2
   3   9  -3 1.96740 1.67067   1
  -2  -9   3 466.064 14.5822   3
   2  -9  -3 477.286 13.6783   1
   2  -9  -3 487.508 14.2136   2
  -2  -9   3 476.961 15.9956   2
   2   9  -3 480.870 16.2557   1
   2   9  -3 474.515 14.8125   3
   1  -9  -3 113.163 4.26636   1
  -1  -9   3 108.665 5.23030   3
   1   9  -3 109.219 4.85706   3
  -1   9   3 113.355 4.58262   3
   0  -9   3 1.25679 0.77083   3
   0  -9  -3 1.08247 0.66266   1
   0   9  -3 1.27516 0.80068   3
   0   9   3 1.96980 0.73799   1
   0   9   3 -0.4672 0.83573   3
  -1  -9  -3 812.588 22.7688   1
   1  -9   3 792.200 22.2796   3
  -1  -9  -3 794.245 22.9728   2
   1   9   3 777.041 22.0721   1
   2  -9   3 257.805 9.34410   3
  -2  -9  -3 266.536 10.1678   1
   2  -9   3 242.250 9.73591   2
  -2  -9  -3 261.884 10.9914   2
   2   9   3 251.853 9.65514   1
  -3  -9  -3 334.487 14.1040   2
   3  -9   3 304.134 10.9065   3
   3   9   3 318.662 12.2447   1
  -4  -9  -3 99.4409 7.70395   2
   4  -9   3 93.4057 2.98277   1
   4  -9   3 98.1149 4.92587   3
   4   9   3 95.6154 6.16797   1
  -5  -9  -3 1.55894 4.15548   2
   5   9   3 11.1445 3.38166   1
  -6  -9  -3 -7.3044 7.49925   2
   6   9   3 12.4137 5.78099   1
  -6 -10   3 9.26517 6.70269   2
   6  10  -3 18.6061 6.65985   1
   5 -10  -3 31.8978 5.00640   1
  -5 -10   3 35.2092 6.33305   2
   5  10  -3 29.2372 5.76399   1
  -4 -10   3 155.880 9.51391   2
   4  10  -3 164.314 9.61104   1
  -3 -10   3 678.078 23.2886   2
   3 -10  -3 726.322 21.2605   2
   3  10  -3 712.151 23.5279   1
   3  10  -3 689.835 21.0389   3
  -2 -10   3 345.187 12.6443   2
  -2 -10   3 334.886 11.4205   3
   2 -10  -3 353.098 10.2996   1
   2 -10  -3 329.844 11.6315   2
   2  10  -3 323.756 11.2872   3
   2  10  -3 335.378 12.6843   1
   1 -10  -3 856.708 22.5740   1
  -1 -10   3 821.099 24.0302   3
  -1  10   3 887.106 23.2314   3
   1  10  -3 834.955 24.0280   1
   1  10  -3 835.721 23.7621   3
   0 -10  -3 608.916 16.8972   1
   0 -10   3 565.727 17.5688   3
   0  10   3 560.014 16.4273   1
   0  10  -3 579.242 16.1895   1
   0  10  -3 600.397 17.1256   3
   0  10   3 602.669 17.5738   3
  -1 -10  -3 2971.95 77.2427   2
   1 -10   3 3024.44 76.5593   3
  -1 -10  -3 3092.72 77.1898   1
   1  10   3 3164.81 77.5766   3
   1  10   3 2984.54 78.3705   1
  -2 -10  -3 668.646 21.9165   2
   2 -10   3 672.633 19.5958   3
  -2 -10  -3 667.280 21.0303   1
   2  10   3 694.058 20.5771   1
  -3 -10  -3 67.4177 5.57203   2
   3 -10   3 79.4430 4.27234   3
   3  10   3 73.6242 4.99430   1
  -4 -10  -3 20.4164 3.95760   2
   4 -10   3 16.9997 2.50984   3
   4  10   3 20.4325 3.25961   1
  -5 -10  -3 201.950 12.7094   2
   5  10   3 212.184 10.4883   1
  -6 -10  -3 197.585 13.8941   2
   6  10   3 199.852 11.4713   1
  -6 -11   3 57.5573 8.51565   2
   6  11  -3 78.2943 9.47954   1
   5 -11  -3 242.446 10.6154   1
  -5 -11   3 249.373 13.5097   2
   5  11  -3 247.246 13.2882   1
  -4 -11   3 52.3263 5.25260   2
   4  11  -3 40.1764 4.92158   1
   3 -11  -3 1.45752 2.05537   2
  -3 -11   3 0.71838 1.61473   2
   3 -11  -3 0.57844 1.27411   1
   3  11  -3 -2.7876 2.20922   3
   3  11  -3 1.63631 1.78752   1
  -2 -11   3 594.495 18.4567   3
   2 -11  -3 632.555 17.0040   1
  -2 -11   3 604.443 19.7563   2
   2 -11  -3 644.530 17.8624   2
   2  11  -3 589.266 19.6779   1
   2  11  -3 592.945 18.4569   3
  -1 -11   3 10.3816 1.68638   3
   1 -11  -3 9.18457 1.21886   1
  -1  11   3 11.5230 1.37793   3
   1  11  -3 11.0613 1.63174   1
   1  11  -3 8.86704 1.81645   3
   0 -11  -3 120.660 5.02619   1
   0 -11   3 109.373 5.66656   3
   0  11   3 119.617 5.00898   1
   0  11   3 122.194 5.55620   3
   0  11  -3 123.066 5.29619   3
   0  11  -3 117.637 4.62564   1
  -1 -11  -3 175.544 7.48042   2
  -1 -11  -3 160.173 6.75206   1
   1 -11   3 161.400 6.98859   3
   1  11   3 163.365 6.73837   1
   1  11   3 165.336 7.04689   3
  -2 -11  -3 3869.38 99.6006   2
  -2 -11  -3 3732.26 98.6197   1
   2 -11   3 3845.75 96.6691   3
   2  11   3 4067.54 98.5512   3
   2  11   3 3875.72 97.6816   1
  -3 -11  -3 9.49659 2.25913   2
   3 -11   3 13.2172 2.12593   3
   3  11   3 10.8254 2.26052   1
  -4 -11  -3 63.7176 6.30705   2
   4 -11   3 64.4556 4.22057   3
   4  11   3 64.9970 5.32301   1
  -5 -11  -3 174.528 11.5831   2
   5  11   3 178.235 9.75173   1
  -6 -12   3 560.188 24.6260   2
   6  12  -3 568.621 22.7494   1
  -5 -12   3 85.9091 8.22493   2
   5 -12  -3 93.7591 6.43320   1
   5  12  -3 91.3610 7.62024   1
   4 -12  -3 253.184 8.96474   1
  -4 -12   3 272.540 13.3491   2
   4  12  -3 272.639 13.0043   1
   3 -12  -3 243.653 9.50603   2
  -3 -12   3 250.740 11.6756   2
   3 -12  -3 248.368 8.24084   1
   3  12  -3 253.749 11.6402   1
  -2 -12   3 926.125 28.2566   2
   2 -12  -3 971.155 25.0925   1
  -2 -12   3 914.327 26.9094   3
  -2  12   3 935.232 23.8031   3
   2  12  -3 961.685 27.1900   3
   2  12  -3 952.541 28.3151   1
   1 -12  -3 1083.95 27.4175   1
  -1 -12   3 976.039 28.9392   3
  -1  12   3 1023.99 28.0200   3
   1  12  -3 1024.47 28.6799   3
   1  12  -3 1038.28 28.8366   1
   0 -12  -3 190.262 7.14336   1
   0 -12   3 183.618 7.89948   3
   0  12   3 177.529 6.82668   1
   0  12   3 193.027 7.68229   3
   0  12  -3 184.405 6.49502   1
   0  12  -3 188.249 7.30189   3
  -1 -12  -3 240.882 9.62435   2
   1 -12   3 240.353 9.34056   3
  -1 -12  -3 241.030 9.22009   1
   1  12   3 253.281 9.65686   3
   1  12   3 249.822 9.09330   1
  -2 -12  -3 107.498 6.01725   1
   2 -12   3 125.396 5.90782   3
  -2 -12  -3 122.526 7.05455   2
   2  12   3 127.213 6.30739   1
   2  12   3 119.189 6.19619   3
  -3 -12  -3 1.67264 1.99815   2
   3 -12   3 3.71405 1.38169   3
   3  12   3 5.19799 1.84889   1
   4 -12   3 390.820 13.2112   3
  -4 -12  -3 401.361 17.5792   2
   4  12   3 383.346 15.2762   1
  -5 -12  -3 64.1665 7.99229   2
   5  12   3 71.5454 6.14823   1
   6  13  -3 52.8712 10.0920   1
   5 -13  -3 54.3103 5.58690   1
  -5 -13   3 49.5064 7.62687   2
   5  13  -3 48.8262 6.72083   1
   4 -13  -3 43.0132 3.54596   1
  -4 -13   3 48.4786 5.62179   2
   4  13  -3 50.2142 5.17052   1
   3 -13  -3 1.98629 2.40935   2
   3 -13  -3 -0.4132 1.33187   1
  -3 -13   3 2.53219 1.77633   2
   3  13  -3 -1.7190 2.03941   1
   2 -13  -3 397.895 11.5570   1
  -2 -13   3 386.586 13.4813   3
   2  13  -3 359.334 12.9829   3
  -2  13   3 381.914 10.6324   3
   2  13  -3 395.401 14.4224   1
  -1 -13   3 292.164 11.0607   3
   1 -13  -3 294.255 9.33883   1
   1  13  -3 285.117 10.5612   1
  -1  13   3 291.907 9.84259   3
   1  13  -3 273.152 10.1310   3
   0 -13   3 9.35347 1.90304   3
   0 -13  -3 12.5607 1.58498   1
   0  13   3 10.9136 1.48702   3
   0  13  -3 10.1664 1.95817   3
   0  13   3 14.7373 1.58868   1
   0  13  -3 10.8927 1.13564   1
   1 -13   3 273.211 10.3919   3
  -1 -13  -3 277.310 10.2865   1
  -1 -13  -3 260.609 10.3784   2
   1  13   3 276.590 9.90156   1
   1  13   3 268.496 10.3769   3
   2 -13   3 12.5286 2.25817   3
  -2 -13  -3 14.7682 2.66204   2
   2  13   3 13.4398 2.59155   3
   2  13   3 13.2671 2.07883   1
   3 -13   3 194.843 8.23790   3
  -3 -13  -3 195.884 10.5997   2
   3  13   3 210.270 9.60076   1
  -4 -13  -3 6.09355 3.35221   2
   4 -13   3 4.01456 2.13216   3
   4  13   3 5.41732 2.46072   1
  -5 -13  -3 17.4647 5.05161   2
   5  13   3 27.5522 5.57421   1
  -6 -14   3 418.723 22.0615   2
   6  14  -3 453.538 20.3861   1
  -5 -14   3 40.8275 7.55365   2
   5 -14  -3 54.7729 7.58860   1
   5  14  -3 36.6432 6.66227   1
  -4 -14   3 433.773 18.5903   2
   4  14  -3 422.887 17.8293   1
   3 -14  -3 104.421 4.44676   1
  -3 -14   3 109.478 7.18194   2
   3 -14  -3 110.994 6.10658   2
   3  14  -3 95.8800 6.81373   1
   2 -14  -3 104.427 4.31907   1
  -2 -14   3 108.201 5.92367   3
   2  14  -3 96.8504 5.68154   3
  -2  14   3 104.096 3.83453   3
   2  14  -3 106.107 6.31681   1
  -1 -14   3 135.317 6.83582   3
   1 -14  -3 137.337 5.37309   1
   1  14  -3 120.981 5.86113   3
   1  14  -3 127.310 6.27722   1
  -1  14   3 134.619 5.65954   3
   0 -14  -3 1968.16 50.3072   1
   0 -14   3 1965.75 51.5610   3
   0  14   3 1893.22 50.9382   3
   0  14   3 1859.47 49.3610   1
   0  14  -3 1970.51 50.6810   3
   1 -14   3 384.883 13.3351   3
  -1 -14  -3 372.138 12.9715   1
  -1 -14  -3 368.191 13.2338   2
   1  14   3 349.193 12.2188   1
   1  14   3 340.434 12.6066   3
  -2 -14  -3 25.9814 3.19704   2
   2 -14   3 21.4091 2.75509   3
   2  14   3 21.8731 2.45613   1
  -3 -14  -3 443.621 18.1415   2
   3 -14   3 438.282 14.8514   3
   3  14   3 438.050 16.1110   1
   4 -14   3 317.086 11.7220   3
   4  14   3 298.335 17.1396   1
  -5 -14  -3 103.986 9.96634   2
   5  14   3 100.588 8.11383   1
  -5 -15   3 482.127 20.8025   2
   5  15  -3 431.254 19.1377   1
  -4 -15   3 34.4874 5.43388   2
   4  15  -3 33.5379 4.74639   1
   3 -15  -3 149.089 7.26569   2
  -3 -15   3 154.808 8.94075   2
   3 -15  -3 152.377 5.70484   1
   3  15  -3 154.337 8.80589   1
  -2 -15   3 3.72258 1.47129   3
   2 -15  -3 4.10410 1.23237   1
  -2  15   3 2.16677 1.01979   3
   2  15  -3 2.49576 1.81007   1
  -1 -15   3 1828.09 49.6783   3
   1 -15  -3 1866.90 47.3887   1
   1  15  -3 1849.41 49.0803   3
   1  15  -3 1815.88 48.6227   1
  -1  15   3 1795.81 47.2745   1
  -1  15   3 1861.43 48.1590   3
   0 -15  -3 836.642 23.4038   1
   0 -15   3 836.570 24.7511   3
   0  15   3 817.637 22.6483   1
   0  15   3 765.884 23.6618   3
   0  15  -3 835.824 23.6232   3
   0  15  -3 737.271 23.0023   1
   1 -15   3 320.820 11.9955   3
  -1 -15  -3 317.535 12.0935   2
  -1 -15  -3 307.884 11.5651   1
   1  15   3 293.081 11.5827   3
   1  15   3 310.840 11.1126   1
   2 -15   3 432.916 14.9721   3
  -2 -15  -3 434.984 16.4467   2
   2  15   3 414.083 14.8977   1
   3 -15   3 578.410 18.7851   3
  -3 -15  -3 579.879 22.1280   2
   3  15   3 592.251 20.0954   1
  -4 -15  -3 56.0158 6.57287   2
   4 -15   3 48.9332 4.86775   3
   4  15   3 56.4939 5.11448   1
  -5 -15  -3 349.701 17.8400   2
   5  15   3 344.721 15.2140   1
  -5 -16   3 165.412 11.7903   2
   5  16  -3 154.341 10.6272   1
  -4 -16   3 10.3866 3.66450   2
   4  16  -3 4.63255 5.71142   1
  -3 -16   3 810.443 27.7427   2
   3 -16  -3 819.782 22.0390   1
   3 -16  -3 799.559 24.3869   2
   3  16  -3 790.226 26.8011   1
   2 -16  -3 191.602 6.80974   1
  -2 -16   3 186.568 8.80491   3
  -2  16   3 186.718 6.36203   3
   2  16  -3 188.931 9.17480   1
  -1 -16   3 42.0880 3.63860   3
   1 -16  -3 35.3906 2.60122   1
   1  16  -3 31.0311 3.05682   1
  -1  16   3 36.5632 2.70751   1
  -1  16   3 30.6685 2.84423   3
   0 -16  -3 -1.2967 1.67778   1
   0 -16   3 1.16818 1.36381   3
   0  16   3 3.41041 1.23511   1
   0  16  -3 0.76731 0.87834   1
   0  16  -3 2.68231 1.84176   3
   0  16   3 0.92124 1.86072   3
   1 -16   3 692.093 21.8016   3
  -1 -16  -3 657.287 21.1880   1
  -1 -16  -3 684.567 21.9059   2
   1  16   3 696.110 23.3419   3
   1  16   3 699.182 20.7418   1
  -2 -16  -3 211.334 10.3331   2
   2 -16   3 209.110 9.19637   3
   2  16   3 203.372 9.07498   1
  -3 -16  -3 150.697 9.26845   2
   3 -16   3 137.530 7.41201   3
   3  16   3 156.359 8.21662   1
  -4 -16  -3 2.31108 3.93570   2
   4 -16   3 5.33715 2.82897   3
   4  16   3 8.74850 3.09661   1
  -5 -16  -3 62.8303 9.52564   2
   5  16   3 60.8070 6.85774   1
  -5 -17   3 197.238 13.3831   2
   5  17  -3 196.152 11.5473   1
  -4 -17   3 -1.6134 3.63130   2
   4  17  -3 -2.9055 3.32904   1
   3 -17  -3 111.054 6.68905   2
  -3 -17   3 122.784 7.97127   2
   3 -17  -3 111.227 4.86400   1
   3  17  -3 115.969 7.70525   1
  -2 -17   3 120.159 6.77460   3
   2 -17  -3 116.514 5.04034   1
  -2  17   3 119.801 4.71872   3
   2  17  -3 122.478 7.03304   1
  -1 -17   3 71.4098 4.96970   3
   1 -17  -3 61.4654 3.86985   1
  -1  17   3 68.1441 3.89546   1
  -1  17   3 64.3685 4.28790   3
   1  17  -3 64.4403 4.30857   1
   0 -17  -3 268.996 10.1066   1
   0 -17   3 281.255 11.5111   3
   0  17   3 249.663 10.1065   3
   0  17   3 282.052 9.77000   1
   0  17  -3 276.129 10.1060   3
   0  17  -3 269.244 9.11947   1
  -1 -17  -3 2.43906 1.39179   2
   1 -17   3 2.82006 1.46130   3
   1  17   3 2.69394 1.15965   1
  -1  17  -3 1.91867 1.82639   3
  -1  17  -3 3.13024 0.55229   1
   2 -17   3 0.40773 1.61106   3
  -2 -17  -3 1.32984 1.88421   2
   2  17   3 1.18071 1.56503   1
  -3 -17  -3 533.470 20.8904   2
   3 -17   3 513.232 17.7310   3
   3  17   3 517.055 18.6944   1
   4 -17   3 93.4387 6.45919   3
  -4 -17  -3 86.6672 8.24726   2
   4  17   3 88.8280 6.85195   1
  -5 -17  -3 -8.9632 6.72864   2
   5  17   3 2.22094 4.61656   1
  -5 -18   3 27.2292 7.12947   2
   5  18  -3 38.1168 6.56501   1
  -4 -18   3 201.785 11.9958   2
   4  18  -3 204.208 11.1659   1
  -3 -18   3 56.3622 5.64586   2
   3 -18  -3 47.2021 3.47874   1
   3  18  -3 51.5541 4.90002   1
  -2 -18   3 219.478 10.1500   3
   2 -18  -3 228.794 7.99589   1
   2  18  -3 219.598 10.1852   1
  -2  18   3 214.061 7.44571   3
  -1 -18   3 152.055 8.06360   3
   1 -18  -3 142.835 6.26058   1
  -1  18   3 146.860 6.37424   1
   1  18  -3 145.396 7.04428   1
  -1  18   3 147.092 6.59831   3
   0 -18  -3 1925.60 51.3396   1
   0 -18   3 1942.14 53.0497   3
   0  18   3 1947.60 50.2183   1
   0  18   3 1856.13 51.9058   3
   0  18  -3 1968.47 49.3948   1
   0  18  -3 1947.13 51.6278   3
   1 -18   3 403.299 15.0626   3
  -1 -18  -3 396.646 14.9649   2
  -1  18  -3 397.784 10.1486   1
  -1  18  -3 392.677 13.0851   3
   1  18   3 391.218 13.6436   1
   2 -18   3 39.0873 4.01177   3
  -2 -18  -3 36.3995 4.46550   2
   2  18   3 44.5342 3.81495   1
   3 -18   3 140.155 7.74439   3
  -3 -18  -3 140.967 9.06235   2
   3  18   3 139.120 7.75406   1
   4 -18   3 103.160 7.11278   3
  -4 -18  -3 102.259 9.15453   2
   4  18   3 97.7179 7.15550   1
  -5 -18  -3 26.8582 7.35679   2
   5  18   3 17.5799 4.97135   1
  -5 -19   3 6.36411 6.83261   2
   5  19  -3 8.93981 6.54410   1
  -4 -19   3 1442.82 46.2452   2
   4  19  -3 1402.68 44.1254   1
  -3 -19   3 513.943 20.6962   2
   3  19  -3 511.097 19.6575   1
   2 -19  -3 641.947 18.7735   1
  -2 -19   3 657.172 22.0227   3
   2  19  -3 659.280 21.8238   1
  -2  19   3 623.968 19.7757   3
  -1 -19   3 30.6023 3.56289   3
   1 -19  -3 25.4985 2.95582   1
  -1  19   3 24.8333 2.49848   1
  -1  19   3 21.3662 3.69459   3
   1  19  -3 25.9548 2.79840   1
   0 -19  -3 26.3543 3.50787   1
   0 -19   3 22.5330 3.44654   3
   0  19  -3 28.7263 2.26668   1
  -1 -19  -3 443.399 16.2799   2
   1 -19   3 446.681 16.3517   3
   1  19   3 429.704 14.7100   1
  -1  19  -3 415.001 14.1073   3
  -1  19  -3 427.301 11.0600   1
   2 -19   3 1183.52 35.2316   3
  -2 -19  -3 1240.78 37.3412   2
   2  19   3 1158.74 34.5958   1
   3 -19   3 20.8252 4.04853   3
  -3 -19  -3 22.7482 4.73222   2
   3  19   3 26.4783 3.47212   1
   4 -19   3 42.5122 5.80850   3
  -4 -19  -3 34.7529 5.61650   2
   4  19   3 47.1301 5.14364   1
  -5 -19  -3 148.682 12.4468   2
   5  19   3 130.781 9.47858   1
  -5 -20   3 53.4510 7.89436   2
   5  20  -3 46.5123 9.00047   1
  -4 -20   3 51.7128 7.51156   2
   4  20  -3 67.1009 6.33037   1
  -3 -20   3 130.232 8.62614   2
   3  20  -3 125.623 8.09446   1
   2 -20  -3 254.057 9.09352   1
  -2 -20   3 268.217 11.8598   3
  -2  20   3 214.646 10.5059   3
   2  20  -3 267.193 11.4527   1
   1 -20  -3 191.426 8.12675   1
  -1 -20   3 212.305 10.2959   3
   1  20  -3 204.799 8.80716   1
  -1  20   3 214.701 8.74026   3
  -1  20   3 204.081 8.14832   1
   0 -20  -3 543.965 19.7771   1
   0 -20   3 477.456 18.0832   3
   0  20  -3 480.765 14.7943   1
   0  20   3 484.508 15.6618   1
   1 -20   3 3.33142 1.88505   3
  -1 -20  -3 1.21187 1.74172   2
  -1  20  -3 3.73162 2.66621   3
  -1  20  -3 2.53287 0.55522   1
   1  20   3 4.69721 1.54007   1
   2 -20   3 30.0705 3.86835   3
  -2 -20  -3 21.1169 4.11599   2
   2  20   3 29.9090 3.32509   1
   3 -20   3 256.442 11.5054   3
  -3 -20  -3 257.031 13.5945   2
   3  20   3 247.580 15.0798   1
   4 -20   3 120.950 8.24857   3
  -4 -20  -3 125.153 9.72795   2
   4  20   3 122.668 7.81897   1
  -5 -20  -3 40.6975 7.72461   2
   5  20   3 32.6215 5.73888   1
  -5 -21   3 59.9658 9.19117   2
   5  21  -3 56.1525 9.39948   1
  -4 -21   3 204.089 12.5722   2
   4  21  -3 175.652 10.8053   1
   3  21  -3 91.3357 6.65015   1
   2 -21  -3 0.96208 2.68179   1
  -2 -21   3 -2.7060 2.32363   3
  -2  21   3 -0.9028 2.33039   3
   2  21  -3 -1.7926 2.16740   1
  -1 -21   3 411.275 16.2537   3
   1 -21  -3 388.300 13.6158   1
   1  21  -3 414.389 14.3472   1
  -1  21   3 400.255 14.2131   3
   0 -21   3 334.700 14.1870   3
   0  21  -3 345.137 11.1117   1
   0  21   3 344.385 12.0026   1
   1 -21   3 66.3703 5.38753   3
  -1 -21  -3 70.3656 5.43689   2
  -1  21  -3 72.5420 5.52280   3
   1  21   3 74.2762 4.77463   1
  -2 -21  -3 163.205 9.70335   2
   2 -21   3 167.308 8.95893   3
   2  21   3 165.131 8.44354   1
   3 -21   3 6.66325 3.14445   3
  -3 -21  -3 2.44783 3.92730   2
   3  21   3 5.31171 2.70680   1
  -4 -21  -3 52.6267 8.14430   2
   4 -21   3 43.7759 7.09719   3
   4  21   3 52.7472 5.83792   1
  -5 -22   3 -5.6350 8.25521   2
   5  22  -3 20.3205 7.25597   1
  -4 -22   3 76.7899 8.91211   2
   4  22  -3 61.2068 7.50890   1
  -3 -22   3 75.1370 6.75124   2
   2 -22  -3 -3.9476 3.29373   1
  -2 -22   3 -0.7624 2.54847   3
   2  22  -3 4.90577 2.33152   1
   1 -22  -3 318.750 11.3543   1
  -1 -22   3 320.912 13.9733   3
   1  22  -3 328.088 12.0499   1
  -1  22   3 293.736 11.9316   3
   0 -22   3 149.961 8.29410   3
   0  22  -3 140.120 5.90849   1
   0  22   3 143.293 6.67375   1
  -1 -22  -3 434.308 16.8271   2
   1 -22   3 417.574 16.8721   3
   1  22   3 415.326 14.8225   1
   2 -22   3 73.9229 6.15961   3
  -2 -22  -3 65.8138 6.61304   2
   2  22   3 70.5938 5.20233   1
  -3 -22  -3 3.08145 3.73134   2
   3 -22   3 3.62910 3.34851   3
   3  22   3 5.97821 2.94980   1
  -4 -22  -3 183.269 11.9299   2
   4 -22   3 151.636 10.4807   3
   4  22   3 166.227 9.96554   1
  -4 -23   3 14.0478 5.61867   2
   4  23  -3 -0.4330 5.25472   1
   3  23  -3 38.4939 5.35251   1
  -2 -23   3 68.5300 6.04742   3
   2  23  -3 80.8452 6.11099   1
  -1 -23   3 1615.54 48.5544   3
   1  23  -3 1702.17 45.3645   1
   0 -23   3 924.874 30.3378   3
   0  23   3 923.545 26.9275   1
   0  23  -3 947.123 25.7009   1
   1 -23   3 147.304 8.85145   3
  -1 -23  -3 144.397 8.54363   2
   1  23   3 147.085 7.39548   1
  -2 -23  -3 134.807 8.95844   2
   2 -23   3 119.489 8.07609   3
   2  23   3 127.024 7.42494   1
   3 -23   3 457.266 18.2605   3
  -3 -23  -3 451.753 19.8992   2
   3  23   3 478.366 18.0536   1
  -4 -23  -3 148.718 11.8404   2
   4  23   3 139.296 9.42923   1
   4  24  -3 78.1861 8.57048   1
  -3 -24   3 41.3031 6.36275   2
   3  24  -3 32.2345 5.64141   1
  -2 -24   3 144.876 10.8423   2
  -2 -24   3 146.319 9.32137   3
   2  24  -3 149.360 8.36532   1
  -1 -24   3 203.281 10.8376   3
   1  24  -3 201.628 8.82802   1
   0 -24   3 338.432 15.0804   3
   0  24   3 338.423 12.3282   1
   0  24  -3 349.376 11.2959   1
   1 -24   3 10.4943 3.01901   3
  -1 -24  -3 10.7075 2.85348   2
   1  24   3 13.9887 2.89834   1
   2 -24   3 9.64230 3.28723   3
  -2 -24  -3 9.02100 3.50302   2
   3 -24   3 94.4936 8.01595   3
  -3 -24  -3 89.9454 8.88776   2
   3  24   3 92.2949 6.83007   1
  -4 -24  -3 65.5252 10.3977   2
   4  24   3 69.1871 7.43797   1
  -4 -25   3 54.0214 10.5395   2
   4  25  -3 35.3538 6.61860   1
  -3 -25   3 68.7281 7.68425   2
   3  25  -3 61.9930 6.54016   1
  -2 -25   3 19.0911 3.75382   2
   2  25  -3 22.5882 4.49191   1
  -1 -25   3 97.2065 9.16173   3
   1  25  -3 107.440 6.09586   1
   0 -25   3 602.837 22.8603   3
   0  25  -3 615.750 18.0159   1
   0  25   3 624.612 19.5635   1
   1 -25   3 328.663 14.9875   3
  -1 -25  -3 354.648 15.3151   2
   1  25   3 340.574 12.9937   1
   2 -25   3 38.7030 5.79227   3
  -2 -25  -3 32.5249 5.39653   2
   2  25   3 39.8998 4.43424   1
   3 -25   3 216.911 12.5374   3
  -3 -25  -3 203.629 13.2375   2
   3  25   3 222.370 11.2460   1
  -4 -25  -3 96.9871 11.5251   2
   4  25   3 85.8060 8.65296   1
  -4 -26   3 69.6788 11.5944   2
   4  26  -3 53.6570 8.97495   1
  -3 -26   3 5.83541 5.29304   2
   3  26  -3 10.2068 4.58560   1
  -2 -26   3 74.4065 7.30379   2
   2  26  -3 63.4079 5.86948   1
  -1 -26   3 178.387 10.4095   3
   1  26  -3 186.606 8.41487   1
   0 -26   3 817.067 34.7697   3
   0  26  -3 754.773 21.7802   1
   0  26   3 749.632 23.3972   1
  -1 -26  -3 113.408 8.15613   2
   1  26   3 124.308 6.73861   1
  -2 -26  -3 92.1585 8.45861   2
   2 -26   3 103.436 8.32673   3
   2  26   3 96.2284 6.60772   1
  -3 -26  -3 63.4271 9.04786   2
   3 -26   3 71.4653 8.32064   3
   3  26   3 70.9113 6.47804   1
  -4 -26  -3 -2.6685 7.79109   2
   4  27  -3 365.817 17.1675   1
  -3 -27   3 152.659 10.9787   2
   3  27  -3 154.891 9.64283   1
  -2 -27   3 52.9323 7.18381   2
   2  27  -3 49.2222 6.19748   1
  -1 -27   3 62.2631 6.24459   3
   1  27  -3 61.7148 4.84273   1
   0 -27   3 119.054 8.62549   3
   0  27  -3 128.372 5.70113   1
   0  27   3 125.097 6.70740   1
   1 -27   3 719.769 26.4446   3
   2 -27   3 446.494 19.1321   3
  -2 -27  -3 420.366 19.0170   2
   2  27   3 442.084 16.7104   1
   3 -27   3 20.6094 5.94529   3
  -3 -27  -3 19.8744 6.45884   2
   3  27   3 22.7543 4.61996   1
  -3 -28   3 458.166 20.9862   2
   3  28  -3 416.447 17.7720   1
  -2 -28   3 156.188 10.7860   2
   2  28  -3 162.005 9.20362   1
  -1 -28   3 -1.0435 3.91958   3
   1  28  -3 1.54425 2.97290   1
   0 -28   3 206.789 11.9585   3
   0  28  -3 218.433 8.10526   1
   0  28   3 209.443 9.29917   1
   1 -28   3 140.146 9.74317   3
  -1 -28  -3 141.889 9.51294   2
   1  28   3 149.413 7.91063   1
  -2 -28  -3 249.178 14.3910   2
   2 -28   3 247.136 13.4445   3
   2  28   3 275.093 12.1564   1
   3 -28   3 6.43310 6.47507   3
  -3 -28  -3 21.3481 6.83447   2
   3  28   3 15.0296 4.95325   1
  -3 -29   3 4.87183 6.61315   2
   3  29  -3 4.58762 5.54148   1
  -2 -29   3 -2.8451 4.95051   2
   2  29  -3 10.4819 4.18448   1
   1  29  -3 84.6776 6.01112   1
   0 -29   3 62.5770 7.05158   3
   0 -29  -3 59.6998 6.68851   2
   0  29   3 53.8223 4.87964   1
  -1 -29  -3 83.0681 7.65921   2
   1 -29   3 71.3439 8.18107   3
   1  29   3 77.2260 5.95362   1
  -2 -29  -3 32.2015 6.44143   2
   2 -29   3 54.6744 8.18788   3
   2  29   3 50.2706 5.89000   1
   3 -29   3 97.2881 11.1092   3
  -3 -29  -3 78.2644 11.9814   2
   3  29   3 70.0720 8.28455   1
  -3 -30   3 100.555 12.3747   2
   3  30  -3 111.271 9.58292   1
  -2 -30   3 103.122 10.7756   2
   2  30  -3 141.013 8.74096   1
  -1 -30   3 16.8139 5.20489   3
   1  30  -3 23.4255 4.89106   1
   0 -30   3 162.044 10.8636   3
   0 -30  -3 159.275 10.2709   2
   0  30   3 140.522 9.04966   1
  -1 -30  -3 427.708 18.5179   2
   1 -30   3 414.322 18.9723   3
   1  30   3 426.320 15.8638   1
   2 -30   3 415.479 19.0908   3
  -2 -30  -3 415.919 19.8238   2
   2  30   3 412.022 16.3829   1
  -2 -31   3 38.9732 6.76363   2
  -1 -31   3 163.277 11.3197   3
   0 -31  -3 8.84901 4.94404   2
   0  31   3 9.87861 3.59349   1
   1 -31   3 319.877 16.6234   3
  -1 -31  -3 352.831 16.3783   2
   1  31   3 344.004 13.6766   1
  -2 -31  -3 58.1007 10.7960   2
   2 -31   3 50.5381 10.0349   3
   2  31   3 39.5176 6.83778   1
  -2 -32   3 102.955 11.6753   2
   2  32  -3 138.309 9.46027   1
   0 -32   3 389.119 19.0358   3
   0 -32  -3 411.558 18.4752   2
   0  32   3 383.178 14.8512   1
   1 -32   3 175.427 12.5716   3
  -1 -32  -3 200.491 12.8613   2
   1  32   3 182.260 9.77751   1
   0 -33  -3 36.1407 6.81756   2
   0 -33   3 25.3248 7.25895   3
  -1 -33  -3 10.1402 7.17388   2
   1 -33   3 12.1142 7.13796   3
   1  33   3 12.4292 4.97711   1
   6   0  -4 21.7676 5.78936   1
  -5   0   4 418.880 16.5225   2
   5   0  -4 433.570 17.4488   1
   4   0  -4 341.288 10.1484   3
  -4   0   4 351.344 13.3423   2
   4   0  -4 315.617 12.0403   2
  -3   0   4 738.366 22.1913   2
   3   0  -4 760.090 20.1660   3
  -2   0   4 213.863 5.99084   3
  -2   0   4 209.877 7.32329   2
  -1   0   4 7904.96 194.741   2
  -1   0   4 7852.61 199.752   3
   0   0  -4 81.4679 3.30254   1
   1   0   4 7962.00 208.221   1
  -1   0  -4 8522.55 210.088   1
   2   0   4 0.31017 1.41035   2
  -2   0  -4 2.33922 0.99424   1
   3   0   4 76.4403 3.98153   1
   4   0   4 104.747 5.31742   1
   5   0   4 702.787 21.6743   1
   6  -1  -4 46.6283 8.04527   1
   6   1  -4 53.8229 8.21223   1
  -5  -1   4 11.3760 3.17793   2
   5  -1  -4 18.6031 3.82342   1
   5   1  -4 14.9004 3.72350   1
  -4  -1   4 135.989 7.33354   2
   4  -1  -4 129.633 6.59480   2
  -4   1   4 137.042 7.10685   2
   4   1  -4 136.852 5.21575   3
   3  -1  -4 586.439 17.2774   2
  -3  -1   4 558.464 17.9563   2
  -3   1   4 562.002 17.6314   2
   3   1  -4 571.110 15.9475   3
  -2  -1   4 1925.12 47.2488   3
  -2  -1   4 1892.42 48.9637   2
  -2   1   4 1936.55 46.7991   3
   2   1  -4 1975.23 48.4442   3
  -2   1   4 1880.87 48.4455   2
  -1  -1   4 677.254 18.3915   3
  -1   1   4 672.212 17.0814   2
  -1   1   4 685.005 18.3143   3
   0  -1  -4 2024.95 51.5464   1
   0   1  -4 2123.44 53.3320   1
   0   1   4 2087.17 52.5793   2
   1  -1   4 450.855 15.3782   2
  -1  -1  -4 505.837 13.7355   1
   1  -1   4 480.111 12.9870   1
   1   1   4 433.731 13.7344   1
  -1   1  -4 508.164 13.3443   1
   1   1   4 455.768 15.4194   2
   2  -1   4 204.337 6.75254   1
  -2  -1  -4 196.755 7.35452   1
   2  -1   4 199.268 8.27987   2
  -2  -1  -4 202.112 8.60881   2
  -2   1  -4 197.581 7.09461   1
   2   1   4 189.550 8.15417   2
   2   1   4 200.089 7.02702   1
   3  -1   4 67.5176 3.65226   1
  -3  -1  -4 66.9445 5.31211   2
  -3  -1  -4 66.1701 4.12152   1
   3   1   4 71.5317 3.94856   1
   4  -1   4 5.34642 1.44437   1
   4   1   4 2.68957 1.55983   1
   5   1   4 19.0446 3.64114   1
   6  -2  -4 228.352 12.7973   1
   6   2  -4 229.566 12.6701   1
  -5  -2   4 263.176 12.2317   2
   5  -2  -4 259.307 12.4119   1
   5   2  -4 247.734 12.6409   1
   4  -2  -4 4.73653 2.88263   2
  -4  -2   4 7.92332 2.00425   2
  -4   2   4 3.80729 1.83709   2
   4   2  -4 4.80604 1.61333   3
  -3  -2   4 1088.71 32.2605   2
   3  -2  -4 1198.85 31.5706   2
  -3   2   4 1144.06 31.5379   2
   3   2  -4 1165.13 30.1766   3
   2  -2  -4 3395.31 79.4488   2
  -2  -2   4 2956.12 80.4196   2
  -2  -2   4 3215.49 79.7606   3
  -2   2   4 3248.85 79.5215   2
   2   2  -4 3325.58 79.8071   3
  -1  -2   4 2260.20 60.0228   3
   0  -2  -4 333.534 9.76104   1
   0   2   4 334.932 9.36429   2
   1  -2   4 27.6425 2.16613   2
  -1  -2  -4 31.1243 2.09171   1
   1  -2   4 29.2325 1.55452   1
   1   2   4 28.5254 2.19956   2
   1   2   4 25.9187 2.22183   1
  -1   2  -4 29.8063 1.69773   1
   2  -2   4 83.5207 4.86086   2
  -2  -2  -4 87.0302 5.18635   2
  -2  -2  -4 91.4130 4.50340   1
   2   2   4 85.8788 4.94400   2
  -2   2  -4 85.6309 4.56041   1
   2   2   4 86.9457 4.15719   1
   3  -2   4 41.7089 2.64477   1
  -3  -2  -4 36.3913 3.51158   1
  -3  -2  -4 42.0138 4.24563   2
   3   2   4 44.5356 3.07709   1
  -4  -2  -4 286.997 13.3129   2
   4  -2   4 274.497 9.75281   1
   4   2   4 267.491 10.4174   1
   5  -2   4 66.7133 4.74478   1
   5   2   4 73.6833 5.36490   1
  -6  -3   4 37.0765 7.81340   2
   6  -3  -4 18.9054 5.59337   1
   6   3  -4 18.0883 5.71733   1
   5  -3  -4 23.6941 4.79710   1
  -5  -3   4 27.9757 5.09659   2
   5   3  -4 26.3803 4.72617   1
  -4  -3   4 129.258 7.33205   2
   4  -3  -4 116.538 6.53117   2
   4   3  -4 123.400 5.10701   3
   3  -3  -4 32.8830 2.78542   2
  -3  -3   4 38.9862 3.41547   2
  -3   3   4 39.9834 3.08454   2
   3   3  -4 41.8453 2.42743   3
  -2  -3   4 0.89218 1.02918   2
  -2   3   4 1.26671 0.54706   2
   0  -3  -4 5350.02 149.152   1
   0   3   4 5916.49 142.220   2
   1  -3   4 9.38821 1.32246   2
  -1  -3  -4 10.0736 1.23270   1
   1   3   4 8.73267 1.31258   2
  -1   3  -4 8.65487 0.88168   1
   1   3   4 10.5761 1.24997   1
  -2  -3  -4 13.5316 1.89557   1
  -2  -3  -4 14.4984 2.33383   2
   2  -3   4 14.6091 1.06959   1
   2   3   4 12.3699 1.72988   2
   2   3   4 18.2745 1.76453   1
  -2   3  -4 13.5826 1.41058   1
  -3  -3  -4 121.206 6.52385   1
   3  -3   4 146.483 5.43933   1
  -3  -3  -4 139.728 7.80391   2
   3   3   4 144.587 6.37790   1
  -4  -3  -4 10.1826 2.59998   2
   4  -3   4 10.7822 2.02449   1
   4   3   4 12.2550 2.40987   1
   5  -3   4 65.4217 4.25830   1
   5   3   4 57.7319 4.86371   1
   6   3   4 217.013 10.6969   1
  -6  -4   4 667.436 24.8446   2
   6  -4  -4 641.613 23.5959   1
   6   4  -4 647.922 24.8522   1
  -5  -4   4 45.4697 5.80192   2
   5  -4  -4 50.4454 5.31383   1
   5   4  -4 30.8761 5.77780   1
  -4  -4   4 7.84163 2.36643   2
   4  -4  -4 -2.2292 2.90098   2
   4   4  -4 2.32263 1.95276   3
   3  -4  -4 254.480 9.26640   2
  -3  -4   4 271.835 10.8472   2
   3   4  -4 270.288 8.94052   3
  -2  -4   4 2626.46 68.3108   2
   2  -4  -4 2711.08 66.6969   2
  -2  -4   4 2694.70 67.1998   3
   2   4  -4 2773.69 67.6239   3
   0  -4  -4 396.720 10.9085   2
   0  -4  -4 401.784 11.6959   1
   0   4   4 391.623 12.5299   1
   0   4   4 408.798 10.8792   2
  -1  -4  -4 1353.88 34.2048   1
  -1   4  -4 1307.86 32.5623   1
   1   4   4 1237.65 33.4634   1
   2  -4   4 2448.58 62.3636   1
  -2  -4  -4 2524.06 63.5056   1
  -2  -4  -4 2461.27 64.6134   2
   2  -4   4 2456.03 64.6120   2
   2   4   4 2488.55 62.4590   1
   2   4   4 2461.31 64.3531   2
  -2   4  -4 2447.03 61.3160   1
  -3  -4  -4 1017.94 30.1109   1
   3  -4   4 1036.20 27.1664   1
  -3  -4  -4 1075.13 32.3430   2
   3   4   4 1040.86 29.2045   1
   4  -4   4 142.629 5.77534   1
  -4  -4  -4 141.837 8.86948   2
   4   4   4 139.934 7.03955   1
   5  -4   4 54.7083 3.91346   1
   5   4   4 59.0436 4.94515   1
   6   4   4 75.5480 8.06026   1
  -6  -5   4 4.02995 5.56003   2
   6  -5  -4 -1.0539 5.65421   1
   6   5  -4 9.17280 6.17456   1
   5  -5  -4 120.709 7.71121   1
  -5  -5   4 117.971 8.29593   2
   5   5  -4 125.284 9.50246   1
  -4  -5   4 79.3815 5.64050   2
   4  -5  -4 65.2733 5.44994   2
   4   5  -4 63.4802 4.16733   3
   4   5  -4 70.6730 5.93569   1
  -3  -5   4 1654.95 46.6652   2
   3  -5  -4 1723.27 44.9588   2
   3   5  -4 1755.60 44.4637   3
  -2  -5   4 668.948 19.8153   2
   2  -5  -4 685.816 18.0792   2
  -2  -5   4 611.262 19.7256   3
   2   5  -4 712.189 19.1265   3
  -1  -5   4 5327.79 141.097   3
   1  -5  -4 5583.00 139.521   1
   1   5  -4 5445.75 137.938   3
   0  -5  -4 4.05249 0.67811   1
   0  -5   4 3.97567 1.07306   3
   0  -5  -4 3.22781 0.60504   2
   0   5   4 5.18690 1.16655   1
  -1  -5  -4 534.411 15.6223   1
  -1   5  -4 520.619 13.8661   1
  -2  -5  -4 -0.2194 1.48015   1
  -2  -5  -4 -0.0180 1.12397   2
   2  -5   4 1.36598 1.60450   2
   2   5   4 0.59994 1.55147   2
  -2   5  -4 0.50885 0.76492   1
  -3  -5  -4 372.812 14.0153   1
  -3  -5  -4 426.419 16.2125   2
   3   5   4 411.697 13.7424   1
   4  -5   4 14.7983 1.88042   1
  -4  -5  -4 12.5828 3.10523   2
   4   5   4 14.6950 2.78629   1
  -5  -5  -4 105.036 8.15546   2
   5  -5   4 98.8624 5.00132   1
   5   5   4 107.186 6.60658   1
   6   5   4 103.098 8.71488   1
   6  -6  -4 49.9492 8.56279   1
   6   6  -4 42.3140 8.78791   1
  -5  -6   4 30.6799 4.88244   2
   4  -6  -4 82.0775 5.67837   2
  -4  -6   4 92.9321 6.35226   2
   4   6  -4 90.7922 6.71088   1
   4   6  -4 67.1585 4.71498   3
  -3  -6   4 525.330 17.8941   2
   3  -6  -4 512.931 15.8495   2
   3   6  -4 523.553 15.7457   3
  -2  -6   4 117.890 5.85210   2
  -2  -6   4 126.258 5.17931   3
   2  -6  -4 118.327 4.45410   2
   2   6  -4 119.201 5.03932   3
   1  -6  -4 36.6626 1.27169   2
  -1  -6   4 34.8544 2.63910   3
   1  -6  -4 36.4321 2.04909   1
   1   6  -4 35.5481 2.34778   3
   0  -6  -4 49.5042 2.33733   2
   0  -6  -4 45.9641 2.52689   1
   0  -6   4 49.1430 3.14449   3
   0   6   4 49.2217 2.81664   1
   1  -6   4 206.237 7.62573   3
  -1  -6  -4 206.937 7.66256   1
  -1  -6  -4 200.042 7.97547   2
   1   6   4 204.029 7.46393   2
  -1   6  -4 211.077 5.98989   1
   1   6   4 200.426 7.30117   1
   2  -6   4 3.12450 1.66420   2
   2  -6   4 4.14496 0.55963   1
  -2  -6  -4 3.87816 1.36891   2
  -2  -6  -4 0.51690 1.49309   1
  -2   6  -4 2.65120 0.71378   1
   2   6   4 3.52453 1.15011   1
   2   6   4 3.67276 1.63030   2
  -3  -6  -4 11.8669 2.80628   2
  -3  -6  -4 7.14434 2.94041   1
   3  -6   4 12.7278 1.03807   1
   3   6   4 18.1897 2.29427   1
   4  -6   4 3.86296 1.17464   1
  -4  -6  -4 3.06243 2.63157   2
   4   6   4 1.78866 1.83961   1
  -5  -6  -4 225.311 12.1977   2
   6   6   4 56.5442 8.20934   1
  -6  -7   4 13.3627 5.94699   2
   6  -7  -4 3.15094 5.78553   1
   6   7  -4 1.69488 6.43118   1
  -5  -7   4 181.774 10.6151   2
   5   7  -4 177.377 10.8842   1
  -4  -7   4 487.226 18.5318   2
   4  -7  -4 455.591 16.1054   2
   4   7  -4 494.612 19.0323   1
   4   7  -4 508.021 16.7392   3
   3  -7  -4 864.164 24.2763   2
  -3  -7   4 849.548 26.3679   2
   3   7  -4 845.212 24.0759   3
   2  -7  -4 482.974 13.2992   2
  -2  -7   4 458.302 14.0088   3
  -2  -7   4 450.443 15.0920   2
   2   7  -4 462.293 14.2550   3
   1  -7  -4 729.023 20.0657   1
  -1  -7   4 733.982 21.1140   3
  -1   7   4 779.619 20.6598   3
   1   7  -4 724.109 20.7970   3
   0  -7  -4 85.4100 3.46186   2
   0  -7   4 83.8867 4.34225   3
   0  -7  -4 84.5074 3.77316   1
   0   7   4 85.9188 3.97607   1
  -1  -7  -4 1437.88 38.9993   2
   1  -7   4 1432.01 38.4215   3
  -1  -7  -4 1537.81 38.9531   1
   1   7   4 1522.06 38.5923   2
   1   7   4 1406.14 38.0315   1
  -1   7  -4 1471.98 36.5186   1
  -2  -7  -4 1.93838 1.27936   2
  -2  -7  -4 0.99849 1.79292   1
   2  -7   4 1.65861 1.66837   2
   2   7   4 1.19572 1.65006   2
   2   7   4 1.45544 0.86927   1
  -3  -7  -4 1320.25 39.3806   2
   3  -7   4 1330.70 32.7948   1
   3   7   4 1302.34 36.4882   1
  -4  -7  -4 232.521 12.2714   2
   4   7   4 236.056 10.2070   1
  -5  -7  -4 65.0480 7.03829   2
   5   7   4 60.7700 5.31735   1
   6   7   4 17.8901 5.82267   1
   6  -8  -4 78.8316 8.87956   1
  -6  -8   4 79.6933 10.4321   2
   6   8  -4 59.5789 9.61002   1
  -5  -8   4 137.441 9.33285   2
   5   8  -4 138.513 9.35819   1
  -4  -8   4 6.79201 2.45750   2
   4   8  -4 8.58147 2.58835   1
   3  -8  -4 1322.81 34.9469   2
  -3  -8   4 1242.54 37.1054   2
   3   8  -4 1293.41 34.9694   3
  -2  -8   4 489.076 16.0348   2
  -2  -8   4 474.982 14.8230   3
   2  -8  -4 492.319 14.3494   1
   2  -8  -4 499.159 13.9332   2
   2   8  -4 480.285 15.0018   3
  -2   8   4 494.038 12.4653   3
  -1  -8   4 1436.82 39.1624   3
   1  -8  -4 1475.43 37.9484   1
   1   8  -4 1502.29 39.0094   3
  -1   8   4 1511.22 38.5104   3
   0  -8  -4 1145.15 29.2426   2
   0  -8  -4 1168.08 29.9158   1
   0  -8   4 1117.57 30.5791   3
   0   8   4 1081.73 29.6225   1
  -1  -8  -4 871.442 23.8137   1
  -1  -8  -4 795.349 23.7516   2
   1  -8   4 825.190 23.3634   3
   1   8   4 826.568 23.0300   1
  -1   8  -4 840.848 20.7636   1
   2  -8   4 15.9348 2.52944   2
  -2  -8  -4 21.7501 2.83822   2
   2  -8   4 18.3776 2.18155   3
  -2  -8  -4 18.5817 2.62090   1
   2   8   4 20.9916 2.80564   2
   2   8   4 22.8772 2.23748   1
  -3  -8  -4 14.2892 2.98293   2
   3   8   4 13.9133 2.20111   1
   4  -8   4 43.1525 1.88254   1
  -4  -8  -4 43.9048 5.45514   2
   4  -8   4 41.8340 3.69840   3
   4   8   4 44.5124 4.15285   1
  -5  -8  -4 461.077 20.1138   2
   5   8   4 456.367 17.0416   1
   6   8   4 7.26435 5.85507   1
  -6  -9   4 1.59570 6.62519   2
   6   9  -4 2.87913 6.59361   1
   5   9  -4 119.784 8.97157   1
   4  -9  -4 1156.97 34.6759   2
  -4  -9   4 1283.93 38.5866   2
   4   9  -4 1251.16 38.5606   1
   3  -9  -4 27.1269 2.76277   2
  -3  -9   4 27.8017 3.32295   2
   3   9  -4 26.3051 3.18737   1
  -2  -9   4 214.229 9.07488   2
   2  -9  -4 225.034 7.57147   1
   2  -9  -4 226.596 7.31044   2
  -2  -9   4 214.470 8.27196   3
  -2   9   4 217.957 6.21414   3
   2   9  -4 206.665 8.00555   3
   1  -9  -4 340.538 10.3914   1
  -1  -9   4 333.779 11.5478   3
   1   9  -4 341.002 11.2905   3
  -1   9   4 336.711 10.9930   3
   0  -9  -4 2348.12 58.6772   2
   0  -9  -4 2354.81 59.3240   1
   0  -9   4 2334.11 60.1779   3
   0   9  -4 2415.26 59.8588   3
   0   9   4 2292.41 59.0486   1
  -1  -9  -4 134.220 5.96023   1
  -1  -9  -4 126.925 6.13396   2
   1  -9   4 126.572 5.87160   3
   1   9   4 133.846 5.74094   1
  -1   9  -4 130.967 3.76001   1
   2  -9   4 168.311 7.91259   2
  -2  -9  -4 183.498 8.82127   2
   2  -9   4 186.178 7.46229   3
  -2  -9  -4 181.141 7.81301   1
   2   9   4 182.761 7.85994   2
   2   9   4 176.370 7.59538   1
   3  -9   4 12.9644 2.15150   3
  -3  -9  -4 15.0610 3.10697   2
   3   9   4 13.3889 2.28066   1
  -4  -9  -4 410.542 17.8524   2
   4  -9   4 420.817 13.8310   3
   4   9   4 407.302 15.3955   1
  -5  -9  -4 198.487 12.0036   2
   5   9   4 180.231 9.52154   1
  -6 -10   4 15.9369 6.90033   2
   6  10  -4 20.0236 7.07413   1
  -5 -10   4 62.5224 7.30679   2
   5  10  -4 56.2744 6.91972   1
   4 -10  -4 1.03277 3.63731   2
  -4 -10   4 1.17534 2.44005   2
   4  10  -4 4.12981 2.87603   1
   3 -10  -4 16.3709 2.14053   1
   3 -10  -4 15.2918 2.83348   2
  -3 -10   4 15.8182 2.90264   2
   3  10  -4 17.2807 2.97735   1
   3  10  -4 10.3859 2.21372   3
  -2 -10   4 824.360 24.3508   3
   2 -10  -4 881.264 23.4285   1
   2 -10  -4 878.942 23.2497   2
   2  10  -4 829.118 24.4366   3
  -2  10   4 872.424 21.9327   3
   1 -10  -4 184.765 6.41926   1
  -1 -10   4 166.743 7.39101   3
  -1  10   4 184.256 7.70931   3
   1  10  -4 170.673 6.88442   3
   0 -10  -4 51.4741 3.07329   1
   0 -10  -4 48.8866 2.75834   2
   0 -10   4 49.5725 3.57035   3
   0  10  -4 50.9948 3.09333   3
   0  10   4 50.3444 3.38551   3
   0  10   4 53.0426 3.11429   1
   1 -10   4 27.3670 2.65028   3
  -1 -10  -4 28.2607 2.58729   1
  -1 -10  -4 29.4242 2.76591   2
  -1  10  -4 30.4037 1.13853   1
   1  10   4 36.1677 2.69204   1
  -2 -10  -4 -1.0082 1.32470   2
   2 -10   4 -0.3730 0.99168   3
  -2 -10  -4 -0.4471 2.27115   1
   2  10   4 0.22393 1.03643   1
  -3 -10  -4 3.73840 2.04511   2
   3 -10   4 4.86022 1.47515   3
   3  10   4 4.03686 1.41755   1
  -4 -10  -4 1.59995 3.08313   2
   4 -10   4 2.07729 1.98278   3
   4  10   4 1.98105 2.22937   1
  -5 -10  -4 54.0731 7.31976   2
   5  10   4 57.5294 5.78850   1
  -6 -11   4 9.06148 7.51681   2
   6  11  -4 -2.2015 7.30064   1
  -5 -11   4 64.4948 7.17770   2
   5  11  -4 54.9873 6.81753   1
   4 -11  -4 384.892 14.5889   2
  -4 -11   4 415.393 17.4317   2
   4 -11  -4 433.896 14.3874   1
   4  11  -4 410.669 17.3415   1
   3 -11  -4 76.8053 3.98101   1
   3 -11  -4 80.3248 4.47838   2
  -3 -11   4 77.7024 5.70130   2
   3  11  -4 77.4051 5.73987   1
   2 -11  -4 120.922 4.89760   1
   2 -11  -4 127.047 4.93504   2
  -2 -11   4 124.334 5.96620   3
   2  11  -4 114.855 5.80853   3
  -2  11   4 126.408 4.20785   3
   2  11  -4 119.841 6.68754   1
   1 -11  -4 22.9040 1.75509   1
  -1 -11   4 28.0553 2.64464   3
   1  11  -4 25.8120 2.47399   3
  -1  11   4 25.9871 2.26448   3
   0 -11  -4 2602.97 65.2473   2
   0 -11  -4 2581.64 65.6661   1
   0 -11   4 2576.85 66.6924   3
   0  11   4 2603.47 66.6444   3
   0  11   4 2563.21 67.3427   1
   0  11  -4 2641.68 66.1066   3
   1 -11   4 562.971 17.8328   3
  -1 -11  -4 596.216 18.3242   2
  -1 -11  -4 567.820 17.9509   1
  -1  11  -4 576.463 14.4687   1
   1  11   4 590.734 17.4838   1
   1  11   4 583.538 18.3422   3
  -2 -11  -4 264.755 10.9880   1
   2 -11   4 280.504 10.3412   3
  -2 -11  -4 288.601 12.0723   2
   2  11   4 283.104 10.6960   1
  -3 -11  -4 1.14377 2.09747   2
   3 -11   4 -0.1282 1.32922   3
   3  11   4 4.28591 1.60669   1
  -4 -11  -4 196.926 11.4987   2
   4 -11   4 206.163 8.53006   3
   4  11   4 196.976 9.56412   1
  -5 -11  -4 140.965 10.7852   2
   5  11   4 154.859 8.64293   1
  -6 -12   4 15.7405 7.81244   2
   6  12  -4 -2.0591 7.19423   1
  -5 -12   4 408.396 18.6272   2
   5  12  -4 410.097 18.2792   1
  -4 -12   4 143.618 9.10495   2
   4 -12  -4 144.414 7.09362   1
   4 -12  -4 118.851 7.87384   2
   4  12  -4 150.095 9.03982   1
   3 -12  -4 316.304 10.5434   1
   3 -12  -4 348.527 11.6542   2
  -3 -12   4 325.161 13.8889   2
   3  12  -4 334.291 14.1913   1
   2 -12  -4 795.846 21.6026   1
  -2 -12   4 777.696 23.2313   3
  -2  12   4 791.380 20.5946   3
   2  12  -4 792.545 24.6433   1
   2  12  -4 754.898 22.9659   3
  -1 -12   4 153.534 7.24981   3
   1 -12  -4 160.490 6.05492   1
   1  12  -4 152.517 6.57898   3
   1  12  -4 158.503 7.13669   1
  -1  12   4 158.761 6.53378   3
   0 -12   4 22.8900 2.61922   3
   0 -12  -4 18.2810 1.85688   1
   0 -12  -4 26.2850 2.62454   2
   0  12   4 25.8351 2.13078   1
   0  12  -4 22.1304 1.77939   1
   0  12  -4 23.0233 2.29811   3
   0  12   4 22.3507 2.54747   3
  -1 -12  -4 1335.24 37.3881   1
  -1 -12  -4 1356.41 37.5364   2
   1 -12   4 1342.63 37.2565   3
   1  12   4 1374.51 36.5998   1
   1  12   4 1404.65 38.0308   3
  -2 -12  -4 0.62056 1.42433   2
   2 -12   4 3.27156 1.21895   3
   2  12   4 2.40072 1.11646   1
  -3 -12  -4 8.13234 2.35128   2
   3 -12   4 9.63681 2.13132   3
   3  12   4 11.1584 2.26527   1
  -4 -12  -4 261.498 14.1113   2
   4 -12   4 252.060 10.1064   3
   4  12   4 249.696 11.3554   1
  -5 -12  -4 54.6384 8.15122   2
   5  12   4 70.4860 6.04321   1
  -6 -13   4 99.2133 13.1328   2
   6  13  -4 67.5388 10.8805   1
  -5 -13   4 266.203 14.2991   2
   5  13  -4 253.524 13.4962   1
  -4 -13   4 6.27741 3.11612   2
   4  13  -4 4.32089 3.08880   1
   3 -13  -4 727.654 20.7051   1
   3 -13  -4 738.230 21.9210   2
  -3 -13   4 752.392 25.3074   2
   3  13  -4 739.510 25.1446   1
   2 -13  -4 195.370 6.87057   1
  -2 -13   4 190.482 8.29002   3
   2  13  -4 181.379 8.78012   1
   2  13  -4 166.521 7.49234   3
  -2  13   4 190.344 6.12077   3
   1 -13  -4 2891.43 73.5059   1
  -1 -13   4 2965.73 75.7176   3
  -1  13   4 2947.15 74.3341   3
   1  13  -4 2978.47 75.1647   3
   1  13  -4 2886.93 74.9125   1
   0 -13  -4 2.19590 1.02179   2
   0 -13  -4 -0.5093 1.23971   1
   0  13  -4 1.77316 1.37520   3
   0  13   4 2.94380 1.08203   1
   0  13   4 1.02671 1.68343   3
   1 -13   4 921.579 26.9771   3
  -1 -13  -4 980.765 27.4124   2
  -1 -13  -4 883.787 26.6943   1
   1  13   4 896.365 25.9655   1
   1  13   4 918.825 27.1750   3
  -2 -13  -4 51.7260 4.46758   2
   2 -13   4 49.3448 3.81006   3
   2  13   4 55.3907 4.06973   1
   3 -13   4 618.440 19.7144   3
  -3 -13  -4 649.399 23.4138   2
   3  13   4 629.934 20.8431   1
   4 -13   4 0.96715 2.32912   3
   4  13   4 6.26032 4.44446   1
  -5 -13  -4 65.6092 8.87034   2
   5  13   4 71.1452 6.42372   1
  -5 -14   4 26.7325 5.47850   2
   5  14  -4 22.5103 4.99702   1
  -4 -14   4 26.2490 4.51080   2
   4  14  -4 27.4676 4.79035   1
   3 -14  -4 15.7744 2.48958   2
   3 -14  -4 12.7251 2.40960   1
   3  14  -4 16.6545 3.37992   1
   2 -14  -4 1184.53 30.8334   1
  -2 -14   4 1131.65 32.8864   3
  -2  14   4 1142.20 29.9174   3
   2  14  -4 1155.57 34.0195   1
  -1 -14   4 314.395 12.2936   3
   1 -14  -4 326.819 10.6893   1
   1  14  -4 303.431 11.3549   3
   1  14  -4 331.667 11.9162   1
  -1  14   4 343.389 11.3524   3
   0 -14   4 6.94730 2.07942   3
   0 -14  -4 4.34238 1.43893   1
   0 -14  -4 7.96654 1.54600   2
   0  14   4 7.72963 1.47280   1
   0  14   4 6.99332 1.73884   3
   0  14  -4 7.98934 1.57946   3
  -1 -14  -4 206.538 8.94154   2
  -1 -14  -4 181.976 8.02299   1
   1 -14   4 199.631 8.84796   3
   1  14   4 186.525 8.55475   3
   1  14   4 215.885 8.38739   1
   2 -14   4 14.6236 2.66500   3
  -2 -14  -4 16.7603 3.01590   2
   2  14   4 22.7870 2.59383   1
   3 -14   4 2.02847 1.80629   3
  -3 -14  -4 5.40738 2.39703   2
   3  14   4 9.39573 2.23892   1
  -4 -14  -4 19.4838 4.09274   2
   4 -14   4 16.3529 3.08171   3
   4  14   4 18.3417 3.74424   1
  -5 -14  -4 14.6416 5.89371   2
   5  14   4 18.6850 4.46793   1
  -5 -15   4 51.2983 8.55762   2
   5  15  -4 67.3685 7.60668   1
  -4 -15   4 25.8012 4.14566   2
   3 -15  -4 157.702 6.45047   1
   3 -15  -4 175.710 7.60558   2
  -3 -15   4 177.744 9.63320   2
   3  15  -4 168.873 9.61277   1
  -2 -15   4 68.3755 4.72947   3
   2 -15  -4 61.8390 3.66035   1
  -2  15   4 73.3534 3.33021   3
   2  15  -4 72.1179 5.30074   1
   1 -15  -4 1867.84 48.1171   1
  -1 -15   4 1874.19 50.4311   3
   1  15  -4 1816.20 49.1929   1
   1  15  -4 1780.74 49.4347   3
  -1  15   4 1915.09 48.9558   3
   0 -15  -4 339.707 11.6054   2
   0 -15   4 334.703 12.9071   3
   0 -15  -4 330.136 11.6028   1
   0  15   4 332.279 11.3587   1
   0  15  -4 342.864 11.9221   3
   0  15  -4 343.806 10.8896   1
   0  15   4 327.927 12.0691   3
   1 -15   4 32.5067 3.38478   3
  -1 -15  -4 27.0369 3.41579   1
  -1 -15  -4 37.9395 3.48441   2
   1  15   4 36.9861 3.00574   1
  -2 -15  -4 316.860 13.3487   2
   2 -15   4 303.430 11.8807   3
   2  15   4 293.666 11.6921   1
  -3 -15  -4 244.719 12.4589   2
   3 -15   4 237.476 10.1388   3
   3  15   4 228.758 10.3679   1
  -4 -15  -4 99.4558 8.20485   2
   4 -15   4 99.3938 6.38320   3
   4  15   4 94.3507 6.66195   1
  -5 -15  -4 14.1228 5.97370   2
   5  15   4 16.6775 4.27420   1
  -5 -16   4 42.5748 6.73415   2
   5  16  -4 46.7570 7.85921   1
  -4 -16   4 34.7773 7.58935   2
   4  16  -4 42.1446 5.56925   1
  -3 -16   4 197.694 10.4349   2
   3 -16  -4 185.885 8.26780   2
   3 -16  -4 179.463 6.89760   1
   3  16  -4 179.839 9.89422   1
   2 -16  -4 451.882 13.9823   1
  -2 -16   4 457.801 16.3313   3
   2  16  -4 458.080 16.7692   1
  -2  16   4 463.272 13.4801   3
  -1 -16   4 196.739 9.24275   3
   1 -16  -4 197.307 7.63820   1
   1  16  -4 201.634 8.64005   1
  -1  16   4 203.944 8.21352   3
   0 -16  -4 174.357 7.34740   1
   0 -16  -4 184.002 7.64091   2
   0 -16   4 174.889 8.54128   3
   0  16  -4 180.997 6.80595   1
   0  16  -4 180.960 7.46699   3
   0  16   4 167.405 7.71297   3
   0  16   4 180.504 7.37452   1
   1 -16   4 20.1167 2.93682   3
  -1 -16  -4 27.8893 3.08718   2
   1  16   4 21.7262 2.51626   1
   2 -16   4 978.184 28.7305   3
  -2 -16  -4 939.986 30.1868   2
   2  16   4 926.866 28.1710   1
  -3 -16  -4 157.292 9.70223   2
   3 -16   4 163.774 8.17367   3
   3  16   4 151.990 8.07532   1
   4 -16   4 127.611 7.59507   3
  -4 -16  -4 133.279 9.29503   2
   4  16   4 131.411 7.96165   1
  -5 -16  -4 59.4809 9.95430   2
   5  16   4 72.8698 7.51160   1
  -5 -17   4 202.792 13.6281   2
   5  17  -4 198.177 12.2982   1
  -4 -17   4 1443.28 46.5132   2
   4  17  -4 1498.75 45.7572   1
   3 -17  -4 19.1283 3.49439   2
   3 -17  -4 20.0049 2.40766   1
  -3 -17   4 17.1991 3.28459   2
   3  17  -4 17.3598 3.91535   1
  -2 -17   4 42.0630 3.99968   3
   2 -17  -4 40.8537 3.22816   1
  -2  17   4 49.7514 2.99369   3
   2  17  -4 46.8780 4.27881   1
  -1 -17   4 815.487 25.5939   3
   1 -17  -4 777.280 23.0309   1
  -1  17   4 805.872 23.7426   3
   1  17  -4 805.525 24.1109   1
   0 -17   4 1181.12 35.3443   3
   0 -17  -4 1174.99 33.8116   1
   0  17  -4 1239.10 32.2480   1
   0  17   4 1254.63 33.2458   1
   0  17   4 1210.56 34.6938   3
   0  17  -4 1204.31 34.0738   3
  -1 -17  -4 12.1936 2.55199   2
   1 -17   4 9.18838 2.15336   3
   1  17   4 12.4836 2.01123   1
  -2 -17  -4 156.546 8.71074   2
   2 -17   4 147.163 7.91701   3
   2  17   4 146.259 7.44467   1
   3 -17   4 4.40440 2.34435   3
  -3 -17  -4 4.27865 2.81629   2
   3  17   4 5.52544 2.09717   1
   4 -17   4 333.076 13.3874   3
  -4 -17  -4 343.378 16.5162   2
   4  17   4 341.189 14.4063   1
  -5 -17  -4 83.2932 11.2468   2
   5  17   4 111.838 8.73522   1
  -5 -18   4 17.2837 6.40868   2
   5  18  -4 20.8591 5.97290   1
  -4 -18   4 35.3435 6.37057   2
   4  18  -4 33.5955 5.45253   1
   3 -18  -4 269.664 9.72543   1
   3 -18  -4 273.708 11.1613   2
  -3 -18   4 303.164 14.1684   2
   3  18  -4 284.382 13.3190   1
   2 -18  -4 17.8240 2.28079   1
  -2 -18   4 17.9031 3.28426   3
   2  18  -4 14.7365 2.82333   1
  -1 -18   4 312.157 12.8399   3
   1 -18  -4 292.380 10.6415   1
  -1  18   4 290.926 10.8384   3
   1  18  -4 300.954 11.4571   1
   0 -18  -4 3.27448 2.79581   1
   0  18  -4 6.48049 1.54538   1
  -1 -18  -4 904.732 27.7582   2
   1 -18   4 907.174 27.9562   3
   1  18   4 869.232 26.1349   1
  -2 -18  -4 2.33538 2.34264   2
   2 -18   4 2.98913 1.90514   3
   2  18   4 2.32067 1.81139   1
  -3 -18  -4 19.2191 4.07099   2
   3 -18   4 20.8824 3.99187   3
   3  18   4 20.1255 3.34295   1
  -4 -18  -4 95.4973 8.38473   2
   4 -18   4 92.9229 7.29177   3
   4  18   4 94.6557 6.80602   1
  -5 -18  -4 109.487 12.3149   2
   5  18   4 117.148 8.84898   1
  -5 -19   4 172.192 14.2705   2
   5  19  -4 203.234 12.5224   1
  -4 -19   4 285.335 14.9483   2
   4  19  -4 279.198 14.1696   1
  -3 -19   4 70.4025 6.49369   2
   3  19  -4 79.0195 6.27960   1
  -2 -19   4 138.784 7.83979   3
   2 -19  -4 121.232 6.05781   1
  -2  19   4 143.026 7.61287   3
   2  19  -4 128.393 7.50922   1
  -1 -19   4 2.22375 1.89174   3
   1  19  -4 0.13401 1.57401   1
  -1  19   4 -0.8121 2.50071   3
   0 -19   4 157.362 8.51639   3
   0  19  -4 154.509 6.24869   1
   0  19   4 151.242 6.90283   1
  -1 -19  -4 18.0056 3.09163   2
   1 -19   4 26.7827 3.47921   3
   1  19   4 22.4255 2.54978   1
  -2 -19  -4 48.5038 5.20083   2
   2 -19   4 53.2733 5.00036   3
   2  19   4 52.6937 4.27586   1
  -3 -19  -4 17.7715 3.86521   2
   3 -19   4 20.9971 4.36199   3
   3  19   4 19.0560 4.07328   1
   4 -19   4 71.4601 6.87610   3
  -4 -19  -4 68.1408 8.02014   2
   4  19   4 77.8984 6.25842   1
  -5 -19  -4 19.0899 8.23984   2
   5  19   4 10.5632 5.76334   1
  -5 -20   4 207.020 15.9694   2
   5  20  -4 227.944 14.2503   1
   4  20  -4 29.9648 6.14282   1
  -3 -20   4 563.395 22.3576   2
   3  20  -4 553.568 20.9631   1
   2 -20  -4 3.27502 2.78716   1
   2  20  -4 1.43733 2.21447   1
  -2  20   4 1.77873 2.22632   3
  -1 -20   4 582.913 20.6777   3
   1 -20  -4 572.044 18.3727   1
   1  20  -4 601.033 18.9723   1
  -1  20   4 568.101 18.6371   3
   0 -20  -4 15.0787 2.56745   2
   0 -20   4 17.3090 3.11802   3
   0  20  -4 10.8997 1.90261   1
   0  20   4 12.5466 2.11448   1
  -1 -20  -4 1551.62 43.4562   2
   1 -20   4 1486.62 43.5708   3
   1  20   4 1468.76 41.2826   1
   2 -20   4 342.459 14.1576   3
  -2 -20  -4 336.624 14.9794   2
   2  20   4 346.870 13.4725   1
   3 -20   4 256.156 11.5560   3
   3  20   4 234.345 11.0976   1
  -4 -20  -4 113.265 10.1735   2
   4 -20   4 134.322 8.96871   3
   4  20   4 130.664 8.51720   1
  -5 -21   4 43.2955 8.57661   2
   5  21  -4 61.3036 8.99573   1
  -4 -21   4 78.6184 8.75323   2
   4  21  -4 79.9673 7.45177   1
  -3 -21   4 112.787 8.50567   2
   3  21  -4 105.180 8.68809   1
   2 -21  -4 19.3766 3.22969   1
   2  21  -4 19.6252 3.53625   1
  -2  21   4 20.2931 2.79253   3
  -1 -21   4 1135.21 34.5416   3
   1  21  -4 1123.11 31.9007   1
  -1  21   4 1056.59 31.5977   3
   0 -21   4 196.610 10.3225   3
   0 -21  -4 203.703 9.19450   2
   0  21   4 200.489 8.46653   1
   0  21  -4 199.755 7.49755   1
   1 -21   4 105.749 6.99861   3
  -1 -21  -4 108.143 6.88829   2
   1  21   4 108.593 6.09542   1
   2 -21   4 78.5283 6.16479   3
  -2 -21  -4 79.0981 6.56019   2
   2  21   4 86.9365 5.52037   1
   3 -21   4 245.717 11.9001   3
  -3 -21  -4 243.115 13.7651   2
   3  21   4 255.178 11.5322   1
  -4 -21  -4 18.2581 5.79526   2
   4 -21   4 21.8472 4.93717   3
   4  21   4 21.1538 4.43263   1
  -4 -22   4 61.9844 8.86459   2
   4  22  -4 66.4986 7.79410   1
  -3 -22   4 283.619 14.3012   2
   3  22  -4 259.749 13.0376   1
  -2 -22   4 1076.64 33.8419   3
   2  22  -4 1066.55 32.8097   1
  -1 -22   4 7.14800 2.39203   3
   1  22  -4 6.88475 2.11436   1
   0 -22   4 192.770 10.2295   3
   0 -22  -4 194.580 9.15235   2
   0  22  -4 190.033 7.24758   1
   0  22   4 187.642 8.25229   1
  -1 -22  -4 49.2299 4.89002   2
   1 -22   4 46.2573 5.07228   3
   1  22   4 49.6662 3.98645   1
  -2 -22  -4 1153.85 37.1499   2
   2 -22   4 1172.71 36.1169   3
   2  22   4 1174.69 34.7312   1
   3 -22   4 67.0492 6.78439   3
  -3 -22  -4 64.6018 7.43222   2
   3  22   4 63.1389 5.63307   1
  -4 -22  -4 354.698 17.7330   2
   4  22   4 366.738 15.7100   1
  -4 -23   4 60.6641 9.40742   2
   4  23  -4 47.9606 8.06064   1
  -3 -23   4 -1.3603 4.00816   2
   3  23  -4 0.39100 3.67208   1
  -2 -23   4 24.6812 4.36978   3
   2  23  -4 27.8545 4.02170   1
  -1 -23   4 54.7154 5.18431   3
   1  23  -4 47.1538 4.17269   1
   0 -23   4 -1.2335 2.63083   3
   0 -23  -4 0.48478 2.06851   2
   0  23   4 4.63292 1.75299   1
   0  23  -4 1.22596 1.55276   1
   1 -23   4 3.29839 2.82235   3
  -1 -23  -4 9.62699 2.55912   2
   1  23   4 8.29026 2.14854   1
  -2 -23  -4 109.567 7.73594   2
   2 -23   4 94.1132 7.01799   3
   2  23   4 93.4504 7.95005   1
  -3 -23  -4 13.6713 4.56469   2
   3 -23   4 11.1662 3.98483   3
   3  23   4 14.4312 3.36982   1
  -4 -23  -4 126.021 11.9371   2
   4  23   4 135.695 8.98063   1
  -4 -24   4 108.195 11.0712   2
   4  24  -4 107.983 9.69292   1
  -3 -24   4 40.6384 6.74612   2
   3  24  -4 27.6144 5.81176   1
   2  24  -4 1291.36 38.3981   1
  -1 -24   4 63.5768 5.81441   3
   1  24  -4 77.4210 4.88275   1
   0 -24   4 84.3485 6.55630   3
   0 -24  -4 92.7416 6.19848   2
   0  24   4 85.8548 5.24794   1
   0  24  -4 85.2498 4.42598   1
   1 -24   4 9.49971 3.33320   3
  -1 -24  -4 15.6829 2.93178   2
   1  24   4 18.0134 3.09522   1
   2 -24   4 407.947 17.0677   3
  -2 -24  -4 414.691 19.6802   2
   2  24   4 419.975 15.8557   1
  -3 -24  -4 46.4502 7.66048   2
   3  24   4 61.4029 5.59705   1
  -4 -24  -4 195.738 14.5323   2
   4  24   4 227.240 11.3638   1
  -4 -25   4 43.2877 7.78241   2
   4  25  -4 38.9371 6.75106   1
  -3 -25   4 9.94107 4.78958   2
   3  25  -4 3.44087 4.30243   1
  -2 -25   4 132.247 9.07642   3
   2  25  -4 147.319 8.25001   1
  -1 -25   4 943.406 33.4561   3
   1  25  -4 973.995 28.4828   1
   0 -25   4 187.033 13.1348   3
   0 -25  -4 217.599 10.4825   2
   0  25  -4 215.849 7.84723   1
   0  25   4 210.098 9.18365   1
   1 -25   4 93.4736 8.46873   3
  -1 -25  -4 97.1489 7.34694   2
   1  25   4 101.270 6.05331   1
   2 -25   4 5.77805 4.95481   3
  -2 -25  -4 10.7339 4.08188   2
   2  25   4 4.96302 2.93198   1
   3 -25   4 592.802 23.0629   3
  -3 -25  -4 611.829 24.8261   2
   3  25   4 612.852 21.7889   1
  -4 -25  -4 18.5372 7.32635   2
  -4 -26   4 13.8729 8.21704   2
   4  26  -4 15.7728 6.99405   1
  -3 -26   4 496.884 21.7995   2
   3  26  -4 484.083 19.2877   1
  -2 -26   4 30.0796 6.12949   3
   2  26  -4 38.2109 5.70839   1
  -1 -26   4 248.611 12.7211   3
   1  26  -4 250.549 10.3775   1
   0 -26   4 2.64153 3.50643   3
   0 -26  -4 -0.0886 2.89438   2
   0  26   4 6.52172 2.27162   1
   0  26  -4 2.49388 1.82446   1
  -1 -26  -4 958.706 31.7611   2
   1 -26   4 952.902 32.2777   3
   2 -26   4 42.0536 6.86648   3
  -2 -26  -4 43.6035 7.43823   2
   2  26   4 36.1272 4.94638   1
  -3 -26  -4 13.0178 5.72981   2
   3 -26   4 14.5972 5.55866   3
   3  26   4 12.1924 4.31165   1
  -3 -27   4 7.27460 5.50492   2
   3  27  -4 17.4027 5.22817   1
  -2 -27   4 10.7999 4.54617   2
  -2 -27   4 9.40120 4.10728   3
   2  27  -4 16.7120 4.01985   1
  -1 -27   4 481.088 19.9905   3
   1  27  -4 494.017 16.5316   1
   0 -27  -4 670.618 23.4654   2
   0 -27   4 656.200 24.8307   3
   0  27   4 654.587 21.2635   1
   0  27  -4 657.787 18.9399   1
   1 -27   4 273.360 13.5749   3
   1  27   4 269.060 11.4127   1
  -2 -27  -4 78.6219 8.41408   2
   2 -27   4 61.1100 7.83933   3
   2  27   4 71.0364 6.02304   1
   3 -27   4 89.3903 10.1770   3
  -3 -27  -4 88.8072 10.6777   2
   3  27   4 57.2521 7.13848   1
  -3 -28   4 171.021 12.3673   2
   3  28  -4 178.542 10.9812   1
  -2 -28   4 66.4863 8.27624   2
   2  28  -4 58.4896 6.67435   1
  -1 -28   4 524.082 21.4533   3
   1  28  -4 524.381 17.5361   1
   0 -28  -4 59.4891 6.35284   2
   0 -28   4 71.9484 6.97349   3
   0  28   4 54.9911 5.35471   1
   1 -28   4 305.582 15.3377   3
  -1 -28  -4 300.461 14.8761   2
   1  28   4 322.163 12.9012   1
  -2 -28  -4 15.4010 5.64852   2
   2 -28   4 23.4096 5.50665   3
   2  28   4 19.0621 3.96515   1
  -3 -28  -4 7.93292 7.29953   2
   3 -28   4 18.0426 7.07554   3
   3  28   4 1.36384 5.11281   1
  -3 -29   4 38.8230 7.12948   2
   3  29  -4 35.1206 6.84451   1
  -2 -29   4 61.2679 8.68859   2
   2  29  -4 68.8365 6.99450   1
  -1 -29   4 49.3782 7.22198   3
   1  29  -4 48.2000 5.14321   1
   0 -29  -4 1243.81 42.4552   2
   0 -29   4 1342.10 42.8657   3
   0  29   4 1335.10 37.8387   1
  -1 -29  -4 15.2982 4.82384   2
   1 -29   4 9.54115 4.97974   3
   1  29   4 17.2275 3.41218   1
  -2 -29  -4 344.054 16.8453   2
   2 -29   4 309.578 16.3564   3
   2  29   4 325.666 14.0087   1
  -2 -30   4 204.965 13.3311   2
   2  30  -4 213.651 10.7380   1
  -1 -30   4 68.1314 8.59138   3
   1  30  -4 72.1666 6.00811   1
   0 -30   4 317.475 15.8725   3
   0 -30  -4 308.399 14.8593   2
   0  30   4 306.902 12.6636   1
  -1 -30  -4 5.53128 5.50322   2
   1 -30   4 0.76226 5.54256   3
   1  30   4 7.16127 3.75955   1
  -2 -30  -4 117.930 11.9312   2
   2 -30   4 77.7687 10.4229   3
   2  30   4 89.2942 7.73988   1
  -2 -31   4 42.9526 7.00754   2
   2  31  -4 48.8293 7.80733   1
  -1 -31   4 130.288 11.5609   3
   0 -31  -4 143.065 10.6061   2
   0 -31   4 151.508 11.3405   3
   0  31   4 138.808 8.36209   1
  -1 -31  -4 20.2934 6.21046   2
   1 -31   4 22.6440 6.25412   3
   2 -31   4 30.9513 7.18239   3
  -2 -31  -4 29.0473 8.14812   2
  -2 -32   4 -4.9270 9.24943   2
  -1 -32   4 0.04959 6.70345   3
   1 -32  -4 5.81456 6.10092   2
   0 -32   4 286.412 15.6602   3
   0 -32  -4 278.528 14.6118   2
   0  32   4 252.814 11.8761   1
  -1 -32  -4 473.623 21.5294   2
   1 -32   4 470.122 21.5457   3
   1  32   4 482.842 17.9057   1
  -1 -33   4 664.500 29.3411   3
   0 -33   4 18.6342 7.56295   3
   0 -33  -4 13.7121 7.07793   2
   0  33   4 4.90357 5.77776   1
   6   0  -5 5.75495 6.25714   1
  -5   0   5 2.99994 2.83410   2
   5   0  -5 1.53698 3.68441   1
  -4   0   5 5.72275 1.91020   2
  -3   0   5 0.15864 1.07873   2
  -2   0   5 0.95602 0.62632   2
  -2   0   5 1.20903 0.54695   3
  -1   0   5 -3.3831 0.73877   3
   0   0   5 -1.2340 0.48431   2
   0   0  -5 0.86581 0.55097   1
  -1   0  -5 -0.1850 0.69959   1
   1   0   5 -0.8167 0.87530   2
   1   0   5 0.38241 0.64021   1
  -2   0  -5 1.16180 1.21742   1
   2   0   5 0.12385 1.75721   2
   2   0   5 0.79679 0.66282   1
  -3   0  -5 0.16393 2.25171   1
   3   0   5 0.54419 0.98435   1
   5   0   5 2.17970 2.58467   1
   6  -1  -5 20.9784 6.20106   1
   6   1  -5 13.9651 6.42015   1
  -5  -1   5 389.998 15.4062   2
   5   1  -5 368.872 16.2136   1
  -4  -1   5 1190.51 34.5327   2
  -4   1   5 1178.10 33.8688   2
  -3  -1   5 101.435 5.40424   2
  -3   1   5 105.423 5.16249   2
  -2  -1   5 251.101 9.80979   3
  -2  -1   5 261.378 8.58625   2
  -2   1   5 262.406 8.15465   2
  -2   1   5 271.962 7.91543   3
  -1  -1   5 1687.98 43.4498   3
  -1   1   5 1701.18 41.8828   2
   0  -1  -5 3880.53 101.062   1
   0   1   5 3886.21 98.4927   2
   0   1  -5 3964.91 101.607   1
  -1  -1  -5 1034.99 26.7741   1
   1  -1   5 1053.09 27.8575   2
   1   1   5 954.237 26.2395   1
  -1   1  -5 933.191 26.9478   1
   1   1   5 1031.82 27.6950   2
  -2  -1  -5 108.314 4.99209   1
   2  -1   5 101.535 5.56633   2
   2  -1   5 107.355 4.40922   1
   2   1   5 103.376 5.76033   2
   2   1   5 107.125 4.64391   1
  -2   1  -5 107.014 4.71023   1
  -3  -1  -5 12.3616 2.52373   1
   3  -1   5 14.5254 1.75565   1
  -3   1  -5 13.6334 2.28509   1
   3   1   5 13.9752 1.80187   1
   4  -1   5 1099.35 30.2592   1
   4   1   5 1110.19 30.8507   1
   5  -1   5 26.4146 3.76376   1
   5   1   5 36.7143 4.06790   1
   6  -2  -5 2.62291 6.32180   1
   6   2  -5 2.28602 6.27106   1
  -5  -2   5 457.072 17.4204   2
   5   2  -5 441.600 18.4308   1
  -4  -2   5 718.830 22.9845   2
   4   2  -5 696.830 19.9925   3
  -4   2   5 705.809 21.9512   2
  -3  -2   5 450.954 15.1063   2
   3   2  -5 453.007 13.6811   3
  -3   2   5 454.196 14.1798   2
  -2  -2   5 26.1574 1.87296   2
  -2   2   5 24.8685 1.51396   3
  -2   2   5 27.2362 1.54609   2
  -1  -2   5 342.332 10.9217   3
   0  -2  -5 1490.70 37.8670   1
   0   2   5 1477.11 37.2850   2
   1  -2   5 110.692 5.17308   2
  -1  -2  -5 115.074 4.78176   1
   1   2   5 113.050 4.71042   1
  -1   2  -5 118.679 4.55568   1
   1   2   5 115.032 5.18579   2
   2  -2   5 851.085 22.6833   1
   2  -2   5 858.592 25.7849   2
  -2  -2  -5 854.015 25.6169   2
  -2  -2  -5 878.890 24.5258   1
   2   2   5 872.835 25.7800   2
   2   2   5 819.430 23.3429   1
  -2   2  -5 861.761 23.5584   1
   3  -2   5 494.465 14.1713   1
  -3  -2  -5 495.303 17.9101   2
  -3  -2  -5 449.303 15.5599   1
   3   2   5 495.736 15.0718   1
  -3   2  -5 450.340 14.7745   1
   4  -2   5 17.8320 2.24677   1
   4   2   5 20.4652 2.58871   1
   5  -2   5 484.761 15.4986   1
   5   2   5 490.705 16.5355   1
  -6  -3   5 53.1826 8.53778   2
   6  -3  -5 61.1080 9.05039   1
   6   3  -5 51.2176 8.90791   1
  -5  -3   5 138.048 8.57889   2
   5   3  -5 144.691 11.8422   1
   4  -3  -5 685.019 20.8979   2
  -4  -3   5 723.883 22.9465   2
   4   3  -5 665.235 19.6806   3
  -3  -3   5 4730.47 118.631   2
   3   3  -5 4781.43 116.769   3
  -3   3   5 4693.04 116.703   2
  -2  -3   5 346.452 10.6855   3
  -2   3   5 344.727 9.73541   3
  -1  -3   5 585.407 17.0264   3
   0  -3  -5 784.440 20.8612   1
   0   3   5 755.731 20.0487   2
  -1  -3  -5 1951.28 49.4887   1
   1  -3   5 1986.00 50.3325   2
  -1  -3  -5 1873.76 49.6577   2
   1   3   5 1966.24 50.0245   2
  -1   3  -5 1992.79 48.4110   1
   1   3   5 1832.45 48.7971   1
   2  -3   5 330.795 10.0665   1
  -2  -3  -5 336.291 12.5742   2
   2  -3   5 325.447 12.3151   2
  -2  -3  -5 345.064 11.6513   1
  -2   3  -5 328.033 10.4815   1
   2   3   5 321.947 10.7593   1
   2   3   5 339.742 12.3030   2
   3  -3   5 376.981 11.3683   1
  -3  -3  -5 396.324 15.2782   2
  -3  -3  -5 349.233 13.0493   1
   3   3   5 379.369 12.6272   1
   4  -3   5 35.3858 2.78018   1
   4   3   5 37.2522 3.35501   1
   5  -3   5 309.270 10.8417   1
   5   3   5 325.050 12.3080   1
   6  -4  -5 199.356 12.3018   1
  -6  -4   5 202.750 12.1757   2
   6   4  -5 194.516 12.7617   1
  -5  -4   5 31.0408 5.58228   2
  -4  -4   5 128.721 7.27887   2
   4  -4  -5 118.788 6.32593   2
   4   4  -5 107.377 5.37579   3
   3  -4  -5 888.851 24.2191   2
  -3  -4   5 883.533 26.2573   2
   3   4  -5 864.046 24.3806   3
  -2  -4   5 1075.46 28.9562   3
  -2  -4   5 1080.40 29.7807   2
  -2   4   5 1090.68 27.7334   3
  -2   4   5 1108.51 27.8678   3
   2   4  -5 1120.53 29.5917   3
  -1  -4   5 819.146 22.8785   3
   1  -4  -5 819.913 22.3113   1
   0  -4  -5 622.997 17.0724   1
   0  -4   5 590.385 17.7884   3
   0   4   5 606.447 17.2579   1
   0   4   5 611.138 16.0898   2
  -1  -4  -5 0.29843 0.82913   2
  -1  -4  -5 -1.3536 0.90263   1
   1  -4   5 0.58763 1.10500   2
   1   4   5 -0.0885 0.89666   2
  -2  -4  -5 163.884 7.95687   2
  -2  -4  -5 181.940 7.39031   1
   2  -4   5 157.346 7.60521   2
   2  -4   5 154.607 5.95403   1
   2   4   5 170.123 7.69184   2
  -2   4  -5 170.948 6.09100   1
   2   4   5 168.004 6.73413   1
   3  -4   5 1.05264 0.83714   1
  -3  -4  -5 -0.1942 1.81178   2
  -3  -4  -5 -0.5126 3.11035   1
   3   4   5 1.89028 1.31087   1
  -4  -4  -5 5.33553 2.65175   2
   4  -4   5 6.23428 1.43101   1
   4   4   5 4.28108 1.87042   1
   5  -4   5 7.99363 2.47772   1
  -6  -5   5 43.6683 6.72827   2
   6  -5  -5 51.3012 9.00575   1
   6   5  -5 41.7150 7.13999   1
  -5  -5   5 100.031 7.56363   2
   5   5  -5 102.787 8.34537   1
  -4  -5   5 39.8052 4.18527   2
   4  -5  -5 33.2343 4.36323   2
   4   5  -5 29.7213 3.69939   3
   3  -5  -5 1372.65 35.1566   2
  -3  -5   5 1338.38 37.4723   2
   3   5  -5 1270.35 35.3317   3
  -2  -5   5 54.9529 3.26649   3
  -2  -5   5 55.8486 3.59026   2
  -2   5   5 53.7509 2.41785   3
  -2   5   5 55.9113 2.32570   3
   2   5  -5 54.7214 3.17037   3
  -1  -5   5 97.9411 4.80471   3
   1  -5  -5 96.8604 4.17224   1
   0  -5   5 1260.74 33.7575   3
   0  -5  -5 1305.98 33.0147   1
   0  -5  -5 1226.55 31.7415   2
   0   5   5 1255.06 31.6914   2
   0   5   5 1262.99 33.1217   1
  -1  -5  -5 719.593 21.4066   2
  -1  -5  -5 738.749 21.3089   1
  -1   5  -5 777.207 19.7411   1
   1   5   5 752.662 20.8534   1
   1   5   5 757.347 21.4038   2
  -2  -5  -5 23.8669 2.75925   2
   2  -5   5 21.3877 1.27551   1
   2  -5   5 14.5785 2.65649   2
  -2  -5  -5 22.3076 2.42850   1
   2   5   5 18.7729 2.78975   2
  -2   5  -5 21.2000 1.59470   1
   3  -5   5 337.360 10.0396   1
  -3  -5  -5 338.771 14.1469   2
   3   5   5 341.163 12.0745   1
  -4  -5  -5 242.222 12.5419   2
   4  -5   5 239.532 7.95000   1
   4   5   5 232.001 9.88311   1
   6  -6  -5 273.062 14.0159   1
  -6  -6   5 283.519 14.4535   2
   6   6  -5 245.922 14.7127   1
  -5  -6   5 -2.5841 3.66881   2
   5   6  -5 0.61958 3.95786   1
   4  -6  -5 924.331 26.8769   2
  -4  -6   5 936.551 29.6341   2
  -3  -6   5 163.859 7.80481   2
   3  -6  -5 139.093 5.76035   2
   3   6  -5 145.543 6.35655   3
  -2  -6   5 1946.08 50.9317   3
   2  -6  -5 2024.46 48.9642   2
  -2  -6   5 1989.13 51.9342   2
  -2   6   5 1968.85 49.2467   3
   2   6  -5 1989.79 51.4078   3
  -2   6   5 2015.68 49.1969   3
   1  -6  -5 42.8244 2.46818   1
  -1  -6   5 43.3830 3.11167   3
   0  -6   5 270.823 9.83217   3
   0  -6  -5 285.891 8.35174   2
   0  -6  -5 285.522 9.17778   1
   0   6   5 276.279 9.36033   1
  -1  -6  -5 262.509 9.49962   2
  -1  -6  -5 253.984 9.15218   1
  -1   6  -5 264.959 7.69387   1
   1   6   5 244.999 8.81051   1
   1   6   5 264.882 9.04835   2
  -2  -6  -5 4527.71 112.033   2
  -2  -6  -5 4396.17 111.045   1
   2  -6   5 4388.07 111.979   2
   2   6   5 4405.63 111.601   1
  -2   6  -5 4379.48 107.682   1
   2   6   5 4411.44 111.459   2
  -3  -6  -5 152.977 8.67418   2
   3   6   5 153.026 7.08778   1
   4  -6   5 62.0218 3.11457   1
  -4  -6  -5 60.2149 5.96953   2
   4   6   5 66.8834 4.59361   1
   5   6   5 72.9408 5.96548   1
  -6  -7   5 31.5777 6.41090   2
   6  -7  -5 24.1810 6.61398   1
   6   7  -5 25.4252 6.95125   1
  -5  -7   5 15.6496 4.10297   2
   5   7  -5 19.5449 4.52530   1
   4  -7  -5 198.664 9.01952   2
  -4  -7   5 247.448 11.3768   2
   4   7  -5 248.082 12.1173   1
   3  -7  -5 47.4481 3.02146   2
  -3  -7   5 54.0774 4.17534   2
   3   7  -5 47.6293 3.42253   3
   2  -7  -5 2122.50 51.4223   2
  -2  -7   5 2069.48 53.6407   3
  -2  -7   5 2070.38 54.5655   2
   2  -7  -5 2085.56 53.3444   1
   2   7  -5 2090.04 53.9752   3
  -2   7   5 2080.63 51.6449   3
  -2   7   5 2099.38 51.7357   3
  -1  -7   5 34.3488 2.78297   3
   1  -7  -5 33.2141 2.20978   1
   1   7  -5 35.6338 2.55514   3
   0  -7  -5 1384.34 34.7737   1
   0  -7   5 1320.93 35.5410   3
   0  -7  -5 1320.29 33.5682   2
   0   7   5 1250.89 34.5597   1
  -1  -7  -5 21.8173 2.13245   1
  -1  -7  -5 28.8590 2.58640   2
   1  -7   5 24.6008 2.39984   3
   1   7   5 29.0355 2.34313   2
  -1   7  -5 29.4704 1.51443   1
  -2  -7  -5 9.91171 2.05921   2
  -2  -7  -5 15.2984 2.76930   1
   2  -7   5 7.20575 2.15664   2
  -2   7  -5 9.83740 1.14810   1
  -3  -7  -5 68.0639 5.73100   2
   3   7   5 64.0475 4.42897   1
  -4  -7  -5 938.003 31.1807   2
   4   7   5 868.978 27.1507   1
  -5  -7  -5 83.8811 8.26527   2
   5   7   5 76.9430 6.27643   1
  -6  -8   5 55.4128 10.4621   2
   6  -8  -5 76.3032 9.93789   1
   6   8  -5 61.4245 8.04943   1
  -5  -8   5 63.1333 7.24327   2
   5   8  -5 72.4642 7.24394   1
   4  -8  -5 33.5682 4.66794   2
  -4  -8   5 46.4571 4.90928   2
   4   8  -5 40.6403 5.13281   1
   3  -8  -5 115.113 4.95316   2
  -3  -8   5 120.598 6.77312   2
   3   8  -5 110.271 5.54707   3
   2  -8  -5 675.313 18.8846   1
   2  -8  -5 662.543 17.2683   2
  -2  -8   5 637.836 19.3332   3
  -2  -8   5 672.749 20.3649   2
   2   8  -5 627.917 19.3272   3
  -2   8   5 657.977 17.5393   3
  -1  -8   5 1387.81 38.1705   3
   1  -8  -5 1425.58 37.0040   1
   1   8  -5 1437.35 38.0182   3
  -1   8   5 1442.29 37.6726   3
   0  -8  -5 82.1872 3.50173   2
   0  -8  -5 75.5187 3.87338   1
   0  -8   5 84.3452 4.68323   3
   0   8   5 85.8738 4.26689   1
  -1  -8  -5 744.997 22.1729   1
  -1  -8  -5 783.318 22.5027   2
   1  -8   5 773.798 22.3780   3
   1   8   5 772.879 21.6811   2
  -1   8  -5 766.926 19.6380   1
   1   8   5 740.933 21.5775   1
  -2  -8  -5 140.171 7.48887   2
  -2  -8  -5 144.399 7.00143   1
   2  -8   5 119.718 6.77359   2
   2  -8   5 150.502 6.73070   3
   2   8   5 152.579 6.68739   1
  -2   8  -5 140.140 4.40568   1
   2   8   5 146.142 6.81598   2
  -3  -8  -5 103.190 7.06321   2
   3   8   5 116.474 6.22156   1
  -4  -8  -5 6.08815 2.98610   2
   4  -8   5 1.14205 2.06516   3
  -5  -8  -5 89.4732 8.31433   2
   5   8   5 82.5954 6.48518   1
   6  -9  -5 46.5382 10.5010   1
  -6  -9   5 43.2509 7.33884   2
   6   9  -5 36.5987 7.37355   1
   5   9  -5 42.9535 6.51374   1
   4  -9  -5 22.9602 4.72482   2
  -4  -9   5 29.5422 4.48642   2
  -3  -9   5 189.894 7.11164   3
  -3  -9   5 190.210 9.34021   2
   3  -9  -5 186.159 7.10606   2
   3   9  -5 211.090 9.61173   3
   2  -9  -5 308.084 10.1266   1
  -2  -9   5 295.643 10.8592   3
   2  -9  -5 321.920 9.04464   2
  -2   9   5 308.966 9.16664   3
   2   9  -5 304.665 10.9265   3
   1  -9  -5 10.5763 1.34753   1
  -1  -9   5 13.4195 2.00001   3
   1  -9  -5 11.4625 0.80489   2
  -1   9   5 15.5630 1.92399   3
   0  -9  -5 98.1626 4.06544   2
   0  -9   5 96.8591 5.19573   3
   0  -9  -5 86.9573 4.29861   1
   0   9   5 99.7007 4.77491   1
  -1  -9  -5 338.544 11.8446   1
  -1  -9  -5 352.379 12.2390   2
   1  -9   5 345.550 12.1209   3
   1   9   5 343.974 11.5219   1
  -1   9  -5 351.184 9.45890   1
  -2  -9  -5 518.007 17.9293   2
  -2  -9  -5 484.596 16.8466   1
   2  -9   5 508.461 16.3297   3
   2   9   5 526.382 16.4430   1
   2   9   5 516.255 16.8205   2
  -3  -9  -5 326.394 14.4025   2
   3  -9   5 325.522 11.9009   3
   3   9   5 334.273 12.4745   1
  -4  -9  -5 256.749 13.2747   2
   4  -9   5 255.669 10.2523   3
   4   9   5 256.789 11.0616   1
  -5  -9  -5 43.2125 7.83809   2
   5   9   5 41.5738 5.49321   1
  -6 -10   5 52.6021 11.1824   2
   6  10  -5 58.4562 9.13531   1
  -5 -10   5 875.551 31.0104   2
   5  10  -5 880.506 31.1210   1
  -4 -10   5 73.0713 6.27530   2
   4 -10  -5 73.9639 5.60426   2
   4  10  -5 77.5344 6.81831   1
  -3 -10   5 19.4146 2.38371   3
   3 -10  -5 21.9713 2.62893   2
  -3 -10   5 23.8704 3.21019   2
   3 -10  -5 21.0282 2.64906   1
   2 -10  -5 364.887 11.4245   1
  -2 -10   5 347.621 12.3842   3
   2 -10  -5 365.666 10.3708   2
  -2  10   5 355.876 10.4921   3
   2  10  -5 347.289 12.0771   3
   1 -10  -5 5170.19 127.765   1
  -1 -10   5 5182.13 132.618   3
  -1  10   5 5236.52 128.579   3
   1  10  -5 5241.71 129.135   3
   0 -10   5 31.0956 2.99102   3
   0 -10  -5 30.5246 2.57043   1
   0 -10  -5 34.3736 2.14137   2
   0  10   5 37.4026 2.76783   1
   1 -10   5 1710.89 46.2332   3
  -1 -10  -5 1720.37 46.3113   2
  -1 -10  -5 1763.29 46.4509   1
  -1  10  -5 1721.12 42.6562   1
   1  10   5 1771.48 45.5371   1
  -2 -10  -5 64.1889 4.93118   2
   2 -10   5 55.4609 3.99879   3
   2  10   5 59.9135 4.08012   1
  -3 -10  -5 955.559 31.1805   2
   3 -10   5 958.770 27.8620   3
   3  10   5 973.377 28.6009   1
  -4 -10  -5 42.1021 5.87439   2
   4 -10   5 38.3964 4.24537   3
   4  10   5 49.8845 4.31072   1
  -5 -10  -5 156.992 11.3926   2
   5  10   5 162.036 9.04759   1
  -6 -11   5 11.3518 7.57352   2
   6  11  -5 9.13615 7.82883   1
  -5 -11   5 9.18686 4.44500   2
   5  11  -5 16.0670 4.65380   1
  -4 -11   5 42.6156 5.20059   2
   4 -11  -5 33.2076 5.47878   2
   4  11  -5 39.5792 5.27042   1
  -3 -11   5 756.343 22.0892   3
  -3 -11   5 775.208 25.3483   2
   3 -11  -5 791.171 21.8615   2
   3 -11  -5 741.855 21.7169   1
   3  11  -5 754.966 25.6889   1
  -2 -11   5 214.799 8.85362   3
   2 -11  -5 209.828 7.59624   1
   2 -11  -5 219.291 6.87248   2
  -2  11   5 212.257 6.92038   3
   2  11  -5 189.501 7.99543   3
   1 -11  -5 274.386 9.12282   1
  -1 -11   5 252.085 10.2713   3
   1  11  -5 247.061 9.51366   3
  -1  11   5 287.726 9.87676   3
   0 -11  -5 155.285 6.65107   1
   0 -11  -5 162.540 6.13136   2
   0 -11   5 156.902 7.48624   3
   0  11   5 166.627 6.80953   1
   0  11   5 167.941 7.31374   3
  -1 -11  -5 935.453 26.1477   2
   1 -11   5 864.654 25.8216   3
  -1 -11  -5 846.948 25.6509   1
   1  11   5 898.853 25.1112   1
  -1  11  -5 868.631 22.0826   1
  -2 -11  -5 91.7415 5.99707   2
   2 -11   5 86.4267 5.10495   3
   2  11   5 92.2072 5.22942   1
  -3 -11  -5 121.641 7.87369   2
   3 -11   5 118.965 6.32728   3
   3  11   5 116.762 6.46161   1
   4 -11   5 645.969 20.2488   3
   4  11   5 621.659 21.2941   1
  -5 -11  -5 30.2214 5.39339   2
   5  11   5 32.6187 5.61660   1
  -6 -12   5 27.1920 8.34330   2
   6  12  -5 14.4844 8.00056   1
  -5 -12   5 42.7568 7.69784   2
   5  12  -5 43.3316 7.10477   1
  -4 -12   5 113.878 8.09206   2
   4  12  -5 109.055 7.98531   1
  -3 -12   5 780.132 23.1321   3
   3 -12  -5 824.350 22.7099   2
   3 -12  -5 761.347 22.3743   1
  -3 -12   5 810.357 26.4576   2
   3  12  -5 786.259 26.6275   1
  -2 -12   5 2317.59 61.7421   3
   2 -12  -5 2448.85 59.1745   2
   2 -12  -5 2339.91 60.0226   1
  -2  12   5 2343.32 59.0471   3
   1 -12  -5 544.336 16.0562   1
  -1 -12   5 532.002 17.6759   3
  -1  12   5 551.701 16.7270   3
   1  12  -5 516.604 16.8527   3
   0 -12  -5 1070.13 29.1403   1
   0 -12   5 1049.80 30.2150   3
   0  12   5 1008.95 29.7472   3
   0  12   5 1048.57 28.7966   1
   1 -12   5 271.906 10.6932   3
  -1 -12  -5 284.237 10.8168   2
  -1 -12  -5 261.665 10.2777   1
  -1  12  -5 271.445 7.29541   1
   1  12   5 269.348 9.99672   1
  -1  12  -5 270.141 7.59064   1
   2 -12   5 386.236 13.7532   3
  -2 -12  -5 388.838 15.1335   2
   2  12   5 384.585 13.6182   1
   3 -12   5 193.653 8.57935   3
  -3 -12  -5 180.280 10.1548   2
   3  12   5 182.381 8.65322   1
   4 -12   5 11.5980 2.62575   3
  -4 -12  -5 2.80848 3.57479   2
  -5 -12  -5 44.4835 8.26002   2
   5  12   5 29.1724 5.76150   1
  -5 -13   5 0.57705 5.13804   2
   5  13  -5 -7.4964 5.16121   1
  -4 -13   5 104.977 8.19875   2
   4  13  -5 108.934 7.94310   1
   3 -13  -5 -3.0104 2.07600   1
  -3 -13   5 2.65437 2.00231   2
   3 -13  -5 2.05575 2.06056   2
  -3 -13   5 -2.3638 1.63055   3
   3  13  -5 2.00547 2.48282   1
   2 -13  -5 830.128 23.0491   1
   2 -13  -5 844.544 22.3607   2
  -2 -13   5 801.404 24.7855   3
  -2  13   5 832.992 22.3211   3
   2  13  -5 804.198 25.9065   1
  -1 -13   5 17.9122 2.46776   3
   1 -13  -5 11.3689 1.94582   1
   1  13  -5 12.9880 1.85859   3
  -1  13   5 12.2977 2.49050   3
   0 -13   5 993.602 29.1938   3
   0 -13  -5 1001.29 27.9594   1
   0 -13  -5 1002.23 27.2398   2
   0  13   5 952.136 28.4979   3
   0  13   5 988.930 27.5717   1
   1 -13   5 635.178 20.5191   3
  -1 -13  -5 605.116 20.0085   1
  -1 -13  -5 701.006 20.8681   2
  -1  13  -5 655.923 16.1956   1
   1  13   5 644.610 19.6016   1
  -1  13  -5 654.976 16.4175   1
   1  13   5 627.061 20.5480   3
  -2 -13  -5 0.84551 1.72844   2
  -3 -13  -5 13.8941 3.01625   2
   3 -13   5 13.4817 2.79285   3
   3  13   5 13.2952 2.75739   1
  -4 -13  -5 369.966 17.1169   2
   4 -13   5 364.836 13.6312   3
   4  13   5 358.419 14.5146   1
  -5 -13  -5 10.0141 6.06231   2
   5  13   5 1.82755 4.21476   1
  -5 -14   5 28.5134 5.63526   2
   5  14  -5 28.0445 5.65918   1
  -4 -14   5 342.378 15.7792   2
  -3 -14   5 56.4828 5.04272   2
   3 -14  -5 62.4817 4.11562   2
  -3 -14   5 44.1407 4.20764   3
   3 -14  -5 46.9446 3.59199   1
   3  14  -5 47.8621 4.89505   1
  -2 -14   5 854.728 26.3838   3
   2 -14  -5 867.651 24.4157   1
  -2  14   5 868.734 23.6725   3
   2  14  -5 909.855 27.7213   1
  -1 -14   5 75.5027 5.02094   3
   1 -14  -5 67.7834 3.79798   1
  -1  14   5 69.9538 4.36483   3
   1  14  -5 55.6721 3.90326   3
   1  14  -5 66.3715 4.55415   1
   0 -14  -5 1502.43 40.6659   1
   0 -14  -5 1575.07 40.0690   2
   0 -14   5 1493.77 42.0546   3
   0  14   5 1503.23 41.5216   3
   0  14  -5 1466.50 40.7433   3
   0  14   5 1456.67 40.0281   1
   0  14  -5 1529.01 39.4206   1
  -1 -14  -5 25.7964 3.03617   2
   1 -14   5 23.5803 3.00639   3
   1  14   5 29.2747 2.72469   1
   2 -14   5 2423.05 64.7697   3
  -2 -14  -5 2493.79 66.9622   2
   2  14   5 2465.65 64.5623   1
  -3 -14  -5 21.6622 4.41346   2
   3 -14   5 24.7724 3.56867   3
   3  14   5 21.9418 3.09924   1
   4 -14   5 27.5343 4.22074   3
  -4 -14  -5 28.1153 4.61532   2
   4  14   5 27.2377 4.32199   1
  -5 -14  -5 29.3090 6.16820   2
   5  14   5 32.7940 6.43286   1
  -5 -15   5 5.46186 6.01360   2
   5  15  -5 0.73407 5.51671   1
  -4 -15   5 2.65549 3.83556   2
   4  15  -5 1.16543 3.72135   1
  -3 -15   5 861.476 26.2989   3
  -3 -15   5 900.360 29.6486   2
   3 -15  -5 824.749 24.4848   1
   3 -15  -5 905.631 25.1522   2
   3  15  -5 897.932 29.3959   1
  -2 -15   5 775.063 24.3721   3
   2 -15  -5 763.537 22.2038   1
   2 -15  -5 810.126 21.8334   2
   2  15  -5 752.574 25.0273   1
  -2  15   5 808.122 21.7317   3
   1 -15  -5 40.7332 3.29411   1
  -1 -15   5 49.5137 4.27227   3
   1  15  -5 48.2710 3.72017   1
  -1  15   5 50.7329 3.59265   3
   0 -15   5 23.4208 3.28960   3
   0 -15  -5 34.0093 2.74647   2
   0 -15  -5 18.9379 2.75326   1
   0  15   5 32.2182 2.70936   1
   0  15  -5 26.2777 2.37822   1
   0  15  -5 26.7075 3.23065   3
   0  15   5 23.2539 3.66437   3
  -1 -15  -5 753.819 23.2925   2
   1 -15   5 724.950 23.3866   3
   1  15   5 740.379 22.2424   1
  -2 -15  -5 39.6053 4.44874   2
   2 -15   5 36.2251 3.94813   3
   2  15   5 46.8004 3.60821   1
   3 -15   5 402.841 14.9380   3
  -3 -15  -5 378.938 16.8537   2
   3  15   5 406.917 15.1964   1
   4 -15   5 54.2298 5.61679   3
  -4 -15  -5 47.6045 7.39957   2
   4  15   5 40.0367 4.95669   1
  -5 -15  -5 235.720 15.0746   2
   5  15   5 256.900 12.4700   1
  -5 -16   5 105.402 10.7962   2
   5  16  -5 96.8462 9.70178   1
   4  16  -5 35.3159 6.03866   1
   3 -16  -5 3.04668 2.84622   2
  -3 -16   5 3.23887 2.57661   2
  -3 -16   5 0.79739 2.05885   3
   3  16  -5 3.82912 3.09263   1
  -2 -16   5 6.77521 1.70605   3
   2 -16  -5 4.57759 2.04626   1
   2  16  -5 8.58826 2.31069   1
   1 -16  -5 321.829 11.3377   1
  -1 -16   5 323.543 13.1195   3
  -1  16   5 334.484 11.7675   3
   1  16  -5 329.966 12.3182   1
   0 -16  -5 22.7225 3.54387   1
   0 -16   5 28.8050 3.31643   3
   0 -16  -5 33.2285 2.85105   2
   0  16  -5 25.5598 3.47561   3
   0  16   5 29.9874 2.71881   1
   0  16   5 31.6815 3.96762   3
   0  16  -5 27.4909 2.43402   1
   1 -16   5 127.636 7.30657   3
  -1 -16  -5 141.100 7.32456   2
   1  16   5 128.581 6.48359   1
   2 -16   5 1.06400 1.71528   3
  -2 -16  -5 1.94007 1.99835   2
   2  16   5 1.97348 1.70142   1
   3 -16   5 288.340 11.9511   3
  -3 -16  -5 286.451 14.0259   2
   3  16   5 271.305 11.8574   1
   4 -16   5 46.6012 5.57104   3
  -4 -16  -5 39.2111 6.91509   2
   4  16   5 35.6098 4.89119   1
  -5 -16  -5 31.3225 7.27105   2
   5  16   5 50.6134 7.05204   1
  -5 -17   5 8.55234 6.64861   2
   5  17  -5 12.0332 6.44417   1
  -4 -17   5 42.9578 6.67128   2
   4  17  -5 30.7890 5.38658   1
  -3 -17   5 460.988 16.5162   3
  -3 -17   5 465.056 19.0236   2
   3 -17  -5 456.608 15.0475   2
   3  17  -5 476.244 18.6944   1
  -2 -17   5 34.4960 3.77852   3
   2 -17  -5 25.7511 3.36979   1
   2  17  -5 38.9031 4.21708   1
  -2  17   5 32.9654 3.70038   3
  -1 -17   5 93.8225 6.21606   3
   1 -17  -5 81.3332 4.71632   1
   1  17  -5 102.018 5.71854   1
  -1  17   5 93.3304 5.42335   3
   0 -17   5 238.668 10.8729   3
   0 -17  -5 252.985 9.70872   2
   0  17   5 232.683 9.37240   1
   0  17  -5 237.168 8.62811   1
   1 -17   5 214.576 10.3222   3
  -1 -17  -5 226.786 10.0044   2
   1  17   5 215.280 9.13785   1
   2 -17   5 45.6089 4.54335   3
  -2 -17  -5 53.3641 4.97581   2
   2  17   5 47.0693 3.90743   1
  -3 -17  -5 425.798 18.1486   2
   3 -17   5 418.609 15.7835   3
   3  17   5 389.639 16.9167   1
   4 -17   5 206.508 10.4463   3
  -4 -17  -5 216.155 12.8997   2
   4  17   5 199.587 10.3463   1
  -5 -17  -5 108.173 12.3066   2
   5  17   5 125.171 9.22902   1
  -5 -18   5 350.359 18.8633   2
   5  18  -5 338.274 17.2383   1
  -4 -18   5 12.0147 4.35101   2
   4  18  -5 5.83197 4.24436   1
  -3 -18   5 17.0817 3.58523   2
  -3 -18   5 16.0204 2.83047   3
   3  18  -5 20.9754 4.11614   1
   2 -18  -5 155.018 8.06765   1
  -2 -18   5 154.794 8.39511   3
  -2  18   5 146.490 6.25034   3
   2  18  -5 151.725 8.34351   1
  -1 -18   5 1392.13 41.4291   3
  -1  18   5 1430.22 39.6627   3
   1  18  -5 1466.56 39.9017   1
   0 -18   5 19.2760 3.12157   3
   0 -18  -5 17.6515 2.57355   2
   0  18   5 23.1028 2.47404   1
   0  18  -5 15.4947 2.07369   1
  -1 -18  -5 70.1882 5.13484   2
   1 -18   5 68.8641 5.33403   3
   1  18   5 70.2925 4.59702   1
  -2 -18  -5 198.589 10.4126   2
   2 -18   5 189.262 9.71856   3
   2  18   5 184.230 8.80818   1
   3 -18   5 232.603 10.9937   3
  -3 -18  -5 235.685 12.5335   2
   3  18   5 221.155 10.6602   1
   4 -18   5 23.6510 4.43091   3
  -4 -18  -5 15.2367 5.20922   2
   4  18   5 21.3753 3.77258   1
  -5 -18  -5 26.1999 7.73301   2
   5  18   5 40.1432 7.51045   1
  -5 -19   5 63.2049 12.1564   2
   5  19  -5 85.6898 9.99320   1
  -4 -19   5 424.432 19.1012   2
   4  19  -5 394.764 17.7089   1
  -3 -19   5 25.9663 4.26444   2
   3  19  -5 25.6308 4.98731   1
  -2 -19   5 1285.68 38.4078   3
  -2  19   5 1278.75 34.5197   3
   2  19  -5 1306.89 38.3679   1
  -1 -19   5 -0.2464 1.97702   3
  -1  19   5 -2.4863 3.00709   3
   1  19  -5 0.63923 1.82376   1
   0 -19   5 976.729 30.6699   3
   0 -19  -5 1007.13 28.7953   2
   0  19   5 962.332 28.0937   1
   0  19  -5 940.285 26.5559   1
  -1 -19  -5 1.73567 1.96338   2
   1 -19   5 -0.7069 1.94875   3
   1  19   5 2.91529 1.58182   1
   2 -19   5 0.50610 2.21444   3
  -2 -19  -5 3.98968 2.67534   2
   2  19   5 0.41970 1.94416   1
  -3 -19  -5 40.7528 7.33328   2
   3 -19   5 33.9016 5.01109   3
   3  19   5 37.8510 4.12866   1
  -4 -19  -5 735.859 27.9696   2
   4 -19   5 696.885 24.0848   3
   4  19   5 684.873 24.2311   1
  -5 -20   5 70.6205 10.5341   2
   5  20  -5 75.0795 9.02063   1
  -4 -20   5 1.88550 5.16668   2
   4  20  -5 7.40514 4.89413   1
   3  20  -5 65.6334 6.14505   1
  -2 -20   5 104.001 6.95673   3
   2  20  -5 104.632 6.94811   1
  -2  20   5 103.873 5.45161   3
  -1 -20   5 83.8720 6.34637   3
   1  20  -5 78.0653 5.08344   1
   0 -20   5 18.8718 3.34368   3
   0 -20  -5 14.0740 2.76537   2
   0  20   5 15.9524 2.40427   1
   0  20  -5 13.8604 2.05890   1
  -1 -20  -5 3.52319 2.17809   2
   1 -20   5 6.23718 2.22933   3
   1  20   5 9.17111 2.12310   1
   2 -20   5 28.8434 4.58970   3
  -2 -20  -5 28.6999 4.64024   2
   2  20   5 27.6901 3.55093   1
  -3 -20  -5 342.053 16.2456   2
   3 -20   5 333.180 14.1879   3
   3  20   5 327.398 13.8875   1
   4 -20   5 7.30273 4.95725   3
  -4 -20  -5 -2.5358 5.68771   2
   4  20   5 11.4398 4.13043   1
  -5 -21   5 64.3641 9.69132   2
   5  21  -5 72.2399 10.4139   1
  -4 -21   5 83.2382 9.35966   2
   4  21  -5 71.9763 8.31592   1
  -3 -21   5 208.315 12.0202   2
  -2 -21   5 295.609 13.4349   3
   2  21  -5 313.699 13.2424   1
  -1 -21   5 86.3814 6.53678   3
   1  21  -5 88.6259 5.56391   1
   0 -21  -5 458.062 16.1121   2
   0 -21   5 439.043 17.5185   3
   0  21   5 440.427 15.3287   1
   0  21  -5 441.387 13.7483   1
  -1 -21  -5 568.058 20.1012   2
   1 -21   5 546.074 20.4673   3
   1  21   5 545.343 18.4521   1
   2 -21   5 18.1474 3.49607   3
  -2 -21  -5 14.3158 3.01091   2
   2  21   5 17.5843 3.34486   1
   3 -21   5 48.5833 6.32132   3
   3  21   5 54.4508 5.19070   1
  -4 -21  -5 305.201 16.4529   2
   4  21   5 317.522 14.1110   1
  -4 -22   5 6.65860 5.72598   2
   4  22  -5 3.56581 5.22161   1
  -3 -22   5 181.419 11.2374   2
   3  22  -5 181.544 10.5131   1
  -2 -22   5 362.128 15.4211   3
   2  22  -5 357.167 14.7230   1
  -1 -22   5 36.9568 4.60351   3
   1  22  -5 42.9082 3.95575   1
   0 -22  -5 256.796 10.9991   2
   0 -22   5 241.454 12.1014   3
   0  22   5 251.314 10.3101   1
   0  22  -5 251.576 8.83941   1
  -1 -22  -5 321.808 13.9173   2
   1 -22   5 320.948 14.3169   3
   1  22   5 318.602 12.5304   1
   2 -22   5 7.17668 3.10866   3
   2  22   5 9.36623 2.51217   1
   3 -22   5 270.002 13.1565   3
  -3 -22  -5 246.685 14.0635   2
   3  22   5 269.241 12.2521   1
  -4 -22  -5 86.4316 10.5061   2
   4  22   5 92.6974 7.65681   1
  -4 -23   5 9.35881 6.31188   2
   4  23  -5 8.92456 5.76867   1
  -3 -23   5 561.828 23.1204   2
   3  23  -5 550.590 21.2548   1
   2  23  -5 226.549 10.8115   1
  -1 -23   5 67.0938 6.05617   3
   1  23  -5 65.5579 4.93936   1
   0 -23  -5 1.93253 2.30701   2
   0  23   5 0.02758 1.90724   1
   0  23  -5 -0.6271 1.69591   1
  -1 -23  -5 255.563 12.3374   2
   1 -23   5 264.192 12.8199   3
   1  23   5 272.736 11.2352   1
   2 -23   5 65.4568 6.34360   3
  -2 -23  -5 49.0793 6.34577   2
   2  23   5 67.7694 5.18720   1
   3 -23   5 223.803 15.1933   3
  -3 -23  -5 234.703 13.6195   2
   3  23   5 254.182 11.7088   1
  -4 -23  -5 262.297 15.4254   2
   4  23   5 241.237 12.5557   1
  -4 -24   5 249.978 15.8894   2
   4  24  -5 241.945 14.0940   1
  -3 -24   5 9.49796 4.85765   2
   3  24  -5 14.3359 4.35612   1
  -2 -24   5 101.950 7.35953   3
   2  24  -5 95.0813 6.76377   1
   1  24  -5 30.6592 3.97135   1
   0 -24  -5 34.0033 4.45926   2
   0 -24   5 32.9487 5.37474   3
   0  24   5 32.8210 3.77617   1
   0  24  -5 33.3627 3.09932   1
   1 -24   5 23.3192 4.36505   3
  -1 -24  -5 18.4269 3.82105   2
   1  24   5 24.5740 3.49789   1
   2  24   5 186.920 9.37326   1
  -3 -24  -5 120.179 10.7310   2
   3 -24   5 136.928 9.76704   3
   3  24   5 132.388 8.22080   1
  -4 -24  -5 36.0746 7.91823   2
   4  24   5 45.4989 8.30547   1
  -4 -25   5 59.4889 12.1763   2
   4  25  -5 63.2489 9.69641   1
  -3 -25   5 58.2745 8.37602   2
   3  25  -5 50.4171 7.15961   1
  -2 -25   5 19.7934 4.20701   3
   2  25  -5 21.8677 4.11162   1
  -1 -25   5 147.530 9.54221   3
   1  25  -5 143.938 7.37740   1
   0 -25   5 407.553 17.5532   3
   0 -25  -5 404.901 15.8712   2
   0  25   5 405.904 14.8620   1
   0  25  -5 401.253 12.6058   1
   1 -25   5 27.6438 5.23732   3
  -1 -25  -5 20.6550 4.42299   2
   1  25   5 26.6755 3.84273   1
  -2 -25  -5 3.88327 4.33545   2
   2 -25   5 1.23492 3.84066   3
   3 -25   5 5.75849 5.27724   3
  -3 -25  -5 4.59586 5.59951   2
   3  25   5 7.92773 3.89955   1
  -4 -26   5 139.715 13.8049   2
   4  26  -5 104.904 11.4597   1
  -3 -26   5 1.15982 5.44365   2
   3  26  -5 12.7825 5.14504   1
  -2 -26   5 73.3068 7.42523   3
  -1 -26   5 78.3107 7.39293   3
   1  26  -5 75.0396 5.52858   1
   0 -26   5 10.3973 3.83975   3
   0 -26  -5 3.06549 3.17481   2
   0  26   5 3.67901 2.52749   1
   0  26  -5 6.85384 2.16242   1
   1 -26   5 -4.7920 3.81925   3
  -1 -26  -5 -0.9438 3.77572   2
   1  26   5 3.30027 2.63812   1
   2 -26   5 170.450 11.5788   3
  -2 -26  -5 170.200 11.2887   2
   2  26   5 177.848 9.44226   1
  -3 -26  -5 24.6405 6.11947   2
   3 -26   5 12.1822 6.27129   3
   3  26   5 30.6636 6.25325   1
  -3 -27   5 8.46051 6.36859   2
   3  27  -5 13.8399 5.64864   1
  -2 -27   5 102.772 9.02152   3
   2  27  -5 111.801 7.99453   1
  -1 -27   5 66.9003 7.62946   3
   1 -27  -5 75.7145 6.19528   2
   1  27  -5 63.9549 5.46611   1
   0 -27   5 197.614 11.3114   3
   0 -27  -5 190.235 10.2230   2
   1 -27   5 17.5563 4.63874   3
   1  27   5 14.9780 3.12315   1
   2 -27   5 108.301 9.80026   3
  -2 -27  -5 116.416 9.99913   2
   2  27   5 112.598 7.62392   1
   3 -27   5 83.2022 11.1686   3
  -3 -27  -5 72.6424 10.9167   2
   3  27   5 84.1760 7.99767   1
  -3 -28   5 6.37645 6.68681   2
   3  28  -5 18.3257 6.22671   1
  -2 -28   5 -1.1700 5.01085   3
   2  28  -5 10.1818 4.66923   1
   1 -28  -5 504.388 18.6156   2
  -1 -28   5 507.716 21.3837   3
   1  28  -5 505.036 17.0597   1
   0 -28  -5 7.13451 3.98273   2
   0 -28   5 -3.6859 4.22220   3
   0  28   5 -1.1510 3.02163   1
   1 -28   5 62.4979 7.99182   3
  -1 -28  -5 57.7050 8.01146   2
   1  28   5 66.1897 5.68106   1
  -2 -28  -5 -5.4457 5.78143   2
   2 -28   5 6.43833 5.70244   3
   2  28   5 13.3582 4.11131   1
   3 -28   5 99.6987 12.4651   3
  -3 -28  -5 75.8416 11.9421   2
   3  28   5 88.4624 7.95270   1
  -3 -29   5 22.5642 7.69308   2
   3  29  -5 17.7182 7.07070   1
  -2 -29   5 5.15529 5.32933   3
  -2 -29   5 16.1830 5.88675   2
   2  29  -5 0.55673 4.92624   1
  -1 -29   5 10.5964 4.86410   3
   1 -29  -5 3.82209 4.33399   2
   1  29  -5 4.10268 3.71441   1
   0 -29   5 8.13626 5.21181   3
   0  29   5 11.0944 3.44210   1
   1 -29   5 182.304 11.9985   3
  -1 -29  -5 152.805 11.2813   2
   1  29   5 165.279 9.04438   1
   2 -29   5 10.7350 6.59049   3
  -2 -29  -5 9.19093 6.71624   2
   2  29   5 10.1958 4.53793   1
  -2 -30   5 4.13175 6.51419   2
  -1 -30   5 12.7854 5.34794   3
   1 -30  -5 7.47318 5.57541   2
   0 -30   5 107.785 10.4407   3
   0  30   5 99.1316 7.50447   1
  -1 -30  -5 74.0126 9.62212   2
   1 -30   5 72.2700 9.30260   3
   1  30   5 74.9764 6.62542   1
  -2 -30  -5 2.82198 7.25196   2
   2 -30   5 2.75015 7.17295   3
   2  30   5 8.25940 4.80722   1
  -2 -31   5 89.2099 11.5974   2
   2  31  -5 99.7471 10.2609   1
  -1 -31   5 31.9428 6.19280   3
   0 -31   5 -8.1911 5.81009   3
   0 -31  -5 3.40063 5.90894   2
   0  31   5 -6.2689 4.16752   1
  -1 -31  -5 206.225 13.5744   2
   1 -31   5 187.872 13.6384   3
   1  31   5 189.284 10.4314   1
  -1 -32   5 227.961 14.9998   3
   0 -32  -5 38.7529 7.06673   2
   0 -32   5 27.4861 6.61228   3
   1 -32   5 69.1996 11.6435   3
   1  32   5 81.3597 7.98389   1
   6   0  -6 45.6627 9.56802   1
  -5   0   6 1.19567 3.00727   2
  -4   0   6 471.307 16.0711   2
  -3   0   6 83.8701 4.41023   2
  -2   0   6 489.493 14.2318   3
  -2   0   6 477.235 13.6685   2
  -1   0   6 1128.99 30.5737   3
   0   0  -6 453.336 13.2393   1
   0   0   6 446.114 12.9764   2
  -1   0  -6 81.0352 3.94235   1
   1   0   6 78.8347 4.34016   2
   1   0   6 83.3880 3.97291   1
  -2   0  -6 60.3270 3.63062   1
   2   0   6 60.3078 4.50232   2
   2   0   6 60.8536 3.33563   1
  -3   0  -6 1257.55 35.7565   1
   3   0   6 1319.19 34.3940   1
   4   0   6 324.781 11.3211   1
   5   0   6 20.0664 3.98078   1
   6  -1  -6 11.3440 6.64946   1
   6   1  -6 1.38151 6.93722   1
  -5  -1   6 45.8296 5.34880   2
  -4  -1   6 882.469 26.4968   2
  -4   1   6 863.649 25.7695   2
  -3  -1   6 76.2929 4.31647   2
  -3   1   6 75.6451 4.12338   2
  -2  -1   6 291.135 9.54784   3
  -2  -1   6 277.627 9.06340   2
  -2   1   6 306.016 9.41684   3
  -2   1   6 283.725 8.52179   2
  -1  -1   6 170.259 6.90300   3
   0  -1  -6 227.644 7.73595   1
   0   1   6 233.160 7.51558   2
   0   1  -6 232.705 7.69910   1
  -1  -1  -6 1212.59 31.4769   1
   1  -1   6 1218.59 32.5050   2
  -1   1  -6 1223.48 31.1578   1
   1   1   6 1103.44 30.9250   1
   1   1   6 1133.91 32.1195   2
   2  -1   6 354.784 13.3361   2
   2  -1   6 374.420 11.3783   1
  -2  -1  -6 368.857 12.4052   1
   2   1   6 356.327 11.5188   1
   2   1   6 363.441 13.4017   2
  -2   1  -6 376.459 12.1183   1
   3  -1   6 55.8109 3.29023   1
   3   1   6 59.1685 3.51242   1
  -3   1  -6 43.3261 4.02736   1
   4  -1   6 3.71493 1.58359   1
   4   1   6 4.10516 1.73126   1
   5  -1   6 47.2345 4.48470   1
   5   1   6 52.6712 4.64227   1
   6  -2  -6 7.24501 6.43077   1
   6   2  -6 5.35029 7.11389   1
  -5  -2   6 25.7629 4.94192   2
  -4  -2   6 7.24440 2.09923   2
  -3  -2   6 53.5600 3.67346   2
  -3   2   6 49.7282 3.20658   2
  -2  -2   6 570.832 16.6707   3
  -2  -2   6 562.602 16.4470   2
  -2   2   6 585.835 16.2391   3
  -2   2   6 574.598 15.0851   2
  -1  -2   6 1546.76 40.6911   3
   0  -2  -6 1033.50 27.2547   1
   0   2   6 990.468 26.5564   2
   0   2  -6 1042.12 27.0522   1
   1  -2   6 44.6692 3.05513   2
  -1  -2  -6 41.8906 2.73051   1
   1   2   6 43.1105 2.81921   1
   1   2   6 42.1221 2.92388   2
  -1   2  -6 46.8275 2.57785   1
   2  -2   6 12.1845 2.28703   2
  -2  -2  -6 17.0005 2.15138   1
   2  -2   6 13.8760 1.59263   1
  -2   2  -6 12.7952 1.91335   1
   2   2   6 15.5268 1.78844   1
   2   2   6 12.5666 2.19774   2
   3  -2   6 94.8686 4.32290   1
  -3  -2  -6 72.4204 5.46455   1
  -3   2  -6 87.7176 4.98000   1
   3   2   6 98.8262 4.89322   1
   4  -2   6 190.135 7.35969   1
   4   2   6 185.789 8.03407   1
   5  -2   6 5.93487 2.65754   1
   5   2   6 4.94828 2.96437   1
   6  -3  -6 28.6938 6.79716   1
   6   3  -6 29.5046 7.29014   1
  -5  -3   6 117.946 7.93421   2
   5   3  -6 128.002 8.76404   1
  -4  -3   6 82.5123 5.55986   2
  -3  -3   6 97.5101 5.42497   2
  -2  -3   6 548.140 16.2426   3
  -2   3   6 546.260 15.5002   3
  -1  -3   6 121.705 5.65131   3
   1  -3  -6 122.571 5.10295   1
   0  -3  -6 885.418 23.5827   1
   0   3  -6 869.724 23.1502   1
   0   3   6 837.757 22.5982   2
   1  -3   6 322.181 11.1467   2
  -1  -3  -6 327.253 10.6503   1
   1   3   6 292.148 10.1773   1
   1   3   6 307.146 10.7677   2
  -1   3  -6 317.297 9.80057   1
   2  -3   6 202.618 6.96948   1
  -2  -3  -6 207.246 9.13575   2
   2  -3   6 195.451 8.71384   2
  -2  -3  -6 186.272 7.97146   1
   2   3   6 203.354 7.68428   1
   2   3   6 200.697 8.72804   2
  -2   3  -6 204.207 7.38938   1
   3  -3   6 390.300 11.9776   1
  -3  -3  -6 428.866 16.3910   1
   3   3   6 388.068 13.0808   1
  -3   3  -6 366.857 12.7077   1
   4   3   6 6.09727 1.94601   1
   5   3   6 124.942 7.99576   1
   6  -4  -6 11.5713 6.66905   1
  -6  -4   6 3.04845 5.88023   2
   6   4  -6 12.9612 7.20234   1
  -5  -4   6 356.307 14.8543   2
   5   4  -6 335.582 15.7419   1
  -4  -4   6 1157.47 34.3101   2
  -3  -4   6 599.317 19.1035   2
  -2  -4   6 368.316 12.0658   3
  -2  -4   6 369.083 12.1105   2
  -2   4   6 371.147 11.1518   3
  -1  -4   6 227.148 8.67809   3
   0  -4   6 1379.42 38.0980   3
   0  -4  -6 1435.95 37.1225   1
   0   4   6 1450.22 35.9617   2
   0   4  -6 1429.24 36.5598   1
  -1  -4  -6 1512.43 39.5868   2
  -1  -4  -6 1504.39 39.6145   1
   1  -4   6 1463.88 40.1466   2
   1   4   6 1513.43 39.7358   2
   1   4   6 1479.68 39.0576   1
  -1   4  -6 1498.13 38.1879   1
  -2  -4  -6 2249.44 57.3333   1
   2  -4   6 2110.91 58.1726   2
  -2  -4  -6 2143.88 57.7909   2
  -2   4  -6 2218.94 55.1570   1
   2   4   6 2092.06 55.5489   1
   2   4   6 2211.50 58.0075   2
  -3  -4  -6 13.9034 2.76218   2
   3  -4   6 16.0301 1.70212   1
   3   4   6 18.2326 2.25919   1
  -3   4  -6 15.9113 2.22209   1
   4  -4   6 903.413 24.3061   1
   4   4   6 872.935 26.2217   1
   5   4   6 8.11002 3.48408   1
   6  -5  -6 69.5400 9.90911   1
  -6  -5   6 52.9509 9.28302   2
   6   5  -6 61.8382 10.3232   1
  -5  -5   6 136.471 8.78175   2
   5   5  -6 142.598 9.54329   1
  -4  -5   6 257.220 11.4729   2
  -3  -5   6 2.86150 1.56966   2
   3   5  -6 4.11475 1.85606   3
  -2  -5   6 168.926 7.10755   2
  -2  -5   6 168.777 6.95680   3
  -2   5   6 170.749 6.15012   3
  -1  -5   6 406.841 13.4115   3
   1  -5  -6 404.572 12.5183   1
   0  -5  -6 81.7523 3.87734   1
   0  -5   6 86.7013 4.80547   3
   0   5   6 89.5790 3.36431   2
  -1  -5  -6 2276.76 57.3603   1
  -1  -5  -6 2232.13 57.0794   2
   1   5   6 2224.40 56.6333   1
   1   5   6 2338.34 57.3302   2
  -1   5  -6 2038.78 56.0225   1
   2  -5   6 29.4667 3.87455   2
  -2  -5  -6 45.2077 3.73751   2
  -2  -5  -6 31.2413 3.29731   1
   2   5   6 43.3126 3.04089   1
  -2   5  -6 42.6111 2.53895   1
   2   5   6 34.3928 3.59620   2
   3  -5   6 421.155 12.3909   1
  -3  -5  -6 429.155 16.7998   2
   3   5   6 422.390 14.2140   1
   4  -5   6 4.56635 1.48712   1
   4   5   6 8.75522 2.15455   1
   5   5   6 365.727 13.9578   1
   6  -6  -6 41.6806 7.16190   1
  -6  -6   6 45.1793 9.44901   2
   6   6  -6 37.3099 7.46640   1
  -5  -6   6 113.992 8.20126   2
   5   6  -6 115.395 8.71843   1
  -4  -6   6 5.09892 2.31741   2
  -3  -6   6 51.3780 4.11655   2
  -3  -6   6 55.2402 2.88928   3
   3   6  -6 42.0581 3.63565   3
  -2  -6   6 142.289 6.46304   2
  -2  -6   6 144.103 6.39764   3
  -2   6   6 146.319 5.50128   3
  -2   6   6 139.611 5.34625   3
  -1  -6   6 37.5550 3.08886   3
   1  -6  -6 34.7657 2.28703   1
   0  -6   6 9.66903 1.76596   3
   0  -6  -6 8.44533 1.23334   1
   0   6   6 9.65246 1.57853   1
  -1  -6  -6 16.8276 2.03592   1
  -1  -6  -6 22.4832 2.31616   2
  -1   6  -6 20.8200 1.56369   1
   1   6   6 25.7653 2.22471   1
   1   6   6 19.4875 2.09296   2
  -2  -6  -6 415.792 14.7073   1
  -2  -6  -6 449.913 15.7503   2
   2  -6   6 411.370 15.2899   2
  -2   6  -6 445.560 12.7108   1
   2   6   6 440.075 14.0685   1
   2   6   6 425.266 14.8383   2
  -3  -6  -6 730.527 24.9438   2
   3   6   6 741.157 22.2601   1
   4  -6   6 1.34119 1.42910   1
  -4  -6  -6 -0.0518 3.09563   2
   4   6   6 6.00339 2.13392   1
   5   6   6 12.2276 3.46423   1
   6  -7  -6 24.2542 7.04150   1
  -6  -7   6 21.9174 6.69749   2
   6   7  -6 9.08360 7.03653   1
  -5  -7   6 36.2752 6.17210   2
   5   7  -6 45.0574 6.10848   1
  -4  -7   6 292.092 12.7264   2
   4  -7  -6 268.270 9.82038   2
  -3  -7   6 121.451 6.76171   2
  -3  -7   6 119.330 5.05713   3
   3   7  -6 136.614 8.67080   3
  -2  -7   6 36.2912 2.96325   3
   2  -7  -6 33.7368 2.37997   1
   2   7  -6 33.1014 2.82161   3
  -2   7   6 36.2823 2.29275   3
  -2   7   6 37.3701 2.44605   3
  -1  -7   6 94.8118 5.23193   3
   1  -7  -6 83.7169 4.09296   1
   0  -7   6 52.8782 3.76656   3
   0  -7  -6 52.3930 2.44660   2
   0  -7  -6 47.3627 3.08933   1
   0   7   6 53.4967 3.48879   1
  -1  -7  -6 978.563 27.4877   2
  -1  -7  -6 943.365 27.5548   1
   1  -7   6 965.017 27.9452   3
   1   7   6 1008.95 27.2316   2
  -1   7  -6 985.887 25.3741   1
   1   7   6 986.487 27.0987   1
  -2  -7  -6 88.9681 5.54198   1
  -2  -7  -6 99.1588 6.10854   2
   2   7   6 105.082 5.30586   1
  -2   7  -6 98.7879 3.86217   1
   2   7   6 82.0509 5.22011   2
  -3  -7  -6 115.798 7.42700   2
   3   7   6 114.986 6.01705   1
  -4  -7  -6 88.3146 8.70529   2
   4   7   6 95.5433 5.92274   1
   5   7   6 233.261 10.6313   1
   6  -8  -6 167.619 12.0084   1
  -6  -8   6 142.040 12.8573   2
   6   8  -6 137.390 12.3591   1
  -5  -8   6 39.0842 6.49693   2
   5   8  -6 27.2302 5.44516   1
  -4  -8   6 203.747 10.4118   2
   4  -8  -6 197.977 7.89374   2
   3  -8  -6 65.3708 3.04402   2
  -3  -8   6 64.7279 3.68608   3
  -3  -8   6 65.3625 4.90886   2
  -2  -8   6 1581.66 42.0664   3
   2  -8  -6 1531.46 41.2422   1
  -2   8   6 1596.28 40.3109   3
   2   8  -6 1564.82 42.1791   3
   1  -8  -6 2171.69 54.5190   1
  -1  -8   6 2088.88 55.8001   3
   0  -8  -6 379.389 12.2868   1
   0  -8  -6 385.992 11.1026   2
   0   8   6 371.981 12.4501   1
  -1  -8  -6 75.8761 4.42506   1
  -1  -8  -6 87.1624 4.84959   2
   1  -8   6 83.0596 5.00759   3
   1   8   6 84.9172 4.56246   1
  -1   8  -6 81.8648 3.29361   1
   1   8   6 89.1885 4.30928   2
   2  -8   6 13.7029 2.46974   3
  -2  -8  -6 19.8573 2.86616   2
  -2   8  -6 19.2692 1.47364   1
   2   8   6 22.6909 2.31516   1
  -3  -8  -6 1013.02 32.2040   2
   3   8   6 992.455 29.1275   1
   4  -8   6 125.320 7.08977   3
   4   8   6 124.439 6.82395   1
   5   8   6 -5.0830 3.61524   1
  -6  -9   6 199.110 14.2757   2
   6  -9  -6 216.768 12.8962   1
   6   9  -6 201.836 13.6994   1
   5   9  -6 246.365 13.6105   1
   4  -9  -6 5.59925 2.96655   2
  -4  -9   6 9.31700 2.83621   2
   4   9  -6 8.84040 3.26533   1
  -3  -9   6 118.324 5.52611   3
  -3  -9   6 127.687 7.19163   2
   3  -9  -6 120.503 4.65578   2
  -2  -9   6 292.196 10.9060   3
   2  -9  -6 295.819 9.97731   1
   2   9  -6 279.613 10.6863   3
  -2   9   6 296.521 9.33152   3
  -1  -9   6 214.084 9.13264   3
   1  -9  -6 227.987 8.09074   1
   0  -9  -6 432.874 12.6826   2
   0  -9  -6 430.552 13.9095   1
   0  -9   6 453.173 15.0877   3
   0   9   6 437.515 14.0936   1
  -1  -9  -6 -1.9844 1.04896   2
   1  -9   6 -1.9226 1.02513   3
  -1  -9  -6 -1.6575 1.68338   1
  -1   9  -6 -0.3917 0.67130   1
   1   9   6 0.53103 0.95715   1
  -2  -9  -6 1741.28 48.8837   2
   2  -9   6 1786.53 47.6626   3
   2   9   6 1772.83 48.0236   2
  -2   9  -6 1745.23 43.5921   1
   2   9   6 1793.85 47.1149   1
  -3  -9  -6 500.153 19.2482   2
   3  -9   6 490.327 16.6883   3
   3   9   6 493.053 16.7173   1
   4  -9   6 392.470 14.2340   3
  -4  -9  -6 351.855 20.0033   2
   4   9   6 388.621 14.4274   1
  -5  -9  -6 65.5366 8.57989   2
   5   9   6 59.3196 6.10482   1
  -6 -10   6 3.13441 7.87855   2
   6  10  -6 3.81395 7.69240   1
  -5 -10   6 42.3404 7.05328   2
   5  10  -6 48.3885 7.18013   1
  -4 -10   6 19.1050 3.68666   2
   4  10  -6 22.5843 4.30254   1
   3 -10  -6 249.204 8.16887   2
  -3 -10   6 275.535 11.7380   2
  -3 -10   6 251.846 9.48472   3
   2 -10  -6 224.471 8.30467   1
  -2 -10   6 246.264 9.70565   3
   2  10  -6 210.634 9.76128   3
  -2  10   6 246.132 7.99406   3
  -1 -10   6 553.624 17.8828   3
   1 -10  -6 518.849 16.0984   1
  -1  10   6 552.600 17.0292   3
   0 -10  -6 957.592 26.5552   1
   0 -10  -6 948.648 25.1613   2
   0 -10   6 917.945 27.4733   3
   0  10   6 936.854 26.5047   1
  -1 -10  -6 13.7380 2.11484   1
   1 -10   6 13.2996 2.34108   3
  -1 -10  -6 14.3736 2.15440   2
   1  10   6 18.3494 2.10445   1
  -1  10  -6 13.0279 1.15763   1
   2 -10   6 135.315 7.03642   3
  -2 -10  -6 147.757 7.73972   2
   2  10   6 142.973 6.80651   1
   2  10   6 126.126 6.60977   2
   3 -10   6 -0.3075 1.78940   3
  -3 -10  -6 -0.5034 2.36448   2
   3  10   6 4.25987 1.61477   1
  -4 -10  -6 131.477 9.00370   2
   4 -10   6 134.876 7.46587   3
   4  10   6 134.554 8.36039   1
  -5 -10  -6 31.2852 6.26579   2
   5  10   6 32.6680 5.72015   1
  -6 -11   6 219.498 15.4787   2
   6  11  -6 218.837 14.6565   1
  -5 -11   6 38.3524 7.51151   2
   5  11  -6 47.2544 7.32273   1
  -4 -11   6 131.103 8.63512   2
   4  11  -6 143.370 9.05713   1
  -3 -11   6 1099.87 33.6249   2
   3 -11  -6 1103.38 28.7898   2
  -3 -11   6 1086.81 30.5571   3
   2 -11  -6 659.893 19.6372   1
  -2 -11   6 682.079 21.2150   3
  -2  11   6 691.275 19.1258   3
  -1 -11   6 446.026 15.3956   3
   1 -11  -6 427.558 13.6032   1
   1 -11  -6 428.161 11.2738   2
  -1  11   6 436.521 14.2965   3
   1  11  -6 415.937 14.3558   3
   0 -11   6 3334.12 85.5325   3
   0 -11  -6 3358.69 82.8859   2
   0 -11  -6 3381.59 84.4297   1
   0  11   6 3276.53 84.1233   1
  -1 -11  -6 752.133 23.3792   1
   1 -11   6 693.520 22.2527   3
  -1 -11  -6 728.181 21.9943   2
  -1  11  -6 707.707 18.6094   1
   1  11   6 714.072 21.3554   1
  -2 -11  -6 696.153 22.8957   2
   2 -11   6 691.684 21.7557   3
   2  11   6 677.286 21.2006   1
  -3 -11  -6 249.278 12.2985   2
   3 -11   6 252.627 10.5701   3
   3  11   6 251.211 10.5665   1
   4 -11   6 161.102 8.28032   3
  -4 -11  -6 162.751 10.5577   2
   4  11   6 160.318 8.58814   1
  -5 -11  -6 16.9186 5.68016   2
   5  11   6 25.0232 4.33803   1
  -5 -12   6 25.7320 5.39567   2
   5  12  -6 28.0358 5.43749   1
  -4 -12   6 190.932 10.7810   2
   4  12  -6 179.111 10.8889   1
  -3 -12   6 362.511 12.6696   3
   3 -12  -6 351.284 10.7835   2
  -3 -12   6 353.090 14.6393   2
  -2 -12   6 40.8448 3.75248   3
   2 -12  -6 43.6922 1.91122   2
  -2  12   6 43.7434 2.81396   3
   1 -12  -6 54.7406 2.27523   2
   1 -12  -6 46.6191 3.32665   1
  -1 -12   6 54.8296 4.27307   3
   1  12  -6 45.2799 3.60115   3
  -1  12   6 60.1638 3.79755   3
   0 -12   6 1207.62 33.9716   3
   0 -12  -6 1114.80 32.2537   1
   0  12   6 1193.66 32.4488   1
   0  12   6 1165.49 33.3790   3
   1 -12   6 322.161 12.2794   3
  -1 -12  -6 310.677 11.7548   2
  -1  12  -6 306.884 8.62709   1
   1  12   6 303.594 11.2335   1
  -2 -12  -6 104.075 6.55358   2
   2 -12   6 97.8646 6.06855   3
   2  12   6 104.659 5.86056   1
  -3 -12  -6 778.044 26.9902   2
   3 -12   6 776.829 24.3333   3
   3  12   6 766.631 24.2603   1
   4 -12   6 93.1423 6.62423   3
  -4 -12  -6 84.8173 8.10211   2
   4  12   6 100.826 6.21862   1
  -5 -12  -6 -2.1785 6.29631   2
   5  12   6 7.95061 4.17754   1
  -5 -13   6 81.6427 9.04902   2
   5  13  -6 82.9915 8.69010   1
  -4 -13   6 915.122 30.2649   2
   4  13  -6 789.850 38.4822   1
  -3 -13   6 1096.48 34.1720   2
  -3 -13   6 1066.78 31.0088   3
   3 -13  -6 1098.12 30.7520   2
   3  13  -6 1085.64 34.5678   1
   2 -13  -6 68.8942 2.79126   2
  -2 -13   6 72.6982 5.00814   3
  -2  13   6 61.3811 4.33499   3
  -1 -13   6 9.55758 2.09963   3
   1 -13  -6 8.05393 1.74900   1
   1 -13  -6 12.0256 1.21382   2
  -1  13   6 13.4276 2.03373   3
   0 -13  -6 823.237 25.5456   1
   0 -13   6 901.188 27.2893   3
   0 -13  -6 935.533 25.1279   2
   0  13   6 917.186 25.8835   1
   0  13   6 884.886 26.7863   3
  -1 -13  -6 2797.81 72.3693   2
   1 -13   6 2792.49 72.9561   3
  -1  13  -6 2749.04 67.7843   1
   1  13   6 2804.08 71.5869   1
  -2 -13  -6 237.085 11.0566   2
   2 -13   6 244.728 10.5220   3
   2  13   6 237.433 9.96708   1
   3 -13   6 107.718 6.57857   3
  -3 -13  -6 104.347 7.60376   2
   3  13   6 111.001 6.46834   1
   4 -13   6 6.95766 3.16130   3
  -4 -13  -6 3.85763 4.03017   2
   4  13   6 6.20214 2.77837   1
  -5 -13  -6 384.980 19.2491   2
   5  13   6 372.114 15.4857   1
  -5 -14   6 43.7805 8.79255   2
   5  14  -6 58.3331 8.25123   1
  -4 -14   6 30.4813 5.81125   2
   4  14  -6 31.1860 5.59368   1
  -3 -14   6 361.276 15.3529   2
  -3 -14   6 346.443 13.0523   3
   3  14  -6 359.309 15.4511   1
  -2 -14   6 114.267 6.74490   3
   2 -14  -6 124.087 4.41412   2
  -1 -14   6 152.717 7.87497   3
   1 -14  -6 133.615 6.31444   1
   1 -14  -6 152.126 5.26037   2
  -1  14   6 142.672 6.55019   3
   0 -14   6 975.877 29.5969   3
   0 -14  -6 1013.53 27.2246   2
   0  14   6 924.242 28.6550   3
   0  14   6 984.439 27.9630   1
  -1 -14  -6 0.66661 1.52281   2
   1 -14   6 -1.5407 1.45882   3
  -1  14  -6 1.94146 0.74488   1
   2 -14   6 34.4996 3.60206   3
  -2 -14  -6 31.3149 4.07299   2
   2  14   6 34.0448 3.16706   1
  -3 -14  -6 137.977 9.08460   2
   3 -14   6 130.484 7.41260   3
   3  14   6 138.931 7.60521   1
   4 -14   6 12.1865 3.56952   3
  -4 -14  -6 13.7342 4.47330   2
   4  14   6 15.4719 3.19839   1
  -5 -14  -6 85.3669 11.0856   2
   5  14   6 91.8808 7.85646   1
  -5 -15   6 6.04129 6.19648   2
   5  15  -6 14.8703 6.43046   1
  -4 -15   6 253.783 13.4650   2
   4  15  -6 263.492 13.8320   1
   3 -15  -6 124.943 5.42960   2
  -3 -15   6 114.888 6.56683   3
  -3 -15   6 120.202 7.93978   2
   3  15  -6 119.863 8.10512   1
   2 -15  -6 0.31558 1.31317   2
  -2 -15   6 -0.9296 1.69809   3
  -2  15   6 1.31610 1.87036   3
   2  15  -6 1.52005 2.06042   1
   1 -15  -6 110.038 4.32913   2
  -1 -15   6 108.452 6.59336   3
  -1  15   6 90.5022 5.67659   3
   1  15  -6 104.420 5.97685   1
   0 -15  -6 386.163 12.7318   2
   0 -15   6 383.160 14.7878   3
   0  15   6 365.704 13.1347   1
   0  15  -6 377.406 12.4171   1
   1 -15   6 1671.54 46.2754   3
  -1 -15  -6 1696.28 45.5570   2
  -1  15  -6 1633.46 40.1127   1
   1  15   6 1621.63 44.4279   1
  -1  15  -6 1593.30 40.3110   1
   2 -15   6 12.9307 2.83179   3
  -2 -15  -6 8.39975 2.29955   2
   2  15   6 13.4532 2.41992   1
  -3 -15  -6 5.04406 3.05481   2
   3 -15   6 1.54656 2.46648   3
   3  15   6 2.57509 2.09559   1
   4 -15   6 87.8355 7.39700   3
  -4 -15  -6 98.2565 9.02896   2
   4  15   6 96.1398 6.68289   1
  -5 -15  -6 66.4076 10.9181   2
   5  15   6 55.9226 7.43042   1
  -5 -16   6 10.0887 6.39830   2
   5  16  -6 15.5774 6.71662   1
  -4 -16   6 662.237 25.6950   2
   4  16  -6 658.316 25.2516   1
   3 -16  -6 26.2152 3.69806   2
  -3 -16   6 22.6306 3.58109   3
  -3 -16   6 16.8912 3.11415   2
   3  16  -6 27.2253 4.53308   1
  -2 -16   6 114.076 6.88921   3
   2 -16  -6 120.985 4.74661   2
   2  16  -6 118.277 7.22655   1
  -2  16   6 113.220 5.41162   3
  -1 -16   6 203.532 9.82544   3
   1  16  -6 200.031 9.00302   1
  -1  16   6 193.545 8.31314   3
   0 -16   6 232.691 10.7750   3
   0 -16  -6 228.845 9.00737   2
   0  16   6 223.565 9.33320   1
   0  16  -6 222.275 8.48995   1
   1 -16   6 1365.07 39.8570   3
  -1 -16  -6 1402.38 39.2305   2
   1  16   6 1355.46 38.1330   1
  -2 -16  -6 488.367 18.5506   2
   2 -16   6 496.641 17.9408   3
   2  16   6 473.876 16.8934   1
   3 -16   6 291.026 12.6158   3
  -3 -16  -6 291.659 14.2137   2
   4 -16   6 77.2978 7.22894   3
  -4 -16  -6 71.8379 8.41456   2
   4  16   6 72.3880 6.20566   1
  -5 -16  -6 70.0516 11.7113   2
   5  16   6 68.1166 7.98143   1
  -5 -17   6 280.348 17.0692   2
   5  17  -6 293.670 16.0810   1
  -4 -17   6 18.2559 4.67299   2
   4  17  -6 10.2016 4.54064   1
  -3 -17   6 465.774 16.7780   3
  -3 -17   6 474.468 19.4066   2
   3  17  -6 469.960 18.8708   1
   2 -17  -6 986.765 28.7938   2
  -2 -17   6 979.748 30.2669   3
   2  17  -6 954.450 30.4591   1
  -2  17   6 970.027 26.9474   3
   1 -17  -6 500.414 14.6835   2
  -1 -17   6 468.076 17.6191   3
   1  17  -6 469.054 16.3668   1
  -1  17   6 461.091 16.1381   3
   0 -17  -6 907.085 25.7389   2
   0 -17   6 872.182 27.9394   3
   0  17  -6 866.942 24.6465   1
   0  17   6 860.340 25.9209   1
   1 -17   6 1.10963 1.87921   3
  -1 -17  -6 2.23767 1.80562   2
   1  17   6 3.41497 1.53379   1
  -2 -17  -6 1464.89 43.7471   2
   2 -17   6 1470.31 42.6932   3
   2  17   6 1488.73 41.6876   1
  -3 -17  -6 31.2618 5.47750   2
   3 -17   6 31.1178 4.77192   3
   3  17   6 28.2020 3.77892   1
  -4 -17  -6 129.515 10.5528   2
   4 -17   6 133.929 8.85764   3
   4  17   6 124.416 7.89711   1
  -5 -18   6 145.272 14.2080   2
   5  18  -6 153.512 11.9924   1
  -4 -18   6 71.8469 8.07715   2
   4  18  -6 62.0252 7.53767   1
  -3 -18   6 95.1197 7.78934   2
  -3 -18   6 98.3754 6.53606   3
   3  18  -6 107.164 7.58604   1
  -2 -18   6 427.907 16.4435   3
   2 -18  -6 438.078 13.1091   2
  -2  18   6 418.624 13.5857   3
   2  18  -6 437.347 16.7940   1
  -1 -18   6 1005.63 31.2271   3
   1 -18  -6 1019.83 27.5071   2
   1  18  -6 988.895 29.3844   1
  -1  18   6 950.064 28.9807   3
   0 -18  -6 1.73323 1.57426   2
   0 -18   6 1.37801 1.94532   3
   0  18  -6 0.38306 1.43799   1
   0  18   6 1.43302 1.41987   1
  -1 -18  -6 10.8946 2.65312   2
   1  18   6 14.2227 2.43981   1
  -2 -18  -6 325.056 14.4657   2
   2 -18   6 323.635 13.7721   3
   2  18   6 321.102 12.7946   1
   3 -18   6 476.100 17.7748   3
  -3 -18  -6 395.606 22.2023   2
   3  18   6 482.037 17.4206   1
   4 -18   6 67.1788 7.70686   3
  -4 -18  -6 70.3425 9.25334   2
   4  18   6 65.5082 6.42706   1
  -5 -19   6 8.06325 8.41462   2
   5  19  -6 29.5834 7.57909   1
  -4 -19   6 50.1657 8.03092   2
   4  19  -6 41.6711 7.27755   1
  -3 -19   6 67.3862 7.16173   2
  -3 -19   6 79.9902 6.12029   3
   3  19  -6 76.4227 6.85251   1
  -2 -19   6 10.3056 2.45739   3
   2  19  -6 5.46656 2.67719   1
  -2  19   6 12.6649 2.88999   3
  -1 -19   6 -0.1554 1.94450   3
   1 -19  -6 1.55656 1.42055   2
   1  19  -6 -0.1920 2.03243   1
  -1  19   6 1.80481 4.16917   3
   0 -19  -6 264.181 10.6358   2
   0 -19   6 257.456 12.1246   3
   0  19   6 267.765 10.7590   1
   0  19  -6 266.064 9.39709   1
  -1 -19  -6 302.460 12.7883   2
   1 -19   6 310.182 13.5329   3
   1  19   6 297.895 11.9164   1
   2 -19   6 824.549 27.2044   3
  -2 -19  -6 803.486 27.5769   2
   2  19   6 798.220 25.5671   1
   3 -19   6 7.96930 3.29770   3
  -3 -19  -6 4.94083 3.90912   2
   3  19   6 9.31099 2.82158   1
  -4 -19  -6 5.26292 5.98744   2
   4  19   6 13.3347 4.00463   1
  -5 -20   6 598.144 26.1300   2
   5  20  -6 562.125 24.4134   1
  -4 -20   6 50.0969 7.77264   2
   4  20  -6 40.9407 7.44929   1
  -3 -20   6 67.9384 6.88491   2
  -3 -20   6 62.0580 5.99872   3
  -2 -20   6 479.211 18.2454   3
   2  20  -6 461.893 17.7742   1
  -1 -20   6 808.218 27.4742   3
   1 -20  -6 849.841 24.0529   2
   1  20  -6 804.013 25.2061   1
   0 -20  -6 20.5289 3.15264   2
   0 -20   6 19.1673 3.65893   3
   0  20   6 17.3123 2.75454   1
   0  20  -6 19.4444 2.32725   1
  -1 -20  -6 6.10349 2.53047   2
   1 -20   6 1.71026 2.49494   3
   1  20   6 5.86662 1.76949   1
   2 -20   6 364.694 15.3801   3
  -2 -20  -6 368.245 16.0907   2
   3 -20   6 1574.77 46.0419   3
  -3 -20  -6 1563.20 48.4810   2
   3  20   6 1529.46 45.0348   1
   4 -20   6 20.9137 5.89238   3
  -4 -20  -6 14.0088 6.43671   2
   4  20   6 12.3146 4.04586   1
  -4 -21   6 117.965 11.6990   2
   4  21  -6 152.229 10.5638   1
  -3 -21   6 1.82834 4.01599   2
  -3 -21   6 5.46228 3.27056   3
   3  21  -6 1.50643 3.93190   1
  -2 -21   6 457.219 18.0989   3
   2  21  -6 456.442 17.6279   1
   1 -21  -6 122.208 6.24355   2
  -1 -21   6 124.648 8.15239   3
   1  21  -6 113.078 6.54555   1
   0 -21   6 37.0713 4.49101   3
   0 -21  -6 34.3790 3.97614   2
   0  21  -6 24.1362 2.75236   1
   0  21   6 34.0914 3.38934   1
   1 -21   6 572.606 21.2528   3
  -1 -21  -6 573.855 20.3627   2
   1  21   6 564.696 19.2269   1
  -2 -21  -6 163.808 10.1607   2
   2 -21   6 175.284 9.93029   3
   2  21   6 171.968 8.67723   1
  -3 -21  -6 139.446 10.2242   2
   3  21   6 139.626 8.09593   1
  -4 -21  -6 60.8950 10.4546   2
   4  21   6 37.2996 6.59749   1
  -4 -22   6 124.366 11.9146   2
   4  22  -6 129.313 10.5454   1
  -3 -22   6 189.878 11.6717   2
  -3 -22   6 181.506 10.7009   3
   3  22  -6 187.898 10.5337   1
  -2 -22   6 80.2988 8.61891   3
   2  22  -6 105.413 7.08929   1
   1 -22  -6 97.7870 5.75825   2
  -1 -22   6 102.811 7.33634   3
   1  22  -6 94.5674 5.94937   1
   0 -22  -6 658.029 21.3808   2
   0 -22   6 647.668 23.6715   3
   0  22  -6 641.375 18.8198   1
   0  22   6 647.443 21.1149   1
  -1 -22  -6 7.38372 3.03468   2
   1 -22   6 6.58828 3.01526   3
   1  22   6 10.1128 2.56582   1
  -2 -22  -6 150.448 10.0216   2
   2 -22   6 159.185 9.72309   3
   2  22   6 152.997 8.26704   1
  -3 -22  -6 80.7095 8.59779   2
   3 -22   6 98.4426 8.43545   3
   3  22   6 80.3740 6.52171   1
  -4 -22  -6 406.953 19.7163   2
   4  22   6 366.314 16.1911   1
  -4 -23   6 54.9100 9.01992   2
   4  23  -6 43.0236 8.83044   1
  -3 -23   6 147.109 10.5291   2
   3  23  -6 126.358 9.16244   1
  -2 -23   6 3.55304 3.28090   3
   2  23  -6 5.24235 3.28114   1
   1 -23  -6 9.72015 2.51194   2
   1  23  -6 13.8207 2.59652   1
   0 -23   6 91.8837 7.82138   3
   0 -23  -6 102.925 6.44207   2
   0  23   6 99.5328 6.10392   1
   0  23  -6 100.120 4.86841   1
   1 -23   6 33.4335 6.14979   3
  -1 -23  -6 24.5921 5.10878   2
   2 -23   6 6.24228 3.93443   3
  -2 -23  -6 -1.1162 3.84886   2
   2  23   6 -0.2145 2.72260   1
   3 -23   6 299.608 15.0673   3
  -3 -23  -6 293.671 15.7809   2
   3  23   6 291.765 13.1143   1
  -4 -24   6 89.3845 12.9591   2
   4  24  -6 99.9821 10.2612   1
  -3 -24   6 334.347 16.9081   2
   3  24  -6 329.084 15.4847   1
  -2 -24   6 268.809 13.3572   3
   2  24  -6 273.695 12.3060   1
  -1 -24   6 257.087 12.9119   3
   1 -24  -6 254.345 10.6700   2
   1  24  -6 236.230 10.3578   1
   0 -24  -6 903.311 28.3760   2
   0 -24   6 917.904 31.3249   3
   0  24   6 913.199 28.0215   1
   0  24  -6 906.944 25.0147   1
  -1 -24  -6 13.0385 3.51032   2
   1 -24   6 12.3548 3.60458   3
   1  24   6 14.1952 2.66722   1
   2 -24   6 262.441 13.5961   3
  -2 -24  -6 265.026 14.7510   2
   2  24   6 271.054 11.9644   1
  -3 -24  -6 0.00525 5.51734   2
   3 -24   6 11.0675 5.68172   3
   3  24   6 -0.4495 4.03049   1
  -4 -25   6 121.402 14.4802   2
   4  25  -6 128.679 11.8533   1
  -3 -25   6 65.4675 9.30050   2
   3  25  -6 90.0192 7.91794   1
  -2 -25   6 34.6949 6.08162   3
   2  25  -6 34.5508 6.29834   1
  -1 -25   6 172.905 10.5020   3
   1 -25  -6 180.031 8.93418   2
   1  25  -6 171.191 8.47252   1
   0 -25   6 30.3030 6.10788   3
   0 -25  -6 39.9918 5.35444   2
   0  25   6 28.2573 5.06332   1
   0  25  -6 36.9579 3.35467   1
   1 -25   6 195.985 11.3962   3
  -1 -25  -6 195.654 10.9729   2
   1  25   6 199.551 9.69091   1
  -2 -25  -6 242.627 13.6373   2
   2 -25   6 250.315 13.1685   3
   2  25   6 248.506 11.4648   1
  -3 -25  -6 33.0283 6.41303   2
   3  25   6 20.0605 4.30376   1
  -3 -26   6 144.398 11.9147   2
   3  26  -6 162.413 10.6867   1
  -2 -26   6 164.508 10.3235   3
   2  26  -6 154.686 9.34975   1
  -1 -26   6 640.888 24.8067   3
   1 -26  -6 668.305 21.8477   2
   1  26  -6 665.837 21.1483   1
   0 -26  -6 -0.9923 3.42288   2
   0 -26   6 3.54959 3.92736   3
   0  26   6 -1.4189 2.70512   1
   1 -26   6 24.4431 4.79525   3
  -1 -26  -6 26.9673 4.68233   2
   1  26   6 34.2221 4.54902   1
   2 -26   6 25.5856 5.04583   3
  -2 -26  -6 22.1430 5.29340   2
   2  26   6 27.1847 5.21366   1
  -3 -26  -6 438.005 20.6953   2
   3 -26   6 419.095 19.6586   3
   3  26   6 452.537 17.6854   1
  -3 -27   6 76.0078 11.1018   2
   3  27  -6 99.9817 9.55280   1
  -2 -27   6 90.9797 8.73309   3
   2  27  -6 85.4490 7.82711   1
   1 -27  -6 26.9088 4.06053   2
  -1 -27   6 37.3604 6.91863   3
   1  27  -6 36.3940 5.08051   1
   0 -27  -6 16.8654 4.08031   2
   0 -27   6 16.3352 4.64816   3
   0  27   6 14.0803 3.43033   1
   1 -27   6 140.434 10.8893   3
   1  27   6 139.012 8.13239   1
  -2 -27  -6 53.7814 9.13871   2
   2 -27   6 47.6107 6.50273   3
   2  27   6 59.8437 6.12882   1
   3 -27   6 -13.726 7.80698   3
  -3 -27  -6 1.09230 7.74105   2
   3  27   6 10.5377 5.70741   1
  -3 -28   6 6.07798 7.11142   2
   3  28  -6 32.4227 7.33558   1
  -2 -28   6 100.076 9.77167   3
   2  28  -6 103.347 8.42448   1
  -1 -28   6 264.711 14.4906   3
   1 -28  -6 265.753 12.0820   2
   1  28  -6 252.939 10.9373   1
   0 -28  -6 7.84998 4.56490   2
   0 -28   6 16.9898 4.84831   3
   0  28   6 8.74965 3.34887   1
   1 -28   6 2.97608 5.29170   3
  -1 -28  -6 -6.1732 5.30000   2
   1  28   6 3.77770 3.70983   1
  -2 -28  -6 -3.1453 6.44622   2
   2 -28   6 2.03559 6.20211   3
   2  28   6 10.9303 4.62532   1
  -2 -29   6 558.531 23.6797   3
   2  29  -6 584.308 20.5045   1
  -1 -29   6 7.56683 5.60648   3
   0 -29   6 41.5195 8.55062   3
   0  29   6 44.8940 5.63336   1
  -1 -29  -6 5.12108 6.10318   2
   1 -29   6 4.21133 6.15400   3
   1  29   6 3.23193 3.92097   1
   2 -29   6 478.870 21.2988   3
  -2 -29  -6 429.553 20.9515   2
   2  29   6 465.697 18.0166   1
  -2 -30   6 149.303 12.3497   2
  -2 -30   6 116.756 11.8641   3
   2  30  -6 148.721 10.9530   1
  -1 -30   6 300.864 15.9579   3
   0 -30  -6 37.6431 6.59886   2
   0 -30   6 39.4226 6.96872   3
   1 -30   6 91.5432 10.4311   3
  -1 -30  -6 51.3671 10.9976   2
   1  30   6 67.9767 7.04257   1
  -1 -31   6 2.53932 6.56114   3
   0 -31   6 289.917 16.2775   3
  -1 -31  -6 50.9998 8.19975   2
   1 -31   6 67.0213 11.5111   3
   1  31   6 41.4266 7.34004   1
   0 -32   6 23.9738 8.38227   3
   6   0  -7 8.25546 7.00746   1
  -4   0   7 0.28707 1.82861   2
  -3   0   7 -0.9523 1.15772   2
  -2   0   7 1.18413 0.91023   3
  -2   0   7 0.81361 0.66343   2
  -1   0   7 1.10200 0.88205   3
   0   0  -7 -0.2294 0.94351   1
   0   0   7 0.78553 0.84561   2
  -1   0  -7 0.32513 1.20443   1
   1   0   7 -0.4190 1.43576   2
  -2   0  -7 1.17283 1.85061   1
   2   0   7 3.06644 1.08465   1
   2   0   7 -0.8800 2.66875   2
  -3   0  -7 1.14032 3.38490   1
   3   0   7 0.89228 1.19962   1
   4   0   7 0.00598 1.80433   1
   5   0   7 5.37929 3.17720   1
   6  -1  -7 151.178 11.6548   1
   6   1  -7 143.258 12.0603   1
  -5  -1   7 94.5744 6.77942   2
  -4  -1   7 2.02294 1.98091   2
  -4   1   7 0.10961 1.71172   2
  -3  -1   7 1055.28 29.0609   2
  -2  -1   7 951.030 26.1065   3
  -2  -1   7 920.684 24.8629   2
  -2   1   7 934.186 23.9128   2
  -2   1   7 958.481 25.9581   3
  -1  -1   7 542.634 16.6870   3
   1  -1  -7 522.576 15.8840   1
  -1   1   7 523.695 13.6734   2
   0  -1  -7 182.141 6.84011   1
   0  -1   7 188.514 6.88247   2
   0   1  -7 183.816 6.76804   1
   0   1   7 182.700 6.51274   2
  -1  -1  -7 1711.69 43.9839   1
   1  -1   7 1634.55 44.7789   2
  -1   1  -7 1672.15 43.5558   1
   1   1   7 1695.42 44.8371   2
   2  -1   7 1589.53 44.4256   2
   2  -1   7 1592.87 41.1865   1
  -2  -1  -7 1511.66 42.5051   1
   2   1   7 1556.25 44.2549   2
   2   1   7 1612.64 41.5405   1
  -2   1  -7 1629.40 42.3779   1
   3  -1   7 18.4296 2.16004   1
  -3  -1  -7 22.0870 4.11416   1
   3   1   7 20.9000 2.24318   1
  -3   1  -7 13.2809 3.28878   1
   4  -1   7 111.658 5.52768   1
   4   1   7 108.311 5.67487   1
   5   1   7 118.437 6.74470   1
   6  -2  -7 54.1100 10.2009   1
   6   2  -7 51.1738 10.8361   1
  -5  -2   7 187.436 9.47979   2
  -4  -2   7 0.73659 2.08622   2
  -3  -2   7 380.999 10.4853   3
  -3  -2   7 359.368 12.4728   2
  -3   2   7 367.226 10.9983   2
  -2  -2   7 237.520 8.04253   2
  -2  -2   7 243.132 8.96456   3
  -2   2   7 241.123 8.59897   3
   1  -2  -7 1.18076 1.07212   1
  -1  -2   7 3.33336 1.09153   3
   0  -2  -7 0.40494 0.97474   1
   0   2   7 0.12063 0.77368   2
   0   2  -7 0.58759 0.92063   1
   1  -2   7 2603.11 65.6926   2
  -1  -2  -7 2479.70 64.4772   1
   1   2   7 2565.07 65.2479   2
   1   2   7 2461.59 64.1070   1
  -1   2  -7 2546.90 63.8617   1
  -2  -2  -7 877.465 25.5437   1
   2  -2   7 862.686 23.7693   1
   2  -2   7 839.835 26.4455   2
   2   2   7 860.790 26.4674   2
  -2   2  -7 874.383 24.6800   1
   2   2   7 874.390 24.3837   1
   3  -2   7 65.1087 3.71950   1
   3   2   7 69.0184 4.13338   1
   4  -2   7 98.9490 5.03683   1
   4   2   7 95.2205 5.36579   1
   6  -3  -7 195.380 12.8988   1
   6   3  -7 170.627 13.0173   1
  -5  -3   7 34.8848 5.35871   2
  -4  -3   7 312.050 12.2556   2
  -3  -3   7 132.533 6.39895   2
  -2  -3   7 464.681 14.7544   3
  -2   3   7 463.532 14.1814   3
  -1  -3   7 1913.26 50.2568   3
   0  -3  -7 3517.66 88.4913   1
   0   3  -7 3581.32 88.0958   1
   0   3   7 3571.58 89.1697   2
   1  -3   7 1634.47 43.7204   2
  -1  -3  -7 1657.25 42.9615   1
   1   3   7 1544.00 42.3203   1
  -1   3  -7 1662.49 41.9053   1
   1   3   7 1599.50 43.1076   2
   2  -3   7 370.883 14.1897   2
  -2  -3  -7 375.648 13.3092   1
  -2   3  -7 393.295 12.4401   1
   2   3   7 377.567 12.5154   1
   2   3   7 371.205 13.8210   2
   3  -3   7 425.454 12.9581   1
   3   3   7 416.603 13.8543   1
  -3   3  -7 403.763 13.7138   1
   4  -3   7 124.835 5.64893   1
   4   3   7 122.792 6.37968   1
   5   3   7 389.962 14.2635   1
  -6  -4   7 15.0723 9.55866   2
   6  -4  -7 36.9919 7.47175   1
   6   4  -7 37.8520 7.91019   1
  -5  -4   7 103.472 7.63800   2
  -4  -4   7 255.053 10.9285   2
  -3  -4   7 0.07216 0.99734   3
  -3  -4   7 2.38308 1.40339   2
  -2  -4   7 259.030 9.40404   2
  -2  -4   7 255.409 9.65707   3
  -2   4   7 271.797 9.16458   3
   1  -4  -7 986.005 27.1309   1
  -1  -4   7 981.989 28.0249   3
   0  -4  -7 1327.45 35.7056   1
   0  -4   7 1266.97 36.8323   3
   0   4  -7 1411.27 35.3077   1
   0   4   7 1386.49 34.4481   2
  -1  -4  -7 772.915 22.1370   1
   1  -4   7 750.963 22.5281   2
   1   4   7 746.600 21.8966   2
   1   4   7 741.638 21.6368   1
  -1   4  -7 740.617 20.6993   1
  -2  -4  -7 16.3287 2.58263   1
   2   4   7 11.5250 1.76828   1
   2   4   7 10.1664 2.54085   2
  -2   4  -7 10.1656 2.09225   1
   3  -4   7 615.380 17.5857   1
   3   4   7 626.048 19.0791   1
  -3   4  -7 600.431 18.4294   1
   4  -4   7 294.847 9.88097   1
   4   4   7 290.096 11.2913   1
   5   4   7 42.8532 5.09500   1
   6  -5  -7 81.1799 10.8313   1
  -6  -5   7 86.8500 11.6449   2
   6   5  -7 85.1224 11.2968   1
  -5  -5   7 192.935 10.1749   2
  -4  -5   7 2.95906 2.36875   2
  -3  -5   7 6.79891 1.30671   3
  -3  -5   7 6.61378 1.80064   2
  -2  -5   7 0.27755 1.09103   3
   2  -5  -7 -0.5685 1.66160   1
  -2  -5   7 2.54963 0.99224   2
  -2   5   7 1.66541 1.02065   3
   1  -5  -7 261.157 9.21572   1
  -1  -5   7 273.211 10.3686   3
   0  -5   7 2450.95 64.9347   3
   0  -5  -7 2533.82 63.7950   1
   0   5   7 2513.00 61.9607   2
   0   5  -7 2536.45 62.9752   1
  -1  -5  -7 553.633 17.2697   1
   1  -5   7 533.983 17.4573   2
  -1   5  -7 546.302 15.6911   1
   1   5   7 548.649 16.8543   1
   1   5   7 562.060 16.9439   2
  -2  -5  -7 367.505 13.8271   2
  -2  -5  -7 361.075 13.6482   1
  -2   5  -7 369.576 11.7063   1
   2   5   7 377.788 12.6171   1
   2   5   7 366.109 13.4573   2
   3   5   7 276.090 10.3499   1
  -3   5  -7 247.733 9.21798   1
   4   5   7 130.725 6.75245   1
   5   5   7 176.060 8.95373   1
  -6  -6   7 7.95764 6.74906   2
   6  -6  -7 14.0369 7.46808   1
   6   6  -7 11.4417 8.23908   1
  -5  -6   7 986.343 31.9031   2
   5   6  -7 1009.87 34.4584   1
  -4  -6   7 461.071 17.0457   2
  -3  -6   7 0.90353 1.17792   3
  -3  -6   7 2.42523 1.59460   2
  -2  -6   7 184.811 7.69243   2
   2  -6  -7 169.407 7.12729   1
  -2  -6   7 183.512 7.93617   3
  -2   6   7 191.313 7.12910   3
   1  -6  -7 1226.95 32.9634   1
  -1  -6   7 1219.82 34.1336   3
   0  -6  -7 1420.68 37.3125   1
   0  -6   7 1388.84 38.4690   3
   0   6  -7 1383.04 36.2620   1
  -1  -6  -7 1989.82 51.7437   1
  -1  -6  -7 1958.66 51.0125   2
   1   6   7 2004.76 51.0807   2
  -1   6  -7 1953.21 49.5032   1
   1   6   7 1888.99 50.9072   1
  -2  -6  -7 2.40727 1.50624   2
   2   6   7 -1.8788 2.44541   2
   2   6   7 1.20676 1.09735   1
  -2   6  -7 0.16092 1.38471   1
  -3  -6  -7 468.127 18.1680   2
   3   6   7 475.433 15.8068   1
   4   6   7 1027.63 30.2500   1
   5   6   7 41.7392 5.48510   1
  -6  -7   7 27.8590 7.23631   2
   6  -7  -7 29.6585 7.68426   1
   6   7  -7 19.2939 8.20146   1
  -5  -7   7 63.2656 6.72998   2
   5   7  -7 74.6465 7.66963   1
  -4  -7   7 34.5821 4.38986   2
  -3  -7   7 191.882 7.29474   3
  -3  -7   7 186.558 8.85250   2
  -2  -7   7 105.003 5.66737   3
  -2   7   7 104.687 4.91861   3
  -2   7   7 102.861 5.80134   3
   1  -7  -7 1860.46 47.7684   1
  -1  -7   7 1807.24 48.9626   3
   0  -7   7 90.9732 5.45230   3
   0  -7  -7 83.9552 4.41969   1
  -1  -7  -7 159.021 7.30208   1
  -1  -7  -7 184.377 7.58884   2
   1  -7   7 182.572 8.29579   3
  -1   7  -7 178.968 6.22801   1
   1   7   7 185.909 7.66988   1
   1   7   7 188.141 7.18939   2
  -2  -7  -7 -0.1630 1.64890   2
  -2   7  -7 0.38315 1.35489   1
   2   7   7 -4.2511 2.43175   2
   2   7   7 1.11305 1.15180   1
  -3  -7  -7 444.385 17.4888   2
   3   7   7 436.392 15.1092   1
   4   7   7 97.7409 5.90576   1
   5   7   7 93.2215 6.96397   1
  -6  -8   7 5.05668 7.61155   2
   6  -8  -7 -4.0591 8.03683   1
   6   8  -7 -5.1567 8.36238   1
  -5  -8   7 10.8390 4.39588   2
   5   8  -7 14.2123 4.96682   1
  -4  -8   7 287.891 13.0242   2
  -3  -8   7 419.121 15.4329   2
  -3  -8   7 407.662 13.2761   3
  -2  -8   7 128.008 6.52769   3
   2  -8  -7 125.869 6.37768   1
  -1  -8   7 728.496 21.7817   3
   1  -8  -7 651.918 19.9157   1
   0  -8   7 566.291 18.3332   3
   0  -8  -7 542.090 16.8809   1
  -1  -8  -7 66.0982 4.12828   2
  -1  -8  -7 53.0680 3.85290   1
   1  -8   7 66.3572 4.69948   3
  -1   8  -7 65.3326 2.99596   1
   1   8   7 70.0781 3.81177   2
   1   8   7 67.4364 4.19119   1
   2  -8   7 344.892 13.1732   3
  -2  -8  -7 350.366 13.6060   2
   2   8   7 349.643 12.3623   1
  -2   8  -7 347.157 10.3793   1
   2   8   7 329.236 12.6447   2
  -3  -8  -7 215.270 11.1106   2
   3   8   7 215.940 9.25737   1
   4  -8   7 49.2621 5.52162   3
  -4  -8  -7 49.3793 6.54152   2
   4   8   7 53.9047 5.03214   1
   5   8   7 67.1382 6.31167   1
   6  -9  -7 10.9597 8.15893   1
  -6  -9   7 -1.3279 8.00611   2
   6   9  -7 -4.0607 8.82312   1
   5   9  -7 40.0116 7.48214   1
  -4  -9   7 8.69360 2.86212   2
  -3  -9   7 21.2906 3.29264   2
  -3  -9   7 14.8591 2.53010   3
  -2  -9   7 0.79019 1.35868   3
   1  -9  -7 949.109 26.2594   1
  -1  -9   7 921.985 27.7808   3
   0  -9  -7 5.92994 1.62575   1
   0  -9   7 8.02939 1.93380   3
   0  -9  -7 10.2635 1.18645   2
   0   9   7 10.8141 1.90583   1
  -1  -9  -7 198.596 8.32915   2
   1  -9   7 199.600 9.00228   3
   1   9   7 199.047 8.29887   1
  -1   9  -7 196.321 6.53437   1
  -2  -9  -7 22.0528 3.30251   2
   2  -9   7 18.0251 2.94828   3
  -2   9  -7 22.1574 1.78400   1
   2   9   7 16.1664 2.82172   2
  -3  -9  -7 63.7439 5.59926   2
   3  -9   7 56.8296 4.84576   3
   3   9   7 60.1919 4.49138   1
  -4  -9  -7 -0.9071 3.82709   2
   4  -9   7 -1.2939 3.06453   3
   4   9   7 -0.4087 2.91964   1
   5   9   7 5.02937 4.20826   1
  -5 -10   7 0.95136 4.89542   2
   5  10  -7 -6.9181 5.47016   1
  -4 -10   7 229.468 11.4714   2
  -3 -10   7 262.754 11.6584   2
  -3 -10   7 260.949 9.93788   3
  -2 -10   7 1263.34 35.9171   3
  -2  10   7 1281.79 35.0284   3
  -1 -10   7 282.177 11.2098   3
   1 -10  -7 251.398 9.49228   1
   0 -10  -7 2.03604 0.81101   2
   0 -10   7 5.09381 1.52546   3
   0 -10  -7 -2.0214 1.93229   1
   0  10   7 2.83747 1.20020   1
  -1 -10  -7 791.663 23.6493   2
   1 -10   7 804.891 24.8135   3
   1  10   7 799.842 23.6686   1
   2 -10   7 1667.14 44.7694   3
  -2 -10  -7 1598.81 45.2272   2
   2  10   7 1548.04 43.3468   1
  -2  10  -7 1583.49 39.6903   1
   3 -10   7 518.130 18.0257   3
  -3 -10  -7 518.915 19.8625   2
   3  10   7 504.689 17.4459   1
   4 -10   7 4.89746 3.17485   3
  -4 -10  -7 6.79558 3.93597   2
   5  10   7 122.077 8.01504   1
  -5 -11   7 10.9095 5.21521   2
   5  11  -7 12.4847 5.57623   1
  -4 -11   7 628.214 22.5773   2
   4  11  -7 553.039 30.2004   1
  -3 -11   7 26.7395 3.76197   2
  -3 -11   7 19.2862 2.95030   3
  -2 -11   7 710.905 22.3781   3
  -2  11   7 699.442 20.2633   3
  -1 -11   7 109.527 6.50532   3
   1 -11  -7 138.536 7.90372   1
  -1  11   7 109.801 5.95153   3
   0 -11  -7 478.468 13.8728   2
   0 -11   7 466.980 16.6676   3
   0  11   7 479.642 15.7583   1
  -1 -11  -7 266.984 10.4392   2
   1 -11   7 267.372 11.2505   3
   1  11   7 270.594 10.4518   1
  -1  11  -7 266.486 8.17770   1
   2 -11   7 80.6347 5.49817   3
  -2 -11  -7 87.8057 6.14393   2
   2  11   7 89.2841 5.26890   1
   3 -11   7 164.470 8.52149   3
  -3 -11  -7 166.581 9.68112   2
   3  11   7 164.996 8.03720   1
  -4 -11  -7 177.315 11.1122   2
   4 -11   7 179.501 9.31329   3
   4  11   7 171.492 8.96926   1
   5  11   7 50.1759 6.65498   1
  -5 -12   7 163.769 11.4076   2
   5  12  -7 152.116 11.1921   1
  -4 -12   7 1.88551 3.55677   2
   4  12  -7 1.54067 4.01774   1
  -3 -12   7 161.389 7.68253   3
  -3 -12   7 177.090 9.22660   2
  -2 -12   7 110.603 6.36322   3
  -2  12   7 103.216 5.05305   3
  -1 -12   7 1686.87 46.6467   3
  -1  12   7 1663.36 45.3553   3
   0 -12   7 1515.83 42.4698   3
   0 -12  -7 1464.71 39.0176   2
   0  12   7 1536.25 41.1178   1
   1 -12   7 2.78775 1.65889   3
  -1 -12  -7 2.09253 1.42918   2
   1  12   7 3.81006 1.38699   1
  -1  12  -7 1.73800 0.87863   1
   2 -12   7 32.3668 3.80463   3
  -2 -12  -7 39.1192 4.18207   2
   2  12   7 41.5281 3.67322   1
   3 -12   7 253.711 11.2532   3
  -3 -12  -7 247.204 12.6585   2
   3  12   7 257.072 10.9285   1
  -4 -12  -7 243.772 13.0838   2
   4 -12   7 244.196 11.5000   3
   4  12   7 245.288 11.1755   1
  -5 -12  -7 7.12001 6.50433   2
   5  12   7 15.2129 4.79209   1
  -5 -13   7 3.40137 5.82898   2
   5  13  -7 13.6223 6.18079   1
  -4 -13   7 142.257 9.45754   2
   4  13  -7 125.145 9.08238   1
  -3 -13   7 679.970 21.5920   3
  -3 -13   7 694.607 24.0553   2
  -2 -13   7 501.063 17.7040   3
  -2  13   7 508.137 15.4897   3
  -1 -13   7 189.174 9.23626   3
  -1  13   7 177.990 7.90710   3
   0 -13   7 62.4055 4.88245   3
   0  13   7 58.3124 4.18511   1
  -1 -13  -7 19.1818 2.83089   2
   1 -13   7 18.9028 3.10070   3
  -1  13  -7 20.5952 1.53049   1
   1  13   7 24.9760 2.70141   1
  -2 -13  -7 20.9624 3.68770   2
   2 -13   7 18.1312 3.40643   3
   2  13   7 23.3533 2.83655   1
   3 -13   7 2.37367 2.64567   3
  -3 -13  -7 1.56256 3.03406   2
   3  13   7 -0.4391 2.10979   1
   4 -13   7 6.14132 3.88186   3
  -4 -13  -7 8.03034 4.58979   2
   4  13   7 6.42512 3.20652   1
  -5 -13  -7 -0.8622 7.27230   2
   5  13   7 8.81845 5.01097   1
  -5 -14   7 437.653 20.0754   2
   5  14  -7 430.546 19.8910   1
  -4 -14   7 21.9110 4.02663   2
   4  14  -7 17.7053 4.23217   1
  -3 -14   7 883.604 26.8229   3
  -3 -14   7 882.812 29.4548   2
   3  14  -7 886.258 29.9647   1
  -2 -14   7 100.833 6.32407   3
  -2  14   7 104.922 5.07887   3
   1 -14  -7 162.358 4.97606   2
  -1 -14   7 168.958 8.59164   3
  -1  14   7 155.998 7.55699   3
   0 -14   7 39.7146 3.87770   3
   0 -14  -7 40.2572 3.10084   2
   0  14   7 37.4215 3.38458   1
  -1 -14  -7 1089.09 31.8507   2
   1 -14   7 1107.99 33.1685   3
   1  14   7 1105.59 31.6900   1
  -1  14  -7 1097.12 27.7783   1
  -2 -14  -7 105.515 6.93505   2
   2 -14   7 101.952 6.67773   3
   2  14   7 106.436 6.20440   1
  -3 -14  -7 100.223 8.10872   2
   3 -14   7 113.411 7.19948   3
   4 -14   7 133.853 8.68816   3
  -4 -14  -7 136.813 10.1141   2
   4  14   7 136.967 7.98260   1
  -5 -14  -7 96.0367 11.8982   2
  -5 -15   7 14.7572 6.64799   2
   5  15  -7 14.6188 6.97520   1
   4  15  -7 358.530 17.0479   1
  -3 -15   7 12.9121 3.10500   2
  -3 -15   7 17.1628 3.55942   3
   3  15  -7 15.5829 3.42977   1
  -2 -15   7 44.0547 4.19664   3
  -2  15   7 38.4282 3.77675   3
  -1 -15   7 1673.14 46.3969   3
   1 -15  -7 1615.81 40.6146   2
  -1  15   7 1575.21 44.4760   3
   0 -15   7 340.263 14.0185   3
   0 -15  -7 345.646 11.7530   2
   0  15   7 346.426 12.8087   1
  -1 -15  -7 1.56520 1.74295   2
   1 -15   7 1.09133 1.72369   3
  -1  15  -7 1.20611 0.99034   1
  -2 -15  -7 0.04723 2.34180   2
   2 -15   7 -1.3040 2.04620   3
  -3 -15  -7 217.511 11.9669   2
   3 -15   7 228.152 10.8205   3
   3  15   7 225.504 10.2827   1
   4 -15   7 190.441 10.6846   3
  -4 -15  -7 198.106 12.2095   2
   4  15   7 176.500 9.45545   1
  -5 -16   7 -6.3683 7.26359   2
   5  16  -7 -4.0058 7.40667   1
  -4 -16   7 66.9719 7.38977   2
   4  16  -7 48.3668 6.93119   1
  -3 -16   7 41.3969 4.65157   3
  -3 -16   7 47.4960 5.74514   2
   3  16  -7 49.4430 5.51500   1
  -2 -16   7 249.767 11.4037   3
  -2  16   7 232.324 8.96368   3
   2  16  -7 243.015 11.6046   1
   1 -16  -7 3.95255 1.03337   2
  -1 -16   7 4.90177 1.99588   3
   1  16  -7 3.25637 1.95117   1
  -1  16   7 -1.3177 3.19932   3
   0 -16   7 34.4759 4.18774   3
   0 -16  -7 35.1592 3.23558   2
   0  16  -7 35.6048 3.17350   1
   0  16   7 40.5608 3.52111   1
  -1 -16  -7 7.89645 2.32704   2
   1 -16   7 8.48524 2.35246   3
   1  16   7 12.9323 2.62356   1
  -1  16  -7 7.92797 1.08570   1
  -1  16  -7 8.53525 1.15435   1
  -2 -16  -7 664.119 23.1815   2
   2 -16   7 666.704 22.9017   3
   2  16   7 659.554 21.6824   1
   3 -16   7 351.140 14.9773   3
  -3 -16  -7 368.641 16.5507   2
   3  16   7 369.730 14.5926   1
  -4 -16  -7 18.8686 5.60653   2
   4 -16   7 17.8598 4.94823   3
   4  16   7 23.0936 4.12345   1
   5  17  -7 3.11772 7.83570   1
  -4 -17   7 93.8438 8.81096   2
   4  17  -7 79.4139 7.99943   1
  -3 -17   7 40.4785 4.85073   3
  -3 -17   7 35.5348 5.58245   2
   3  17  -7 38.1593 5.52781   1
  -2 -17   7 22.9369 4.11955   3
   2 -17  -7 25.3289 1.57556   2
   2 -17  -7 28.2513 1.85136   2
  -2  17   7 23.0072 4.10436   3
   2  17  -7 30.4470 4.12644   1
   1 -17  -7 36.6026 2.52765   2
  -1 -17   7 48.1007 4.69341   3
   1  17  -7 40.6106 3.98955   1
  -1  17   7 32.2403 6.08795   3
   0 -17  -7 152.864 6.94766   2
   0 -17   7 143.681 8.58506   3
   0  17  -7 154.402 6.74227   1
   0  17   7 157.224 7.65802   1
   1 -17   7 12.8669 2.68760   3
  -1 -17  -7 15.8611 3.28135   2
   1  17   7 13.4539 2.50254   1
   2 -17   7 13.5741 2.98948   3
  -2 -17  -7 10.9927 2.86057   2
   2  17   7 17.2993 2.84813   1
   3 -17   7 16.0348 3.83231   3
   3  17   7 19.7116 3.82909   1
  -4 -17  -7 38.7008 6.35754   2
   4  17   7 39.8808 5.73882   1
  -5 -18   7 24.5635 8.91853   2
   5  18  -7 20.9263 8.50200   1
  -4 -18   7 -0.8836 4.91009   2
   4  18  -7 -2.9162 5.24800   1
  -3 -18   7 75.4926 6.12976   3
  -3 -18   7 72.0426 7.19098   2
   3  18  -7 87.0636 7.99550   1
   2 -18  -7 409.334 11.3871   2
   2 -18  -7 407.085 11.2494   2
  -2 -18   7 397.735 16.1900   3
   2  18  -7 408.275 16.3484   1
  -1 -18   7 240.522 11.5862   3
   1  18  -7 243.281 10.5252   1
   0 -18  -7 0.04921 1.72459   2
   0 -18   7 0.23646 2.21936   3
   0  18  -7 0.07086 1.67660   1
   0  18   7 0.89891 1.64854   1
  -1 -18  -7 77.3515 5.70039   2
   1 -18   7 77.7911 6.26322   3
   1  18   7 82.5983 5.33285   1
  -2 -18  -7 1026.03 32.8428   2
   2 -18   7 1044.55 32.6438   3
   2  18   7 1001.92 34.7249   1
   3 -18   7 71.9946 7.06282   3
  -3 -18  -7 73.6394 7.49158   2
   3  18   7 73.5104 5.71211   1
   4 -18   7 3.60319 5.36938   3
  -4 -18  -7 3.38572 6.17815   2
   4  18   7 3.99784 4.22747   1
  -5 -19   7 2.12744 8.93359   2
   5  19  -7 4.23394 8.89951   1
  -4 -19   7 -5.5412 5.61261   2
   4  19  -7 0.51965 5.56336   1
  -3 -19   7 729.502 24.1516   3
  -3 -19   7 709.915 32.7949   2
   3  19  -7 697.090 27.9423   1
  -2 -19   7 328.952 14.3108   3
   2 -19  -7 339.136 9.88052   2
   2  19  -7 335.951 14.3497   1
  -1 -19   7 647.269 23.1640   3
   1 -19  -7 658.988 18.8900   2
   1  19  -7 636.296 21.0980   1
   0 -19   7 124.450 8.23547   3
   0 -19  -7 128.332 6.60931   2
   0  19  -7 122.590 5.90624   1
   0  19   7 129.688 6.98107   1
  -1 -19  -7 465.608 17.3387   2
   1 -19   7 482.044 18.9043   3
   1  19   7 475.397 16.9090   1
   2 -19   7 628.465 22.5721   3
  -2 -19  -7 605.772 22.4869   2
   2  19   7 615.510 21.1135   1
   3 -19   7 113.419 9.00729   3
  -3 -19  -7 131.772 9.57667   2
   3  19   7 123.750 7.41459   1
   4 -19   7 12.4463 5.89313   3
  -4 -19  -7 13.0373 6.59701   2
   4  19   7 18.2105 4.66760   1
  -4 -20   7 -6.1655 5.76492   2
  -3 -20   7 -4.7615 3.89331   2
  -3 -20   7 1.22176 3.26457   3
   3  20  -7 -0.3303 4.17096   1
  -2 -20   7 115.317 7.84179   3
   2  20  -7 121.046 7.85500   1
  -1 -20   7 144.880 8.63849   3
   1 -20  -7 141.222 6.35096   2
   1  20  -7 132.290 7.31312   1
   0 -20   7 122.483 8.01927   3
   0 -20  -7 122.761 6.66214   2
   0  20  -7 119.357 5.67506   1
   0  20   7 124.907 6.90579   1
  -1 -20  -7 160.317 8.85301   2
   1 -20   7 149.955 9.24896   3
   1  20   7 155.089 7.94817   1
   2 -20   7 0.41310 3.05464   3
  -2 -20  -7 4.48520 3.24464   2
   2  20   7 1.79575 2.53824   1
   3 -20   7 199.441 11.6098   3
  -3 -20  -7 211.913 12.5040   2
   3  20   7 218.907 10.6778   1
  -4 -20  -7 258.205 15.6095   2
   4  20   7 251.652 12.3042   1
  -4 -21   7 61.6411 8.97128   2
   4  21  -7 59.3693 8.99437   1
  -3 -21   7 94.5683 7.63033   3
  -3 -21   7 69.8794 8.14362   2
   3  21  -7 83.1635 7.66070   1
   2 -21  -7 209.707 7.77984   2
   2  21  -7 192.213 10.3591   1
   1 -21  -7 174.183 7.50683   2
  -1 -21   7 171.231 9.97089   3
   1  21  -7 178.933 8.61026   1
   0 -21   7 578.097 21.6480   3
   0 -21  -7 569.398 18.7337   2
   0  21   7 562.811 19.2811   1
   0  21  -7 553.486 17.0084   1
  -1 -21  -7 480.966 17.8552   2
   1 -21   7 468.270 18.9308   3
   1  21   7 460.922 17.8578   1
  -2 -21  -7 4.98282 3.59155   2
   2  21   7 6.07677 2.67461   1
   3 -21   7 16.8031 4.55158   3
  -3 -21  -7 16.0919 5.10478   2
   3  21   7 27.7162 4.72691   1
  -4 -21  -7 -2.7020 7.49018   2
   4  21   7 0.32540 4.93457   1
  -4 -22   7 53.3077 8.87287   2
   4  22  -7 68.0075 9.16601   1
  -3 -22   7 224.495 11.8175   3
  -3 -22   7 228.295 13.3285   2
   3  22  -7 224.568 12.2356   1
  -2 -22   7 12.0714 3.79345   3
   2 -22  -7 8.27904 2.22805   2
   2  22  -7 4.61037 3.53743   1
   1 -22  -7 70.8035 4.87729   2
   1  22  -7 71.5394 5.38603   1
   0 -22  -7 148.581 7.79472   2
   0  22  -7 149.579 6.34860   1
   0  22   7 137.717 7.62111   1
  -1 -22  -7 215.640 10.7801   2
   1  22   7 209.770 9.98654   1
   2 -22   7 239.445 12.6653   3
  -2 -22  -7 233.962 12.6018   2
   2  22   7 232.921 10.7431   1
   3 -22   7 46.1756 8.12956   3
  -3 -22  -7 34.2035 6.05340   2
   3  22   7 45.2224 5.56322   1
  -4 -23   7 64.8502 12.8909   2
   4  23  -7 106.365 10.6979   1
  -3 -23   7 21.4820 4.79073   3
  -3 -23   7 24.3749 5.41708   2
   3  23  -7 33.0944 6.65406   1
  -2 -23   7 100.736 8.14391   3
   2  23  -7 110.628 7.57171   1
   1 -23  -7 689.464 20.9210   2
  -1 -23   7 672.963 25.0516   3
   1  23  -7 680.482 21.9800   1
   0 -23   7 687.346 25.0170   3
   0 -23  -7 662.023 21.7388   2
   0  23  -7 670.864 19.3309   1
   0  23   7 653.388 23.0346   1
  -1 -23  -7 36.5403 5.60664   2
   1 -23   7 40.1094 6.30538   3
   1  23   7 41.7078 4.44275   1
   2 -23   7 24.6158 4.57068   3
   2  23   7 26.3266 4.45149   1
   3 -23   7 69.7841 9.06849   3
  -3 -23  -7 47.6333 9.08962   2
   3  23   7 50.5242 6.16589   1
  -3 -24   7 26.5501 6.36443   2
  -3 -24   7 34.1470 5.65022   3
   3  24  -7 34.6273 7.20499   1
  -2 -24   7 66.1274 7.37736   3
   2  24  -7 55.2598 7.02946   1
  -1 -24   7 124.336 9.12511   3
   1 -24  -7 123.929 6.90633   2
   1  24  -7 126.643 6.91625   1
   0 -24   7 52.9514 6.28390   3
   0 -24  -7 52.4807 5.64585   2
   0  24   7 45.4713 4.71484   1
  -1 -24  -7 205.903 10.8849   2
   1 -24   7 192.871 11.7076   3
   1  24   7 208.032 9.98782   1
  -2 -24  -7 105.151 9.21124   2
   2 -24   7 102.609 9.02744   3
   2  24   7 111.322 7.24381   1
   3 -24   7 93.4035 10.5673   3
  -3 -24  -7 99.9431 10.8540   2
   3  24   7 86.7168 7.78425   1
  -3 -25   7 163.158 12.6074   2
  -3 -25   7 172.934 11.0583   3
   3  25  -7 151.944 11.0019   1
  -2 -25   7 38.5673 6.12696   3
   2  25  -7 32.6574 5.86007   1
   1 -25  -7 18.8344 3.35102   2
  -1 -25   7 17.4010 4.28408   3
   1  25  -7 15.2653 3.47479   1
   0 -25   7 45.6747 7.25553   3
   0 -25  -7 63.9229 6.40758   2
   0  25   7 63.5667 5.37700   1
  -1 -25  -7 210.314 11.5731   2
   1 -25   7 233.539 12.6127   3
   1  25   7 210.283 10.4168   1
   2 -25   7 295.724 15.1909   3
  -2 -25  -7 279.394 14.5648   2
   2  25   7 298.795 13.0470   1
   3 -25   7 24.9677 6.99882   3
  -3 -25  -7 22.9843 6.98317   2
   3  25   7 23.1028 5.05062   1
  -3 -26   7 5.68804 6.88261   2
   3  26  -7 21.9677 6.25083   1
  -2 -26   7 18.0761 5.02097   3
   2  26  -7 19.5980 4.68896   1
  -1 -26   7 147.244 9.84535   3
   1  26  -7 128.041 7.75249   1
   0 -26   7 115.214 9.94950   3
   0 -26  -7 147.872 8.88775   2
   0  26   7 140.358 8.06410   1
  -1 -26  -7 287.865 13.7433   2
   1 -26   7 280.796 14.1929   3
   1  26   7 272.050 12.3988   1
   2 -26   7 51.2330 8.61166   3
  -2 -26  -7 30.1453 5.79542   2
   2  26   7 44.6314 5.74979   1
  -3 -27   7 181.880 14.0880   2
   3  27  -7 181.799 12.3412   1
  -2 -27   7 241.793 13.9359   3
   2  27  -7 246.232 12.1419   1
  -1 -27   7 96.1015 8.82958   3
   1  27  -7 99.7743 6.96357   1
   0 -27   7 40.4915 6.06155   3
   0 -27  -7 38.4787 7.14858   2
  -1 -27  -7 395.020 24.0179   2
   1 -27   7 509.450 21.2467   3
   1  27   7 512.758 18.4357   1
   2 -27   7 452.799 20.6562   3
  -2 -27  -7 459.176 20.2333   2
   2  27   7 506.518 18.8043   1
  -2 -28   7 547.604 22.7815   3
   2  28  -7 530.134 19.9279   1
  -1 -28   7 61.1396 8.85122   3
   0 -28   7 7.92194 5.31969   3
   1 -28   7 276.714 16.0286   3
  -1 -28  -7 279.530 14.3867   2
   1  28   7 288.478 12.9938   1
  -2 -28  -7 98.9260 11.7276   2
   2 -28   7 98.4273 11.7951   3
   2  28   7 110.620 8.42136   1
  -2 -29   7 7.95009 6.67119   3
   2  29  -7 23.2105 7.02619   1
  -1 -29   7 28.0794 6.52651   3
   0 -29   7 27.3662 6.50112   3
  -1 -29  -7 36.2108 7.49687   2
   1  29   7 33.7988 6.55717   1
  -1 -30   7 53.9917 7.96377   3
   0 -30   7 59.8148 10.5919   3
   1 -30   7 184.793 14.0228   3
   1  30   7 133.504 9.69850   1
   0 -31   7 233.172 15.8369   3
   6   0  -8 9.73051 7.66412   1
  -4   0   8 835.395 24.0882   2
  -2   0   8 802.393 23.1966   3
  -2   0   8 789.555 20.6587   2
   1   0  -8 2.78581 1.52323   1
  -1   0   8 0.84059 1.17245   3
   0   0  -8 1353.83 32.9742   1
   0   0   8 1070.39 35.2520   2
  -1   0  -8 352.579 11.9693   1
   1   0   8 362.382 12.6688   2
  -2   0  -8 1825.89 49.2495   1
   2   0   8 1857.16 48.0883   1
   3   0   8 12.0404 2.19571   1
   4   0   8 17.1710 3.32222   1
   6  -1  -8 6.11977 7.66680   1
   6   1  -8 13.1094 7.76821   1
  -4  -1   8 82.2013 4.99176   2
  -3  -1   8 303.939 9.23454   3
  -3  -1   8 296.662 10.0710   2
  -3   1   8 297.107 8.98858   2
  -2  -1   8 295.141 9.12987   2
  -2  -1   8 306.274 10.9620   3
  -2   1   8 310.028 10.8838   3
  -1  -1   8 86.3181 5.12958   3
   1  -1  -8 80.6997 4.31608   1
  -1   1   8 83.2976 2.88866   2
   0  -1   8 190.834 7.04345   2
   0  -1  -8 175.218 6.92318   1
   0   1  -8 179.840 6.84673   1
   0   1   8 184.850 6.72139   2
  -1  -1  -8 485.341 15.3805   1
   1  -1   8 480.758 16.0451   2
  -1   1  -8 491.213 15.1556   1
   1   1   8 499.215 15.9873   2
  -2  -1  -8 2.32924 2.58137   1
  -2   1  -8 1.57129 2.30158   1
   2   1   8 1.70361 1.16063   1
   3  -1   8 408.324 13.6594   1
   3   1   8 423.188 14.0345   1
  -3   1  -8 441.134 16.5432   1
   4  -1   8 51.9438 4.15563   1
   4   1   8 52.2403 4.21325   1
   6  -2  -8 12.2367 7.69806   1
   6   2  -8 11.2513 7.65873   1
  -5  -2   8 155.224 8.46936   2
  -4  -2   8 285.177 10.9573   2
  -3  -2   8 76.8188 3.65807   3
  -3  -2   8 66.0114 4.04066   2
  -2  -2   8 182.740 6.57634   2
  -2  -2   8 198.001 8.11318   3
  -2   2   8 192.839 7.78907   3
   1  -2  -8 1550.73 42.3966   1
  -1  -2   8 1668.24 43.7579   3
   0  -2   8 1319.19 34.9458   2
   0  -2  -8 1307.63 35.0772   1
   0   2  -8 1300.87 34.7524   1
   0   2   8 1311.63 34.1916   2
   1  -2   8 26.0093 3.15222   2
  -1  -2  -8 16.2894 2.65485   1
  -1   2  -8 21.8983 2.33419   1
   1   2   8 25.3826 2.73943   2
  -2  -2  -8 557.565 18.5786   1
   2   2   8 600.135 17.9403   1
  -2   2  -8 576.679 17.9917   1
   3  -2   8 737.001 20.8949   1
  -3   2  -8 662.819 21.7391   1
   3   2   8 744.524 21.6411   1
   4  -2   8 72.7949 4.68967   1
   4   2   8 79.1255 4.98909   1
   5   2   8 19.9162 4.79295   1
   6   3  -8 59.8482 11.7679   1
  -5  -3   8 41.8853 5.61590   2
  -4  -3   8 4.01662 2.31811   2
  -3  -3   8 887.376 24.1306   3
  -3  -3   8 891.139 25.5911   2
  -2  -3   8 -0.6679 1.15040   3
  -2  -3   8 0.91866 1.59739   2
  -2   3   8 0.09679 1.08469   3
  -1  -3   8 76.6209 4.78283   3
   1  -3  -8 61.0216 3.51879   1
   0  -3  -8 11.6074 1.98606   1
   0   3   8 14.1689 1.61885   2
   0   3  -8 16.9361 1.83383   1
  -1  -3  -8 159.590 7.14779   1
   1  -3   8 172.270 7.72708   2
   1   3   8 169.834 7.21684   2
  -1   3  -8 159.655 6.47900   1
  -2   3  -8 81.0678 4.86927   1
   2   3   8 89.5036 6.29742   2
   2   3   8 90.4069 4.92459   1
  -3   3  -8 219.088 9.63156   1
   3   3   8 257.301 9.74992   1
   4   3   8 71.2498 4.89079   1
   5   3   8 179.038 8.85177   1
   6   4  -8 69.9405 12.0860   1
  -5  -4   8 734.150 24.2841   2
  -4  -4   8 5.87426 2.39528   2
  -3  -4   8 2.04109 1.30387   3
  -3  -4   8 3.62167 1.58358   2
  -2  -4   8 228.091 8.48527   2
  -2  -4   8 229.096 9.30845   3
  -2   4   8 229.147 8.73961   3
  -1  -4   8 1192.50 33.5624   3
   1  -4  -8 1172.92 32.2668   1
   0  -4  -8 335.870 11.4754   1
   0  -4   8 355.397 13.0331   3
   0   4  -8 331.635 10.9084   1
   0   4   8 344.802 10.2811   2
  -1  -4  -8 -1.5438 1.90631   1
   1  -4   8 -0.4025 2.07793   2
   1   4   8 1.12104 1.60984   2
  -1   4  -8 0.27097 1.32060   1
   1   4   8 1.56618 1.05674   1
   2   4   8 38.2914 3.12669   1
   2   4   8 26.5343 5.28554   2
  -2   4  -8 33.1439 3.09370   1
   3   4   8 1513.88 40.8079   1
  -3   4  -8 1469.78 41.0052   1
   4   4   8 843.085 25.4885   1
   5   4   8 13.5139 4.06002   1
   6   5  -8 227.688 15.1328   1
  -5  -5   8 37.7654 6.41225   2
  -4  -5   8 112.645 6.85479   2
  -3  -5   8 4.87376 1.52477   3
  -3  -5   8 6.56659 1.78880   2
  -2  -5   8 2557.97 65.8555   2
  -2  -5   8 2563.00 66.8287   3
  -2   5   8 2619.08 65.9173   3
   1  -5  -8 -0.4113 1.57491   1
  -1  -5   8 0.89163 1.19263   3
   0  -5   8 2457.71 64.4220   3
   0  -5  -8 2404.64 62.8072   1
   0   5  -8 2434.25 61.9711   1
   0   5   8 2502.83 60.7704   2
   1  -5   8 480.234 16.2284   2
  -1  -5  -8 473.331 15.9553   1
   1   5   8 493.526 15.3626   2
   1   5   8 460.169 15.4478   1
  -1   5  -8 492.324 14.4969   1
   2   5   8 449.530 16.9987   2
   2   5   8 397.054 13.9328   1
  -2   5  -8 396.801 13.1396   1
   3   5   8 67.6101 4.41794   1
   4   5   8 901.979 27.1218   1
   5   5   8 38.3938 5.89551   1
   6   6  -8 31.2469 8.90766   1
  -5  -6   8 1.53631 4.23601   2
  -4  -6   8 228.050 10.4785   2
  -3  -6   8 120.129 6.29150   2
  -3  -6   8 112.420 5.56835   3
  -2  -6   8 1.93519 1.38100   3
  -2   6   8 8.65980 1.77265   3
  -1  -6   8 3.75273 1.41227   3
   1  -6  -8 3.70209 2.48681   1
   0  -6  -8 43.7664 3.42664   1
   0  -6   8 60.8445 4.45398   3
   0   6  -8 57.4532 3.12087   1
   1  -6   8 25.8258 3.12243   3
   1  -6   8 24.4840 3.40993   2
   1   6   8 28.3024 2.73344   1
   1   6   8 23.7766 2.68813   2
  -1   6  -8 25.2487 2.28990   1
  -2   6  -8 41.8494 3.18414   1
   2   6   8 43.7210 3.50326   1
   3   6   8 143.868 7.09784   1
   4   6   8 229.408 11.0905   1
   5   6   8 31.1995 5.98305   1
  -5  -7   8 102.998 8.30362   2
   5   7  -8 115.713 9.10787   1
  -4  -7   8 138.792 8.12476   2
  -3  -7   8 6.15017 2.10042   2
  -3  -7   8 6.36236 1.68091   3
  -2  -7   8 254.533 10.3795   3
  -2   7   8 245.382 9.34951   3
  -1  -7   8 32.2473 3.29309   3
   0  -7   8 462.158 16.2045   3
   0   7  -8 458.338 13.8768   1
   1  -7   8 388.826 14.4407   3
   1  -7   8 375.322 13.6934   2
  -1   7  -8 395.294 11.9134   1
   1   7   8 388.636 12.7711   2
   1   7   8 380.473 13.4075   1
   2   7   8 537.059 17.3980   1
  -2   7  -8 527.735 15.7295   1
   3   7   8 43.9686 3.78649   1
   4   7   8 392.960 16.0858   1
   5   7   8 8.66380 4.45635   1
  -5  -8   8 100.146 8.46326   2
   5   8  -8 111.080 9.03499   1
  -4  -8   8 196.485 10.1858   2
  -3  -8   8 11.9720 2.59982   2
  -3  -8   8 13.0129 2.62350   3
  -2  -8   8 149.775 7.62551   3
  -2   8   8 151.808 6.55907   3
  -1  -8   8 1129.41 32.8531   3
   0  -8   8 894.294 27.4450   3
   0   8  -8 909.477 24.7116   1
   1  -8   8 167.587 8.46098   3
  -1   8  -8 171.516 6.21778   1
   1   8   8 166.391 7.70953   1
   1   8   8 170.055 6.88297   2
   2  -8   8 335.440 13.2060   3
  -2  -8  -8 316.753 12.8410   2
  -2   8  -8 310.440 10.1747   1
   2   8   8 324.403 12.1059   1
  -3  -8  -8 43.7839 5.12626   2
   3  -8   8 38.4313 4.51330   3
   3   8   8 43.7728 3.82867   1
   4  -8   8 15.7597 3.88371   3
   4   8   8 12.1318 2.91004   1
   5   8   8 267.103 11.9894   1
  -5  -9   8 120.775 14.9624   2
   5   9  -8 172.460 11.0679   1
  -4  -9   8 90.5534 6.91952   2
  -3  -9   8 1137.64 33.7437   2
  -3  -9   8 1123.27 31.7528   3
  -2  -9   8 24.0207 3.02075   3
  -2   9   8 20.5964 3.08957   3
  -1  -9   8 29.2967 3.45312   3
   0  -9   8 50.3975 4.24275   3
   0   9  -8 60.6154 3.12537   1
   1  -9   8 1078.26 31.8834   3
  -1  -9  -8 1075.64 29.9963   2
   1   9   8 1059.22 30.5200   1
  -1   9  -8 1050.23 28.1216   1
   2  -9   8 262.762 11.5473   3
  -2  -9  -8 274.668 11.6723   2
   2   9   8 266.757 10.7792   1
  -3  -9  -8 1.79605 2.65097   2
   3  -9   8 1.04218 2.26372   3
   3   9   8 5.75293 2.10003   1
   4  -9   8 42.9459 6.07003   3
   4   9   8 45.0768 4.74509   1
   5   9   8 435.317 16.7603   1
  -5 -10   8 2.31597 5.27660   2
   5  10  -8 6.54861 6.18769   1
  -4 -10   8 9.21533 3.43560   2
  -3 -10   8 222.088 9.20367   3
  -3 -10   8 221.674 10.3887   2
  -2 -10   8 93.4279 5.92352   3
  -2  10   8 89.3803 4.99942   3
  -1 -10   8 318.214 12.9285   3
   0 -10   8 8.73536 2.06648   3
  -1 -10  -8 10.8763 2.30175   2
   1 -10   8 10.3572 2.29827   3
   1  10   8 11.1013 2.09142   1
  -1  10  -8 9.88349 1.70975   1
  -2 -10  -8 45.6241 4.38647   2
   2  10   8 45.5278 3.70547   1
  -2  10  -8 41.4782 2.55973   1
  -3 -10  -8 41.1999 5.34957   2
   3 -10   8 37.2293 4.81699   3
   3  10   8 40.9253 3.87372   1
   4 -10   8 102.033 7.89234   3
   4  10   8 110.621 6.94394   1
   5  10   8 52.8867 7.34518   1
  -5 -11   8 2.20332 5.61052   2
   5  11  -8 10.4166 6.53621   1
  -4 -11   8 -0.5355 3.63154   2
  -3 -11   8 509.265 18.5963   2
  -3 -11   8 501.617 16.8427   3
  -2 -11   8 17.3812 2.90244   3
  -2  11   8 16.6911 2.30185   3
  -1 -11   8 104.229 6.45302   3
   0 -11   8 10.9325 2.26676   3
  -1 -11  -8 484.804 15.9374   2
   1 -11   8 490.223 17.6256   3
   1  11   8 477.238 16.3859   1
  -1  11  -8 479.497 13.7527   1
  -2 -11  -8 470.036 17.1473   2
   2 -11   8 455.750 17.0400   3
  -2  11  -8 452.388 12.4429   1
   2  11   8 473.364 16.2473   1
  -3 -11  -8 16.5137 3.62454   2
   3 -11   8 23.0966 4.05339   3
   3  11   8 23.0251 3.32876   1
   4 -11   8 11.5827 3.99444   3
  -4 -11  -8 4.28031 4.48515   2
   4  11   8 13.4080 3.10650   1
  -5 -12   8 2.25500 6.01211   2
   5  12  -8 -2.8639 6.35806   1
  -4 -12   8 355.697 15.9294   2
   4  12  -8 356.841 16.5315   1
  -3 -12   8 6.34309 2.51665   2
  -3 -12   8 1.66003 2.09018   3
  -2 -12   8 618.536 20.6948   3
  -2  12   8 604.545 18.5298   3
  -1 -12   8 262.039 11.5568   3
  -1  12   8 261.960 10.6606   3
   0 -12  -8 585.918 16.3430   2
   0 -12   8 578.887 20.1737   3
   1 -12   8 1.12361 1.71075   3
  -1 -12  -8 0.04078 1.55384   2
   1  12   8 1.73841 1.35612   1
  -1  12  -8 2.11164 1.21554   1
   2 -12   8 792.582 25.5076   3
  -2 -12  -8 779.088 25.3055   2
   2  12   8 747.948 23.9962   1
   3 -12   8 12.5512 3.26872   3
  -3 -12  -8 14.1837 3.37229   2
   4 -12   8 -3.5105 4.26925   3
  -4 -12  -8 6.26826 4.50564   2
   4  12   8 6.19296 3.11929   1
  -5 -13   8 8.85853 6.50893   2
   5  13  -8 0.67051 6.76978   1
  -4 -13   8 65.6881 7.51997   2
   4  13  -8 72.1364 7.16803   1
  -3 -13   8 32.6667 4.72099   2
  -3 -13   8 32.6224 3.90393   3
  -2 -13   8 2192.55 59.5725   3
  -2  13   8 2182.12 56.8840   3
  -1 -13   8 542.012 19.1101   3
  -1  13   8 507.275 17.4711   3
   0 -13   8 203.921 9.91192   3
   0 -13  -8 184.974 7.66587   2
   1 -13   8 1.11286 1.68733   3
  -1 -13  -8 0.17981 1.66235   2
   1  13   8 0.22900 1.49058   1
  -1  13  -8 1.08995 1.22581   1
   2 -13   8 266.593 12.0702   3
  -2 -13  -8 260.323 11.9187   2
   2  13   8 261.693 11.0613   1
  -3 -13  -8 198.241 10.8135   2
   3 -13   8 185.862 9.99969   3
   3  13   8 178.532 8.78764   1
  -4 -13  -8 319.253 16.0657   2
   4 -13   8 347.868 15.7919   3
   4  13   8 317.719 13.4642   1
  -5 -14   8 20.1163 7.11947   2
   5  14  -8 33.2463 6.98621   1
  -4 -14   8 23.2536 5.01073   2
   4  14  -8 24.8065 5.30860   1
  -3 -14   8 14.3775 2.83064   3
  -3 -14   8 14.0287 3.36112   2
  -2 -14   8 83.4782 5.80334   3
  -2  14   8 71.5832 4.95540   3
  -1 -14   8 1440.21 41.2971   3
  -1  14   8 1350.96 39.2667   3
   0 -14   8 177.006 9.32246   3
   0  14   8 163.325 8.01356   1
   1 -14   8 25.8735 4.27047   3
  -1 -14  -8 21.1466 3.20369   2
   1  14   8 25.7045 3.04972   1
  -2 -14  -8 149.858 8.66915   2
   2 -14   8 151.299 8.73150   3
   2  14   8 156.726 7.99229   1
  -3 -14  -8 26.4489 4.31012   2
   3 -14   8 29.1228 5.28878   3
   3  14   8 38.9673 4.01449   1
   4  14   8 26.6032 5.11980   1
  -5 -15   8 274.576 16.4855   2
   5  15  -8 275.995 15.9323   1
  -4 -15   8 246.486 13.1331   2
   4  15  -8 252.673 13.9245   1
  -3 -15   8 98.6163 6.54747   3
  -3 -15   8 100.834 7.69164   2
   3  15  -8 112.153 7.84594   1
  -2 -15   8 476.560 17.9368   3
  -2  15   8 479.396 15.4168   3
  -1 -15   8 44.6681 4.62990   3
   0 -15  -8 195.771 7.45841   2
   0 -15   8 197.074 10.0105   3
   0  15   8 182.980 8.79808   1
   1 -15   8 85.1560 6.35734   3
  -1 -15  -8 88.4438 5.61085   2
  -1  15  -8 81.7923 3.60664   1
  -1  15  -8 82.5736 3.32677   1
   1  15   8 85.6530 5.40821   1
  -2 -15  -8 39.9489 4.70637   2
   2 -15   8 38.3354 4.69308   3
   2  15   8 40.4035 3.88918   1
   3 -15   8 136.963 8.58965   3
  -3 -15  -8 133.349 10.8161   2
   3  15   8 140.893 7.71161   1
  -4 -15  -8 2.58806 5.42620   2
   4 -15   8 3.45442 5.20391   3
   4  15   8 7.66823 3.62119   1
  -5 -16   8 104.643 12.9529   2
   5  16  -8 100.192 11.3872   1
  -4 -16   8 29.6732 5.58152   2
   4  16  -8 25.4503 5.02085   1
  -3 -16   8 15.9514 3.70940   2
  -3 -16   8 16.5122 3.36202   3
   3  16  -8 12.9116 3.58701   1
  -2 -16   8 481.655 18.4839   3
  -2  16   8 522.784 20.2211   3
  -1 -16   8 434.673 17.1377   3
   0 -16  -8 17.6443 2.60435   2
   0 -16   8 11.6500 2.74969   3
   0  16   8 19.9032 2.84597   1
   1 -16   8 44.0316 4.99816   3
  -1 -16  -8 39.2841 4.13367   2
  -1  16  -8 34.3905 2.05885   1
  -1  16  -8 37.3611 2.20274   1
   1  16   8 41.0981 3.72841   1
  -2 -16  -8 107.217 7.42040   2
   2 -16   8 108.926 7.77146   3
   2  16   8 107.387 8.29108   1
   3 -16   8 125.956 8.62348   3
  -3 -16  -8 117.024 13.0275   2
   3  16   8 127.511 7.58684   1
  -4 -16  -8 68.9799 9.47636   2
   4  16   8 73.7739 6.58829   1
  -5 -17   8 98.2208 13.8634   2
   5  17  -8 120.114 12.1675   1
  -4 -17   8 55.9063 8.29468   2
   4  17  -8 39.9096 8.05577   1
  -3 -17   8 453.797 17.0925   3
  -3 -17   8 449.037 19.0669   2
  -2 -17   8 211.462 10.7209   3
   2  17  -8 218.881 11.0140   1
  -1 -17   8 42.7715 4.62205   3
   1  17  -8 35.3602 4.04859   1
   0 -17   8 268.659 12.6434   3
   0 -17  -8 271.621 9.79427   2
   0  17   8 255.579 11.1204   1
   0  17  -8 268.641 10.1081   1
  -1 -17  -8 827.492 25.4621   2
   1 -17   8 816.200 27.5112   3
  -1  17  -8 805.836 20.8031   1
   1  17   8 829.141 25.8429   1
  -1  17  -8 812.014 20.5961   1
   2 -17   8 263.286 12.8404   3
  -2 -17  -8 255.136 12.2947   2
   2  17   8 271.112 11.7504   1
  -3 -17  -8 -2.8573 4.16333   2
   3  17   8 -0.5059 3.08148   1
  -4 -17  -8 224.640 13.7163   2
   4 -17   8 219.703 13.2148   3
   4  17   8 224.012 11.4282   1
  -4 -18   8 254.880 14.8111   2
   4  18  -8 253.320 14.3145   1
  -3 -18   8 78.5893 6.63144   3
   3  18  -8 90.5294 7.65953   1
  -2 -18   8 15.9634 3.41069   3
   2  18  -8 21.2003 3.99006   1
  -1 -18   8 16.0835 2.87503   3
   1 -18  -8 9.82285 1.62795   2
   1  18  -8 15.7392 2.94769   1
   0 -18  -8 610.587 18.6437   2
   0 -18   8 617.242 22.4097   3
   0  18  -8 617.874 18.8071   1
   0  18   8 581.355 20.2276   1
   1 -18   8 181.990 10.1654   3
  -1 -18  -8 193.144 9.28177   2
   1  18   8 187.894 9.13238   1
  -2 -18  -8 29.8580 5.04871   2
   2 -18   8 27.1067 4.79086   3
   2  18   8 30.0501 3.58791   1
   3 -18   8 15.4545 4.53456   3
  -3 -18  -8 17.4499 4.75335   2
   3  18   8 14.0078 3.27436   1
  -4 -18  -8 64.3231 10.4725   2
   4 -18   8 86.8971 10.7528   3
   4  18   8 80.2184 7.28324   1
  -4 -19   8 -7.1818 6.11066   2
   4  19  -8 12.8553 6.30584   1
  -3 -19   8 66.2316 7.83584   2
  -3 -19   8 77.7415 7.97996   3
   3  19  -8 86.5452 7.85107   1
  -2 -19   8 5.89855 2.90696   3
   2  19  -8 9.41329 3.34277   1
  -1 -19   8 4.57510 2.72285   3
   1 -19  -8 5.76998 1.37743   2
   1  19  -8 2.73660 2.63654   1
   0 -19   8 9.80560 2.82823   3
   0 -19  -8 5.53480 2.16033   2
   0  19  -8 6.61502 2.16633   1
   0  19   8 7.20870 2.29350   1
  -1 -19  -8 71.6146 5.57541   2
   1 -19   8 69.4175 6.47244   3
   1  19   8 67.6368 6.61650   1
  -2 -19  -8 217.752 11.4242   2
   2  19   8 230.044 10.7356   1
  -3 -19  -8 34.8117 5.93100   2
   3 -19   8 46.6842 7.30101   3
   3  19   8 35.9974 5.05128   1
  -4 -19  -8 3.84103 7.16111   2
   4  19   8 5.97505 4.94806   1
  -4 -20   8 504.982 22.4993   2
   4  20  -8 500.593 21.8268   1
  -3 -20   8 157.035 11.5431   2
  -3 -20   8 189.725 10.2442   3
   3  20  -8 197.271 11.3130   1
  -2 -20   8 136.954 11.1333   3
   2  20  -8 166.788 9.26849   1
   1 -20  -8 10.2719 1.89644   2
  -1 -20   8 10.7535 4.68121   3
   1  20  -8 15.0999 3.13503   1
   0 -20   8 855.070 29.5268   3
   0 -20  -8 806.851 24.3604   2
   0  20   8 810.562 26.0437   1
   0  20  -8 816.168 23.7149   1
  -1 -20  -8 156.162 8.66337   2
   1  20   8 161.328 8.53803   1
  -2 -20  -8 136.113 8.96222   2
   2 -20   8 143.301 9.50345   3
   2  20   8 155.134 8.23621   1
   3 -20   8 80.8723 8.54380   3
  -3 -20  -8 78.7257 8.98024   2
   3  20   8 88.2850 6.60664   1
  -4 -21   8 14.6461 7.42709   2
   4  21  -8 24.3063 6.95468   1
  -3 -21   8 178.998 10.3553   3
  -3 -21   8 154.244 11.7661   2
   3  21  -8 182.700 11.2176   1
  -2 -21   8 259.139 13.0880   3
   2  21  -8 265.433 12.6036   1
  -1 -21   8 7.59286 3.37177   3
   1  21  -8 2.58331 2.93988   1
   0 -21  -8 132.935 7.01198   2
   0 -21   8 133.553 9.10068   3
   0  21   8 130.979 9.80013   1
   0  21  -8 134.066 6.23933   1
   1 -21   8 371.845 16.6312   3
  -1 -21  -8 378.262 15.0712   2
   1  21   8 384.514 15.0584   1
  -2 -21  -8 7.28089 4.10162   2
   2 -21   8 6.71659 3.92069   3
   2  21   8 12.1849 3.28893   1
  -3 -21  -8 23.3495 5.68654   2
   3 -21   8 22.1842 5.48652   3
  -4 -22   8 54.0914 8.71942   2
  -3 -22   8 148.298 9.74754   3
  -3 -22   8 131.350 11.4007   2
   3  22  -8 150.434 10.2220   1
   2  22  -8 28.8806 5.58521   1
  -1 -22   8 486.280 19.9900   3
   1 -22  -8 506.337 16.1708   2
   1  22  -8 493.249 17.5114   1
   0 -22  -8 193.762 8.86975   2
   0 -22   8 186.123 11.0388   3
   0  22  -8 188.464 7.53338   1
  -1 -22  -8 136.346 8.59756   2
   1 -22   8 141.446 9.71536   3
   1  22   8 146.803 8.12765   1
  -2 -22  -8 20.9590 5.17603   2
   2 -22   8 26.8034 5.05316   3
   2  22   8 32.3430 4.69355   1
  -3 -22  -8 355.196 17.6638   2
   3 -22   8 354.474 17.2937   3
   3  22   8 354.377 14.9678   1
  -4 -23   8 -4.3085 8.43495   2
   4  23  -8 11.3466 7.58784   1
  -3 -23   8 3.19872 5.02545   3
  -3 -23   8 -9.2478 5.63837   2
   3  23  -8 -4.0496 5.60216   1
  -2 -23   8 12.5623 4.20063   3
  -1 -23   8 -2.0022 3.73091   3
   1  23  -8 7.18958 3.22826   1
   0 -23  -8 23.9177 3.53528   2
   0 -23   8 20.6496 4.05849   3
  -1 -23  -8 91.1050 7.49966   2
   1 -23   8 78.8468 8.16612   3
   1  23   8 104.696 6.87391   1
  -2 -23  -8 53.2923 7.60700   2
   2 -23   8 59.3882 8.17132   3
   2  23   8 57.8261 5.64010   1
   3 -23   8 203.411 13.9321   3
  -3 -23  -8 175.623 13.3181   2
   3  23   8 212.920 10.7738   1
  -3 -24   8 3.59941 6.17873   2
  -3 -24   8 12.7051 5.40325   3
   3  24  -8 13.7515 6.02180   1
  -2 -24   8 21.3982 4.74087   3
   2  24  -8 26.2773 4.93635   1
  -1 -24   8 610.384 23.8051   3
   1  24  -8 595.360 20.0839   1
   0 -24   8 9.40040 4.34615   3
   0 -24  -8 4.25141 3.35458   2
   1 -24   8 69.0007 7.97810   3
  -1 -24  -8 69.7350 7.18707   2
   1  24   8 74.1037 5.81852   1
  -2 -24  -8 188.411 11.7112   2
   2 -24   8 213.628 13.3082   3
   2  24   8 200.846 10.5855   1
   3 -24   8 30.4441 7.48289   3
   3  24   8 30.4036 5.37249   1
  -3 -25   8 22.8916 6.11220   3
  -3 -25   8 26.1212 7.38940   2
   3  25  -8 22.1537 6.57503   1
  -2 -25   8 452.686 19.4183   3
   2  25  -8 433.715 17.5402   1
  -1 -25   8 206.733 12.1051   3
   1  25  -8 198.686 9.47924   1
   0 -25  -8 4.67374 4.28216   2
   0 -25   8 3.97265 4.28381   3
  -1 -25  -8 146.985 9.80617   2
   1 -25   8 165.604 11.0526   3
   1  25   8 167.450 9.14895   1
  -2 -25  -8 84.1268 9.41978   2
   2 -25   8 93.6626 9.96092   3
   2  25   8 79.4052 7.01371   1
  -3 -26   8 23.5963 6.63826   3
  -3 -26   8 28.2484 7.40220   2
   3  26  -8 33.5766 6.89404   1
  -2 -26   8 101.688 9.67624   3
   2  26  -8 96.8533 8.24965   1
  -1 -26   8 29.2170 5.50417   3
   1  26  -8 38.1670 5.89171   1
   0 -26   8 519.529 22.1001   3
   1 -26   8 39.8904 8.18768   3
  -1 -26  -8 26.2806 5.12208   2
   1  26   8 26.7980 4.50686   1
  -2 -26  -8 428.288 19.3356   2
   2 -26   8 469.179 20.7582   3
   2  26   8 452.605 17.8722   1
  -2 -27   8 211.394 13.5022   3
   2  27  -8 229.912 12.0019   1
  -1 -27   8 121.865 10.1354   3
   0 -27   8 4.87326 5.66607   3
   1 -27   8 78.8969 9.75115   3
   1  27   8 82.8379 7.30485   1
   2 -27   8 21.9954 6.91237   3
  -2 -27  -8 23.5063 12.2937   2
   2  27   8 16.9662 5.25036   1
  -2 -28   8 136.350 11.4509   3
  -1 -28   8 19.7688 6.18412   3
   0 -28   8 242.470 14.7448   3
   1 -28   8 -3.0769 6.71492   3
   1  28   8 2.66013 4.68270   1
  -1 -29   8 160.171 12.8710   3
   0 -29   8 6.53965 6.63761   3
   1 -29   8 496.272 22.6806   3
   1  29   8 483.137 18.8562   1
   0 -30   8 79.1548 13.1352   3
  -3   0   9 0.73399 1.40382   3
  -3   0   9 -0.0458 1.05629   2
  -2   0   9 -0.2387 1.34493   3
  -1   0   9 0.92736 0.86584   2
  -1   0   9 0.73876 1.16813   3
   0   0  -9 0.56926 1.70925   1
   0   0   9 -0.2881 1.33708   2
   1   0   9 -0.1016 2.20871   2
   3   0   9 0.97735 1.81575   1
   4   0   9 -1.9599 2.80270   1
  -4  -1   9 13.3034 2.24869   2
  -3  -1   9 56.8459 3.60324   3
  -3  -1   9 52.2675 3.88017   2
  -3   1   9 59.6130 3.33936   3
  -2  -1   9 12.6695 2.29037   3
  -2  -1   9 12.6203 1.40734   2
  -2   1   9 10.3929 1.86337   3
  -1  -1   9 1210.78 30.6767   2
  -1  -1   9 1220.01 34.0877   3
  -1   1   9 1123.18 29.4507   2
  -1   1   9 1187.99 33.8898   3
   0  -1  -9 360.552 12.5229   1
   0  -1   9 397.325 12.4880   2
   0   1   9 386.273 12.1005   2
   0   1  -9 372.854 12.4046   1
   1  -1   9 164.343 7.62581   2
  -1  -1  -9 154.361 7.21257   1
  -1   1  -9 145.586 6.58553   1
   1   1   9 164.815 7.39141   2
  -2   1  -9 73.8756 4.97371   1
   3   1   9 78.9408 4.87987   1
   4   1   9 1.02009 2.73100   1
  -4  -2   9 750.867 22.2225   2
  -3  -2   9 423.152 13.2973   3
  -3  -2   9 411.108 13.0883   2
  -3   2   9 424.764 12.3701   3
  -2  -2   9 77.6040 3.46167   2
  -2  -2   9 83.2462 5.03532   3
  -2   2   9 78.0429 4.77886   3
  -1  -2   9 293.553 11.6738   3
   0  -2   9 5.81175 1.51198   2
   0   2  -9 6.29052 1.63945   1
   0   2   9 4.89954 1.50785   2
   1  -2   9 81.4146 5.15679   2
   1   2   9 89.9142 5.14254   2
  -1   2  -9 87.6479 4.78085   1
  -2   2  -9 10.5549 2.92431   1
   3   2   9 682.566 21.0924   1
   4   2   9 266.094 10.7442   1
  -4  -3   9 138.711 6.86219   2
  -3  -3   9 218.941 8.38028   2
  -3  -3   9 225.609 8.38061   3
  -3   3   9 221.548 7.21587   3
  -3   3   9 207.509 6.88964   3
  -2  -3   9 1228.33 35.1026   3
  -2   3   9 1268.35 34.6915   3
  -1  -3   9 17.1228 2.81949   3
   0  -3   9 0.82008 1.40653   3
   0  -3   9 3.92566 1.55029   2
   0   3   9 2.49083 1.11661   2
   0   3  -9 0.79925 1.59233   1
   1  -3   9 91.5405 5.78584   2
  -1   3  -9 84.7726 4.75073   1
   1   3   9 92.5402 5.19971   2
   2   3   9 1149.67 31.3233   1
  -2   3  -9 1041.18 30.8092   1
   3   3   9 15.6416 2.81920   1
   4   3   9 62.0013 5.09870   1
  -4  -4   9 34.3517 4.29523   2
  -3  -4   9 25.5536 2.97284   2
  -3  -4   9 27.3835 2.97089   3
  -3   4   9 23.4588 3.24640   3
  -3   4   9 23.2661 2.24250   3
  -2  -4   9 15.9304 2.16408   2
  -2  -4   9 15.4252 2.53565   3
  -2   4   9 20.0683 2.45409   3
  -1  -4   9 125.415 6.97884   3
   0  -4   9 109.083 6.47783   3
   0   4   9 110.843 4.34927   2
   0   4  -9 102.874 5.04271   1
   1  -4   9 69.9714 5.23935   2
   1   4   9 62.3860 4.17973   2
  -1   4  -9 62.3788 3.97765   1
  -2   4  -9 1.18760 2.64530   1
   2   4   9 2.67350 1.56581   1
   3   4   9 2.03625 1.94402   1
  -5  -5   9 74.8579 8.17563   2
  -4  -5   9 485.330 16.7732   2
  -3  -5   9 32.6008 3.55441   2
  -3  -5   9 38.8717 3.40152   3
  -2  -5   9 640.443 20.9149   3
  -2  -5   9 658.903 19.5758   2
  -2   5   9 670.240 20.2679   3
  -1  -5   9 7.49971 1.76764   3
   0  -5   9 342.868 13.4242   3
   0   5   9 348.499 10.1372   2
   0   5  -9 329.660 11.1878   1
   1  -5   9 141.597 7.62056   2
  -1   5  -9 158.063 6.61066   1
   1   5   9 163.288 6.91193   2
  -2   5  -9 474.230 15.5017   1
   2   5   9 507.308 16.6386   1
   3   5   9 19.1943 3.06430   1
   4   5   9 6.37824 2.89011   1
  -5  -6   9 40.4703 7.10027   2
  -4  -6   9 31.5359 4.64658   2
  -3  -6   9 1377.36 37.0457   3
  -3  -6   9 1325.31 37.6352   2
  -2  -6   9 3.14361 1.84355   3
  -2  -6   9 2.31872 1.33489   2
  -2   6   9 2.37605 1.42462   3
  -1  -6   9 29.5834 3.23926   3
   0  -6   9 85.6411 5.66951   3
   0   6  -9 82.5635 4.17798   1
   1  -6   9 434.622 16.4542   2
   1  -6   9 391.279 15.1384   3
  -1   6  -9 383.874 12.5433   1
   1   6   9 379.029 13.0290   2
  -2   6  -9 132.697 6.15285   1
   2   6   9 132.021 6.85056   1
   3   6   9 1204.27 34.6398   1
   4   6   9 24.7796 4.25645   1
  -5  -7   9 361.661 15.2032   2
  -4  -7   9 0.86524 3.01700   2
  -3  -7   9 1.91885 2.08243   2
  -3  -7   9 1.69748 1.94823   3
  -2  -7   9 1.71356 1.60081   3
  -2   7   9 -0.1003 1.42403   3
  -1  -7   9 1430.08 40.6524   3
   0  -7   9 197.423 9.35082   3
   0   7  -9 173.951 6.97852   1
   1  -7   9 425.034 15.9298   3
  -1   7  -9 412.318 13.0574   1
   1   7   9 418.961 14.7784   1
   1   7   9 424.724 13.7551   2
   2  -7   9 66.2985 5.49485   3
   2   7   9 69.7567 4.73939   1
  -2   7  -9 66.6162 4.27709   1
   3   7   9 165.535 8.09745   1
   4  -7   9 4.91228 4.21277   3
   4   7   9 20.6272 4.21120   1
  -5  -8   9 11.4159 5.15354   2
  -4  -8   9 231.495 11.1091   2
  -3  -8   9 247.866 10.1397   3
  -3  -8   9 257.797 10.9574   2
  -2  -8   9 162.017 8.27449   3
  -2   8   9 168.568 7.52759   3
  -1  -8   9 102.091 6.40075   3
   0  -8   9 783.320 25.2561   3
   0   8  -9 793.222 22.2895   1
   1  -8   9 45.4608 4.50502   3
   1   8   9 46.9490 3.81188   1
   1   8   9 45.5573 3.57941   2
  -1   8  -9 46.4146 3.17017   1
   2  -8   9 -1.8521 2.02453   3
  -2   8  -9 0.07911 2.29470   1
   2   8   9 1.39001 1.65712   1
   3  -8   9 31.0453 4.79714   3
   3   8   9 41.8604 3.92352   1
   4  -8   9 6.47275 4.98958   3
   4   8   9 8.04164 3.20788   1
  -5  -9   9 135.546 10.5424   2
   5   9  -9 152.261 11.4679   1
  -4  -9   9 31.6594 5.48657   2
  -3  -9   9 117.550 6.93593   2
  -3  -9   9 116.348 6.47957   3
  -2  -9   9 17.5815 3.19466   3
  -2   9   9 15.0181 2.75505   3
  -1  -9   9 215.709 10.1233   3
   0  -9   9 32.6502 3.69747   3
   0   9  -9 33.9429 2.71610   1
   1  -9   9 411.182 15.7075   3
   1   9   9 389.246 14.3728   1
  -1   9  -9 402.426 12.4313   1
   2  -9   9 20.2869 4.03113   3
  -2   9  -9 26.3864 3.17397   1
   2   9   9 34.0837 3.44670   1
   3  -9   9 43.2269 5.47469   3
   3   9   9 37.7472 4.17715   1
   4   9   9 177.110 9.16387   1
  -5 -10   9 15.5076 5.75775   2
   5  10  -9 16.4322 6.73315   1
  -4 -10   9 939.511 30.3005   2
  -3 -10   9 16.9564 2.98226   3
  -3 -10   9 25.2464 4.14216   2
  -2 -10   9 626.640 21.0527   3
  -2  10   9 616.243 19.3237   3
  -1 -10   9 9.94230 2.24923   3
   0 -10   9 1277.03 37.8976   3
   0  10  -9 1292.45 34.2843   1
   1 -10   9 2.04390 1.83999   3
  -1  10  -9 2.46969 1.65548   1
   1  10   9 4.73779 1.64767   1
   2 -10   9 245.095 11.6688   3
  -2  10  -9 265.224 10.1594   1
   2  10   9 240.207 10.5146   1
   3 -10   9 142.081 8.95454   3
   3  10   9 157.146 10.8265   1
   4 -10   9 772.345 27.1282   3
   4  10   9 744.263 24.5733   1
  -5 -11   9 244.101 14.0417   2
   5  11  -9 284.415 15.1697   1
  -4 -11   9 4.58234 4.12931   2
  -3 -11   9 12.3974 2.57800   3
  -3 -11   9 18.3301 3.24242   2
  -2 -11   9 394.837 15.3082   3
  -2  11   9 391.439 13.6343   3
  -1 -11   9 60.5000 5.07859   3
   0  11  -9 12.6171 2.57619   1
   1 -11   9 326.638 13.7853   3
  -1  11  -9 318.498 10.1836   1
   1  11   9 326.492 12.7139   1
  -2 -11  -9 388.923 15.1898   2
   2 -11   9 400.217 16.0180   3
   2  11   9 405.929 14.9799   1
   3 -11   9 47.1557 5.64553   3
   3  11   9 46.5787 4.40439   1
   4 -11   9 139.389 9.78444   3
   4  11   9 127.121 7.95637   1
  -5 -12   9 85.0500 10.8522   2
   5  12  -9 117.159 11.2266   1
  -4 -12   9 485.871 19.3954   2
  -3 -12   9 568.342 20.5162   2
  -3 -12   9 564.464 19.1287   3
  -2 -12   9 122.241 7.34127   3
  -2  12   9 109.526 6.44246   3
  -1 -12   9 575.358 20.4761   3
   0 -12   9 217.517 10.5649   3
   0  12  -9 204.113 7.65833   1
  -1 -12  -9 628.655 19.5216   2
   1 -12   9 631.248 21.9959   3
  -1  12  -9 608.810 17.4263   1
   1  12   9 626.579 20.6538   1
  -2 -12  -9 0.99407 2.31722   2
   2  12   9 2.55495 1.88122   1
   3 -12   9 868.949 28.6599   3
  -3 -12  -9 857.922 29.2411   2
   3  12   9 859.397 27.2162   1
   4 -12   9 179.314 11.7011   3
   4  12   9 188.333 9.53380   1
  -5 -13   9 10.0670 7.18415   2
   5  13  -9 5.95762 7.28536   1
  -4 -13   9 16.9747 4.89173   2
   4  13  -9 27.6270 5.30032   1
  -3 -13   9 3.13759 3.01996   2
  -3 -13   9 5.48503 2.62317   3
  -2 -13   9 25.4479 3.89670   3
  -2  13   9 23.2771 4.87400   3
  -1 -13   9 549.334 20.0678   3
   0 -13   9 103.797 7.12883   3
   0  13  -9 111.460 5.10239   1
   1 -13   9 175.336 9.37612   3
  -1 -13  -9 167.542 7.73572   2
   1  13   9 165.646 8.25886   1
  -1  13  -9 155.865 5.91365   1
  -2 -13  -9 -0.0888 2.58180   2
   2 -13   9 2.12780 2.64744   3
   2  13   9 8.86308 2.92178   1
   3 -13   9 91.9502 7.56256   3
  -3 -13  -9 78.5742 9.48249   2
   3  13   9 81.7462 5.84828   1
   4 -13   9 31.8178 5.99724   3
   4  13   9 20.9493 3.98560   1
  -5 -14   9 48.5183 8.17996   2
   5  14  -9 56.5069 8.85613   1
  -4 -14   9 7.62273 7.84376   2
   4  14  -9 13.1523 5.22531   1
  -3 -14   9 1128.28 35.1727   2
  -3 -14   9 1068.99 32.8311   3
  -2 -14   9 52.0848 5.04097   3
  -1 -14   9 22.7978 4.21697   3
   0 -14   9 29.8961 4.17076   3
   0  14  -9 39.1377 3.15337   1
  -1 -14  -9 829.549 24.7094   2
   1 -14   9 829.980 27.5059   3
   1  14   9 834.678 26.0611   1
  -1  14  -9 803.589 22.1042   1
   2 -14   9 114.240 7.94444   3
  -2 -14  -9 119.767 7.45805   2
  -3 -14  -9 1151.48 42.6134   2
   3  14   9 1265.03 36.5467   1
   4 -14   9 40.5985 6.41087   3
   4  14   9 33.8009 6.07922   1
   5  15  -9 37.6365 8.49028   1
  -4 -15   9 49.6315 8.12990   2
   4  15  -9 58.9195 7.96380   1
  -3 -15   9 183.139 9.41800   3
  -3 -15   9 181.020 10.4022   2
  -2 -15   9 1168.64 35.9238   3
  -1 -15   9 -0.3280 2.39087   3
   0 -15   9 23.3256 3.91139   3
   0  15  -9 30.5424 3.11521   1
   1 -15   9 185.546 10.2130   3
  -1 -15  -9 187.157 8.56568   2
   1  15   9 196.810 9.47860   1
   2 -15   9 683.520 23.9172   3
  -2 -15  -9 658.756 22.8149   2
   2  15   9 663.741 22.4464   1
   3 -15   9 13.2954 4.08388   3
  -3 -15  -9 12.0798 4.26283   2
   4 -15   9 146.977 11.4560   3
  -4 -15  -9 128.555 11.1044   2
   4  15   9 116.988 8.43643   1
  -5 -16   9 71.4720 13.6913   2
   5  16  -9 92.2376 13.9793   1
  -4 -16   9 396.740 17.6482   2
   4  16  -9 390.002 18.5473   1
  -3 -16   9 42.0117 5.27336   3
  -3 -16   9 28.4835 4.87911   2
   3  16  -9 41.0377 6.33672   1
  -2 -16   9 79.1936 6.50290   3
  -1 -16   9 26.0273 4.33217   3
   0 -16   9 629.853 22.8865   3
   0  16  -9 635.570 20.2778   1
  -1 -16  -9 -0.1900 2.27522   2
   1 -16   9 -0.7441 2.68574   3
   1  16   9 1.95707 2.04052   1
   2 -16   9 135.646 8.98608   3
  -2 -16  -9 132.595 8.47354   2
   2  16   9 132.137 7.61677   1
  -3 -16  -9 66.4766 7.62657   2
   3 -16   9 79.5393 7.65046   3
   3  16   9 73.6579 5.80453   1
  -4 -16  -9 264.139 15.4515   2
   4 -16   9 266.920 15.1116   3
   4  16   9 263.520 12.5281   1
  -4 -17   9 74.7685 9.36243   2
   4  17  -9 66.0197 9.06536   1
  -3 -17   9 18.9265 3.89989   3
  -2 -17   9 127.994 8.20957   3
  -1 -17   9 54.5814 5.53771   3
   0 -17   9 39.4810 4.96167   3
   0 -17  -9 42.2205 3.37214   2
  -1 -17  -9 8.26412 2.65618   2
   1 -17   9 4.97829 2.89866   3
  -1  17  -9 6.45448 1.52253   1
  -2 -17  -9 487.201 18.4259   2
   2 -17   9 472.037 21.3530   3
   2  17   9 480.213 17.8307   1
   3 -17   9 149.701 10.6597   3
  -3 -17  -9 152.929 10.4140   2
   3  17   9 163.148 8.86871   1
  -4 -17  -9 4.60171 7.05591   2
   4 -17   9 2.69651 10.3843   3
   4  17   9 5.28299 4.94238   1
  -4 -18   9 419.243 19.8930   2
   4  18  -9 462.640 20.7592   1
  -3 -18   9 58.2982 9.08608   3
  -3 -18   9 50.2793 7.75580   2
   3  18  -9 73.1980 7.59034   1
   2  18  -9 2.07528 3.63876   1
  -1 -18   9 70.4584 6.46400   3
   1  18  -9 65.3091 5.61053   1
   0 -18  -9 405.055 12.7796   2
   0 -18   9 383.068 17.5501   3
   0  18  -9 399.970 13.7106   1
  -1 -18  -9 1.79803 2.66279   2
   1  18   9 1.32708 2.34816   1
  -2 -18  -9 98.7691 7.85478   2
   2 -18   9 104.020 8.16603   3
   2  18   9 99.2618 6.89926   1
  -3 -18  -9 87.6828 8.61340   2
   3 -18   9 74.0253 8.62306   3
   3  18   9 79.5689 6.60987   1
  -4 -19   9 49.6914 8.05877   2
   4  19  -9 51.8001 10.0538   1
  -3 -19   9 110.616 10.1313   2
  -3 -19   9 148.367 9.27023   3
   3  19  -9 151.936 10.0840   1
  -2 -19   9 62.0748 7.02223   3
   2  19  -9 82.6332 6.71317   1
  -1 -19   9 957.313 32.1071   3
   1  19  -9 922.803 29.0520   1
   0 -19  -9 51.5935 4.13821   2
   0 -19   9 57.4249 5.93343   3
   0  19  -9 53.1224 4.52210   1
   1 -19   9 1846.68 54.0675   3
  -1 -19  -9 1824.01 50.1795   2
   1  19   9 1811.24 51.3953   1
   2 -19   9 65.0958 7.03447   3
  -2 -19  -9 58.5920 6.88101   2
   2  19   9 63.6789 5.45055   1
  -3 -19  -9 248.420 13.7038   2
   3 -19   9 261.323 13.9578   3
   3  19   9 233.082 11.6072   1
  -4 -20   9 -0.1619 7.27048   2
   4  20  -9 3.62814 7.69356   1
  -3 -20   9 233.181 11.9621   3
  -3 -20   9 196.306 13.2175   2
   3  20  -9 239.942 12.9493   1
  -2 -20   9 0.46491 3.63814   3
   2  20  -9 2.97702 4.03089   1
  -1 -20   9 123.065 8.67873   3
   1  20  -9 113.045 7.32395   1
   0 -20  -9 85.0257 5.25440   2
   0 -20   9 84.8299 7.58468   3
   0  20  -9 87.4148 5.43695   1
  -1 -20  -9 79.3554 6.42655   2
   1 -20   9 83.3266 7.53367   3
   1  20   9 88.6309 6.23251   1
  -2 -20  -9 139.831 9.60294   2
   2 -20   9 137.773 9.90099   3
   2  20   9 148.288 8.40125   1
  -3 -20  -9 86.4850 9.87417   2
   3 -20   9 92.0047 9.63938   3
   3  20   9 84.0595 7.28209   1
  -4 -21   9 13.8393 8.32272   2
   4  21  -9 23.5349 7.55889   1
  -3 -21   9 38.4678 7.19266   3
   3  21  -9 28.4517 5.64239   1
  -2 -21   9 199.217 11.2070   3
   2  21  -9 204.718 16.8811   1
  -1 -21   9 117.670 8.36333   3
   1  21  -9 108.850 7.20475   1
   0 -21   9 5.74070 3.83241   3
   0 -21  -9 1.12444 2.61009   2
   0  21  -9 3.62205 2.66138   1
   1 -21   9 494.205 20.0873   3
  -1 -21  -9 472.185 17.3296   2
   1  21   9 475.723 17.9905   1
   2 -21   9 559.124 22.3628   3
  -2 -21  -9 522.917 21.2839   2
   2  21   9 566.271 20.4508   1
   3 -21   9 247.127 14.7865   3
  -3 -21  -9 248.165 14.6064   2
   3  21   9 263.347 12.5360   1
  -3 -22   9 63.1306 8.43777   3
  -3 -22   9 45.7344 8.01766   2
   3  22  -9 61.0667 8.77599   1
  -2 -22   9 8.75507 4.28806   3
   2  22  -9 7.09592 4.47823   1
  -1 -22   9 61.8524 6.75726   3
   1  22  -9 49.8302 5.75288   1
   0 -22   9 336.980 16.0694   3
   1 -22   9 15.5148 4.64426   3
  -1 -22  -9 23.7232 3.99822   2
   1  22   9 21.0067 4.31738   1
  -2 -22  -9 181.182 11.9268   2
   2 -22   9 187.130 11.5281   3
   2  22   9 177.120 9.52118   1
   3 -22   9 41.5594 7.10799   3
   3  22   9 45.2817 6.98671   1
  -3 -23   9 92.0969 11.6849   2
  -3 -23   9 138.296 10.3729   3
   3  23  -9 126.149 10.8759   1
  -2 -23   9 1160.63 37.8913   3
   2  23  -9 1173.40 36.7824   1
  -1 -23   9 31.4983 5.05912   3
   1  23  -9 39.0977 5.67627   1
   0 -23   9 -5.2683 4.15758   3
  -1 -23  -9 15.0426 4.13195   2
   1 -23   9 18.6373 5.42094   3
   1  23   9 15.1647 3.30222   1
  -2 -23  -9 282.372 14.3105   2
   2 -23   9 301.118 15.4676   3
   2  23   9 287.856 13.4593   1
  -3 -24   9 138.356 11.1369   3
   3  24  -9 137.935 11.3670   1
  -2 -24   9 23.8820 5.00400   3
   2  24  -9 25.8128 5.60418   1
  -1 -24   9 268.987 14.7310   3
   1  24  -9 254.113 11.4159   1
   0 -24   9 27.5447 5.27420   3
   1 -24   9 183.639 12.3767   3
   1  24   9 184.596 10.1482   1
   2 -24   9 66.8264 10.1403   3
  -2 -24  -9 51.7834 9.58965   2
   2  24   9 43.9458 6.57729   1
  -3 -25   9 108.023 11.3587   3
  -3 -25   9 80.5225 10.7445   2
   3  25  -9 114.441 11.0568   1
  -2 -25   9 97.7797 9.76910   3
   2  25  -9 109.093 9.28555   1
  -1 -25   9 59.1762 8.75826   3
   0 -25   9 31.7352 5.36614   3
   1 -25   9 23.2976 5.78305   3
   1  25   9 26.4366 4.58898   1
   2 -25   9 5.80331 6.84721   3
   2  25   9 7.12813 4.63481   1
  -2 -26   9 27.3403 6.78163   3
   2  26  -9 26.7900 6.20448   1
  -1 -26   9 132.340 11.0696   3
   0 -26   9 40.3603 6.77855   3
   1  26   9 51.0892 7.06231   1
  -2 -27   9 10.9663 7.23112   3
  -1 -27   9 63.5932 10.1190   3
   1 -27   9 214.036 13.8769   3
   1  27   9 178.165 10.7866   1
  -1 -28   9 108.005 11.4801   3
   0 -28   9 693.991 27.7922   3
  -3   0  10 361.194 12.1042   3
  -2   0  10 2610.23 68.4181   3
  -1   0  10 184.631 8.88175   3
  -1   0  10 177.483 5.81068   2
   0   0  10 1066.06 29.3032   2
   1   0  10 21.5378 4.45069   2
  -3  -1  10 128.332 6.01893   3
  -3  -1  10 109.732 3.86135   2
  -3   1  10 122.376 5.69269   3
  -2  -1  10 31.6815 3.24505   3
  -2   1  10 31.9082 3.15382   3
  -1  -1  10 452.551 13.0848   2
  -1  -1  10 462.034 16.5201   3
  -1   1  10 449.111 16.3762   3
   0  -1  10 467.873 14.9160   2
   0   1  10 478.316 14.5703   2
   1  -1  10 16.4392 3.02672   2
   1   1  10 13.7003 2.71211   2
  -4  -2  10 2.58584 3.12805   2
  -3  -2  10 593.441 18.3995   3
  -3  -2  10 609.825 17.9144   2
  -3   2  10 592.687 17.6335   3
  -2  -2  10 62.8470 4.54527   3
  -2  -2  10 54.6211 2.74238   2
  -2   2  10 59.6348 4.43557   3
  -1  -2  10 186.222 9.02030   3
   0  -2  10 470.521 15.0238   2
   0   2  10 460.107 14.0325   2
   1  -2  10 306.957 12.0407   2
   1   2  10 315.874 11.7237   2
  -4  -3  10 4.73611 2.58263   2
  -3  -3  10 36.8209 3.11770   2
  -3   3  10 33.2319 3.26549   3
  -2  -3  10 250.398 10.7385   3
  -2   3  10 257.768 10.4738   3
  -1  -3  10 2301.02 61.8070   3
   0  -3  10 26.1443 3.38808   2
   0  -3  10 24.5834 3.32640   3
   0   3  10 18.5585 2.88946   2
   1  -3  10 0.30733 3.17024   2
   1   3  10 1.35964 2.54969   2
   3   3  10 156.770 7.88923   1
   4   3  10 22.2715 3.70135   1
  -4  -4  10 479.305 15.7291   2
  -3  -4  10 1091.81 30.9678   2
  -3  -4  10 1116.41 31.7828   3
  -3   4  10 1181.10 31.3825   3
  -3   4  10 1128.54 30.1618   3
  -2  -4  10 0.90757 1.70981   3
  -2  -4  10 1.92578 1.36580   2
  -2   4  10 4.20645 1.71147   3
  -1  -4  10 26.2085 3.11026   3
   0  -4  10 47.2414 4.03224   2
   0  -4  10 54.0484 4.61213   3
   0   4  10 45.1279 2.76531   2
  -1   4 -10 3351.05 81.0401   1
   1   4  10 2808.82 78.4307   2
   3   4  10 131.611 7.23538   1
   4   4  10 46.6526 5.54217   1
  -4  -5  10 57.8996 5.15516   2
  -3  -5  10 297.742 11.1033   2
  -3  -5  10 308.071 11.5078   3
  -3   5  10 311.230 9.98870   3
  -2  -5  10 213.500 9.99703   3
  -2  -5  10 219.676 8.42217   2
  -2   5  10 220.669 9.46891   3
  -1  -5  10 47.0784 4.37648   3
   0  -5  10 475.934 15.8768   2
   0  -5  10 495.480 17.8929   3
   0   5  10 486.510 13.5806   2
   1  -5  10 145.714 7.92874   3
  -1   5 -10 121.775 6.03707   1
   1   5  10 117.676 6.13444   2
   3   5  10 4.43038 2.41611   1
   4   5  10 155.664 8.53571   1
  -4  -6  10 224.833 9.92807   2
  -3  -6  10 71.6187 4.94037   2
  -3  -6  10 70.4924 4.99617   3
  -3   6  10 66.4391 3.78193   3
  -2  -6  10 71.5428 5.32660   3
  -2  -6  10 76.1359 4.54381   2
  -2   6  10 67.5716 4.88547   3
  -1  -6  10 0.31025 1.58327   3
   0  -6  10 88.1929 6.10695   3
   1  -6  10 101.899 6.61842   3
   1   6  10 92.1803 5.32334   2
  -1   6 -10 95.5822 5.05869   1
   2   6  10 83.2256 5.48821   1
   3   6  10 2.87868 2.51575   1
   4  -6  10 -1.6715 4.69128   3
   4   6  10 -2.3017 3.74587   1
  -4  -7  10 308.630 12.6435   2
  -3  -7  10 42.2317 4.20270   2
  -3  -7  10 43.3319 4.22393   3
  -3   7  10 38.0441 2.97291   3
  -2  -7  10 305.899 12.8173   3
  -2   7  10 312.627 11.9140   3
  -1  -7  10 7.80688 1.86553   3
   0  -7  10 507.029 18.5111   3
   1  -7  10 4.74608 2.10305   3
   1   7  10 -1.3641 2.35398   2
  -1   7 -10 -2.5700 2.35249   1
   2  -7  10 641.971 22.3250   3
   2   7  10 592.969 20.2163   1
   3  -7  10 361.754 15.6987   3
   4  -7  10 255.334 12.8897   3
   4   7  10 236.516 11.1107   1
  -4  -8  10 32.3659 5.77771   2
  -3  -8  10 34.4967 4.14684   3
  -3  -8  10 35.2560 4.42857   2
  -3   8  10 38.4742 2.74930   3
  -2  -8  10 497.126 18.0449   3
  -2   8  10 495.234 16.8019   3
  -1  -8  10 6.51787 1.94142   3
   0  -8  10 242.550 11.4136   3
   1  -8  10 680.199 22.9449   3
  -1   8 -10 627.773 19.0703   1
   2  -8  10 656.248 22.9375   3
   2   8  10 638.393 21.2474   1
   3  -8  10 2.57494 3.19154   3
   3   8  10 3.21736 2.72882   1
   4  -8  10 174.448 11.2983   3
   4   8  10 160.872 9.14048   1
  -4  -9  10 17.5436 3.99632   2
  -3  -9  10 0.14229 2.63852   2
  -3  -9  10 -1.9345 2.45216   3
  -2  -9  10 148.306 8.38611   3
  -2   9  10 151.823 7.53061   3
  -2   9  10 132.749 7.75568   3
  -1  -9  10 1601.87 45.9142   3
   0  -9  10 2.43312 1.86857   3
   0   9 -10 5.22838 3.61951   1
   1  -9  10 2.31201 2.00751   3
  -1   9 -10 9.61899 2.36753   1
   2  -9  10 30.8587 4.79160   3
   2   9  10 39.0959 3.87071   1
   3   9  10 602.660 20.6040   1
   4  -9  10 77.3398 9.00268   3
   4   9  10 66.8478 6.63487   1
   5  10 -10 37.6250 8.09540   1
  -4 -10  10 71.9605 7.26106   2
  -3 -10  10 83.9982 6.16556   2
  -3 -10  10 66.9214 5.62579   3
  -2 -10  10 4.26645 2.25456   3
  -2  10  10 1.67009 3.81524   3
  -1 -10  10 25.4145 3.62179   3
   0 -10  10 11.6588 2.43143   3
   0  10 -10 12.4928 2.51040   1
   1 -10  10 8.08625 2.57877   3
  -1  10 -10 5.91471 2.32733   1
   2 -10  10 446.994 17.5851   3
   2  10  10 423.313 15.9839   1
   3 -10  10 46.3439 8.69045   3
   3  10  10 72.5723 5.63783   1
   4 -10  10 61.9457 8.94129   3
   4  10  10 41.1991 6.07060   1
   5  11 -10 269.328 15.7496   1
  -4 -11  10 31.6488 6.61040   2
  -3 -11  10 26.2542 4.75265   3
  -2 -11  10 743.531 24.8204   3
  -1 -11  10 1464.10 43.1802   3
   0 -11  10 6.50811 1.98591   3
   0  11 -10 6.11290 2.66127   1
   1 -11  10 168.566 9.54665   3
   2 -11  10 146.182 9.04124   3
   3 -11  10 159.553 9.87491   3
   3  11  10 154.341 8.44298   1
   4 -11  10 81.8540 9.87300   3
   4  11  10 79.2532 7.02480   1
   5  12 -10 270.035 15.9967   1
  -4 -12  10 -2.3847 4.89769   2
  -3 -12  10 128.504 7.80592   3
  -3 -12  10 145.473 8.41756   2
  -2 -12  10 23.4811 4.12746   3
  -1 -12  10 13.7260 3.00154   3
   0 -12  10 160.623 9.13586   3
   0  12 -10 165.047 7.14656   1
   1 -12  10 354.917 15.0805   3
   1  12  10 342.948 13.7847   1
   2 -12  10 505.176 19.4703   3
   2  12  10 482.589 18.0482   1
   3 -12  10 56.3922 7.27770   3
   3  12  10 65.1771 5.78266   1
   4 -12  10 392.670 18.1857   3
   4  12  10 368.368 15.4257   1
   5  13 -10 24.2164 8.67615   1
  -3 -13  10 428.410 17.0413   2
  -3 -13  10 418.979 16.1149   3
  -2 -13  10 1216.17 37.1770   3
  -1 -13  10 101.653 7.23069   3
   0 -13  10 638.503 23.1355   3
   0  13 -10 658.721 19.7301   1
   1 -13  10 41.5727 4.92519   3
   1  13  10 42.0620 4.05395   1
   2 -13  10 199.756 13.9317   3
   2  13  10 181.729 9.40952   1
   3 -13  10 268.833 13.1941   3
   3  13  10 235.104 11.2840   1
   4 -13  10 18.1886 6.95605   3
   4  13  10 10.4754 4.69424   1
  -4 -14  10 72.5067 9.55478   2
   4  14 -10 93.8587 9.34597   1
  -3 -14  10 56.5305 5.80880   3
  -3 -14  10 44.9020 6.26133   2
  -2 -14  10 109.738 7.37044   3
  -1 -14  10 29.8214 4.48943   3
   0 -14  10 212.441 11.1871   3
   1 -14  10 566.734 20.7156   3
   1  14  10 478.603 23.4128   1
   2 -14  10 34.2120 5.88829   3
   2  14  10 37.0246 4.39466   1
   3 -14  10 81.5922 8.55294   3
   3  14  10 74.4328 6.06369   1
   4 -14  10 15.1634 7.23261   3
   4  14  10 8.05925 4.94988   1
  -4 -15  10 200.916 12.1853   2
   4  15 -10 195.958 12.8000   1
  -3 -15  10 17.5485 4.32320   2
  -3 -15  10 28.8543 5.28422   3
  -2 -15  10 33.9345 4.92814   3
  -1 -15  10 35.7257 4.98412   3
   0 -15  10 227.353 11.7428   3
   1 -15  10 10.5856 4.35258   3
   1  15  10 4.69675 2.41411   1
   2 -15  10 54.4441 6.35273   3
  -2 -15 -10 59.2831 5.81102   2
   2  15  10 55.9991 5.15424   1
   3 -15  10 9.67652 4.70100   3
   3  15  10 10.6971 3.58970   1
  -4 -16  10 154.372 11.4208   2
   4  16 -10 129.835 11.2729   1
  -3 -16  10 930.460 39.8843   2
   1 -16  10 452.177 18.6451   3
  -1 -16 -10 442.859 15.1168   2
   1  16  10 422.460 16.5911   1
   2 -16  10 487.264 19.6223   3
  -2 -16 -10 475.073 18.0285   2
   2  16  10 487.199 18.2270   1
  -3 -16 -10 21.2251 5.08985   2
   3 -16  10 26.8120 5.38414   3
   3  16  10 34.1839 5.49561   1
  -4 -17  10 10.1003 6.63804   2
   4  17 -10 12.2298 7.30480   1
  -3 -17  10 53.5669 6.55138   3
  -3 -17  10 53.6140 7.75057   2
   3  17 -10 62.2052 7.56052   1
  -2 -17  10 47.8119 6.02696   3
  -1 -17  10 652.943 24.1135   3
   0 -17  10 180.844 10.4390   3
   1 -17  10 -0.1085 3.17070   3
  -1 -17 -10 7.41526 2.68949   2
   1  17  10 5.98664 2.46318   1
  -2 -17 -10 57.9051 6.28261   2
   2 -17  10 45.2756 6.98355   3
   2  17  10 57.0167 5.58119   1
   3 -17  10 373.345 17.4493   3
  -3 -17 -10 349.870 16.4713   2
   3  17  10 369.777 15.2431   1
  -4 -18  10 72.9496 11.1271   2
   4  18 -10 47.9446 8.35402   1
  -3 -18  10 26.5517 4.94485   3
  -3 -18  10 31.7531 6.04080   2
  -2 -18  10 141.345 9.22314   3
   2  18 -10 146.248 9.77629   1
  -1 -18  10 304.638 14.4957   3
   0 -18  10 690.955 25.5932   3
   0  18 -10 699.602 21.6247   1
  -1 -18 -10 18.3817 3.31746   2
   1 -18  10 13.7305 3.72537   3
   1  18  10 14.9376 2.89874   1
   2 -18  10 37.3583 7.28269   3
  -2 -18 -10 51.2948 6.73169   2
   2  18  10 41.2334 5.31824   1
  -3 -18 -10 15.6509 5.64461   2
   3 -18  10 10.3356 6.26841   3
   3  18  10 9.73653 4.20417   1
  -4 -19  10 13.6438 7.80887   2
   4  19 -10 20.4215 8.15723   1
  -3 -19  10 -7.8103 5.43240   2
  -3 -19  10 2.31908 4.52149   3
   3  19 -10 5.69739 5.91607   1
  -2 -19  10 1.86172 3.82101   3
  -1 -19  10 28.4848 5.76217   3
   1  19 -10 24.6518 5.25414   1
   0 -19  10 13.7022 3.57951   3
   0  19 -10 11.7380 3.13313   1
  -1 -19 -10 2.83990 3.18540   2
   1 -19  10 1.38088 3.80091   3
   1  19  10 7.64166 2.85366   1
  -2 -19 -10 5.68886 4.41440   2
   2 -19  10 12.9314 4.52642   3
   2  19  10 3.27974 3.42015   1
   3 -19  10 17.5460 6.35367   3
  -3 -19 -10 18.6816 6.15067   2
   3  19  10 14.2515 4.78390   1
  -4 -20  10 50.9445 8.76821   2
   4  20 -10 37.9133 8.86017   1
  -3 -20  10 -8.7530 5.82055   2
  -3 -20  10 3.97123 4.95141   3
   3  20 -10 7.94239 6.37416   1
  -2 -20  10 44.0103 7.26779   3
   2  20 -10 50.6519 7.09177   1
  -1 -20  10 43.7515 6.77933   3
   1  20 -10 47.0974 5.85850   1
   0  20 -10 352.345 12.9406   1
   1 -20  10 -1.4699 4.09030   3
  -1 -20 -10 7.70282 3.63452   2
   1  20  10 1.42916 3.16730   1
  -2 -20 -10 259.348 13.0462   2
   2 -20  10 253.661 13.8038   3
   2  20  10 251.368 12.2190   1
   3 -20  10 96.4955 11.3276   3
  -3 -20 -10 85.0257 10.6145   2
   3  20  10 79.7695 7.87923   1
  -3 -21  10 24.3763 5.58476   3
   3  21 -10 26.9403 6.82084   1
  -2 -21  10 -2.7734 4.52494   3
   2  21 -10 -2.4380 5.00183   1
  -1 -21  10 48.2237 7.18920   3
   1  21 -10 46.3207 6.23627   1
   0 -21  10 1061.41 35.7186   3
   1 -21  10 153.469 10.9806   3
   1  21  10 161.682 9.12651   1
  -2 -21 -10 12.5840 7.17991   2
   2 -21  10 7.53450 5.40006   3
   2  21  10 10.0130 4.32776   1
  -3 -22  10 192.478 12.1847   3
  -3 -22  10 163.182 13.6865   2
   3  22 -10 187.787 12.8367   1
  -2 -22  10 29.7779 5.51658   3
   2  22 -10 28.3163 5.95125   1
  -1 -22  10 41.0721 7.20777   3
   1  22 -10 29.8936 5.00968   1
   0 -22  10 20.8227 4.56832   3
   1 -22  10 315.763 15.9326   3
   1  22  10 287.824 13.2181   1
   2 -22  10 14.4758 5.84057   3
   2  22  10 10.4385 4.36654   1
  -3 -23  10 9.00085 6.48470   3
   3  23 -10 -5.1585 7.54588   1
  -2 -23  10 2.16286 5.26132   3
   2  23 -10 4.38367 5.86212   1
  -1 -23  10 4.49342 5.00593   3
   1  23 -10 2.65048 4.75249   1
   0 -23  10 11.3463 5.38958   3
   1 -23  10 199.046 12.9390   3
   1  23  10 193.085 10.6914   1
   2 -23  10 225.585 14.1604   3
   2  23  10 212.956 11.7619   1
  -2 -24  10 91.3886 9.76789   3
   2  24 -10 80.8490 9.33201   1
  -1 -24  10 51.4154 8.65296   3
   0 -24  10 -4.2977 5.44053   3
   1 -24  10 764.781 28.7991   3
   2 -24  10 24.4178 7.37426   3
  -2 -25  10 61.9568 10.0728   3
   2  25 -10 61.0287 9.34759   1
  -1 -25  10 113.765 11.3503   3
   0 -25  10 186.485 12.6428   3
   1 -25  10 27.1629 6.82507   3
  -2 -26  10 194.594 13.8609   3
  -1 -26  10 61.3000 10.7452   3
   0 -26  10 104.148 11.3394   3
   1 -26  10 76.3881 11.8012   3
  -1 -27  10 25.3582 7.69365   3
   0 -27  10 9.90731 7.24957   3
  -3   0  11 -1.5787 2.25066   3
  -2   0  11 6.72221 2.03793   3
  -1   0  11 4.01061 1.87774   3
  -1   0  11 -0.0061 1.09471   2
   0   0  11 1.22559 2.18126   2
   1   0  11 0.81718 3.61270   2
  -3  -1  11 50.6515 4.36070   3
  -3   1  11 42.6450 4.36308   3
  -2  -1  11 780.042 24.7242   3
  -2   1  11 770.887 24.5034   3
  -1  -1  11 564.837 19.6025   3
  -1  -1  11 523.483 15.2110   2
  -1   1  11 557.546 19.3953   3
   0  -1  11 94.6094 5.15241   2
   0   1  11 87.0755 4.80906   2
   1  -1  11 769.172 24.9451   2
   1   1  11 652.783 21.9105   2
  -3  -2  11 68.7012 4.92853   3
  -3   2  11 54.8574 4.66767   3
  -2  -2  11 1403.54 39.7751   3
  -2  -2  11 1299.96 34.2219   2
  -2  -2  11 1368.98 34.4888   2
  -2   2  11 1450.50 39.6744   3
  -1  -2  11 71.4976 5.08096   2
  -1  -2  11 77.6728 5.76951   3
  -1   2  11 77.5011 5.71214   3
   0  -2  11 496.088 18.1810   3
   0  -2  11 469.767 15.4828   2
   0   2  11 461.973 14.2470   2
   1   2  11 16.1595 3.37228   2
  -3  -3  11 122.023 5.12317   2
  -3  -3  11 129.307 6.99918   3
  -3   3  11 124.430 6.25787   3
  -2  -3  11 31.2462 2.51757   2
  -2  -3  11 37.1272 4.15982   3
  -2   3  11 34.5516 3.71872   3
  -1  -3  11 966.923 30.0228   3
  -1  -3  11 953.228 26.2408   2
   0  -3  11 1114.83 34.2179   3
   0  -3  11 1119.97 31.6174   2
   1   3  11 439.048 15.1303   2
  -3  -4  11 43.2108 4.58020   3
  -3  -4  11 37.8284 3.51797   2
  -3   4  11 43.1306 3.88701   3
  -2  -4  11 -1.5958 2.09198   3
  -2  -4  11 3.18133 1.57053   2
  -2   4  11 2.43393 2.03808   3
  -1  -4  11 20.9174 3.54777   3
   0  -4  11 9.63875 2.99613   2
   0  -4  11 7.26878 2.09439   3
   0   4  11 8.03843 1.49180   2
   1   4  11 211.234 9.22794   2
  -3  -5  11 23.1735 4.02158   3
  -3  -5  11 18.9123 3.45955   2
  -3   5  11 26.3650 3.44625   3
  -2  -5  11 1.93516 2.16072   3
  -2  -5  11 1.20115 1.76211   2
  -2   5  11 1.51328 2.02943   3
  -1  -5  11 148.774 8.58041   3
   0  -5  11 579.936 20.4840   3
   0  -5  11 537.458 18.1054   2
   1  -5  11 100.823 6.99213   3
   4  -5  11 147.727 11.1098   3
  -3  -6  11 279.717 11.4376   3
  -3  -6  11 268.263 10.3907   2
  -3   6  11 271.026 9.62035   3
  -2  -6  11 20.0902 3.09512   2
  -2  -6  11 21.8915 3.61563   3
  -2   6  11 17.1417 3.47215   3
  -1  -6  11 372.530 15.2003   3
   0  -6  11 1430.10 40.7786   3
   0  -6  11 1282.41 37.7715   2
   1  -6  11 136.621 8.31372   3
   2  -6  11 224.332 11.8371   3
   3  -6  11 14.1802 4.15018   3
   4  -6  11 2.99855 5.82128   3
   4   6  11 12.1057 4.67471   1
  -3  -7  11 112.675 6.49926   2
  -3  -7  11 115.954 6.94238   3
  -3   7  11 114.497 5.53486   3
  -2  -7  11 990.356 28.9140   2
  -2  -7  11 1032.36 31.5889   3
  -2   7  11 1020.10 30.3025   3
  -1  -7  11 688.273 23.6197   3
   0  -7  11 7.61353 2.35594   3
   1  -7  11 452.837 17.8897   3
   2  -7  11 -1.8728 2.94278   3
   3  -7  11 14.3969 3.99421   3
   3   7  11 14.6427 3.27117   1
   4  -7  11 27.9230 6.41650   3
   4   7  11 35.3705 5.35597   1
  -3  -8  11 191.090 8.90397   2
  -3  -8  11 197.889 9.46560   3
  -3   8  11 184.203 7.31385   3
  -2  -8  11 302.952 13.1637   3
  -2   8  11 304.236 12.2122   3
  -1  -8  11 72.4517 5.66657   3
   0  -8  11 225.478 11.3383   3
   1  -8  11 322.665 14.3749   3
   3  -8  11 92.3762 7.84997   3
   3   8  11 75.9724 6.35877   1
   4  -8  11 48.8135 9.83929   3
   4   8  11 34.5066 7.12045   1
  -3  -9  11 14.1448 3.21153   3
  -3  -9  11 6.47324 3.10250   2
  -3   9  11 7.70078 2.29713   3
  -2  -9  11 218.060 11.0604   3
  -2   9  11 225.186 9.99555   3
  -1  -9  11 24.5215 4.00421   3
   0  -9  11 78.0084 6.37904   3
   1  -9  11 150.005 9.12649   3
   2  -9  11 5.33035 3.89257   3
   3  -9  11 -1.8099 4.07045   3
   3   9  11 -2.3083 3.40378   1
   4  -9  11 5.72110 6.63317   3
   4   9  11 3.55995 5.09256   1
  -4 -10  11 15.6667 5.49264   2
  -3 -10  11 402.389 15.4750   3
  -3 -10  11 397.549 15.2107   2
  -2 -10  11 1282.26 38.9976   3
  -2  10  11 1285.16 36.9631   3
  -1 -10  11 307.038 13.8828   3
   0 -10  11 12.8925 3.02239   3
   1 -10  11 304.555 14.1977   3
   2 -10  11 395.781 16.8755   3
   3 -10  11 254.172 13.1586   3
   3  10  11 227.991 10.9397   1
   4  10  11 172.003 10.2328   1
  -4 -11  11 6.60054 5.06538   2
  -3 -11  11 793.212 25.9141   2
  -3 -11  11 806.904 25.9943   3
  -2 -11  11 10.2754 2.86699   3
  -1 -11  11 8.26712 2.60385   3
   0 -11  11 753.501 26.1271   3
   1 -11  11 31.4146 6.47562   3
   2 -11  11 1.70833 3.18403   3
   2  11  11 5.33567 2.66845   1
   3 -11  11 4.78366 4.60327   3
   3  11  11 6.50913 3.58211   1
  -4 -12  11 329.591 15.3332   2
  -3 -12  11 118.351 8.14491   3
  -3 -12  11 134.042 8.48965   2
  -2 -12  11 51.3531 5.79996   3
  -1 -12  11 72.0159 6.01194   3
   0 -12  11 214.192 11.8190   3
   1 -12  11 170.191 13.0449   3
   2 -12  11 -3.6235 3.44690   3
   2  12  11 1.05504 2.87948   1
   3 -12  11 38.6101 7.94273   3
   3  12  11 55.6187 5.93812   1
  -4 -13  11 6.37653 6.21148   2
  -3 -13  11 2.64785 3.66239   3
  -3 -13  11 10.4863 3.94714   2
   1 -13  11 5.75293 3.05156   3
   2 -13  11 70.8355 7.46941   3
   2  13  11 59.7111 5.80456   1
   3 -13  11 18.7581 5.55973   3
   3  13  11 2.81819 3.74906   1
  -4 -14  11 831.567 28.9866   2
  -3 -14  11 657.314 23.2485   2
  -3 -14  11 625.980 23.5161   3
  -2 -14  11 20.6127 3.97448   3
  -1 -14  11 431.104 18.1738   3
   0 -14  11 336.283 15.2743   3
   1 -14  11 243.216 12.6187   3
   2 -14  11 31.0222 6.32519   3
   2  14  11 26.6144 4.17651   1
   3 -14  11 97.2945 9.66879   3
   3  14  11 67.8577 7.00417   1
  -4 -15  11 14.3773 7.18838   2
   4  15 -11 18.2381 7.23764   1
  -3 -15  11 222.303 15.4882   2
  -3 -15  11 226.532 11.5514   3
  -2 -15  11 149.842 9.37484   3
  -1 -15  11 -2.9351 3.07931   3
   0 -15  11 399.327 17.2753   3
   1 -15  11 107.141 8.18707   3
   2 -15  11 23.7913 4.76902   3
   2  15  11 19.2501 3.41245   1
   3 -15  11 13.2489 5.82102   3
   3  15  11 11.2939 4.68907   1
  -4 -16  11 39.2846 7.53590   2
  -3 -16  11 218.262 11.4575   3
  -3 -16  11 219.370 12.2871   2
  -2 -16  11 144.784 9.26124   3
  -1 -16  11 59.0507 6.73484   3
   0 -16  11 5.80371 3.26589   3
   1 -16  11 150.861 10.0591   3
   2 -16  11 542.666 21.8032   3
   2  16  11 538.793 20.1121   1
   3 -16  11 30.5019 6.67376   3
   3  16  11 28.0469 5.26884   1
  -4 -17  11 164.745 13.2245   2
   4  17 -11 140.303 12.7571   1
  -3 -17  11 9.51470 4.63198   3
  -3 -17  11 4.24814 5.26419   2
   3  17 -11 16.8428 5.93167   1
  -2 -17  11 9.73987 3.92390   3
  -1 -17  11 89.9351 7.76596   3
   0 -17  11 204.470 11.9359   3
   1 -17  11 0.70292 3.87176   3
   2 -17  11 64.6816 8.60130   3
   2  17  11 78.0790 6.58358   1
   3 -17  11 121.019 12.4050   3
   3  17  11 107.321 8.52535   1
  -3 -18  11 84.0941 8.51193   3
  -3 -18  11 78.0359 9.76824   2
   3  18 -11 99.8285 9.58339   1
  -2 -18  11 676.430 25.2157   3
  -1 -18  11 496.937 20.5390   3
   0 -18  11 225.838 12.7585   3
   0  18 -11 227.021 10.0271   1
   1 -18  11 457.925 19.8576   3
   2 -18  11 269.609 14.7744   3
   2  18  11 263.449 12.6234   1
  -3 -19  11 16.2115 6.30613   2
  -3 -19  11 16.1523 5.69389   3
   3  19 -11 29.5177 6.72325   1
  -2 -19  11 407.153 18.1657   3
   2  19 -11 445.298 18.2955   1
  -1 -19  11 68.7395 7.65107   3
   1  19 -11 65.5702 6.72627   1
   0 -19  11 55.2844 7.35434   3
   1 -19  11 269.799 14.4528   3
   2 -19  11 192.375 12.1836   3
   2  19  11 165.257 9.82406   1
  -3 -20  11 90.8032 11.0511   2
  -3 -20  11 86.8836 9.73573   3
   3  20 -11 105.568 10.9100   1
  -2 -20  11 48.8062 7.83481   3
   2  20 -11 68.5149 8.14710   1
  -1 -20  11 310.397 15.2546   3
   1  20 -11 291.128 13.2641   1
   0 -20  11 37.8841 7.07176   3
   1 -20  11 64.2770 8.69943   3
   2 -20  11 12.5674 6.11615   3
   2  20  11 -0.7281 4.34815   1
  -3 -21  11 30.3878 6.69203   3
   3  21 -11 43.7561 8.20872   1
  -2 -21  11 181.841 12.1711   3
   2  21 -11 187.366 11.7243   1
  -1 -21  11 515.438 21.5355   3
   1  21 -11 516.215 18.9777   1
   0 -21  11 12.8319 5.28432   3
   1 -21  11 130.064 11.0049   3
   2 -21  11 144.674 12.3736   3
   2  21  11 115.751 9.38119   1
  -3 -22  11 150.955 12.7087   3
  -3 -22  11 153.907 13.6176   2
   3  22 -11 117.044 12.9830   1
  -2 -22  11 -1.1861 5.94214   3
   2  22 -11 -0.1962 6.59127   1
  -1 -22  11 276.306 14.7137   3
   0 -22  11 146.367 10.9267   3
   1 -22  11 -8.4256 5.82617   3
   2 -22  11 12.4937 7.45481   3
   2  22  11 -0.2713 7.69131   1
  -2 -23  11 29.4351 6.57614   3
   2  23 -11 14.3252 7.34211   1
  -1 -23  11 518.859 22.0166   3
   0 -23  11 1032.17 36.3871   3
   1 -23  11 30.2357 6.82055   3
  -2 -24  11 8.69641 6.97102   3
  -1 -24  11 71.2288 10.1620   3
   0 -24  11 203.839 13.4388   3
   1 -24  11 101.669 11.7467   3
  -1 -25  11 213.714 14.6914   3
   0 -25  11 286.297 16.0965   3
  -3   0  12 3860.89 98.4048   3
  -2   0  12 1111.10 33.7270   3
  -1   0  12 3.78348 2.29119   3
  -3  -1  12 170.978 8.23577   3
  -3   1  12 160.561 7.95365   3
  -2  -1  12 19.1875 3.82537   3
  -2   1  12 24.1281 3.76487   3
  -1  -1  12 150.836 8.93146   3
  -1   1  12 151.055 8.86743   3
   0  -1  12 145.419 8.61812   3
  -3  -2  12 236.703 10.3088   3
  -3   2  12 239.715 9.91857   3
  -2  -2  12 500.928 18.1519   3
  -2   2  12 477.200 17.7030   3
  -1  -2  12 105.508 7.14365   3
  -1   2  12 97.3831 6.75895   3
   0  -2  12 289.751 13.2196   3
  -3  -3  12 32.6084 4.79479   3
  -3   3  12 26.3360 4.31411   3
  -2  -3  12 685.822 18.5824   2
  -2  -3  12 701.246 23.6342   3
  -2   3  12 697.692 23.1004   3
  -1  -3  12 68.1344 5.88511   3
  -1   3  12 67.2161 5.63037   3
   0  -3  12 120.254 7.64157   3
  -3  -4  12 62.6177 5.83396   3
  -3   4  12 56.5146 5.01977   3
  -2  -4  12 159.704 8.99715   3
  -2   4  12 164.282 8.57401   3
  -1  -4  12 3.46594 2.11342   3
   0  -4  12 593.931 21.7789   3
  -3  -5  12 16.2950 3.49649   3
  -3   5  12 14.0005 2.96522   3
  -2  -5  12 16.1379 3.45491   3
  -2  -5  12 24.3327 3.15796   2
  -2   5  12 26.5261 4.18165   3
  -1  -5  12 1147.65 35.5935   3
   0  -5  12 87.6608 6.77548   3
   2  -5  12 6.12802 3.20121   3
   3  -5  12 156.620 10.6078   3
  -3  -6  12 90.9805 6.89801   3
  -3   6  12 92.0707 5.73951   3
  -2  -6  12 21.2643 3.58088   2
  -2  -6  12 20.8059 3.81690   3
  -2   6  12 24.9178 3.99996   3
  -1  -6  12 11.3911 2.73221   3
   0  -6  12 13.2434 2.98151   3
   1  -6  12 328.861 15.7956   3
   2  -6  12 849.347 29.1767   3
   3  -6  12 255.480 13.5970   3
  -3  -7  12 3.89689 3.43402   3
  -3   7  12 2.46108 2.78355   3
  -2  -7  12 3.74791 2.34700   2
  -2  -7  12 4.38212 2.80071   3
  -2   7  12 -1.4959 2.56040   3
  -1  -7  12 1063.06 33.8077   3
   0  -7  12 565.400 25.9666   3
   1  -7  12 4.01973 2.97186   3
   2  -7  12 21.2082 4.11732   3
   3  -7  12 154.286 10.9066   3
  -3  -8  12 485.655 17.5915   3
  -3   8  12 453.508 15.3869   3
  -2  -8  12 4.33661 2.90739   3
  -2  -8  12 3.81594 2.58903   2
  -2   8  12 5.59553 2.70917   3
  -1  -8  12 4.36352 2.69879   3
   1  -8  12 416.034 17.4715   3
   2  -8  12 88.8856 8.09141   3
   3  -8  12 310.154 15.5209   3
  -3  -9  12 73.6366 6.26747   2
  -3  -9  12 74.5452 6.83246   3
  -2  -9  12 544.571 26.1835   3
  -2   9  12 561.421 19.4324   3
   0  -9  12 674.126 24.5913   3
   1  -9  12 1075.89 34.9426   3
   2  -9  12 41.7231 6.79538   3
   3  -9  12 171.052 11.6529   3
  -3 -10  12 20.0712 4.13520   3
  -3 -10  12 11.8196 3.99832   2
  -2 -10  12 39.8024 6.34835   3
  -2  10  12 43.9886 4.89009   3
  -1 -10  12 0.74461 2.82805   3
   0 -10  12 40.0792 5.43930   3
   1 -10  12 93.9661 7.35347   3
   2 -10  12 45.2326 6.84633   3
   3 -10  12 9.33759 5.22705   3
  -3 -11  12 24.3396 5.43559   3
  -3 -11  12 23.3364 4.43518   2
  -2 -11  12 136.465 9.15952   3
  -2  11  12 128.432 7.83179   3
  -1 -11  12 28.4600 4.55998   3
   0 -11  12 229.978 11.9941   3
   1 -11  12 100.625 7.93457   3
   2 -11  12 127.615 9.67145   3
   3 -11  12 158.369 11.6948   3
  -3 -12  12 404.583 16.7340   3
  -3 -12  12 434.187 16.5657   2
  -2 -12  12 -1.2971 3.55538   3
  -2  12  12 -2.9769 2.95303   3
  -1 -12  12 7.16707 2.93138   3
   0 -12  12 192.921 10.9145   3
   1 -12  12 58.9623 6.97887   3
   2 -12  12 37.5608 7.11918   3
   3 -12  12 392.530 18.4979   3
  -3 -13  12 -3.7305 4.45041   3
  -3 -13  12 5.13956 4.68164   2
  -2 -13  12 41.3888 6.05075   3
  -1 -13  12 1489.53 45.5187   3
   0 -13  12 358.695 16.3472   3
   1 -13  12 29.8658 5.79346   3
   2 -13  12 42.9065 6.18438   3
   3 -13  12 98.1463 11.1291   3
  -3 -14  12 13.1646 4.92890   3
  -3 -14  12 22.6912 5.45357   2
  -2 -14  12 223.959 12.3575   3
  -1 -14  12 52.9980 6.15051   3
   0 -14  12 79.2952 7.41384   3
   1 -14  12 6.43804 4.07071   3
   2 -14  12 0.23527 5.07187   3
   3 -14  12 29.4369 6.86218   3
   3  14  12 27.3094 5.46837   1
   4  15 -12 158.799 13.6208   1
  -3 -15  12 65.5903 8.10770   3
  -3 -15  12 81.7260 8.47396   2
  -2 -15  12 13.7122 4.33315   3
  -1 -15  12 482.842 20.1531   3
   0 -15  12 111.008 8.39558   3
   2 -15  12 5.32141 5.30690   3
  -3 -16  12 53.7207 8.75309   2
  -3 -16  12 42.2907 8.13733   3
  -2 -16  12 543.637 21.4645   3
  -1 -16  12 545.559 22.0277   3
   0 -16  12 17.8961 3.92199   3
   2 -16  12 2.48309 5.57787   3
  -3 -17  12 41.5890 8.72387   3
  -3 -17  12 46.6190 9.54502   2
  -2 -17  12 452.164 19.2959   3
  -1 -17  12 16.3966 4.46707   3
   0 -17  12 177.180 11.3825   3
   1 -17  12 143.942 10.5582   3
   2 -17  12 227.701 14.4422   3
  -3 -18  12 121.300 10.4248   3
  -3 -18  12 119.903 11.3095   2
   3  18 -12 122.485 11.4618   1
  -2 -18  12 41.4208 7.89672   3
  -1 -18  12 -0.0542 4.66836   3
   0 -18  12 -0.1571 4.65313   3
   1 -18  12 242.325 13.9581   3
   2 -18  12 239.102 14.5119   3
  -3 -19  12 44.2540 7.52026   2
  -3 -19  12 51.2534 9.95698   3
   3  19 -12 51.8207 8.36945   1
  -2 -19  12 78.1492 9.14235   3
   2  19 -12 83.3145 9.35584   1
  -1 -19  12 11.7069 5.09594   3
   0 -19  12 -7.8517 5.09977   3
   1 -19  12 5.63898 5.97062   3
   2 -19  12 23.9274 6.84205   3
  -2 -20  12 -3.3406 5.75065   3
   2  20 -12 1.98046 6.87591   1
  -1 -20  12 72.2812 9.15810   3
   0 -20  12 13.5387 5.85531   3
   1 -20  12 223.816 14.5341   3
  -2 -21  12 -10.635 6.43683   3
   2  21 -12 3.11095 7.54521   1
  -1 -21  12 368.764 18.1971   3
   0 -21  12 -2.1050 5.96844   3
   1 -21  12 38.8448 6.76891   3
  -2 -22  12 173.577 13.3173   3
   2  22 -12 153.803 13.7847   1
  -1 -22  12 136.533 11.6098   3
   0 -22  12 142.439 12.5141   3
   1 -22  12 38.0511 7.57606   3
  -1 -23  12 116.666 11.8636   3
   0 -23  12 54.4433 7.87078   3
  -3   0  13 -5.9107 3.74930   3
  -2   0  13 3.00048 2.90501   3
  -1   0  13 0.34079 3.30412   3
   0   0  13 0.14926 2.81670   3
  -3  -1  13 16.5902 3.81689   3
  -3   1  13 15.5571 3.61139   3
  -2  -1  13 10.7775 3.01458   3
  -2   1  13 10.6785 3.12690   3
  -1  -1  13 9.24912 3.06663   3
   0  -1  13 550.089 20.8779   3
  -3  -2  13 424.134 15.9411   3
  -3   2  13 426.586 15.3926   3
  -2  -2  13 112.904 9.46781   3
  -2   2  13 117.102 7.64156   3
  -1  -2  13 25.0041 4.20291   3
  -1   2  13 18.4206 4.15598   3
   0  -2  13 366.644 15.8476   3
   1  -2  13 207.956 11.3653   3
  -3  -3  13 6.40362 3.87351   3
  -3   3  13 8.55871 3.54906   3
  -2   3  13 198.452 10.1469   3
  -1  -3  13 507.761 19.4909   3
  -1   3  13 476.412 20.4873   3
   0  -3  13 -1.6736 2.84417   3
   1  -3  13 14.1810 3.37411   3
  -3  -4  13 11.4927 3.92634   3
  -3   4  13 18.8841 3.73395   3
  -2  -4  13 19.1230 5.05284   3
  -2   4  13 22.2268 4.50746   3
  -1  -4  13 28.1226 4.56352   3
  -1   4  13 23.1818 4.61176   3
   0  -4  13 65.5528 6.39005   3
   1  -4  13 14.3614 3.49062   3
   2  -4  13 20.3901 4.57512   3
   3  -4  13 2.57084 5.55544   3
  -3  -5  13 355.753 14.3737   3
  -3   5  13 329.266 12.8104   3
  -2  -5  13 11.5141 3.30288   3
  -2   5  13 11.0841 2.99334   3
  -1  -5  13 871.447 29.0169   3
  -1   5  13 841.885 28.5293   3
   0  -5  13 62.2944 6.41861   3
   1  -5  13 12.2988 3.59903   3
   2  -5  13 7.46954 3.85265   3
   3  -5  13 170.846 11.5978   3
  -3  -6  13 24.2164 4.83633   3
  -2  -6  13 167.356 9.79798   3
  -2   6  13 165.383 9.28802   3
  -1  -6  13 29.2231 5.04147   3
   0  -6  13 238.943 12.1867   3
   1  -6  13 49.5312 6.14416   3
   2  -6  13 514.765 21.0846   3
   3  -6  13 2.28919 5.82897   3
  -2  -7  13 24.5095 5.09828   3
  -1  -7  13 30.5099 5.03526   3
   0  -7  13 1045.88 34.3407   3
   1  -7  13 193.922 11.3294   3
   2  -7  13 62.9736 7.89599   3
   3  -7  13 36.5886 6.60934   3
  -3  -8  13 78.4295 7.56325   3
  -1  -8  13 91.9641 7.53593   3
   0  -8  13 176.100 10.4684   3
   1  -8  13 908.644 31.4445   3
   2  -8  13 283.710 14.7894   3
   3  -8  13 115.511 11.2597   3
  -3  -9  13 42.1345 7.04633   3
  -2  -9  13 95.8755 7.65172   3
  -2  -9  13 78.7904 6.63994   2
  -1  -9  13 57.6226 6.16472   3
   0  -9  13 186.703 10.8397   3
   1  -9  13 82.7671 7.59234   3
   2  -9  13 181.936 11.7542   3
   3  -9  13 104.459 10.8473   3
  -3 -10  13 399.772 16.4227   3
  -2 -10  13 71.1841 6.44485   2
  -2 -10  13 81.8274 7.70013   3
  -2  10  13 75.2523 7.76793   3
  -1 -10  13 70.3016 7.20452   3
   0 -10  13 3.49729 3.57533   3
   1 -10  13 704.129 26.1523   3
   2 -10  13 68.3231 8.80049   3
  -3 -11  13 45.1185 7.64457   3
  -2 -11  13 1.91497 3.73269   2
  -2 -11  13 1.56514 4.11541   3
  -2  11  13 5.30930 3.46341   3
  -1 -11  13 97.0478 8.01233   3
   0 -11  13 186.316 10.8357   3
   1 -11  13 7.98269 4.36653   3
   2 -11  13 213.457 13.1813   3
  -3 -12  13 85.0719 8.66280   3
  -2 -12  13 361.329 16.3083   3
  -2  12  13 359.510 14.6662   3
  -1 -12  13 71.9329 7.25024   3
   0 -12  13 2.14477 3.68824   3
   1 -12  13 106.015 8.70098   3
   2 -12  13 620.483 24.6750   3
  -3 -13  13 -3.9062 5.42408   3
  -2 -13  13 7.14971 4.59890   3
  -2  13  13 3.05516 3.84291   3
  -1 -13  13 5.18726 4.06415   3
   0 -13  13 1.54329 4.19756   3
   1 -13  13 39.0979 7.19773   3
   2 -13  13 114.473 10.4689   3
  -3 -14  13 -3.4110 5.88392   3
  -2 -14  13 598.253 23.4571   3
  -2  14  13 607.711 21.0836   3
  -1 -14  13 189.773 11.7028   3
   0 -14  13 25.1919 4.56667   3
   1 -14  13 3.89668 5.04336   3
   2 -14  13 880.492 31.7284   3
  -3 -15  13 251.205 14.0402   3
  -2 -15  13 7.60669 5.24687   3
  -2  15  13 2.50400 4.31744   3
  -1 -15  13 242.159 13.6510   3
   0 -15  13 6.73881 4.59968   3
   1 -15  13 43.1154 8.35466   3
   2 -15  13 48.6609 9.79098   3
  -3 -16  13 42.7678 7.16072   3
  -2 -16  13 56.8687 8.73565   3
  -2  16  13 38.7157 7.06751   3
  -1 -16  13 246.519 14.2288   3
   0 -16  13 8.03726 4.92333   3
   1 -16  13 506.874 21.9813   3
   2 -16  13 257.160 16.1283   3
  -2 -17  13 8.19910 5.84977   3
  -1 -17  13 41.6812 8.45102   3
   0 -17  13 101.293 9.96210   3
   1 -17  13 82.1906 9.87650   3
  -2 -18  13 123.968 10.6834   3
  -1 -18  13 52.7675 9.26346   3
   0 -18  13 -5.0041 6.17129   3
   1 -18  13 360.892 18.4513   3
  -2 -19  13 12.6255 6.78003   3
   2  19 -13 5.52962 8.06054   1
  -1 -19  13 62.3152 9.98552   3
   0 -19  13 936.120 33.8026   3
   1 -19  13 142.978 12.3198   3
  -1 -20  13 6.72119 6.95876   3
   0 -20  13 53.5313 10.6562   3
  -1 -21  13 35.8817 8.29535   3
  -2   0  14 5.69387 3.67759   3
  -1   0  14 1729.19 50.8180   3
   0   0  14 42.3026 5.56231   3
  -3   1  14 84.9968 8.79162   3
  -2  -1  14 154.388 9.39911   3
  -2   1  14 147.182 9.24655   3
  -1  -1  14 8.95170 3.08365   3
   0  -1  14 180.059 10.5447   3
   0   1  14 185.313 10.9492   3
   1  -1  14 229.970 12.4594   3
  -3  -2  14 -2.6182 4.68231   3
  -2  -2  14 140.207 9.20629   3
  -2   2  14 147.480 9.08584   3
  -1  -2  14 72.4590 6.90168   3
  -1   2  14 66.0631 6.61908   3
   0  -2  14 3.03295 3.31966   3
   0   2  14 7.08196 3.44101   3
   1  -2  14 46.6560 6.29551   3
   2  -2  14 165.723 11.4607   3
  -3  -3  14 34.4028 5.43429   3
  -2  -3  14 305.034 14.2700   3
  -2   3  14 317.226 13.9772   3
  -1  -3  14 18.4693 3.73968   3
  -1   3  14 16.9975 3.61834   3
   0  -3  14 350.053 16.0794   3
   1  -3  14 55.4916 6.78205   3
   2  -3  14 36.3218 7.53882   3
  -3  -4  14 14.9874 5.09018   3
  -2  -4  14 194.225 11.0629   3
  -2   4  14 200.268 10.7583   3
  -1  -4  14 131.972 9.02044   3
  -1   4  14 128.567 8.64282   3
   0  -4  14 181.642 10.8685   3
   1  -4  14 10.3328 3.90311   3
   2  -4  14 419.632 19.0257   3
  -3  -5  14 272.020 13.1246   3
  -2  -5  14 31.0552 5.96996   3
  -2   5  14 24.5491 4.21964   3
  -1  -5  14 6.83319 3.64361   3
  -1   5  14 10.2109 3.39864   3
   0  -5  14 77.5595 6.98249   3
   1  -5  14 385.031 17.4716   3
   2  -5  14 14.0930 5.16802   3
  -3  -6  14 21.7896 5.33787   3
  -2  -6  14 42.3339 6.27935   3
  -2   6  14 45.9439 6.21610   3
  -1  -6  14 119.221 8.68791   3
  -1   6  14 111.132 8.36495   3
   0  -6  14 21.1814 4.37961   3
   1  -6  14 303.707 15.0191   3
   2  -6  14 142.945 11.1809   3
  -3  -7  14 87.4313 8.96583   3
  -2  -7  14 7.82637 4.24713   3
  -2   7  14 4.61928 3.73724   3
  -1  -7  14 7.47924 3.73896   3
  -1   7  14 -1.6763 3.60809   3
   0  -7  14 13.7189 3.82110   3
   1  -7  14 862.290 30.5105   3
   2  -7  14 164.244 12.2087   3
  -3  -8  14 64.3754 8.59318   3
  -2  -8  14 66.9825 7.69921   3
  -2   8  14 69.5176 6.81922   3
  -1  -8  14 140.885 9.57422   3
   0  -8  14 156.970 10.1651   3
   1  -8  14 21.5005 4.72398   3
   2  -8  14 11.9478 5.76323   3
  -3  -9  14 16.6328 5.78853   3
  -2  -9  14 154.801 10.5074   3
  -2   9  14 157.643 9.60166   3
  -1  -9  14 38.6787 6.56401   3
   0  -9  14 1301.98 41.8787   3
   1  -9  14 -0.1367 4.44055   3
   2  -9  14 38.2151 6.40006   3
  -3 -10  14 28.2289 6.13601   3
  -2 -10  14 27.8787 5.59012   3
  -2  10  14 33.9930 6.54530   3
  -1 -10  14 31.9662 5.29552   3
   0 -10  14 58.1427 7.02550   3
   1 -10  14 54.2593 8.22721   3
  -3 -11  14 169.279 11.7600   3
  -2 -11  14 76.4784 8.42002   3
  -2  11  14 62.4163 7.59095   3
  -1 -11  14 6.56958 4.23502   3
   0 -11  14 178.071 11.3887   3
   1 -11  14 92.4958 9.39726   3
   2 -11  14 32.5153 7.22008   3
  -3 -12  14 -2.5217 6.63653   3
  -2 -12  14 166.346 11.0150   3
  -2  12  14 161.253 9.85193   3
  -1 -12  14 331.184 16.1469   3
   0 -12  14 16.6352 4.44577   3
   1 -12  14 70.2719 8.71809   3
  -3 -13  14 318.070 16.1164   3
  -2 -13  14 83.6295 9.41084   3
  -2  13  14 67.4143 7.96712   3
  -1 -13  14 264.989 14.1414   3
   0 -13  14 -0.6890 5.16266   3
   1 -13  14 253.103 15.0293   3
  -2 -14  14 56.8779 9.65944   3
  -2  14  14 38.1577 5.54888   3
  -1 -14  14 14.3354 5.35165   3
   0 -14  14 42.7426 8.36789   3
   1 -14  14 -6.4139 5.72078   3
  -2  15  14 8.90109 5.44285   3
  -1 -15  14 155.845 12.2521   3
   0 -15  14 70.5123 9.21706   3
   1 -15  14 62.7814 10.7369   3
  -2 -16  14 927.199 32.6734   3
  -1 -16  14 8.01731 6.20714   3
   0 -16  14 64.4486 9.91770   3
  -1 -17  14 113.216 11.0619   3
   0 -17  14 475.561 21.7270   3
  -1 -18  14 296.616 16.8952   3
  -2   0  15 12.1558 4.67932   3
  -1   0  15 -0.5419 4.07901   3
   0   0  15 -1.5255 4.07324   3
   1   0  15 5.24227 4.89325   3
   2   0  15 3.26169 5.64455   3
  -2  -1  15 511.651 20.4866   3
  -2   1  15 543.958 20.6233   3
  -1  -1  15 73.8469 7.72318   3
  -1   1  15 92.7640 7.81728   3
   0  -1  15 41.4531 6.89640   3
   0   1  15 33.3692 6.57722   3
   1  -1  15 81.2178 8.35853   3
   1   1  15 80.4774 8.52449   3
   2  -1  15 47.4041 9.11283   3
  -2  -2  15 180.950 11.2793   3
  -2   2  15 200.481 11.3507   3
  -1  -2  15 384.480 17.2845   3
  -1   2  15 379.357 16.9063   3
   0  -2  15 19.9782 4.32918   3
   0   2  15 19.4077 4.11550   3
   1  -2  15 38.5981 7.18048   3
  -2  -3  15 0.18252 4.83257   3
  -2   3  15 6.93533 4.80521   3
  -1  -3  15 84.4178 7.88933   3
  -1   3  15 64.9303 7.85247   3
   0  -3  15 302.842 14.9093   3
   0   3  15 280.523 14.6374   3
   1  -3  15 250.621 14.0406   3
  -2  -4  15 13.7293 4.92844   3
  -2   4  15 13.2050 4.71711   3
  -1  -4  15 51.0276 7.51472   3
  -1   4  15 48.4945 6.39357   3
   0  -4  15 109.537 8.85821   3
   0   4  15 97.0034 8.79206   3
   1  -4  15 37.6140 5.38260   3
  -2  -5  15 5.31068 4.82632   3
  -2   5  15 4.59838 4.65104   3
  -1  -5  15 101.088 8.62188   3
  -1   5  15 84.0766 8.42266   3
   0  -5  15 130.016 9.90143   3
   1  -5  15 152.807 11.3435   3
  -2  -6  15 122.224 9.59865   3
  -2   6  15 108.716 8.88985   3
  -1  -6  15 101.425 8.92630   3
  -1   6  15 92.2149 8.34765   3
   0  -6  15 263.039 14.1082   3
   1  -6  15 141.836 10.8526   3
  -2  -7  15 256.787 13.6622   3
  -2   7  15 220.239 12.2757   3
  -1  -7  15 257.913 14.0584   3
  -1   7  15 238.015 13.0938   3
   0  -7  15 13.9565 4.76472   3
   1  -7  15 8.53661 5.34502   3
  -2  -8  15 403.527 18.0187   3
  -2   8  15 412.588 17.1941   3
  -1  -8  15 314.823 15.7917   3
  -1   8  15 330.685 15.5054   3
   0  -8  15 15.4302 5.53129   3
   1  -8  15 43.7499 8.74946   3
  -2  -9  15 109.664 10.2398   3
  -2   9  15 111.506 9.13964   3
  -1  -9  15 8.29265 5.23868   3
  -1   9  15 2.42761 4.81994   3
   0  -9  15 376.037 17.7024   3
   1  -9  15 427.878 20.1864   3
  -2 -10  15 123.714 11.3269   3
  -2  10  15 126.503 9.67581   3
  -1 -10  15 491.120 20.9100   3
  -1  10  15 485.533 20.1620   3
   0 -10  15 20.9775 5.19350   3
   1 -10  15 62.3283 10.0880   3
  -2 -11  15 126.082 11.3053   3
  -2  11  15 118.066 9.78631   3
  -1 -11  15 789.365 29.3557   3
   0 -11  15 104.867 9.94884   3
   1 -11  15 34.5814 6.90369   3
  -2 -12  15 10.6500 6.77767   3
  -2  12  15 2.85233 5.91244   3
  -1 -12  15 1.61201 6.02359   3
   0 -12  15 30.9539 6.41754   3
  -1 -13  15 31.6183 6.56795   3
   0 -13  15 3.29103 6.13176   3
  -1 -14  15 -3.5431 6.80831   3
  -2   0  16 709.870 25.9542   3
  -1   0  16 149.520 11.3036   3
   0   0  16 -2.6752 5.56660   3
  -2  -1  16 20.5170 6.04381   3
  -2   1  16 24.9919 6.12224   3
  -1  -1  16 10.2473 5.55515   3
  -1   1  16 -1.7861 5.17611   3
   0  -1  16 52.1595 8.76101   3
   0   1  16 39.4268 5.71400   3
  -2  -2  16 3.78747 5.98145   3
  -2   2  16 24.4724 5.96837   3
  -1  -2  16 88.8921 9.84282   3
  -1   2  16 80.1339 9.27470   3
   0  -2  16 16.9365 5.82432   3
   0   2  16 15.7392 5.41499   3
  -2  -3  16 16.8463 6.16755   3
  -2   3  16 22.4442 6.21672   3
  -1  -3  16 45.3211 6.89075   3
  -1   3  16 54.4647 8.66516   3
   0  -3  16 -5.9297 5.78600   3
   0   3  16 1.86776 5.10709   3
  -2  -4  16 93.0274 10.1350   3
  -2   4  16 100.484 10.3518   3
  -1  -4  16 164.792 12.1674   3
  -1   4  16 178.851 11.9585   3
   0  -4  16 350.318 17.9853   3
   0   4  16 365.982 17.4442   3
  -1  -5  16 47.7048 8.89306   3
  -1   5  16 52.3550 8.77268   3
   0  -5  16 32.7330 6.41193   3
   0   5  16 35.4170 5.69357   3
  -1  -6  16 16.9763 6.08394   3
  -1   6  16 21.5207 5.67581   3
   0  -6  16 131.907 11.0697   3
   0   6  16 104.332 10.5089   3
  -1  -7  16 11.8197 6.04856   3
  -1   7  16 7.74849 5.93214   3
   0  -7  16 234.237 15.7279   3
   0   7  16 232.782 14.1207   3
  -1  -8  16 70.0567 10.4196   3
  -1   8  16 92.7544 10.3129   3
   0   0   0    0.00    0.00   0

 _exptl_absorpt_process_details 'SADABS 2014/5'
 _exptl_absorpt_correction_type   multi-scan
 _exptl_absorpt_correction_T_max  0.7471
 _exptl_absorpt_correction_T_min  0.6454
 _exptl_special_details
)
 The following wavelength and cell were deduced by SADABS from the
 direction cosines etc. They are given here for emergency use only:
 CELL 0.71087    3.977   20.645    9.884   89.996   96.602   89.988
)

;
_shelx_hkl_checksum              73675
loop_
_space_group_symop_operation_xyz
'x, y, z'
'-x, y+1/2, -z+1/2'
'-x, -y, -z'
'x, -y-1/2, z-1/2'
loop_
_atom_site_label
_atom_site_type_symbol
_atom_site_fract_x
_atom_site_fract_y
_atom_site_fract_z
_atom_site_U_iso_or_equiv
_atom_site_adp_type
_atom_site_occupancy
_atom_site_site_symmetry_order
_atom_site_calc_flag
_atom_site_refinement_flags_posn
_atom_site_refinement_flags_adp
_atom_site_refinement_flags_occupancy
_atom_site_disorder_assembly
_atom_site_disorder_group
C1 C 0.9499(2) 0.01146(5) 0.63559(10) 0.00852(15) Uani 1 1 d . . . . .
C2 C 0.8408(2) 0.05776(4) 0.53680(10) 0.00840(15) Uani 1 1 d . . . . .
C3 C 0.8869(2) 0.04560(5) 0.40000(10) 0.00855(15) Uani 1 1 d . . . . .
C4 C 0.7579(3) 0.09178(5) 0.29105(11) 0.01143(17) Uani 1 1 d . . . . .
H4 H 0.8741 0.0949 0.2126 0.014 Uiso 1 1 calc R U . . .
C5 C 0.9995(3) 0.10394(5) 0.83364(10) 0.00959(16) Uani 1 1 d . . . . .
C6 C 0.8955(3) 0.15063(5) 0.73617(10) 0.00956(16) Uani 1 1 d . . . . .
C7 C 0.9820(3) 0.21540(5) 0.76094(11) 0.01233(17) Uani 1 1 d . . . . .
H7 H 0.9169 0.2473 0.6939 0.015 Uiso 1 1 calc R U . . .
C8 C 1.1634(3) 0.23321(5) 0.88372(12) 0.01427(18) Uani 1 1 d . . . . .
H8 H 1.2145 0.2775 0.9019 0.017 Uiso 1 1 calc R U . . .
C9 C 1.2704(3) 0.18618(5) 0.98027(12) 0.01379(18) Uani 1 1 d . . . . .
H9 H 1.3957 0.1985 1.0639 0.017 Uiso 1 1 calc R U . . .
C10 C 1.1941(3) 0.12131(5) 0.95434(11) 0.01179(17) Uani 1 1 d . . . . .
H10 H 1.2742 0.0890 1.0185 0.014 Uiso 1 1 calc R U . . .
O1 O 0.5112(2) 0.12567(4) 0.29765(9) 0.01529(15) Uani 1 1 d . . . . .
S1 S 0.87101(7) 0.02287(2) 0.80659(3) 0.01073(6) Uani 1 1 d . . . . .
S2 S 0.64714(6) 0.13042(2) 0.58269(3) 0.01042(6) Uani 1 1 d . . . . .
loop_
_atom_site_aniso_label
_atom_site_aniso_U_11
_atom_site_aniso_U_22
_atom_site_aniso_U_33
_atom_site_aniso_U_23
_atom_site_aniso_U_13
_atom_site_aniso_U_12
C1 0.0100(4) 0.0092(3) 0.0063(4) 0.0000(3) 0.0005(3) -0.0007(3)
C2 0.0090(3) 0.0082(3) 0.0079(4) -0.0003(3) 0.0003(3) 0.0002(3)
C3 0.0102(4) 0.0083(3) 0.0070(4) -0.0001(3) 0.0003(3) -0.0002(3)
C4 0.0150(4) 0.0105(4) 0.0083(4) 0.0010(3) -0.0004(3) 0.0004(3)
C5 0.0115(4) 0.0092(4) 0.0083(4) -0.0010(3) 0.0021(3) -0.0004(3)
C6 0.0111(4) 0.0094(4) 0.0082(4) -0.0010(3) 0.0013(3) 0.0000(3)
C7 0.0159(4) 0.0093(4) 0.0118(4) -0.0006(3) 0.0015(3) -0.0011(3)
C8 0.0172(4) 0.0114(4) 0.0140(5) -0.0030(3) 0.0011(4) -0.0030(3)
C9 0.0154(4) 0.0146(4) 0.0110(4) -0.0027(3) 0.0001(4) -0.0021(3)
C10 0.0141(4) 0.0128(4) 0.0082(4) -0.0009(3) 0.0003(3) -0.0006(3)
O1 0.0174(4) 0.0144(3) 0.0133(4) 0.0006(3) -0.0014(3) 0.0045(3)
S1 0.01597(12) 0.00905(10) 0.00759(11) -0.00015(7) 0.00315(8) -0.00184(8)
S2 0.01185(11) 0.00977(10) 0.00910(11) -0.00162(7) -0.00116(8) 0.00262(7)
loop_
_atom_type_symbol
_atom_type_description
_atom_type_scat_dispersion_real
_atom_type_scat_dispersion_imag
_atom_type_scat_source
C C 0.0033 0.0016 'International Tables Vol C Tables 4.2.6.8 and 6.1.1.4'
H H 0.0000 0.0000 'International Tables Vol C Tables 4.2.6.8 and 6.1.1.4'
O O 0.0106 0.0060 'International Tables Vol C Tables 4.2.6.8 and 6.1.1.4'
S S 0.1246 0.1234 'International Tables Vol C Tables 4.2.6.8 and 6.1.1.4'
loop_
_geom_angle_atom_site_label_1
_geom_angle_atom_site_label_2
_geom_angle_atom_site_label_3
_geom_angle
_geom_angle_site_symmetry_1
_geom_angle_site_symmetry_3
C2 C1 C3 120.76(9) . 3_756
C2 C1 S1 120.08(7) . .
C3 C1 S1 119.13(7) 3_756 .
C1 C2 C3 118.99(9) . .
C1 C2 S2 120.61(8) . .
C3 C2 S2 120.40(7) . .
C2 C3 C1 120.22(9) . 3_756
C2 C3 C4 120.67(9) . .
C1 C3 C4 119.09(9) 3_756 .
O1 C4 C3 123.07(10) . .
O1 C4 H4 118.5 . .
C3 C4 H4 118.5 . .
C6 C5 C10 120.44(9) . .
C6 C5 S1 119.67(8) . .
C10 C5 S1 119.85(8) . .
C5 C6 C7 119.64(9) . .
C5 C6 S2 121.64(8) . .
C7 C6 S2 118.70(8) . .
C8 C7 C6 120.00(10) . .
C8 C7 H7 120.0 . .
C6 C7 H7 120.0 . .
C7 C8 C9 120.11(10) . .
C7 C8 H8 119.9 . .
C9 C8 H8 119.9 . .
C10 C9 C8 120.11(10) . .
C10 C9 H9 119.9 . .
C8 C9 H9 119.9 . .
C9 C10 C5 119.60(10) . .
C9 C10 H10 120.2 . .
C5 C10 H10 120.2 . .
C5 S1 C1 101.04(5) . .
C6 S2 C2 101.79(5) . .
loop_
_geom_bond_atom_site_label_1
_geom_bond_atom_site_label_2
_geom_bond_distance
_geom_bond_site_symmetry_2
C1 C2 1.4005(14) .
C1 C3 1.4094(14) 3_756
C1 S1 1.7715(10) .
C2 C3 1.4093(14) .
C2 S2 1.7698(10) .
C3 C1 1.4094(14) 3_756
C3 C4 1.4862(14) .
C4 O1 1.2130(13) .
C4 H4 0.9500 .
C5 C6 1.3929(14) .
C5 C10 1.3937(15) .
C5 S1 1.7623(10) .
C6 C7 1.3962(14) .
C6 S2 1.7643(10) .
C7 C8 1.3895(16) .
C7 H7 0.9500 .
C8 C9 1.3945(16) .
C8 H8 0.9500 .
C9 C10 1.3914(15) .
C9 H9 0.9500 .
C10 H10 0.9500 .
loop_
_geom_torsion_atom_site_label_1
_geom_torsion_atom_site_label_2
_geom_torsion_atom_site_label_3
_geom_torsion_atom_site_label_4
_geom_torsion
_geom_torsion_site_symmetry_1
_geom_torsion_site_symmetry_2
_geom_torsion_site_symmetry_3
_geom_torsion_site_symmetry_4
C3 C1 C2 C3 1.97(16) 3_756 . . .
S1 C1 C2 C3 -175.91(7) . . . .
C3 C1 C2 S2 -178.14(7) 3_756 . . .
S1 C1 C2 S2 3.98(12) . . . .
C1 C2 C3 C1 -1.96(16) . . . 3_756
S2 C2 C3 C1 178.15(7) . . . 3_756
C1 C2 C3 C4 176.63(9) . . . .
S2 C2 C3 C4 -3.26(13) . . . .
C2 C3 C4 O1 -29.39(15) . . . .
C1 C3 C4 O1 149.21(10) 3_756 . . .
C10 C5 C6 C7 -1.20(16) . . . .
S1 C5 C6 C7 176.54(8) . . . .
C10 C5 C6 S2 -179.66(8) . . . .
S1 C5 C6 S2 -1.92(13) . . . .
C5 C6 C7 C8 -1.63(16) . . . .
S2 C6 C7 C8 176.87(9) . . . .
C6 C7 C8 C9 2.44(17) . . . .
C7 C8 C9 C10 -0.42(18) . . . .
C8 C9 C10 C5 -2.39(17) . . . .
C6 C5 C10 C9 3.21(16) . . . .
S1 C5 C10 C9 -174.53(9) . . . .
C6 C5 S1 C1 45.93(9) . . . .
C10 C5 S1 C1 -136.32(9) . . . .
C2 C1 S1 C5 -47.14(9) . . . .
C3 C1 S1 C5 134.95(8) 3_756 . . .
C5 C6 S2 C2 -41.91(10) . . . .
C7 C6 S2 C2 139.62(9) . . . .
C1 C2 S2 C6 40.41(9) . . . .
C3 C2 S2 C6 -139.70(8) . . . .
