#------------------------------------------------------------------------------
#$Date: 2015-08-31 11:59:54 +0300 (Mon, 31 Aug 2015) $
#$Revision: 153828 $
#$URL: svn://www.crystallography.net/cod/cif/7/11/77/7117713.cif $
#------------------------------------------------------------------------------
#
# This file is available in the Crystallography Open Database (COD),
# http://www.crystallography.net/
#
# All data on this site have been placed in the public domain by the
# contributors.
#
data_7117713
loop_
_publ_author_name
'Isai Ramakrishna'
'Gowri Sankar Grandhi'
'Harekrishna Sahoo'
'Mahiuddin Baidya'
_publ_section_title
;
 The Mukaiyama aldol reaction of in situ generated nitrosocarbonyl
 compounds: selective C-N bond formation and N-O bond cleavage in one-pot
 for alpha-amination of ketones
;
_journal_name_full               Chem.Commun.
_journal_page_first              13976
_journal_paper_doi               10.1039/C5cc05459A
_journal_volume                  51
_journal_year                    2015
_chemical_formula_sum            'C17 H17 N O3'
_chemical_formula_weight         283.31
_chemical_name_systematic
;
 ?
;
_space_group_crystal_system      triclinic
_space_group_IT_number           2
_space_group_name_Hall           '-P 1'
_space_group_name_H-M_alt        'P -1'
_symmetry_space_group_name_Hall  '-P 1'
_symmetry_space_group_name_H-M   'P -1'
_atom_sites_solution_hydrogens   mixed
_audit_creation_method           SHELXL-2012
_audit_update_record
;
2015-06-22 deposited with the CCDC.
2015-07-28 downloaded from the CCDC.
;
_cell_angle_alpha                100.410(4)
_cell_angle_beta                 96.485(4)
_cell_angle_gamma                93.141(4)
_cell_formula_units_Z            2
_cell_length_a                   6.0589(4)
_cell_length_b                   8.0710(5)
_cell_length_c                   15.6647(10)
_cell_measurement_reflns_used    2516
_cell_measurement_temperature    296(2)
_cell_measurement_theta_max      27.5
_cell_measurement_theta_min      1.34
_cell_volume                     746.38(8)
_computing_cell_refinement       'APEXII/SAINT (Bruker, 2012)'
_computing_data_collection       'APEXII (Bruker, 2012)'
_computing_data_reduction        'SAINT/XPREP (Bruker, 2012)'
_computing_molecular_graphics    'ORTEP3 (Farrugia, 1997) '
_computing_publication_material  'SHELXL-97 (Sheldrick, 2013)'
_computing_structure_refinement  'SHELXL-97 (Sheldrick, 2013)'
_computing_structure_solution    'SHELXS-97 (Sheldrick, 2013)'
_diffrn_ambient_temperature      296(2)
_diffrn_measured_fraction_theta_full 0.927
_diffrn_measured_fraction_theta_max 0.956
_diffrn_measurement_device_type  'Bruker kappa apex2 CCD Diffractometer'
_diffrn_measurement_method       '\w and \f scan'
_diffrn_radiation_type           MoK\a
_diffrn_radiation_wavelength     0.71073
_diffrn_reflns_av_R_equivalents  0.1788
_diffrn_reflns_av_unetI/netI     0.1043
_diffrn_reflns_laue_measured_fraction_full 0.927
_diffrn_reflns_laue_measured_fraction_max 0.956
_diffrn_reflns_limit_h_max       7
_diffrn_reflns_limit_h_min       -7
_diffrn_reflns_limit_k_max       9
_diffrn_reflns_limit_k_min       -9
_diffrn_reflns_limit_l_max       18
_diffrn_reflns_limit_l_min       -17
_diffrn_reflns_number            9021
_diffrn_reflns_point_group_measured_fraction_full 0.927
_diffrn_reflns_point_group_measured_fraction_max 0.956
_diffrn_reflns_theta_full        25.242
_diffrn_reflns_theta_max         24.997
_diffrn_reflns_theta_min         1.332
_exptl_absorpt_coefficient_mu    0.087
_exptl_absorpt_correction_T_max  0.9710
_exptl_absorpt_correction_T_min  0.9216
_exptl_absorpt_correction_type   multi-scan
_exptl_absorpt_process_details   'SADABS (Bruker, 2012)'
_exptl_crystal_colour            colourless
_exptl_crystal_density_diffrn    1.261
_exptl_crystal_description       block
_exptl_crystal_F_000             300
_exptl_crystal_size_max          0.300
_exptl_crystal_size_mid          0.250
_exptl_crystal_size_min          0.100
_refine_diff_density_max         0.260
_refine_diff_density_min         -0.326
_refine_diff_density_rms         0.064
_refine_ls_extinction_coef       0.049(10)
_refine_ls_extinction_expression Fc^*^=kFc[1+0.001xFc^2^\l^3^/sin(2\q)]^-1/4^
_refine_ls_extinction_method     SHELXL
_refine_ls_goodness_of_fit_ref   1.096
_refine_ls_hydrogen_treatment    mixed
_refine_ls_matrix_type           full
_refine_ls_number_parameters     196
_refine_ls_number_reflns         2516
_refine_ls_number_restraints     0
_refine_ls_restrained_S_all      1.096
_refine_ls_R_factor_all          0.0792
_refine_ls_R_factor_gt           0.0663
_refine_ls_shift/su_max          0.000
_refine_ls_shift/su_mean         0.000
_refine_ls_structure_factor_coef Fsqd
_refine_ls_weighting_details
;
 w=1/[\s^2^(Fo^2^)+(0.0671P)^2^+0.3494P]
 where P=(Fo^2^+2Fc^2^)/3
;
_refine_ls_weighting_scheme      calc
_refine_ls_wR_factor_gt          0.1884
_refine_ls_wR_factor_ref         0.1986
_reflns_Friedel_coverage         0.000
_reflns_friedel_fraction_full    .
_reflns_friedel_fraction_max     .
_reflns_number_gt                2008
_reflns_number_total             2516
_reflns_threshold_expression     'I > 2\s(I)'
_cod_data_source_file            c5cc05459a2.cif
_cod_data_source_block           ram114
_cod_database_code               7117713
_shelx_space_group_comment
;
The symmetry employed for this shelxl refinement is uniquely defined
by the following loop, which should always be used as a source of
symmetry information in preference to the above space-group names.
They are only intended as comments.
;
_shelx_estimated_absorpt_t_min   0.974
_shelx_estimated_absorpt_t_max   0.991
_shelxl_version_number           2012-9
_shelx_res_file
;
TITL 114 in P-1
CELL  0.71073   6.0589   8.0710  15.6647  100.410   96.485   93.141
ZERR     2.00   0.0004   0.0005   0.0010    0.004    0.004    0.004
LATT   1
SFAC  C    H    N    O
UNIT  34   34   2    6
MERG   2
OMIT    -3.00  50.00
EQIV $1 -x+1, -y+1, -z+1
HTAB C17 O3_$1
EQIV $2 x+1, y, z
HTAB C17 O2_$2
HTAB N1 O1_$1
FMAP   2
PLAN    5
SIZE     0.10   0.25   0.30
ACTA
HTAB    2.00000
BOND   $H
CONF
L.S.   8
TEMP    23.00
WGHT    0.067100    0.349400
EXTI    0.048687
FVAR       0.50530
MOLE    1
C1    1    0.618459    0.802549    0.817156    11.00000    0.06077    0.05406 =
         0.03605    0.00939    0.00289   -0.00589
AFIX  43
H1    2    0.714597    0.866894    0.791543    11.00000   -1.20000
AFIX   0
C2    1    0.619003    0.834532    0.907020    11.00000    0.07823    0.06794 =
         0.03316    0.00187   -0.00424   -0.01140
AFIX  43
H2    2    0.715649    0.920482    0.941538    11.00000   -1.20000
AFIX   0
C3    1    0.479407    0.741302    0.945179    11.00000    0.09162    0.07889 =
         0.03208    0.00801    0.00988   -0.00378
AFIX  43
H3    2    0.482002    0.762678    1.005660    11.00000   -1.20000
AFIX   0
C4    1    0.334714    0.615724    0.894562    11.00000    0.07556    0.08063 =
         0.04214    0.01583    0.01768   -0.00846
AFIX  43
H4    2    0.237366    0.553514    0.920750    11.00000   -1.20000
AFIX   0
C5    1    0.332915    0.581228    0.804874    11.00000    0.04970    0.05496 =
         0.04341    0.00477    0.00931   -0.00566
AFIX  43
H5    2    0.235875    0.494768    0.771005    11.00000   -1.20000
AFIX   0
C6    1    0.474520    0.674494    0.765211    11.00000    0.03839    0.04210 =
         0.02997    0.00581    0.00228    0.00678
C7    1    0.470553    0.631776    0.667464    11.00000    0.02863    0.04082 =
         0.03401    0.00157    0.00287    0.00929
C8    1    0.629015    0.731364    0.623988    11.00000    0.03608    0.04313 =
         0.03070    0.00595    0.00330    0.00599
AFIX  13
H8    2    0.643731    0.849461    0.654397    11.00000   -1.20000
AFIX   0
C9    1    0.369740    0.806761    0.512223    11.00000    0.03982    0.03650 =
         0.03122    0.00828    0.00693    0.00550
C10   1    0.108449    0.849474    0.396723    11.00000    0.04353    0.05302 =
         0.03771    0.01388    0.00738    0.01458
AFIX  23
H10A  2    0.120320    0.968853    0.422368    11.00000   -1.20000
H10B  2   -0.021042    0.796308    0.415070    11.00000   -1.20000
AFIX   0
C11   1    0.084468    0.826162    0.298314    11.00000    0.04240    0.03898 =
         0.03439    0.00771    0.00192    0.00246
C12   1   -0.092665    0.894764    0.256577    11.00000    0.04600    0.06025 =
         0.04298    0.00385   -0.00258    0.01319
AFIX  43
H12   2   -0.191844    0.953889    0.289347    11.00000   -1.20000
AFIX   0
C13   1   -0.122462    0.875455    0.165954    11.00000    0.06190    0.07205 =
         0.04248    0.00977   -0.01416    0.01120
AFIX  43
H13   2   -0.240215    0.923306    0.138434    11.00000   -1.20000
AFIX   0
C14   1    0.020624    0.786314    0.116859    11.00000    0.07211    0.07286 =
         0.03351    0.01068   -0.00158    0.00133
AFIX  43
H14   2   -0.000414    0.772499    0.056182    11.00000   -1.20000
AFIX   0
C15   1    0.193871    0.718204    0.157836    11.00000    0.07084    0.07386 =
         0.04045    0.01393    0.01660    0.01728
AFIX  43
H15   2    0.290464    0.657083    0.124580    11.00000   -1.20000
AFIX   0
C16   1    0.229055    0.738483    0.248844    11.00000    0.05424    0.06413 =
         0.04042    0.01932    0.01055    0.01939
AFIX  43
H16   2    0.349685    0.692931    0.275910    11.00000   -1.20000
AFIX   0
C17   1    0.858655    0.660639    0.631201    11.00000    0.03465    0.06401 =
         0.05046    0.01769    0.00623    0.00973
AFIX 137
H17A  2    0.847949    0.547038    0.598680    11.00000   -1.50000
H17B  2    0.909793    0.661029    0.691524    11.00000   -1.50000
H17C  2    0.962052    0.729552    0.607917    11.00000   -1.50000
AFIX   0
N1    3    0.548410    0.725078    0.532944    11.00000    0.04366    0.05242 =
         0.02932    0.00540    0.00709    0.01702
O1    4    0.344642    0.516354    0.625171    11.00000    0.04099    0.05540 =
         0.03822   -0.00353    0.00608   -0.00027
O2    4    0.278966    0.899804    0.564031    11.00000    0.05544    0.05986 =
         0.03565    0.00419    0.00805    0.02571
O3    4    0.305347    0.773623    0.425137    11.00000    0.04573    0.05474 =
         0.03106    0.00780    0.00295    0.01805
H1N   2    0.602088    0.650382    0.490725    11.00000    0.04155
HKLF    4

REM  114 in P-1
REM R1 =  0.0663 for    2008 Fo > 4sig(Fo)  and  0.0792 for all    2516 data
REM    196 parameters refined using      0 restraints

END

WGHT      0.0665      0.3506

REM Instructions for potential hydrogen bonds
HTAB C17 O3_$1
HTAB C17 O2_$2
HTAB N1 O1_$1

REM Highest difference peak  0.260,  deepest hole -0.326,  1-sigma level  0.064
Q1    1   0.3086  0.3794  0.6164  11.00000  0.05    0.26
Q2    1   0.1622  0.4635  0.6353  11.00000  0.05    0.25
Q3    1   0.1474  0.5917  0.9184  11.00000  0.05    0.22
Q4    1   0.6088  0.6930  0.7977  11.00000  0.05    0.21
Q5    1   0.8124  0.8858  0.9374  11.00000  0.05    0.20
;
_shelx_res_checksum              35856
_shelx_hkl_file
;
   0   0  -1    0.00    0.01
   0   0   1    0.00    0.01
   0   0   1  489.40    2.09
   0   0  -2   28.01    0.38
   0   0  -2   26.67    0.36
   0   0  -2   36.45    0.41
   0   0  -2   32.15    0.31
   0   0  -2   25.76    0.31
   0   0   2   27.89    0.38
   0   0   2   26.84    0.37
   0   0   2   36.35    0.43
   0   0   2   31.99    0.31
   0   0   2   25.25    0.30
   0   0  -3  140.97    1.00
   0   0  -3  133.87    0.97
   0   0  -3  179.84    1.11
   0   0  -3  139.30    0.79
   0   0  -3  129.73    0.84
   0   0   3  139.56    1.03
   0   0   3  133.58    1.00
   0   0   3  184.80    1.17
   0   0   3  167.46    0.86
   0   0   3  131.45    0.84
   0   0  -4  296.24    1.67
   0   0  -4  274.78    1.60
   0   0  -4  363.27    1.81
   0   0  -4  265.44    1.38
   0   0   4  283.69    1.70
   0   0   4  274.51    1.66
   0   0   4  391.14    1.99
   0   0   4  352.53    1.43
   0   0   4  280.98    1.41
   0   0  -5   56.25    0.84
   0   0  -5   50.34    0.78
   0   0  -5   66.92    0.88
   0   0  -5   48.11    0.67
   0   0   5   54.25    0.86
   0   0   5   51.27    0.82
   0   0   5   72.15    0.97
   0   0   5   66.49    0.70
   0   0   5   53.49    0.70
   0   0  -6  113.32    1.28
   0   0  -6  103.48    1.20
   0   0  -6  100.21    1.05
   0   0   6  110.48    1.34
   0   0   6  104.07    1.27
   0   0   6  145.91    1.52
   0   0   6  140.74    1.11
   0   0   6  106.01    1.07
   0   0  -7    5.01    0.39
   0   0  -7    5.04    0.32
   0   0   7    4.76    0.43
   0   0   7    5.00    0.39
   0   0   7    6.55    0.45
   0   0   7    6.90    0.31
   0   0   7    5.16    0.30
   0   0  -8    5.18    0.45
   0   0  -8    6.26    0.38
   0   0   8    5.83    0.52
   0   0   8    6.15    0.46
   0   0   8    8.38    0.55
   0   0   8    8.54    0.36
   0   0   8    6.84    0.37
   0   0  -9    8.49    0.49
   0   0  -9    7.65    0.41
   0   0   9    8.62    0.58
   0   0   9    7.84    0.51
   0   0   9   11.34    0.62
   0   0   9   11.09    0.41
   0   0   9    8.82    0.42
   0   0 -10    1.07    0.28
   0   0 -10    0.95    0.24
   0   0  10    1.00    0.31
   0   0  10    1.28    0.34
   0   0  10    1.55    0.24
   0   0  10    0.89    0.22
   0   0 -11   12.25    0.64
   0   0 -11   12.88    0.57
   0   0  11   13.04    0.77
   0   0  11   17.38    0.86
   0   0  11   16.82    0.54
   0   0  11   13.48    0.57
   0   0 -12    0.90    0.31
   0   0 -12    1.15    0.28
   0   0  12    1.16    0.36
   0   0  12    1.44    0.41
   0   0  12    1.97    0.28
   0   0  12    0.96    0.26
   0   0 -13    0.13    0.25
   0   0 -13   -0.01    0.21
   0   0  13   -0.14    0.28
   0   0  13   -0.16    0.32
   0   0 -14    7.64    0.55
   0   0  14    8.23    0.81
   0   0  14   10.37    0.90
   0   0 -15   18.58    0.80
   0   0  15   21.02    1.19
   0   0  15   25.77    1.30
   0   0  15   24.24    1.22
   0   0  16   13.40    1.12
   0   0  16   15.78    1.18
   0   0  16   14.24    1.05
   0   0  17    0.12    0.47
   0   0  17   -0.06    0.50
   0   0  17    0.06    0.38
   0   0  18   -0.13    0.46
   0   0  18    0.18    0.55
   0   0  18   -0.11    0.40
   0  -1  18    0.37    0.48
   0  -1  18    1.32    0.67
   0  -1  17    0.24    0.45
   0  -1  17   -0.28    0.49
   0  -1  16   -0.11    0.37
   0  -1  16    0.46    0.48
   0  -1  15    3.81    0.64
   0  -1  15    6.04    0.78
   0  -1  14    0.62    0.37
   0  -1  14    1.31    0.49
   0  -1  13    6.37    0.69
   0  -1  13    9.38    0.79
   0  -1  13    8.17    0.51
   0  -1  12   18.63    0.89
   0  -1  12   26.59    1.04
   0  -1  12   23.44    0.75
   0  -1  11   15.86    0.79
   0  -1  11   15.72    0.83
   0  -1  11   21.25    0.89
   0  -1  11   18.82    0.66
   0   1 -11   16.04    0.65
   0  -1  10   66.02    1.36
   0  -1  10   63.76    1.30
   0  -1  10   88.05    1.56
   0  -1  10   78.82    1.22
   0   1 -10   65.62    1.15
   0  -1   9    5.35    0.47
   0  -1   9    4.37    0.40
   0  -1   9    6.21    0.49
   0  -1   9    7.09    0.40
   0   1  -9    3.77    0.37
   0  -1   8  756.67    3.90
   0  -1   8  720.33    3.73
   0  -1   8  978.84    4.43
   0  -1   8  843.70    3.59
   0   1  -8  752.18    3.41
   0  -1   7  556.06    3.08
   0  -1   7  536.93    2.98
   0  -1   7  733.55    3.53
   0  -1   7  583.89    2.84
   0   1  -7  548.28    2.72
   0  -1   6   48.00    0.85
   0  -1   6   48.13    0.83
   0  -1   6   61.91    0.96
   0   1  -6   52.38    0.82
   0   1  -6   48.53    0.77
   0  -1   5    2.81    0.25
   0  -1   5    2.98    0.24
   0  -1   5    4.13    0.27
   0   1  -5    3.13    0.26
   0   1  -5    3.17    0.25
   0   1  -5    3.29    0.24
   0  -1   4  156.45    1.20
   0  -1   4  158.01    1.20
   0  -1   4  181.54    1.29
   0   1  -4  168.65    1.17
   0   1  -4  161.34    1.13
   0   1  -4  169.67    1.15
   0  -1   3   20.00    0.39
   0  -1   3   20.49    0.40
   0   1  -3   20.34    0.38
   0   1  -3   19.45    0.36
   0   1  -3   19.49    0.36
   0  -1   2    1.25    0.12
   0  -1   2    1.60    0.13
   0   1  -2    1.30    0.13
   0   1  -2    1.39    0.11
   0  -1   1    1.23    0.11
   0  -1   1    1.82    0.12
   0  -1   1    1.77    0.12
   0  -1   1    1.95    0.12
   0   1  -1    1.25    0.11
   0   1  -1    1.73    0.12
   0   1  -1    1.36    0.10
   0   1  -1    1.88    0.11
   0  -1   0    0.44    0.07
   0  -1   0    0.97    0.12
   0  -1   0    0.78    0.10
   0  -1   0    0.91    0.11
   0  -1   0    0.56    0.08
   0   1   0    0.34    0.07
   0   1   0    0.83    0.10
   0   1   0    0.80    0.09
   0   1   0    0.45    0.08
   0   1   0    0.46    0.08
   0  -1  -1    8.49    0.26
   0  -1  -1   11.95    0.30
   0  -1  -1   10.88    0.29
   0  -1  -1    8.29    0.25
   0  -1  -1   11.37    0.31
   0  -1  -1    8.00    0.23
   0   1   1    7.86    0.25
   0   1   1   12.38    0.31
   0   1   1   11.61    0.29
   0   1   1    7.62    0.24
   0   1   1   11.76    0.31
   0   1   1    7.49    0.23
   0  -1  -2  104.84    0.95
   0  -1  -2  110.24    0.97
   0  -1  -2  102.52    0.94
   0  -1  -2  100.63    0.92
   0  -1  -2  102.17    0.98
   0  -1  -2   94.63    0.85
   0   1   2   90.04    0.88
   0   1   2  113.10    1.00
   0   1   2  105.09    0.95
   0   1   2   87.63    0.87
   0   1   2  102.72    0.98
   0   1   2   82.20    0.80
   0  -1  -3  551.44    2.42
   0  -1  -3  455.71    2.18
   0  -1  -3  425.17    2.11
   0  -1  -3  500.04    2.27
   0  -1  -3  426.94    2.17
   0  -1  -3  496.78    2.21
   0   1   3  431.35    2.14
   0   1   3  471.06    2.27
   0   1   3  438.16    2.16
   0   1   3  431.71    2.16
   0   1   3  424.84    2.15
   0   1   3  415.22    2.04
   0  -1  -4   29.47    0.66
   0  -1  -4   21.95    0.56
   0  -1  -4   19.44    0.52
   0  -1  -4   23.56    0.56
   0  -1  -4   25.33    0.41
   0  -1  -4   19.77    0.53
   0   1   4   22.74    0.57
   0   1   4   22.33    0.59
   0   1   4   20.40    0.54
   0   1   4   23.06    0.58
   0   1   4   19.80    0.52
   0   1   4   22.30    0.55
   0  -1  -5   29.66    0.71
   0  -1  -5   26.45    0.66
   0  -1  -5   27.46    0.66
   0   1   5   31.79    0.75
   0   1   5   29.05    0.70
   0   1   5   33.56    0.76
   0   1   5   27.79    0.65
   0   1   5   32.91    0.73
   0  -1  -6  273.09    2.17
   0  -1  -6  284.11    2.18
   0   1   6  301.68    2.40
   0   1   6  278.43    2.25
   0   1   6  344.44    2.55
   0   1   6  274.50    2.12
   0   1   6  348.82    2.53
   0  -1  -7   32.73    0.83
   0   1   7   33.57    0.91
   0   1   7   29.92    0.83
   0   1   7   32.32    0.79
   0  -1  -8  119.35    1.62
   0  -1  -8  116.44    1.57
   0   1   8  128.31    1.81
   0   1   8  124.82    2.24
   0   1   8  142.76    1.90
   0   1   8  116.76    1.54
   0   1   8  137.11    1.85
   0  -1  -9   13.40    0.63
   0  -1  -9   13.84    0.62
   0   1   9   14.71    0.74
   0   1   9   17.75    0.77
   0   1   9   13.34    0.59
   0   1   9   16.21    0.73
   0  -1 -10   37.09    1.04
   0  -1 -10   36.34    0.99
   0   1  10   38.77    1.18
   0   1  10   44.27    1.24
   0   1  10   35.98    0.96
   0   1  10   42.23    1.19
   0  -1 -11   29.39    0.98
   0  -1 -11   30.54    0.96
   0   1  11   33.88    1.18
   0   1  11   37.67    1.23
   0   1  11   29.45    0.92
   0   1  11   34.35    1.16
   0  -1 -12   13.02    0.75
   0  -1 -12   13.36    0.71
   0   1  12   14.28    0.91
   0   1  12   16.18    0.95
   0   1  12   12.56    0.67
   0   1  12   15.49    0.86
   0  -1 -13    0.69    0.33
   0  -1 -13    0.52    0.30
   0   1  13    0.42    0.37
   0   1  13    0.69    0.40
   0   1  13    0.57    0.29
   0   1  13    0.88    0.36
   0  -1 -14    0.70    0.33
   0   1  14    0.40    0.40
   0   1  14    1.61    0.52
   0   1  14    0.98    0.38
   0  -1 -15    0.28    0.33
   0   1  15   -0.17    0.41
   0   1  15    0.39    0.48
   0   1  15    0.27    0.34
   0  -1 -16   -0.13    0.30
   0   1  16    0.18    0.43
   0   1  16    0.07    0.45
   0   1  16    0.27    0.36
   0   1  17    0.14    0.49
   0   1  17    0.17    0.46
   0   1  17   -0.09    0.33
   0   1  18    1.27    0.65
   0   1  18    1.49    0.68
   0   1  18    1.03    0.51
   0  -2  18    1.10    0.55
   0  -2  18    2.03    0.69
   0  -2  17    2.44    0.60
   0  -2  17    2.92    0.68
   0  -2  16   -0.09    0.35
   0  -2  16    0.16    0.45
   0  -2  15   13.70    0.97
   0  -2  15   17.67    1.10
   0  -2  14    3.84    0.60
   0  -2  14    4.44    0.66
   0  -2  13    3.72    0.54
   0  -2  13    4.37    0.61
   0  -2  12   -0.19    0.24
   0  -2  12    0.11    0.32
   0  -2  11    0.52    0.27
   0  -2  11    0.64    0.23
   0  -2  11    0.54    0.31
   0  -2  11    0.74    0.27
   0  -2  10    3.23    0.41
   0  -2  10    3.31    0.38
   0  -2  10    4.69    0.50
   0  -2  10    4.02    0.39
   0   2 -10    2.54    0.30
   0  -2   9    0.21    0.18
   0  -2   9    0.27    0.15
   0  -2   9    0.28    0.21
   0   2  -9    0.28    0.16
   0  -2   8    4.72    0.42
   0  -2   8    5.29    0.42
   0  -2   7   20.84    0.65
   0  -2   7   24.66    0.69
   0   2  -7   21.33    0.56
   0  -2   6    7.86    0.40
   0  -2   6    8.64    0.41
   0   2  -6    8.13    0.36
   0  -2   5  108.98    1.19
   0  -2   5  126.61    1.28
   0   2  -5  130.20    1.19
   0   2  -5  122.53    1.12
   0  -2   4   45.98    0.74
   0  -2   4   56.77    0.81
   0   2  -4   56.06    0.73
   0   2  -4   56.62    0.72
   0   2  -4   61.17    0.66
   0  -2   3   96.12    0.99
   0  -2   3  134.09    1.17
   0   2  -3  116.16    1.00
   0   2  -3  135.04    1.08
   0   2  -3  128.03    1.04
   0   2  -3  152.47    1.10
   0  -2   2    5.23    0.30
   0  -2   2   10.69    0.37
   0  -2   2   10.48    0.36
   0  -2   2   12.19    0.37
   0  -2   2    6.83    0.34
   0   2  -2    5.52    0.29
   0  -2   1  290.77    1.68
   0  -2   1  507.91    2.20
   0  -2   1  485.74    2.17
   0  -2   1  542.44    2.41
   0  -2   1  324.47    1.93
   0   2  -1  304.93    1.64
   0   2  -1  538.03    2.20
   0   2  -1  511.71    2.12
   0   2  -1  558.04    2.42
   0   2  -1  343.36    2.00
   0  -2   0  833.74    2.96
   0  -2   0 1387.65    5.50
   0  -2   0 1311.10    5.67
   0  -2   0 1423.62    8.21
   0  -2   0  854.66    3.05
   0   2   0  809.63    2.82
   0   2   0 1467.79    6.62
   0   2   0 1349.63    5.75
   0   2   0 1454.24    7.08
   0   2   0  887.75    3.13
   0  -2  -1  466.30    2.35
   0  -2  -1  711.40    2.86
   0  -2  -1  669.22    2.80
   0  -2  -1  458.28    2.29
   0  -2  -1  702.64    3.11
   0  -2  -1  441.74    2.21
   0   2   1  421.93    2.18
   0   2   1  750.89    2.94
   0   2   1  689.29    2.77
   0   2   1  715.46    3.11
   0   2   1  437.79    2.22
   0  -2  -2  121.02    1.29
   0  -2  -2  168.68    1.50
   0  -2  -2  157.79    1.46
   0  -2  -2  122.84    1.27
   0  -2  -2  161.01    1.59
   0  -2  -2  115.52    1.19
   0   2   2  108.74    1.20
   0   2   2  176.47    1.55
   0   2   2  160.83    1.45
   0   2   2  107.32    1.20
   0   2   2  164.56    1.59
   0   2   2  107.75    1.16
   0  -2  -3   25.20    0.66
   0  -2  -3   28.45    0.69
   0  -2  -3   26.63    0.66
   0  -2  -3   24.00    0.62
   0  -2  -3   27.17    0.71
   0  -2  -3   22.61    0.57
   0   2   3   19.77    0.57
   0   2   3   28.69    0.71
   0   2   3   26.34    0.65
   0   2   3   18.31    0.56
   0   2   3   26.48    0.69
   0   2   3   18.09    0.52
   0  -2  -4    3.01    0.37
   0  -2  -4    2.93    0.30
   0  -2  -4    2.85    0.31
   0  -2  -4    2.07    0.25
   0   2   4    3.54    0.36
   0   2   4    3.11    0.30
   0   2   4    1.65    0.24
   0   2   4    3.50    0.31
   0   2   4    1.93    0.24
   0  -2  -5    5.09    0.48
   0  -2  -5    3.59    0.36
   0  -2  -5    4.08    0.37
   0  -2  -5    4.41    0.34
   0   2   5    3.80    0.41
   0   2   5    3.85    0.37
   0   2   5    2.97    0.34
   0   2   5    3.75    0.34
   0   2   5    3.09    0.29
   0  -2  -6   46.93    1.10
   0  -2  -6   31.33    0.86
   0  -2  -6   32.41    0.89
   0   2   6   35.84    0.97
   0   2   6   29.19    0.85
   0   2   6   32.49    0.88
   0   2   6   28.85    0.80
   0  -2  -7   60.45    1.28
   0  -2  -7   39.69    1.01
   0  -2  -7   51.33    0.78
   0  -2  -7   39.66    1.03
   0   2   7   41.62    1.09
   0   2   7   37.97    1.02
   0   2   7   39.65    1.01
   0   2   7   37.04    0.95
   0  -2  -8    1.69    0.33
   0  -2  -8    1.35    0.31
   0   2   8    1.30    0.31
   0   2   8    1.80    0.35
   0   2   8    1.52    0.32
   0   2   8    1.58    0.30
   0  -2  -9   10.72    0.66
   0  -2  -9   11.45    0.66
   0   2   9   11.98    0.74
   0   2   9   11.09    0.70
   0   2   9   10.97    0.61
   0   2   9   10.63    0.62
   0  -2 -10    1.17    0.35
   0  -2 -10    1.22    0.35
   0   2  10    0.81    0.35
   0   2  10    0.59    0.34
   0   2  10    1.19    0.33
   0   2  10    0.78    0.28
   0  -2 -11   18.97    0.91
   0  -2 -11   19.81    0.91
   0   2  11   21.24    1.06
   0   2  11   18.35    0.97
   0   2  11   16.61    0.87
   0  -2 -12   12.16    0.81
   0  -2 -12   11.81    0.79
   0   2  12   13.50    0.96
   0   2  12   11.36    0.87
   0   2  12   11.34    0.78
   0  -2 -13    0.98    0.37
   0  -2 -13    1.36    0.41
   0   2  13    0.67    0.41
   0   2  13    0.91    0.42
   0   2  13    1.35    0.40
   0  -2 -14    1.19    0.41
   0   2  14    0.61    0.46
   0   2  14    0.64    0.46
   0   2  14    0.42    0.32
   0  -2 -15    0.85    0.42
   0   2  15    0.49    0.46
   0   2  15    1.17    0.52
   0   2  15    1.09    0.41
   0  -2 -16    0.13    0.37
   0   2  16   -0.14    0.44
   0   2  16    0.16    0.45
   0   2  16    0.08    0.30
   0   2  17   17.21    1.40
   0   2  17   13.43    1.24
   0   2  17   11.55    1.01
   0  -3  18    0.47    0.47
   0  -3  18    1.23    0.64
   0  -3  17    1.03    0.51
   0  -3  17    2.51    0.68
   0  -3  16    2.89    0.62
   0  -3  16    3.40    0.71
   0  -3  15    3.14    0.57
   0  -3  15    4.59    0.73
   0  -3  14   -0.22    0.31
   0  -3  14    0.05    0.42
   0  -3  13    0.71    0.36
   0  -3  13    1.08    0.44
   0  -3  12   32.81    1.13
   0  -3  12   53.08    1.42
   0  -3  11   30.36    1.02
   0  -3  11   43.66    1.22
   0  -3  10    8.30    0.58
   0  -3  10   10.66    0.64
   0  -3   9    2.88    0.38
   0  -3   9    3.03    0.39
   0  -3   8    5.20    0.43
   0  -3   8    6.52    0.47
   0  -3   7   44.83    0.96
   0  -3   7   56.02    1.07
   0  -3   6    6.23    0.40
   0  -3   6    8.56    0.44
   0   3  -6    6.70    0.35
   0  -3   5    4.22    0.34
   0  -3   5    5.83    0.38
   0   3  -5    5.80    0.30
   0  -3   4    0.23    0.14
   0  -3   4    0.42    0.16
   0   3  -4    0.28    0.13
   0   3  -4    0.54    0.15
   0  -3   3   60.27    0.96
   0  -3   3   93.59    1.17
   0  -3   3   92.19    1.18
   0  -3   3   96.10    1.17
   0  -3   3   66.20    1.14
   0   3  -3   68.57    0.93
   0   3  -3   97.42    1.12
   0   3  -3   99.64    1.18
   0  -3   2   11.06    0.46
   0  -3   2   19.45    0.57
   0  -3   2   19.21    0.57
   0  -3   2   22.20    0.61
   0  -3   2   13.45    0.53
   0   3  -2   12.23    0.44
   0   3  -2   22.39    0.59
   0   3  -2   23.11    0.62
   0  -3   1   71.12    1.07
   0  -3   1  118.51    1.34
   0  -3   1  112.67    1.32
   0  -3   1  123.21    1.46
   0  -3   1   75.28    1.14
   0   3  -1   72.19    1.01
   0   3  -1  125.30    1.34
   0   3  -1  125.26    1.45
   0   3  -1   81.31    1.21
   0  -3   0   92.21    1.24
   0  -3   0  140.26    1.51
   0  -3   0  151.54    1.69
   0  -3   0   93.10    1.25
   0   3   0   89.20    1.16
   0   3   0  161.34    1.57
   0   3   0  155.12    1.69
   0   3   0   97.75    1.30
   0  -3  -1   13.80    0.54
   0  -3  -1   20.68    0.63
   0  -3  -1   14.22    0.52
   0  -3  -1   21.64    0.69
   0  -3  -1   13.09    0.50
   0   3   1   22.78    0.67
   0   3   1   21.78    0.68
   0   3   1   14.22    0.53
   0  -3  -2    6.89    0.43
   0  -3  -2    8.91    0.47
   0  -3  -2    6.67    0.40
   0  -3  -2    8.56    0.48
   0  -3  -2    6.34    0.37
   0   3   2    9.76    0.51
   0   3   2    9.58    0.49
   0   3   2    5.97    0.37
   0  -3  -3    4.92    0.41
   0  -3  -3    6.35    0.44
   0  -3  -3    6.24    0.45
   0  -3  -3    5.04    0.35
   0   3   3    7.64    0.50
   0   3   3    5.32    0.39
   0   3   3    6.78    0.44
   0   3   3    4.54    0.35
   0  -3  -4   70.52    1.30
   0  -3  -4   71.22    1.28
   0  -3  -4   73.59    1.39
   0  -3  -4   64.51    1.14
   0   3   4   80.31    1.39
   0   3   4   52.14    1.10
   0   3   4   54.12    0.69
   0   3   4   74.53    1.38
   0   3   4   51.85    1.04
   0  -3  -5    2.87    0.39
   0  -3  -5    2.84    0.38
   0  -3  -5    2.65    0.39
   0  -3  -5    2.00    0.29
   0   3   5    2.78    0.38
   0   3   5    2.19    0.33
   0   3   5    2.52    0.22
   0   3   5    2.93    0.40
   0   3   5    1.80    0.27
   0  -3  -6   38.14    1.10
   0  -3  -6   31.96    0.96
   0  -3  -6   32.63    1.02
   0  -3  -6   33.36    0.92
   0   3   6   34.66    1.04
   0   3   6   24.40    0.86
   0   3   6   31.06    0.97
   0   3   6   22.70    0.78
   0  -3  -7    0.12    0.28
   0  -3  -7   -0.18    0.18
   0  -3  -7   -0.01    0.20
   0  -3  -7   -0.08    0.19
   0   3   7   -0.14    0.21
   0   3   7   -0.02    0.20
   0   3   7   -0.04    0.20
   0   3   7   -0.02    0.15
   0  -3  -8    4.38    0.57
   0  -3  -8    3.41    0.48
   0  -3  -8    3.77    0.36
   0  -3  -8    2.98    0.48
   0   3   8    3.59    0.50
   0   3   8    2.32    0.41
   0   3   8    2.58    0.38
   0  -3  -9  137.29    2.23
   0  -3  -9   88.46    1.77
   0  -3  -9   95.49    1.90
   0   3   9   99.21    1.98
   0   3   9   79.41    1.75
   0   3   9   76.06    1.60
   0  -3 -10  176.30    2.53
   0  -3 -10  174.38    2.65
   0   3  10  190.16    2.82
   0   3  10  147.57    2.46
   0   3  10  143.37    2.28
   0  -3 -11    1.16    0.39
   0  -3 -11    0.77    0.43
   0   3  11    1.34    0.45
   0   3  11    0.26    0.36
   0   3  11    0.47    0.30
   0  -3 -12   20.37    1.04
   0  -3 -12   20.27    1.07
   0   3  12   22.89    1.24
   0   3  12   17.29    1.06
   0   3  12   14.65    0.88
   0  -3 -13    6.90    0.79
   0   3  13    6.13    0.82
   0   3  13    5.09    0.77
   0   3  13    4.65    0.63
   0  -3 -14    0.73    0.43
   0   3  14    0.68    0.50
   0   3  14    0.24    0.43
   0   3  14    0.57    0.37
   0  -3 -15    0.48    0.43
   0   3  15    0.65    0.52
   0   3  15    0.34    0.46
   0   3  15    0.21    0.36
   0  -3 -16    1.01    0.51
   0   3  16    1.13    0.64
   0   3  16    1.26    0.62
   0   3  16    1.26    0.46
   0  -4  18   -0.07    0.42
   0  -4  18   -0.52    0.55
   0  -4  17    0.41    0.46
   0  -4  17    0.05    0.52
   0  -4  16    0.09    0.38
   0  -4  16    0.07    0.51
   0  -4  15    0.53    0.42
   0  -4  15    0.55    0.51
   0  -4  14    6.40    0.77
   0  -4  14   10.67    0.96
   0  -4  13    7.41    0.75
   0  -4  13   11.18    0.90
   0  -4  12   23.58    1.01
   0  -4  12   37.28    1.25
   0  -4  11    0.55    0.27
   0  -4  11    0.83    0.33
   0  -4  10    4.55    0.51
   0  -4  10    6.81    0.60
   0  -4   9   10.73    0.63
   0  -4   9   16.13    0.75
   0  -4   8   13.09    0.65
   0  -4   8   17.66    0.73
   0  -4   7   10.91    0.58
   0  -4   7   15.06    0.66
   0   4  -7   14.17    0.49
   0  -4   6   11.21    0.56
   0  -4   6   16.33    0.67
   0   4  -6   16.48    0.55
   0  -4   5   57.86    1.13
   0  -4   5   82.25    1.34
   0  -4   5   62.11    1.34
   0   4  -5   85.40    1.23
   0  -4   4    2.37    0.30
   0  -4   4    3.81    0.37
   0  -4   4    2.87    0.35
   0   4  -4    4.49    0.40
   0   4  -4    3.85    0.33
   0  -4   3   20.34    0.69
   0  -4   3   30.67    0.82
   0  -4   3   33.14    0.85
   0  -4   3   21.66    0.76
   0   4  -3   34.53    0.81
   0   4  -3   34.46    0.85
   0  -4   2   19.45    0.68
   0  -4   2   29.90    0.81
   0  -4   2   31.93    0.87
   0  -4   2   20.10    0.71
   0   4  -2   34.72    0.83
   0   4  -2   32.63    0.86
   0  -4   1    2.41    0.31
   0  -4   1    3.99    0.37
   0  -4   1    4.79    0.41
   0  -4   1    3.04    0.32
   0   4  -1    4.81    0.42
   0   4  -1    4.64    0.39
   0   4  -1    2.46    0.33
   0  -4   0    1.13    0.25
   0  -4   0    1.06    0.25
   0  -4   0    1.63    0.31
   0  -4   0    0.81    0.19
   0   4   0    2.76    0.36
   0   4   0    1.49    0.29
   0   4   0    0.92    0.23
   0  -4  -1    9.87    0.57
   0  -4  -1   14.44    0.65
   0  -4  -1   15.28    0.70
   0  -4  -1   10.21    0.51
   0   4   1   16.54    0.71
   0   4   1   14.17    0.66
   0   4   1    9.76    0.53
   0  -4  -2  215.84    2.34
   0  -4  -2  286.39    2.68
   0  -4  -2  298.28    2.94
   0  -4  -2  202.77    2.15
   0   4   2  324.30    2.78
   0   4   2  299.24    2.90
   0   4   2  191.48    2.13
   0  -4  -3   15.49    0.71
   0  -4  -3   18.43    0.76
   0  -4  -3   19.51    0.84
   0  -4  -3   14.23    0.63
   0   4   3   21.62    0.84
   0   4   3   18.52    0.79
   0   4   3   12.32    0.61
   0  -4  -4    1.23    0.31
   0  -4  -4    1.43    0.33
   0  -4  -4    1.05    0.31
   0  -4  -4    0.99    0.24
   0   4   4    1.12    0.31
   0   4   4    0.69    0.23
   0   4   4    0.95    0.24
   0  -4  -5    0.34    0.28
   0  -4  -5    0.88    0.29
   0  -4  -5    0.74    0.29
   0  -4  -5    0.41    0.22
   0   4   5    0.43    0.28
   0   4   5    0.71    0.25
   0   4   5    0.46    0.21
   0  -4  -6    1.42    0.40
   0  -4  -6    1.82    0.38
   0  -4  -6    1.54    0.38
   0  -4  -6    1.39    0.33
   0   4   6    1.53    0.37
   0   4   6    1.14    0.31
   0   4   6    1.04    0.17
   0   4   6    1.35    0.29
   0  -4  -7    0.19    0.37
   0  -4  -7    0.44    0.32
   0  -4  -7    0.38    0.31
   0   4   7    0.22    0.31
   0   4   7    0.18    0.24
   0   4   7    0.18    0.13
   0   4   7    0.21    0.19
   0  -4  -8    3.81    0.62
   0  -4  -8    4.23    0.61
   0  -4  -8    4.41    0.64
   0   4   8    4.12    0.59
   0   4   8    2.62    0.49
   0   4   8    2.83    0.33
   0   4   8    2.77    0.42
   0  -4  -9   25.08    1.35
   0  -4  -9   15.21    0.96
   0  -4  -9   16.25    1.00
   0   4   9   17.24    1.08
   0   4   9   11.88    0.86
   0   4   9   12.12    0.59
   0   4   9   10.59    0.72
   0  -4 -10   53.95    1.76
   0  -4 -10   32.83    1.31
   0  -4 -10   34.25    1.42
   0   4  10   39.13    1.51
   0   4  10   26.85    1.21
   0   4  10   28.95    0.91
   0   4  10   25.33    1.07
   0  -4 -11    0.28    0.41
   0  -4 -11    0.23    0.42
   0   4  11    0.52    0.46
   0   4  11    0.09    0.36
   0   4  11    0.12    0.25
   0   4  11   -0.03    0.28
   0  -4 -12    3.12    0.62
   0  -4 -12    3.85    0.68
   0   4  12    2.78    0.65
   0   4  12    2.34    0.58
   0   4  12    2.37    0.42
   0   4  12    2.50    0.51
   0  -4 -13   15.25    1.10
   0   4  13   16.24    1.26
   0   4  13   11.59    1.01
   0   4  13   10.34    0.86
   0  -4 -14    0.30    0.45
   0   4  14    0.47    0.53
   0   4  14    0.42    0.43
   0   4  14    0.39    0.36
   0  -4 -15    0.00    0.46
   0   4  15   -0.56    0.49
   0   4  15    0.00    0.45
   0   4  15   -0.04    0.32
   0  -5  17    0.01    0.43
   0  -5  17   -0.54    0.54
   0  -5  16    1.44    0.53
   0  -5  16    1.47    0.61
   0  -5  15    0.33    0.40
   0  -5  15    0.32    0.52
   0  -5  14    0.55    0.39
   0  -5  13   52.42    1.57
   0  -5  13   86.50    2.01
   0  -5  12    3.63    0.53
   0  -5  12    5.03    0.68
   0  -5  11    8.75    0.71
   0  -5  11   14.57    0.88
   0  -5  10    8.00    0.65
   0  -5  10   11.23    0.75
   0  -5   9    2.23    0.38
   0  -5   9    3.99    0.50
   0  -5   8    0.22    0.22
   0  -5   8    0.10    0.26
   0   5  -8   -0.05    0.14
   0  -5   7    5.13    0.51
   0  -5   7    7.91    0.60
   0   5  -7    7.77    0.46
   0  -5   6   23.67    0.86
   0  -5   6   37.88    1.07
   0   5  -6   38.63    0.95
   0  -5   5   28.74    0.93
   0  -5   5   43.77    1.13
   0   5  -5   45.02    1.06
   0  -5   4    1.62    0.30
   0  -5   4    4.28    0.47
   0   5  -4    4.00    0.40
   0  -5   3    0.04    0.19
   0  -5   3    0.21    0.22
   0  -5   3    0.44    0.22
   0   5  -3    0.40    0.24
   0   5  -3    0.62    0.23
   0  -5   2    0.34    0.21
   0  -5   2    0.66    0.25
   0  -5   2    0.68    0.27
   0   5  -2    0.57    0.25
   0   5  -2    0.87    0.27
   0  -5   1    3.21    0.41
   0  -5   1    5.34    0.50
   0  -5   1    5.22    0.50
   0   5  -1    5.93    0.55
   0   5  -1    5.47    0.48
   0   5  -1    3.39    0.42
   0  -5   0    2.94    0.40
   0  -5   0    4.60    0.54
   0  -5   0    5.23    0.52
   0  -5   0    3.27    0.50
   0   5   0    5.21    0.56
   0   5   0    3.40    0.42
   0  -5  -1   23.25    0.91
   0  -5  -1   32.21    1.04
   0  -5  -1   33.50    1.12
   0  -5  -1   22.51    1.06
   0   5   1   35.22    1.06
   0   5   1   22.25    0.86
   0  -5  -2    8.90    0.64
   0  -5  -2   12.82    0.74
   0  -5  -2   12.59    0.76
   0   5   2   14.32    0.77
   0   5   2    7.23    0.54
   0  -5  -3   10.47    0.69
   0  -5  -3   13.03    0.76
   0  -5  -3   12.34    0.78
   0   5   3   15.50    0.82
   0   5   3    7.48    0.56
   0  -5  -4    0.15    0.28
   0  -5  -4    0.03    0.26
   0  -5  -4   -0.01    0.24
   0   5   4    0.29    0.27
   0   5   4    0.13    0.20
   0  -5  -5   15.27    0.90
   0  -5  -5   15.39    0.87
   0  -5  -5   16.27    0.93
   0   5   5   17.99    0.95
   0   5   5   10.27    0.65
   0  -5  -6   -0.27    0.37
   0  -5  -6   -0.40    0.28
   0  -5  -6    0.25    0.31
   0   5   6    0.10    0.32
   0   5   6   -0.14    0.23
   0   5   6    0.38    0.24
   0  -5  -7    5.56    0.74
   0  -5  -7    5.73    0.72
   0  -5  -7    5.97    0.73
   0   5   7    6.08    0.73
   0   5   7    3.08    0.54
   0   5   7    3.70    0.49
   0  -5  -8   46.87    1.72
   0  -5  -8   35.91    1.41
   0  -5  -8   37.68    1.47
   0   5   8   38.19    1.51
   0   5   8   24.83    1.17
   0   5   8   25.55    1.05
   0  -5  -9    3.49    0.83
   0  -5  -9    2.23    0.61
   0  -5  -9    2.17    0.58
   0   5   9    2.54    0.66
   0   5   9    1.45    0.50
   0   5   9    1.65    0.41
   0  -5 -10  158.19    3.05
   0  -5 -10  106.03    2.35
   0  -5 -10  129.49    1.87
   0  -5 -10  103.05    2.46
   0   5  10  118.53    2.61
   0   5  10   73.62    2.00
   0   5  10   68.43    1.78
   0  -5 -11   40.23    1.83
   0  -5 -11   22.57    1.30
   0  -5 -11   23.41    1.35
   0   5  11   26.68    1.49
   0   5  11   15.46    1.08
   0   5  11   14.50    0.95
   0  -5 -12    8.28    1.00
   0   5  12    8.52    1.04
   0   5  12    5.05    0.79
   0   5  12    5.33    0.71
   0  -5 -13    2.29    0.66
   0   5  13    3.31    0.80
   0   5  13    2.46    0.65
   0   5  13    2.35    0.54
   0  -5 -14   -0.20    0.48
   0   5  14   -0.60    0.49
   0   5  14   -0.13    0.44
   0   5  14   -0.03    0.36
   0  -6  16    0.03    0.44
   0  -6  16    0.14    0.58
   0  -6  15    1.79    0.58
   0  -6  15    2.31    0.68
   0  -6  14    1.02    0.46
   0  -6  14    0.84    0.53
   0  -6  13   37.78    1.44
   0  -6  13   66.17    1.88
   0  -6  12    1.21    0.40
   0  -6  12    3.00    0.58
   0  -6  11    5.71    0.68
   0  -6  11    8.03    0.81
   0  -6  10    2.86    0.50
   0  -6  10    3.59    0.56
   0   6 -10    3.75    0.60
   0  -6   9    0.82    0.34
   0  -6   9    1.36    0.40
   0   6  -9    1.00    0.27
   0  -6   8   10.64    0.73
   0  -6   8   15.01    0.86
   0   6  -8   15.10    0.67
   0  -6   7    1.61    0.37
   0  -6   7    1.84    0.40
   0   6  -7    1.94    0.34
   0  -6   6    7.57    0.63
   0  -6   6   10.95    0.74
   0   6  -6   10.54    0.61
   0  -6   5   21.85    0.93
   0  -6   5   33.28    1.13
   0   6  -5   34.90    1.30
   0  -6   4    0.41    0.25
   0  -6   4    1.22    0.36
   0   6  -4    1.42    0.33
   0  -6   3    1.23    0.34
   0  -6   3    1.59    0.39
   0  -6   3    1.69    0.37
   0   6  -3    1.88    0.39
   0  -6   2    2.97    0.44
   0  -6   2    5.90    0.58
   0  -6   2    5.33    0.55
   0   6  -2    5.45    0.58
   0  -6   1   -0.12    0.24
   0  -6   1    0.11    0.26
   0  -6   1    0.16    0.26
   0   6  -1   -0.02    0.25
   0  -6   0   -0.10    0.24
   0  -6   0   -0.12    0.24
   0  -6   0    0.04    0.27
   0   6   0    0.16    0.28
   0   6   0   -0.04    0.22
   0  -6  -1    4.02    0.54
   0  -6  -1    5.57    0.64
   0  -6  -1    6.97    0.69
   0   6   1    7.27    0.69
   0   6   1    4.47    0.52
   0  -6  -2   28.60    1.14
   0  -6  -2   38.50    1.30
   0  -6  -2   38.97    1.39
   0   6   2   42.68    1.32
   0   6   2   25.01    1.02
   0  -6  -3   45.18    1.42
   0  -6  -3   55.13    1.56
   0  -6  -3   58.18    1.70
   0   6   3   61.66    1.59
   0   6   3   38.22    1.25
   0  -6  -4    8.22    0.82
   0  -6  -4    9.62    0.82
   0  -6  -4    8.84    0.81
   0   6   4   11.48    0.87
   0   6   4    5.89    0.59
   0  -6  -5    1.19    0.49
   0  -6  -5    1.70    0.50
   0  -6  -5    1.06    0.45
   0   6   5    1.50    0.48
   0   6   5    1.45    0.37
   0  -6  -6    2.08    0.63
   0  -6  -6    2.61    0.60
   0  -6  -6    2.42    0.56
   0   6   6    2.23    0.58
   0   6   6    2.13    0.43
   0  -6  -7   16.52    1.33
   0  -6  -7   17.07    1.15
   0  -6  -7   17.06    1.13
   0   6   7   17.55    1.18
   0   6   7   11.09    0.79
   0  -6  -8    4.03    0.86
   0  -6  -8    2.95    0.68
   0  -6  -8    2.84    0.65
   0   6   8    3.73    0.74
   0   6   8    2.67    0.50
   0  -6  -9    3.41    0.85
   0  -6  -9    2.04    0.62
   0  -6  -9    1.77    0.59
   0   6   9    2.31    0.67
   0   6   9    1.70    0.51
   0   6   9    1.44    0.41
   0  -6 -10   19.05    1.62
   0  -6 -10   13.44    1.17
   0  -6 -10   13.64    1.16
   0   6  10   14.18    1.28
   0   6  10    8.25    0.91
   0   6  10    7.60    0.78
   0  -6 -11    2.59    0.87
   0  -6 -11    1.46    0.65
   0   6  11    1.04    0.61
   0   6  11    0.89    0.49
   0   6  11    0.73    0.41
   0  -6 -12   -0.71    0.73
   0  -6 -12    0.12    0.51
   0   6  12    0.14    0.57
   0   6  12   -0.17    0.42
   0   6  12    0.35    0.36
   0  -7  15    1.72    0.57
   0  -7  15    4.71    0.86
   0  -7  14    1.25    0.50
   0  -7  14    1.60    0.65
   0  -7  13   25.89    1.32
   0  -7  13   42.77    1.68
   0  -7  12    0.76    0.42
   0  -7  12    2.76    0.61
   0  -7  11    1.02    0.42
   0  -7  11    2.86    0.60
   0  -7  10    1.54    0.47
   0  -7  10    2.84    0.59
   0  -7   9    0.28    0.33
   0  -7   9    0.06    0.35
   0  -7   8    0.70    0.38
   0  -7   8    0.88    0.42
   0  -7   7    4.14    0.57
   0  -7   7    6.65    0.74
   0  -7   6    2.74    0.51
   0  -7   6    5.03    0.68
   0  -7   5    1.28    0.40
   0  -7   5    1.90    0.50
   0  -7   4    0.71    0.33
   0  -7   4    1.61    0.46
   0   7  -4    1.76    0.40
   0  -7   3    9.08    0.78
   0  -7   3   14.38    0.93
   0  -7   3   14.52    0.89
   0   7  -3   16.47    0.85
   0  -7   2    0.00    0.32
   0  -7   2    0.84    0.39
   0  -7   2    0.80    0.38
   0   7  -2    0.85    0.33
   0  -7   1    7.45    0.76
   0  -7   1    9.61    0.81
   0  -7   1   10.82    0.84
   0   7  -1   11.72    0.81
   0  -7   0    0.39    0.36
   0  -7   0    0.60    0.37
   0  -7   0    0.39    0.37
   0   7   0    0.85    0.37
   0   7   0    0.82    0.34
   0  -7  -1   -0.12    0.30
   0  -7  -1    0.00    0.33
   0  -7  -1    0.39    0.38
   0   7   1    0.51    0.33
   0   7   1   -0.19    0.23
   0  -7  -2    2.25    0.50
   0  -7  -2    4.09    0.67
   0  -7  -2    3.95    0.69
   0   7   2    4.91    0.64
   0   7   2    3.13    0.52
   0  -7  -3    0.25    0.38
   0  -7  -3    0.66    0.45
   0  -7  -3    0.97    0.46
   0   7   3    0.83    0.43
   0   7   3    0.38    0.32
   0  -7  -4    3.79    0.70
   0  -7  -4    4.82    0.75
   0  -7  -4    4.98    0.79
   0   7   4    5.91    0.77
   0   7   4    3.96    0.58
   0  -7  -5   -0.29    0.50
   0  -7  -5    0.01    0.44
   0  -7  -5    0.03    0.43
   0   7   5   -0.08    0.42
   0   7   5    0.23    0.30
   0  -7  -6    2.02    0.73
   0  -7  -6    2.89    0.69
   0  -7  -6    2.23    0.66
   0   7   6    2.14    0.63
   0   7   6    1.80    0.46
   0  -7  -7    4.21    0.90
   0  -7  -7    4.45    0.81
   0  -7  -7    5.41    0.94
   0   7   7    5.35    0.85
   0   7   7    3.93    0.62
   0  -7  -8    0.71    0.70
   0  -7  -8    0.52    0.55
   0  -7  -8    0.32    0.55
   0   7   8    1.01    0.62
   0   7   8    0.56    0.38
   0  -7  -9   19.12    1.63
   0  -7  -9   12.77    1.24
   0  -7  -9   11.14    1.22
   0   7   9   16.06    1.34
   0   7   9    7.08    0.80
   0  -7 -10    2.62    0.89
   0  -7 -10    0.47    0.59
   0   7  10    2.06    0.69
   0   7  10    0.49    0.39
   0  -8  13    0.37    0.47
   0  -8  13    0.85    0.58
   0  -8  12    3.56    0.70
   0  -8  12    4.34    0.81
   0  -8  11    0.93    0.48
   0  -8  11    0.93    0.54
   0  -8  10    4.42    0.71
   0  -8  10    6.08    0.82
   0  -8   9   -0.23    0.37
   0  -8   9   -0.25    0.40
   0  -8   8    0.71    0.43
   0  -8   8    1.54    0.55
   0  -8   7   -0.22    0.34
   0  -8   7   -0.42    0.38
   0  -8   6    4.57    0.68
   0  -8   6    6.99    0.89
   0  -8   5    3.21    0.62
   0  -8   5    5.15    0.78
   0  -8   4    3.50    0.61
   0  -8   4    7.13    0.89
   0  -8   3    8.42    0.92
   0  -8   3   12.49    1.02
   0   8  -3   12.14    0.84
   0  -8   2    3.98    0.64
   0  -8   2    8.19    0.91
   0  -8   2    6.69    0.85
   0   8  -2    8.07    0.76
   0  -8   1    2.10    0.54
   0  -8   1    3.08    0.64
   0  -8   1    1.76    0.56
   0   8  -1    3.05    0.52
   0  -8   0    1.06    0.46
   0  -8   0    0.94    0.50
   0  -8   0    0.73    0.45
   0   8   0    1.28    0.41
   0  -8  -1    0.00    0.39
   0  -8  -1    0.08    0.41
   0  -8  -1    0.01    0.40
   0   8   1   -0.01    0.34
   0   8   1    0.07    0.31
   0  -8  -2    1.63    0.55
   0  -8  -2    1.41    0.59
   0  -8  -2    1.52    0.56
   0   8   2    2.18    0.56
   0   8   2    1.25    0.44
   0  -8  -3    0.95    0.54
   0  -8  -3    1.57    0.63
   0  -8  -3    1.43    0.59
   0   8   3    1.75    0.55
   0   8   3    1.03    0.44
   0  -8  -4    3.16    0.77
   0  -8  -4    4.41    0.84
   0  -8  -4    5.46    0.94
   0   8   4    4.88    0.79
   0   8   4    3.15    0.62
   0  -8  -5   -0.14    0.60
   0  -8  -5    0.19    0.56
   0  -8  -5   -0.10    0.48
   0   8   5    0.02    0.47
   0   8   5    0.23    0.38
   0  -8  -6    0.52    0.69
   0  -8  -6   -0.15    0.52
   0  -8  -6    0.46    0.55
   0   8   6   -0.23    0.48
   0   8   6   -0.05    0.34
   0  -8  -7    0.56    0.74
   0  -8  -7    0.26    0.60
   0  -8  -7   -0.08    0.54
   0   8   7   -0.21    0.52
   0   8   7    0.43    0.39
   0  -9  10    0.76    0.51
   0  -9  10    0.35    0.53
   0  -9   9    3.48    0.71
   0  -9   9    3.99    0.81
   0  -9   8   -0.08    0.44
   0  -9   8   -0.09    0.51
   0  -9   7   -0.23    0.46
   0  -9   7   -0.17    0.49
   0  -9   6    0.69    0.53
   0  -9   6    0.79    0.58
   0  -9   5   -0.14    0.47
   0  -9   5    0.00    0.52
   0  -9   4   10.77    1.13
   0  -9   4   17.11    1.30
   0  -9   3    0.01    0.49
   0  -9   3    0.61    0.54
   0  -9   2    1.10    0.55
   0  -9   2    2.64    0.72
   0   9  -2    2.40    0.52
   0  -9   1   -0.23    0.46
   0  -9   1    0.25    0.50
   0   9  -1    0.24    0.36
   0  -9   0    1.04    0.57
   0  -9   0    0.60    0.59
   0  -9   0    0.58    0.51
   0   9   0    0.64    0.46
   0  -9  -1    0.12    0.51
   0  -9  -1   -0.08    0.54
   0  -9  -1    0.36    0.50
   0   9   1   -0.14    0.41
   0  -9  -2    0.14    0.55
   0  -9  -2    0.09    0.58
   0  -9  -2    0.39    0.51
   0   9   2    0.53    0.47
   0  -9  -3    2.26    0.74
   0  -9  -3    2.53    0.79
   0  -9  -3    2.32    0.74
   0   9   3    2.54    0.67
   0   9   3    1.67    0.56
   0  -9  -4    2.81    0.84
   0   9   4    2.40    0.69
   0   9   4    1.94    0.57
  -1   9   4    0.44    0.49
   1  -9  -4    0.70    0.67
   1  -9  -4    0.60    0.63
   1  -9  -4    0.41    0.60
  -1   9   3    0.05    0.44
   1  -9  -3    0.12    0.59
   1  -9  -3    0.65    0.63
   1  -9  -3    0.00    0.53
   1  -9  -2   -0.07    0.55
   1  -9  -2    0.21    0.54
   1  -9  -2   -0.09    0.48
   1  -9  -1    1.53    0.59
   1  -9  -1    2.36    0.73
   1  -9  -1    1.78    0.67
   1  -9   0    1.52    0.60
   1  -9   0    2.38    0.69
   1  -9   0    2.22    0.68
   1  -9   1    0.28    0.50
   1  -9   1    0.71    0.52
   1  -9   1    0.91    0.52
   1  -9   2    9.47    1.08
   1  -9   2   12.07    1.11
   1  -9   2    9.49    0.99
   1  -9   3    6.23    0.86
   1  -9   3    9.51    1.06
   1  -9   3    8.84    0.94
   1  -9   4    1.29    0.60
   1  -9   4    3.66    0.75
   1  -9   4    3.60    0.66
   1  -9   5   -0.19    0.45
   1  -9   5   -0.34    0.43
   1  -9   6   -0.60    0.39
   1  -9   6   -0.50    0.40
   1  -9   7    0.50    0.48
   1  -9   7    0.79    0.52
   1  -9   8    0.53    0.48
   1  -9   8    0.55    0.49
   1  -9   9   -0.10    0.39
   1  -9   9    0.15    0.46
   1  -9  10    1.24    0.52
   1  -9  10    0.66    0.53
  -1   8   8    0.13    0.51
   1  -8  -8    0.31    0.63
  -1   8   7    0.11    0.50
   1  -8  -7    0.26    0.66
   1  -8  -7    0.09    0.59
   1  -8  -7    0.73    0.62
  -1   8   6    2.08    0.63
  -1   8   6    1.30    0.44
   1  -8  -6    2.44    0.79
   1  -8  -6    1.74    0.71
   1  -8  -6    1.83    0.66
  -1   8   5    4.83    0.77
  -1   8   5    3.39    0.59
   1  -8  -5    3.68    0.82
   1  -8  -5    3.90    0.79
   1  -8  -5    3.86    0.79
  -1   8   4   -0.27    0.38
   1  -8  -4    0.00    0.51
   1  -8  -4   -0.13    0.49
   1  -8  -4   -0.25    0.38
  -1   8   3    1.25    0.48
   1  -8  -3    0.57    0.49
   1  -8  -3    1.47    0.57
   1  -8  -3    1.21    0.54
  -1   8   2    0.17    0.35
   1  -8  -2    0.22    0.42
   1  -8  -2    0.31    0.44
   1  -8  -2   -0.13    0.37
  -1   8   1    3.18    0.55
   1  -8  -1    1.84    0.54
   1  -8  -1    3.03    0.67
   1  -8  -1    3.02    0.68
   1  -8   0    0.02    0.36
   1  -8   0    0.05    0.38
   1  -8   0   -0.33    0.36
   1  -8   1    0.95    0.45
   1  -8   1    1.56    0.50
   1  -8   1    1.25    0.50
   1  -8   2   12.90    1.01
   1  -8   2   15.80    1.06
   1  -8   2   16.15    1.07
   1  -8   3   14.62    1.04
   1  -8   3   21.23    1.16
   1  -8   3   21.09    1.14
   1  -8   4    4.56    0.68
   1  -8   4    6.60    0.82
   1  -8   4    7.04    0.73
   1  -8   5   -0.66    0.30
   1  -8   5   -0.24    0.37
   1  -8   5   -0.18    0.27
   1  -8   6    2.25    0.51
   1  -8   6    3.54    0.64
   1  -8   7    0.09    0.35
   1  -8   7   -0.29    0.33
   1  -8   8    0.03    0.33
   1  -8   8   -0.04    0.36
   1  -8   9    0.17    0.35
   1  -8   9    0.48    0.39
   1  -8  10    0.99    0.43
   1  -8  10    1.58    0.53
   1  -8  11    2.74    0.57
   1  -8  11    2.38    0.57
   1  -8  12    6.75    0.83
   1  -8  12   10.28    1.02
   1  -8  13    0.05    0.42
   1  -8  13    0.34    0.53
  -1   7  10    1.09    0.59
   1  -7 -10    1.95    0.90
   1  -7 -10    0.88    0.66
   1  -7 -10    1.60    0.70
  -1   7   9    5.20    0.84
  -1   7   9    3.79    0.68
   1  -7  -9    6.02    1.03
   1  -7  -9    5.72    0.94
   1  -7  -9    4.31    0.84
  -1   7   8   10.67    1.12
  -1   7   8    6.42    0.67
   1  -7  -8   13.11    1.49
   1  -7  -8    9.33    1.16
   1  -7  -8    9.77    1.11
  -1   7   7    0.40    0.49
  -1   7   7    0.49    0.32
   1  -7  -7   -0.40    0.61
   1  -7  -7    0.07    0.51
   1  -7  -7    0.80    0.51
  -1   7   6    1.86    0.57
  -1   7   6    0.62    0.32
   1  -7  -6    0.62    0.58
   1  -7  -6    0.67    0.54
   1  -7  -6    1.03    0.50
  -1   7   5    2.59    0.58
  -1   7   5    2.35    0.47
   1  -7  -5    2.78    0.63
   1  -7  -5    2.62    0.64
   1  -7  -5    2.49    0.65
  -1   7   4    0.11    0.33
  -1   7   4    0.20    0.26
   1  -7  -4   -0.13    0.39
   1  -7  -4    0.22    0.41
   1  -7  -4    0.01    0.37
  -1   7   3   -0.02    0.31
  -1   7   3   -0.09    0.24
   1  -7  -3    0.01    0.35
   1  -7  -3    0.14    0.37
   1  -7  -3    0.34    0.35
  -1   7   2    5.73    0.67
   1  -7  -2    3.11    0.55
   1  -7  -2    4.51    0.68
   1  -7  -2    4.77    0.73
  -1   7   1    0.94    0.33
   1  -7  -1    0.60    0.37
   1  -7  -1    1.03    0.43
   1  -7  -1   -0.02    0.30
  -1   7   0    5.55    0.62
   1  -7   0    2.75    0.51
   1  -7   0    4.75    0.64
   1  -7   0    3.86    0.60
   1  -7   1    2.63    0.49
   1  -7   1    3.93    0.59
   1  -7   1    4.56    0.64
   1  -7   2    0.59    0.33
   1  -7   2    0.91    0.38
   1  -7   2    0.60    0.34
   1  -7   3    0.05    0.28
   1  -7   3   -0.24    0.26
   1  -7   3    0.03    0.26
   1  -7   4    1.50    0.39
   1  -7   4    3.05    0.51
   1  -7   4    3.20    0.52
   1  -7   5    3.13    0.49
   1  -7   5    3.73    0.56
   1  -7   5    4.18    0.56
   1  -7   6    0.00    0.26
   1  -7   6    0.13    0.31
   1  -7   6    0.15    0.24
   1  -7   7   10.15    0.77
   1  -7   7   15.45    0.89
   1  -7   8    5.81    0.66
   1  -7   8    7.52    0.71
   1  -7   9    0.70    0.36
   1  -7   9    1.17    0.41
   1  -7  10    0.14    0.30
   1  -7  10   -0.24    0.28
   1  -7  11    7.13    0.78
   1  -7  11   10.47    0.88
   1  -7  12   33.07    1.32
   1  -7  12   51.59    1.64
   1  -7  13    8.06    0.87
   1  -7  13    9.69    1.01
   1  -7  14    2.20    0.55
   1  -7  14    3.69    0.72
   1  -7  15    2.16    0.58
   1  -7  15    2.37    0.67
  -1   6  12    0.65    0.56
  -1   6  12    0.27    0.45
   1  -6 -12   -0.31    0.74
   1  -6 -12    0.25    0.54
   1  -6 -12    0.49    0.54
  -1   6  11    1.98    0.65
  -1   6  11    1.31    0.52
  -1   6  11    1.15    0.40
   1  -6 -11    3.71    0.94
   1  -6 -11    1.52    0.62
   1  -6 -11    2.13    0.70
  -1   6  10    5.56    0.83
  -1   6  10    3.22    0.62
  -1   6  10    3.06    0.51
   1  -6 -10    6.79    1.03
   1  -6 -10    4.31    0.79
   1  -6 -10    4.03    0.79
  -1   6   9   38.44    1.60
  -1   6   9   22.19    1.17
  -1   6   9   20.66    0.96
   1  -6  -9   49.93    2.02
   1  -6  -9   35.13    1.57
   1  -6  -9   33.70    1.59
  -1   6   8   19.91    1.22
  -1   6   8   11.04    0.72
   1  -6  -8   23.34    1.52
   1  -6  -8   16.43    1.18
   1  -6  -8   19.06    1.24
  -1   6   7   15.66    1.08
  -1   6   7    9.29    0.65
   1  -6  -7   14.29    1.22
   1  -6  -7   13.79    1.07
   1  -6  -7   13.91    1.06
  -1   6   6    2.51    0.55
  -1   6   6    1.98    0.37
   1  -6  -6    2.18    0.60
   1  -6  -6    2.03    0.55
   1  -6  -6    2.14    0.53
  -1   6   5    0.37    0.34
  -1   6   5    0.64    0.26
   1  -6  -5    0.45    0.39
   1  -6  -5    1.13    0.45
   1  -6  -5    1.19    0.46
  -1   6   4    0.94    0.36
  -1   6   4    0.64    0.26
   1  -6  -4    0.50    0.35
   1  -6  -4    0.98    0.40
   1  -6  -4    0.88    0.44
  -1   6   3    2.19    0.43
  -1   6   3    1.55    0.34
   1  -6  -3    1.21    0.37
   1  -6  -3    1.72    0.44
   1  -6  -3    2.07    0.48
  -1   6   2   16.72    0.83
  -1   6   2   10.48    0.64
   1  -6  -2   11.16    0.77
   1  -6  -2   14.11    0.85
   1  -6  -2   14.34    0.89
  -1   6   1    0.81    0.31
   1  -6  -1    0.36    0.27
   1  -6  -1    0.66    0.33
   1  -6  -1    0.81    0.35
  -1   6   0    0.34    0.28
   1  -6   0    0.28    0.25
   1  -6   0    0.87    0.31
   1  -6   0    0.51    0.28
   1  -6   1    0.71    0.30
   1  -6   1    1.36    0.36
   1  -6   1    1.36    0.36
   1  -6   2    3.81    0.47
   1  -6   2    7.46    0.60
   1  -6   2    7.24    0.59
   1  -6   3    4.73    0.52
   1  -6   3    6.64    0.56
   1  -6   3    7.16    0.58
  -1   6  -4   35.21    1.11
   1  -6   4   23.00    0.89
   1  -6   4   33.39    1.05
   1  -6   4   36.45    1.10
  -1   6  -5   36.67    1.05
   1  -6   5   22.24    0.88
   1  -6   5   36.37    1.09
   1  -6   5   37.61    1.08
  -1   6  -6   10.03    0.57
   1  -6   6    6.06    0.57
   1  -6   6    9.67    0.66
   1  -6   6    9.36    0.57
  -1   6  -7    0.23    0.20
   1  -6   7    0.13    0.24
   1  -6   7    0.23    0.27
  -1   6  -8    2.26    0.32
   1  -6   8    1.76    0.36
   1  -6   8    2.83    0.47
   1  -6   9    5.27    0.57
   1  -6   9    7.56    0.64
   1  -6  10    3.52    0.49
   1  -6  10    5.99    0.64
   1  -6  11    1.54    0.39
   1  -6  11    2.02    0.46
   1  -6  12   35.91    1.28
   1  -6  12   54.10    1.55
   1  -6  13    2.73    0.56
   1  -6  13    4.03    0.69
   1  -6  14    3.57    0.60
   1  -6  14    6.02    0.80
   1  -6  15    1.15    0.49
   1  -6  15    1.90    0.60
   1  -6  16   -0.20    0.38
   1  -6  16   -0.39    0.47
  -1   5  14    0.10    0.55
  -1   5  14   -0.09    0.42
   1  -5 -14   -0.28    0.48
  -1   5  13   -0.09    0.49
  -1   5  13    0.21    0.43
  -1   5  13    0.39    0.33
   1  -5 -13    0.56    0.54
   1  -5 -13   -0.59    0.42
  -1   5  12    8.94    1.10
  -1   5  12    7.03    0.89
  -1   5  12    5.06    0.61
   1  -5 -12    9.61    1.07
   1  -5 -12    8.95    1.01
  -1   5  11    4.23    0.73
  -1   5  11    3.35    0.64
  -1   5  11    2.90    0.48
   1  -5 -11    6.22    0.93
   1  -5 -11    5.88    0.83
   1  -5 -11    4.39    0.84
  -1   5  10    2.33    0.59
  -1   5  10    1.04    0.44
  -1   5  10    1.33    0.34
   1  -5 -10    1.59    0.71
   1  -5 -10    1.47    0.54
   1  -5 -10    1.28    0.56
  -1   5   9    4.60    0.70
  -1   5   9    4.43    0.67
  -1   5   9    3.69    0.47
   1  -5  -9   10.29    1.20
   1  -5  -9    5.67    0.81
   1  -5  -9    5.18    0.80
  -1   5   8   14.14    0.99
  -1   5   8    8.89    0.75
  -1   5   8    8.63    0.59
   1  -5  -8   17.50    1.21
   1  -5  -8   12.81    0.98
   1  -5  -8   12.94    0.98
  -1   5   7    0.40    0.37
  -1   5   7    0.21    0.25
  -1   5   7    0.30    0.19
   1  -5  -7    0.03    0.39
   1  -5  -7    0.05    0.33
   1  -5  -7    0.21    0.35
   1  -5  -7    0.12    0.25
  -1   5   6   -0.07    0.28
  -1   5   6   -0.21    0.20
  -1   5   6    0.05    0.16
   1  -5  -6   -0.03    0.33
   1  -5  -6    0.19    0.30
   1  -5  -6    0.09    0.29
   1  -5  -6   -0.17    0.19
  -1   5   5    0.40    0.29
  -1   5   5   -0.08    0.15
   1  -5  -5   -0.05    0.27
   1  -5  -5    0.22    0.29
   1  -5  -5   -0.10    0.27
   1  -5  -5    0.14    0.17
  -1   5   4   13.15    0.77
  -1   5   4    7.10    0.50
   1  -5  -4   11.11    0.75
   1  -5  -4   12.02    0.75
   1  -5  -4   12.45    0.82
   1  -5  -4    7.55    0.49
  -1   5   3  102.41    1.72
  -1   5   3   61.41    1.24
   1  -5  -3   71.39    1.55
   1  -5  -3   89.11    1.72
   1  -5  -3   89.39    1.88
   1  -5  -3   63.65    1.24
  -1   5   2    1.08    0.32
  -1   5   2    0.69    0.24
   1  -5  -2    0.81    0.30
   1  -5  -2    0.97    0.32
   1  -5  -2    1.44    0.38
   1  -5  -2    0.81    0.22
  -1   5   1   10.38    0.61
   1  -5  -1    6.32    0.53
   1  -5  -1    9.50    0.62
   1  -5  -1    7.03    0.57
   1  -5  -1    9.22    0.64
   1  -5  -1    6.15    0.43
  -1   5   0   23.70    0.77
  -1   5   0   22.12    1.03
   1  -5   0   13.65    0.68
   1  -5   0   20.78    0.80
   1  -5   0   12.98    0.63
   1  -5   0   22.12    0.88
   1  -5   0   14.20    0.62
  -1   5  -1    7.71    0.53
   1  -5   1    4.42    0.45
   1  -5   1    6.28    0.50
   1  -5   1    7.02    0.53
   1  -5   1    4.50    0.40
  -1   5  -2   50.18    1.19
   1  -5   2   31.56    0.91
   1  -5   2   49.48    1.11
   1  -5   2   52.85    1.23
   1  -5   2   34.07    0.98
  -1   5  -3    1.56    0.31
   1  -5   3    0.50    0.22
   1  -5   3    1.14    0.26
   1  -5   3    1.38    0.30
   1  -5   3    1.10    0.34
  -1   5  -4   13.74    0.61
   1  -5   4    8.30    0.51
   1  -5   4   12.63    0.60
   1  -5   4   13.26    0.61
  -1   5  -5   45.43    1.01
   1  -5   5   29.71    0.86
   1  -5   5   43.96    1.03
   1  -5   5   46.21    1.03
  -1   5  -6    8.36    0.45
   1  -5   6    4.91    0.46
   1  -5   6    7.09    0.51
   1  -5   6    8.12    0.45
  -1   5  -7    0.28    0.16
   1  -5   7    0.16    0.22
   1  -5   8    0.12    0.21
   1  -5   9    0.22    0.22
   1  -5   9    0.29    0.25
   1  -5  10    9.88    0.65
   1  -5  11    0.89    0.32
   1  -5  11    1.06    0.36
   1  -5  12   84.36    1.74
   1  -5  12  116.95    2.06
   1  -5  13   57.34    1.55
   1  -5  13   87.12    1.92
   1  -5  14    1.25    0.46
   1  -5  14    1.33    0.52
   1  -5  15    8.33    0.86
   1  -5  15   12.04    1.02
   1  -5  16   -0.04    0.38
   1  -5  16   -0.38    0.44
   1  -5  17    0.09    0.41
   1  -5  17   -0.37    0.49
  -1   4  15   -0.16    0.53
  -1   4  15   -0.22    0.41
  -1   4  15   -0.29    0.36
   1  -4 -15    0.19    0.46
  -1   4  14    1.75    0.64
  -1   4  14    1.11    0.50
  -1   4  14    0.59    0.35
   1  -4 -14    0.92    0.54
  -1   4  13    1.29    0.59
  -1   4  13    0.86    0.47
  -1   4  13    1.39    0.38
   1  -4 -13    1.89    0.63
   1  -4 -13    1.55    0.57
  -1   4  12    1.68    0.58
  -1   4  12    1.29    0.48
  -1   4  12    1.01    0.33
   1  -4 -12    1.27    0.51
   1  -4 -12    1.55    0.55
  -1   4  11   99.17    2.30
  -1   4  11   69.81    1.88
  -1   4  11   65.15    1.52
   1  -4 -11   94.65    2.20
   1  -4 -11   90.73    2.23
  -1   4  10   64.67    1.84
  -1   4  10   45.31    1.50
  -1   4  10   42.28    1.18
   1  -4 -10   91.32    2.21
   1  -4 -10   60.84    1.77
   1  -4 -10   61.44    1.82
  -1   4   9   42.46    1.44
  -1   4   9   28.12    1.15
  -1   4   9   28.08    0.93
   1  -4  -9   57.53    1.75
   1  -4  -9   40.24    1.40
   1  -4  -9   41.31    1.45
  -1   4   8    3.44    0.55
  -1   4   8    2.21    0.44
  -1   4   8    2.60    0.36
   1  -4  -8    3.87    0.59
   1  -4  -8    3.31    0.54
   1  -4  -8    3.27    0.57
  -1   4   7    0.63    0.31
  -1   4   7    0.17    0.24
  -1   4   7    0.33    0.18
   1  -4  -7    0.75    0.38
   1  -4  -7    0.52    0.30
   1  -4  -7    0.37    0.30
   1  -4  -7    0.46    0.23
  -1   4   6    9.40    0.69
  -1   4   6    5.61    0.51
  -1   4   6    5.17    0.39
   1  -4  -6    8.80    0.73
   1  -4  -6    7.70    0.63
   1  -4  -6    9.01    0.69
   1  -4  -6    9.08    0.50
  -1   4   5   30.97    1.00
  -1   4   5   19.91    0.79
  -1   4   5   18.66    0.65
   1  -4  -5   30.19    1.04
   1  -4  -5   29.25    1.00
   1  -4  -5   30.47    1.10
   1  -4  -5   25.97    0.76
  -1   4   4  131.91    1.87
  -1   4   4   77.81    1.41
  -1   4   4   78.60    1.24
   1  -4  -4  111.27    1.81
   1  -4  -4  117.67    1.84
   1  -4  -4  120.21    2.02
   1  -4  -4   93.58    1.33
  -1   4   2    3.78    0.44
  -1   4   2    1.02    0.22
   1  -4  -2    0.67    0.23
   1  -4  -2    2.25    0.33
   1  -4  -2    2.72    0.39
   1  -4  -2    0.97    0.20
  -1   4   1   14.07    0.59
  -1   4   1   11.79    0.60
   1  -4  -1    8.12    0.50
   1  -4  -1   11.87    0.56
   1  -4  -1    7.99    0.46
   1  -4  -1   12.94    0.64
   1  -4  -1    7.68    0.41
  -1   4   0    0.65    0.17
  -1   4   0    1.70    0.28
  -1   4   0    1.14    0.26
   1  -4   0    0.52    0.20
   1  -4   0    1.05    0.23
   1  -4   0    1.51    0.31
   1  -4   0    0.67    0.17
  -1   4  -1   20.82    0.71
   1  -4   1   13.61    0.55
   1  -4   1   20.42    0.65
   1  -4   1   21.58    0.74
   1  -4   1   13.89    0.56
  -1   4  -2    3.23    0.32
   1  -4   2    1.67    0.25
   1  -4   2    2.81    0.31
   1  -4   2    3.50    0.34
   1  -4   2    2.54    0.30
  -1   4  -3   14.42    0.55
   1  -4   3    8.74    0.44
   1  -4   3   13.55    0.51
   1  -4   3   14.73    0.57
  -1   4  -4   99.74    1.31
   1  -4   4   66.16    1.04
   1  -4   4  100.40    1.27
   1  -4   4  104.51    1.35
  -1   4  -5  272.05    2.02
   1  -4   5  274.21    2.04
  -1   4  -6   45.97    0.78
   1  -4   6   41.41    0.88
   1  -4   7   12.78    0.55
   1  -4   9    3.76    0.41
   1  -4  10    0.35    0.22
   1  -4  10    0.37    0.24
   1  -4  11   51.52    1.24
   1  -4  11   69.66    1.44
   1  -4  12    1.92    0.39
   1  -4  12    2.17    0.45
   1  -4  13   21.56    1.00
   1  -4  13   29.36    1.17
   1  -4  14   -0.36    0.30
   1  -4  14   -0.65    0.36
   1  -4  15   -0.21    0.34
   1  -4  15   -0.39    0.41
   1  -4  16    0.20    0.40
   1  -4  16   -0.42    0.44
   1  -4  17    0.83    0.46
   1  -4  17    0.92    0.53
   1  -4  18    2.09    0.70
  -1   3  16    1.89    0.72
  -1   3  16    1.47    0.58
  -1   3  16    1.98    0.50
   1  -3 -16    1.68    0.57
  -1   3  15    0.44    0.53
  -1   3  15    1.01    0.53
  -1   3  15    0.42    0.32
   1  -3 -15    1.38    0.53
  -1   3  14   17.82    1.28
  -1   3  14   13.19    1.06
  -1   3  14   10.87    0.79
   1  -3 -14   15.66    1.14
   1  -3 -14   15.49    1.06
  -1   3  13    2.70    0.65
  -1   3  13    2.23    0.57
  -1   3  13    1.78    0.41
   1  -3 -13    2.66    0.61
   1  -3 -13    2.87    0.59
  -1   3  12   43.55    1.59
  -1   3  12   33.96    1.36
  -1   3  12   28.46    1.05
   1  -3 -12   40.65    1.47
   1  -3 -12   37.25    1.41
  -1   3  11   12.10    0.99
  -1   3  11    8.62    0.80
  -1   3  11    8.28    0.61
   1  -3 -11   12.16    0.94
   1  -3 -11   10.14    0.88
  -1   3  10    9.35    0.85
  -1   3  10    7.49    0.72
  -1   3  10    6.77    0.52
   1  -3 -10    7.92    0.76
   1  -3 -10    7.59    0.76
  -1   3   9    2.43    0.49
  -1   3   9    2.35    0.44
  -1   3   9    1.71    0.30
   1  -3  -9    4.36    0.59
   1  -3  -9    2.28    0.45
   1  -3  -9    2.97    0.51
  -1   3   8   17.57    0.88
  -1   3   8   14.69    0.76
  -1   3   8   12.74    0.57
   1  -3  -8   24.25    1.08
   1  -3  -8   16.53    0.83
   1  -3  -8   17.05    0.86
  -1   3   7    2.64    0.41
  -1   3   7    1.61    0.31
  -1   3   7    1.57    0.24
   1  -3  -7    5.89    0.69
   1  -3  -7    2.91    0.44
   1  -3  -7    2.34    0.41
  -1   3   6   23.09    0.87
  -1   3   6   16.41    0.70
  -1   3   6   20.39    0.82
  -1   3   6   14.60    0.53
   1  -3  -6   26.60    0.95
   1  -3  -6   21.89    0.84
   1  -3  -6   22.80    0.89
  -1   3   5   17.42    0.73
  -1   3   5   11.35    0.57
  -1   3   5   15.57    0.70
  -1   3   5   10.75    0.43
   1  -3  -5   18.21    0.79
   1  -3  -5   14.92    0.67
   1  -3  -5   15.97    0.73
   1  -3  -5   16.79    0.53
  -1   3   4    5.62    0.48
  -1   3   4    3.65    0.35
  -1   3   4    5.12    0.42
  -1   3   4    2.81    0.25
   1  -3  -4    5.21    0.47
   1  -3  -4    5.25    0.43
   1  -3  -4    4.57    0.43
   1  -3  -4    5.62    0.47
   1  -3  -4    3.73    0.28
  -1   3   3   48.70    0.99
  -1   3   3   26.88    0.72
  -1   3   3   43.17    1.03
  -1   3   3   26.81    0.60
   1  -3  -3   36.98    0.91
   1  -3  -3   41.27    0.94
   1  -3  -3   35.80    0.86
   1  -3  -3   43.07    1.06
   1  -3  -3   30.60    0.63
  -1   3   2   33.29    0.82
  -1   3   2   55.66    0.97
  -1   3   2   49.99    1.06
  -1   3   2   32.10    0.64
   1  -3  -2   37.48    0.85
   1  -3  -2   48.39    0.95
   1  -3  -2   37.03    0.82
   1  -3  -2   50.01    1.08
   1  -3  -2   31.71    0.63
  -1   3   1   29.73    0.63
  -1   3   1   57.84    0.91
  -1   3   1   51.26    1.03
   1  -3  -1   34.13    0.76
   1  -3  -1   54.61    0.94
   1  -3  -1   50.58    0.90
   1  -3  -1   33.59    0.73
   1  -3  -1   50.95    1.04
   1  -3  -1   30.84    0.63
  -1   3   0   43.20    0.91
   1  -3   0   26.18    0.63
   1  -3   0   46.20    0.80
   1  -3   0   43.25    0.78
   1  -3   0   32.71    0.47
   1  -3   0   46.04    0.95
   1  -3   0   26.70    0.61
  -1   3  -1    2.15    0.26
   1  -3   1    0.99    0.17
   1  -3   1    2.52    0.25
   1  -3   1    2.00    0.23
   1  -3   1    2.66    0.32
   1  -3   1    1.46    0.21
  -1   3  -2   96.08    1.20
   1  -3   2   56.96    0.79
   1  -3   2   90.99    0.98
   1  -3   2   97.32    1.21
  -1   3  -3    3.81    0.27
   1  -3   3    3.44    0.26
  -1   3  -4   50.58    0.76
   1  -3   4   49.45    0.75
   1  -3   9   79.21    1.23
   1  -3   9  100.96    1.43
   1  -3  10    3.16    0.36
   1  -3  10    3.65    0.45
   1  -3  11   20.05    0.81
   1  -3  11   17.39    0.72
   1  -3  11   24.35    0.88
   1  -3  12   13.40    0.76
   1  -3  12   16.71    0.85
   1  -3  13    2.64    0.46
   1  -3  13    2.86    0.55
   1  -3  14    1.59    0.45
   1  -3  14    0.63    0.45
   1  -3  15    7.09    0.79
   1  -3  15   11.01    0.94
   1  -3  16    1.27    0.45
   1  -3  16    1.30    0.54
   1  -3  17    5.07    0.74
   1  -3  17    8.18    0.97
   1  -3  18    0.64    0.50
   1  -3  18    0.34    0.54
  -1   2  17    0.39    0.52
  -1   2  17    0.31    0.49
  -1   2  17    0.06    0.31
   1  -2 -17    0.24    0.42
  -1   2  16    3.75    0.78
  -1   2  16    2.71    0.68
  -1   2  16    2.68    0.53
   1  -2 -16    3.09    0.59
  -1   2  15   10.42    1.06
  -1   2  15    9.40    0.98
  -1   2  15    7.87    0.72
   1  -2 -15    8.83    0.84
  -1   2  14   34.66    1.49
  -1   2  14   31.80    1.42
  -1   2  14   28.55    1.14
   1  -2 -14   31.80    1.32
   1  -2 -14   30.63    1.27
  -1   2  13    1.58    0.52
  -1   2  13    2.01    0.56
  -1   2  13    2.39    0.45
   1  -2 -13    2.53    0.54
   1  -2 -13    2.21    0.52
  -1   2  12    3.12    0.56
  -1   2  12    3.20    0.57
  -1   2  12    3.08    0.46
   1  -2 -12    3.35    0.58
   1  -2 -12    3.01    0.54
  -1   2  11   25.20    1.15
  -1   2  11   22.78    1.07
  -1   2  11   24.03    0.90
   1  -2 -11   24.78    1.08
   1  -2 -11   22.88    1.03
  -1   2  10   13.77    0.86
  -1   2  10   13.90    0.81
  -1   2  10   13.30    0.65
   1  -2 -10   14.14    0.82
   1  -2 -10   13.86    0.79
  -1   2   9    7.63    0.65
  -1   2   9    7.46    0.60
  -1   2   9    7.17    0.55
  -1   2   9    6.84    0.45
   1  -2  -9    7.58    0.61
   1  -2  -9    7.12    0.58
  -1   2   8    2.29    0.38
  -1   2   8    2.55    0.39
  -1   2   8    2.09    0.35
  -1   2   8    2.26    0.29
   1  -2  -8    2.65    0.41
   1  -2  -8    2.85    0.42
  -1   2   7   44.10    1.13
  -1   2   7   40.04    1.05
  -1   2   7   42.78    1.08
  -1   2   7   37.86    0.81
   1  -2  -7   60.61    1.33
   1  -2  -7   41.27    1.07
   1  -2  -7   41.50    1.09
  -1   2   6   10.56    0.60
  -1   2   6   10.48    0.55
  -1   2   6   11.35    0.56
  -1   2   6    9.56    0.40
   1  -2  -6   17.48    0.76
   1  -2  -6    9.74    0.55
   1  -2  -6   10.55    0.57
  -1   2   5    7.82    0.50
  -1   2   5    6.39    0.41
  -1   2   5    7.19    0.45
  -1   2   5    5.58    0.29
   1  -2  -5   10.82    0.58
   1  -2  -5    7.58    0.46
   1  -2  -5    7.02    0.46
  -1   2   4  329.41    2.39
  -1   2   4  236.65    2.00
  -1   2   4  307.62    2.50
  -1   2   4  207.61    1.38
   1  -2  -4  346.67    2.51
   1  -2  -4  297.03    2.31
   1  -2  -4  324.01    2.37
   1  -2  -4  298.27    2.50
   1  -2  -4  337.36    1.75
  -1   2   3  212.76    1.72
  -1   2   3  315.48    2.14
  -1   2   3  209.87    1.72
  -1   2   3  288.56    2.30
  -1   2   3  184.22    1.17
   1  -2  -3  283.06    2.10
   1  -2  -3  304.52    2.14
   1  -2  -3  282.61    2.09
   1  -2  -3  270.19    2.01
   1  -2  -3  284.11    2.32
   1  -2  -3  250.24    1.35
  -1   2   2    3.61    0.25
  -1   2   2    6.01    0.34
  -1   2   2    5.59    0.31
  -1   2   2    3.42    0.25
  -1   2   2    5.61    0.35
  -1   2   2    3.09    0.18
   1  -2  -2    4.37    0.30
   1  -2  -2    5.64    0.32
   1  -2  -2    5.53    0.33
   1  -2  -2    4.30    0.28
   1  -2  -2    5.89    0.36
   1  -2  -2    3.09    0.17
  -1   2   0  205.08    1.63
   1  -2   0  131.83    0.93
   1  -2   0  188.40    1.58
  -1   2  -1 1534.70    6.76
   1  -2   1 1391.54    8.12
  -1   2  -2  216.00    1.42
   1  -2   2  200.12    1.38
  -1   2  -3   86.45    0.81
   1  -2   3   80.27    0.79
   1  -2   5   19.87    0.65
   1  -2   6   73.87    1.27
   1  -2   7  112.53    1.62
   1  -2   8   31.35    0.72
   1  -2   8   36.46    0.97
   1  -2   9    0.81    0.22
   1  -2   9    0.90    0.24
   1  -2  10    0.05    0.21
   1  -2  10   -0.11    0.16
   1  -2  10    0.06    0.21
   1  -2  11    0.55    0.26
   1  -2  11    0.08    0.21
   1  -2  11    0.66    0.29
   1  -2  12   33.64    1.08
   1  -2  12   44.70    1.24
   1  -2  13    0.97    0.36
   1  -2  13    1.46    0.44
   1  -2  14    2.01    0.44
   1  -2  14    4.30    0.65
   1  -2  15    0.31    0.35
   1  -2  15    0.69    0.42
   1  -2  16    2.06    0.51
   1  -2  16    2.75    0.63
   1  -2  17    3.30    0.64
   1  -2  17    5.05    0.81
   1  -2  18    2.38    0.67
   1  -2  18    3.90    0.83
  -1   1  18    1.86    0.69
  -1   1  18    1.54    0.65
  -1   1  18    1.74    0.53
  -1   1  17    1.21    0.59
  -1   1  17    1.62    0.63
  -1   1  17    1.33    0.46
   1  -1 -17    1.15    0.58
  -1   1  16    1.90    0.62
  -1   1  16    2.47    0.65
  -1   1  16    2.62    0.54
   1  -1 -16    3.18    0.57
  -1   1  15    1.85    0.56
  -1   1  15    2.45    0.61
  -1   1  15    2.31    0.49
   1  -1 -15    1.75    0.48
  -1   1  14   21.92    1.21
  -1   1  14   28.07    1.32
  -1   1  14   25.85    1.10
   1  -1 -14   23.16    1.10
   1  -1 -14   23.05    1.02
  -1   1  13   42.95    1.48
  -1   1  13   49.85    1.59
  -1   1  13   47.66    1.37
   1  -1 -13   42.58    1.36
   1  -1 -13   41.65    1.27
  -1   1  12   46.20    1.46
  -1   1  12   54.71    1.56
  -1   1  12   50.17    1.32
   1  -1 -12   46.44    1.37
   1  -1 -12   45.10    1.27
  -1   1  11  145.15    2.34
  -1   1  11  180.82    2.59
  -1   1  11  151.88    2.13
  -1   1  11  169.76    2.24
   1  -1 -11  147.00    2.23
   1  -1 -11  136.25    2.05
  -1   1  10   25.39    1.00
  -1   1  10   33.14    1.11
  -1   1  10   27.52    0.91
   1  -1 -10   25.52    0.96
   1  -1 -10   24.20    0.89
  -1   1   9   16.59    0.78
  -1   1   9   19.07    0.81
  -1   1   9   16.92    0.70
   1  -1  -9   15.14    0.73
   1  -1  -9   15.30    0.69
  -1   1   8    9.70    0.61
  -1   1   8   15.47    0.70
  -1   1   8   11.12    0.55
   1  -1  -8    9.62    0.58
   1  -1  -8    9.48    0.55
  -1   1   7  128.79    1.74
  -1   1   7  152.13    1.87
  -1   1   7  128.94    1.66
   1  -1  -7  128.09    1.71
   1  -1  -7  120.18    1.63
  -1   1   6  171.73    1.87
  -1   1   6  201.36    2.00
  -1   1   6  170.07    1.81
   1  -1  -6  168.39    1.84
   1  -1  -6  159.96    1.78
  -1   1   5    1.08    0.22
  -1   1   5    1.13    0.23
  -1   1   5    1.03    0.21
  -1   1   5    0.91    0.19
   1  -1  -5    1.18    0.23
   1  -1  -5    0.68    0.17
   1  -1  -5    0.91    0.19
  -1   1   4    3.81    0.28
  -1   1   4    3.28    0.30
  -1   1   4    2.86    0.26
  -1   1   4    4.08    0.30
  -1   1   4    3.02    0.26
  -1   1   4    4.28    0.20
   1  -1  -4    5.34    0.38
   1  -1  -4    2.75    0.27
   1  -1  -4    2.74    0.28
   1  -1  -4    2.51    0.26
  -1   1   3  386.48    2.06
  -1   1   3  401.48    2.16
  -1   1   3  378.28    2.06
  -1   1   3  380.04    2.06
  -1   1   3  396.24    2.33
  -1   1   3  385.99    1.23
   1  -1  -3  508.26    2.46
   1  -1  -3  389.27    2.12
   1  -1  -3  389.38    2.15
   1  -1  -3  438.78    2.25
   1  -1  -3  394.19    2.35
  -1   1   2   13.45    0.36
   1  -1  -2   13.19    0.37
   1  -1  -2   18.90    0.35
   1  -1  -2   14.75    0.45
  -1   1   1 1960.57    8.62
  -1   1   1 1106.17    4.04
  -1   1   1 1982.33    9.14
   1  -1  -1 1487.29    5.24
   1  -1  -1 1811.42    5.82
   1  -1  -1 1739.82    6.27
   1  -1  -1 1441.24    4.78
   1  -1  -1 2106.73    8.82
   1  -1  -1 1912.08    9.87
  -1   1   0    8.99    0.30
  -1   1   0    4.91    0.21
  -1   1   0    8.14    0.29
   1  -1   0   18.66    0.42
   1  -1   0    4.81    0.21
   1  -1   0    7.89    0.28
  -1   1  -1 1205.57    7.17
   1  -1   1 1306.69    5.98
   1  -1   1  869.43    3.72
   1  -1   1 1296.67    6.47
  -1   1  -2  651.51    2.79
   1  -1   2  708.12    2.88
  -1   1  -3   10.59    0.40
   1  -1   3   13.37    0.44
  -1   1  -4  127.89    1.40
   1  -1   4  142.90    1.46
  -1   1  -5    2.79    0.28
   1  -1   5    2.69    0.26
   1  -1   6    8.84    0.44
   1  -1   7   97.83    1.17
   1  -1   7   90.76    1.35
   1  -1   8  169.89    1.68
   1  -1   8  233.93    2.00
   1  -1   8  227.43    2.20
   1  -1   9   11.78    0.57
   1  -1   9   11.20    0.52
   1  -1   9   15.36    0.63
   1  -1   9   13.88    0.61
   1  -1  10   23.24    0.82
   1  -1  10   22.35    0.76
   1  -1  10   32.49    0.94
   1  -1  10   29.03    0.88
   1  -1  11    9.25    0.63
   1  -1  11    9.06    0.56
   1  -1  11   15.38    0.74
   1  -1  12    1.12    0.34
   1  -1  12    2.18    0.42
   1  -1  13    0.71    0.33
   1  -1  13    2.26    0.46
   1  -1  14    7.93    0.78
   1  -1  14   10.36    0.83
   1  -1  15   22.74    1.16
   1  -1  15   30.41    1.31
   1  -1  16    1.24    0.50
   1  -1  16    1.41    0.56
   1  -1  17    2.85    0.63
   1  -1  17    3.14    0.73
   1  -1  17    3.14    0.72
   1  -1  18    1.03    0.55
   1  -1  18    1.20    0.63
   1  -1  18    0.61    0.55
  -1   0  18    1.05    0.59
  -1   0  18    1.99    0.73
  -1   0  18    1.11    0.49
  -1   0  17    0.37    0.50
  -1   0  17   -0.40    0.49
  -1   0  17    0.26    0.37
  -1   0  16    1.64    0.53
  -1   0  16    1.08    0.57
   1   0 -16    0.44    0.33
  -1   0  15    0.76    0.44
  -1   0  15    0.81    0.49
   1   0 -15    0.83    0.34
  -1   0  14    2.08    0.51
  -1   0  14    3.61    0.65
   1   0 -14    2.19    0.47
   1   0 -14    2.26    0.42
  -1   0  13    2.14    0.51
  -1   0  13    3.22    0.60
   1   0 -13    2.76    0.49
   1   0 -13    2.90    0.43
  -1   0  12    3.51    0.55
  -1   0  12    5.62    0.68
   1   0 -12    4.51    0.57
   1   0 -12    4.42    0.48
  -1   0  11    8.94    0.71
  -1   0  11   12.47    0.80
   1   0 -11    9.43    0.67
   1   0 -11    8.60    0.56
  -1   0  10    0.80    0.29
  -1   0  10    1.17    0.35
   1   0 -10    0.80    0.30
   1   0 -10    0.60    0.23
  -1   0   9   28.72    0.95
  -1   0   9   39.72    1.09
   1   0  -9   29.35    0.91
   1   0  -9   27.87    0.80
  -1   0   8   88.79    1.50
  -1   0   8  125.18    1.75
   1   0  -8   92.59    1.47
   1   0  -8   87.46    1.31
  -1   0   7  134.64    1.71
  -1   0   7  180.43    1.96
   1   0  -7  136.32    1.67
   1   0  -7  135.26    1.54
  -1   0   6    1.45    0.26
  -1   0   6    1.76    0.26
  -1   0   6    2.68    0.32
   1   0  -6    1.79    0.26
   1   0  -6    1.51    0.22
  -1   0   5    7.45    0.41
  -1   0   5    6.68    0.36
  -1   0   5   10.47    0.45
   1   0  -5    6.10    0.35
   1   0  -5    6.81    0.38
   1   0  -5   10.13    0.42
   1   0  -5    7.48    0.35
  -1   0   4   31.85    0.66
  -1   0   4   44.28    0.76
   1   0  -4   32.05    0.65
   1   0  -4   31.50    0.66
   1   0  -4   42.06    0.74
   1   0  -4   34.47    0.67
  -1   0   3   56.00    0.77
  -1   0   3   84.46    0.93
   1   0  -3   61.00    0.80
   1   0  -3   82.37    0.92
  -1   0   2  314.54    1.53
  -1   0   2  580.33    2.07
  -1   0   2  269.69    1.10
   1   0  -2  348.17    1.64
   1   0  -2  548.62    2.05
  -1   0   1   98.17    0.69
  -1   0   1  226.09    1.04
  -1   0   1  210.70    1.21
  -1   0   1  108.84    0.70
   1   0  -1  104.38    0.75
   1   0  -1  213.96    1.06
   1   0  -1  101.35    0.68
  -1   0   0  521.41    2.05
  -1   0   0  242.61    1.42
  -1   0   0  358.36    1.47
   1   0   0  480.66    1.95
   1   0   0  233.65    1.39
   1   0   0  305.98    1.37
  -1   0  -1    1.47    0.17
  -1   0  -1    4.12    0.21
   1   0   1    0.96    0.15
  -1   0  -2   64.66    0.84
   1   0   2   63.63    0.82
   1   0   2   36.33    0.66
   1   0   2   55.44    0.79
  -1   0  -3    3.95    0.27
   1   0   3    4.07    0.25
   1   0   3    3.91    0.28
  -1   0  -4   45.55    0.80
   1   0   4   48.89    0.82
   1   0   4   36.67    0.57
  -1   0  -5    0.76    0.17
   1   0   5    0.90    0.16
   1   0   5    1.30    0.18
   1   0   5    1.69    0.24
   1   0   5    0.93    0.15
  -1   0  -6   16.43    0.56
   1   0   6   15.55    0.53
   1   0   6   14.94    0.49
   1   0   6   20.19    0.57
   1   0   6   20.31    0.61
   1   0   6   15.39    0.43
  -1   0  -7  337.17    2.47
   1   0   7  318.57    2.33
   1   0   7  292.57    2.19
   1   0   7  419.12    2.66
   1   0   7  397.41    2.65
   1   0   7  284.90    1.85
  -1   0  -8    4.32    0.37
   1   0   8    2.13    0.32
   1   0   8    2.26    0.31
   1   0   8    4.75    0.42
   1   0   8    3.83    0.34
   1   0   8    2.79    0.26
  -1   0  -9    7.24    0.47
   1   0   9    7.38    0.54
   1   0   9    6.61    0.46
   1   0   9    9.09    0.55
   1   0   9    8.49    0.47
   1   0   9    6.26    0.35
  -1   0 -10    2.48    0.39
   1   0  10    1.89    0.35
   1   0  10    2.01    0.35
   1   0  10    2.56    0.39
   1   0  10    2.80    0.34
   1   0  10    2.00    0.27
   1   0  11    0.30    0.28
   1   0  11    0.30    0.22
   1   0  11    0.68    0.32
   1   0  11    0.66    0.23
   1   0  11    0.43    0.20
   1   0  11    0.93    0.35
   1   0  12    1.86    0.42
   1   0  12    2.29    0.45
   1   0  12    2.32    0.40
   1   0  12    1.96    0.48
   1   0  13    1.32    0.40
   1   0  13    1.39    0.42
   1   0  13    1.44    0.44
   1   0  14    0.06    0.32
   1   0  14    0.24    0.40
   1   0  14    0.00    0.33
   1   0  15    0.71    0.43
   1   0  15    0.83    0.51
   1   0  15    0.70    0.44
   1   0  16   -0.07    0.40
   1   0  16    0.10    0.47
   1   0  16   -0.37    0.33
   1   0  17    0.02    0.46
   1   0  17   -0.09    0.48
   1   0  17   -0.32    0.39
   1   0  18    1.23    0.58
   1   0  18    1.93    0.71
   1   0  18    1.04    0.53
  -1  -1  19    1.38    0.70
  -1  -1  18   -0.08    0.49
  -1  -1  18    0.23    0.59
  -1  -1  17    1.95    0.62
  -1  -1  17    2.48    0.69
  -1  -1  16    8.09    0.94
  -1  -1  16   11.11    1.06
   1   1 -16    8.70    0.74
  -1  -1  15    0.73    0.42
  -1  -1  15    1.21    0.53
   1   1 -15    1.15    0.31
  -1  -1  14    0.42    0.35
  -1  -1  14    0.38    0.41
   1   1 -14    0.10    0.31
   1   1 -14    0.31    0.25
  -1  -1  13   18.35    1.02
  -1  -1  13   25.94    1.18
   1   1 -13   20.30    0.96
   1   1 -13   19.01    0.74
  -1  -1  12   41.99    1.33
  -1  -1  12   62.73    1.60
  -1  -1  12   49.14    0.91
   1   1 -12   45.12    1.26
   1   1 -12   41.74    1.00
  -1  -1  11   13.99    0.79
  -1  -1  11   17.36    0.88
  -1  -1  11   12.65    0.48
   1   1 -11   13.24    0.73
   1   1 -11   11.54    0.56
  -1  -1  10    2.08    0.37
  -1  -1  10    3.63    0.48
   1   1 -10    2.98    0.41
   1   1 -10    2.96    0.34
  -1  -1   9   12.22    0.66
  -1  -1   9   16.04    0.74
   1   1  -9   12.68    0.64
   1   1  -9   12.40    0.52
  -1  -1   7   13.50    0.59
  -1  -1   7   21.83    0.72
   1   1  -7   12.70    0.55
  -1  -1   6    5.17    0.38
  -1  -1   6    7.13    0.43
   1   1  -6    4.48    0.36
  -1  -1   5   60.78    0.99
  -1  -1   5   97.31    1.25
   1   1  -5   71.50    1.07
   1   1  -5   68.03    1.03
   1   1  -5   85.10    1.13
  -1  -1   4   44.72    0.79
  -1  -1   4   77.17    1.03
   1   1  -4   52.77    0.85
   1   1  -4   70.75    0.96
  -1  -1   3   46.87    0.75
  -1  -1   3   86.15    1.00
  -1  -1   3   43.50    0.70
   1   1  -3   51.94    0.78
   1   1  -3   79.50    0.95
  -1  -1   2   90.54    0.95
  -1  -1   2  178.53    1.32
  -1  -1   2   89.81    0.95
   1   1  -2   96.31    0.98
   1   1  -2  164.85    1.27
   1   1  -2   94.86    0.99
  -1  -1   1  666.87    2.37
  -1  -1   1 1299.43    5.87
  -1  -1   1  718.63    2.65
   1   1  -1  682.70    2.42
   1   1  -1 1192.89    4.08
   1   1  -1  721.25    2.67
  -1  -1   0  646.66    2.24
  -1  -1   0 1082.59    3.61
  -1  -1   0  707.29    2.72
   1   1   0  599.90    2.21
   1   1   0 1022.57    3.15
   1   1   0  673.60    2.67
  -1  -1  -1  161.29    1.12
  -1  -1  -1  207.39    1.27
  -1  -1  -1  158.82    1.10
  -1  -1  -1  140.38    1.22
  -1  -1  -1  170.09    1.42
   1   1   1  138.64    1.08
   1   1   1  204.60    1.32
   1   1   1  138.80    1.10
   1   1   1  137.51    1.20
   1   1   1  151.07    1.36
  -1  -1  -2    0.07    0.12
  -1  -1  -2    0.17    0.10
  -1  -1  -2    0.17    0.11
  -1  -1  -2    0.03    0.10
   1   1   2    0.16    0.09
   1   1   2    0.19    0.11
   1   1   2    0.21    0.10
   1   1   2    0.23    0.11
   1   1   2   -0.04    0.10
   1   1   2    0.28    0.13
   1   1   2    0.08    0.11
  -1  -1  -3    0.51    0.15
   1   1   3    0.54    0.12
   1   1   3    0.60    0.14
   1   1   3    0.61    0.14
   1   1   3    0.56    0.14
   1   1   3    0.59    0.15
  -1  -1  -4    4.65    0.32
  -1  -1  -4    2.21    0.22
  -1  -1  -4    2.34    0.22
  -1  -1  -4    3.17    0.28
  -1  -1  -4    2.72    0.30
   1   1   4    2.19    0.23
   1   1   4    2.28    0.26
   1   1   4    2.44    0.24
   1   1   4    2.84    0.26
   1   1   4    1.13    0.19
   1   1   4    2.27    0.24
   1   1   4    2.38    0.28
  -1  -1  -5   75.30    0.97
  -1  -1  -5  104.69    1.30
  -1  -1  -5   80.51    1.15
   1   1   5   87.90    1.28
   1   1   5   82.06    1.16
   1   1   5   76.78    1.09
   1   1   5   86.04    1.18
   1   1   5   77.70    1.11
   1   1   5   83.93    1.36
  -1  -1  -6  268.10    1.94
  -1  -1  -6  261.95    1.91
  -1  -1  -6  372.59    2.51
  -1  -1  -6  276.35    2.19
   1   1   6  291.45    2.32
   1   1   6  270.10    2.19
   1   1   6  311.54    2.40
   1   1   6  262.14    2.12
   1   1   6  300.03    2.71
  -1  -1  -7  167.75    1.62
  -1  -1  -7  223.91    2.02
  -1  -1  -7  177.08    1.84
   1   1   7  192.56    2.04
   1   1   7  175.16    1.89
   1   1   7  203.71    2.09
   1   1   7  172.41    1.80
   1   1   7  192.45    2.32
  -1  -1  -8    1.15    0.23
  -1  -1  -8    1.25    0.26
  -1  -1  -8    1.30    0.27
   1   1   8    0.98    0.28
   1   1   8    1.02    0.25
   1   1   8    0.96    0.26
   1   1   8    1.02    0.23
   1   1   8    1.41    0.32
  -1  -1  -9   45.97    0.96
  -1  -1  -9   56.88    1.11
  -1  -1  -9   49.33    1.08
   1   1   9   54.51    1.28
   1   1   9   49.14    1.17
   1   1   9   55.79    1.29
   1   1   9   48.98    1.05
   1   1   9   52.17    1.37
  -1  -1 -10    5.93    0.48
  -1  -1 -10    5.25    0.48
   1   1  10    5.44    0.58
   1   1  10    4.42    0.50
   1   1  10    5.38    0.57
   1   1  10    4.54    0.42
   1   1  10    5.13    0.56
  -1  -1 -11   61.55    1.25
  -1  -1 -11   54.28    1.22
   1   1  11   58.81    1.49
   1   1  11   65.84    1.57
   1   1  11   50.57    1.16
   1   1  11   62.27    1.65
  -1  -1 -12   -0.18    0.29
  -1  -1 -12    0.29    0.26
   1   1  12    0.49    0.33
   1   1  12    0.74    0.36
   1   1  12   -0.04    0.24
   1   1  12    0.19    0.29
  -1  -1 -13    1.10    0.35
   1   1  13    0.62    0.39
   1   1  13    0.45    0.40
   1   1  13    0.59    0.37
   1   1  14    0.30    0.38
   1   1  14   -0.21    0.36
   1   1  14    0.41    0.37
   1   1  15    3.83    0.68
   1   1  15    3.97    0.71
   1   1  15    3.58    0.65
   1   1  16    1.48    0.57
   1   1  16    1.30    0.54
   1   1  16    1.38    0.51
   1   1  17    0.06    0.47
   1   1  17    0.47    0.53
   1   1  17    0.29    0.44
  -1  -2  19    0.43    0.56
  -1  -2  19    0.77    0.69
  -1  -2  18    1.45    0.60
  -1  -2  18    3.55    0.82
  -1  -2  17    4.66    0.79
  -1  -2  17    6.32    0.93
  -1  -2  16    7.66    0.92
  -1  -2  16   13.69    1.13
  -1  -2  15    1.91    0.52
  -1  -2  15    2.88    0.66
  -1  -2  14    0.79    0.38
  -1  -2  14    1.56    0.54
   1   2 -14    0.69    0.39
  -1  -2  13    0.95    0.42
  -1  -2  13    1.77    0.56
  -1  -2  13    1.83    0.33
   1   2 -13    1.20    0.43
  -1  -2  12   13.78    0.87
  -1  -2  12   20.44    1.04
   1   2 -12   14.15    0.84
   1   2 -12   16.16    0.63
  -1  -2  11    9.53    0.69
  -1  -2  11   14.07    0.83
   1   2 -11   11.38    0.70
   1   2 -11   11.09    0.52
  -1  -2  10   10.17    0.66
  -1  -2  10   16.44    0.81
   1   2 -10   11.77    0.66
   1   2 -10   13.72    0.54
  -1  -2   9    1.01    0.27
  -1  -2   9    1.30    0.33
   1   2  -9    0.82    0.28
  -1  -2   8  152.45    1.94
  -1  -2   8  241.17    2.43
   1   2  -8  187.47    2.02
  -1  -2   7   42.42    0.99
  -1  -2   7   67.36    1.24
   1   2  -7   51.96    1.05
  -1  -2   6   10.34    0.51
  -1  -2   6   17.37    0.64
  -1  -2   5   21.15    0.65
  -1  -2   5   38.84    0.86
  -1  -2   4  371.69    2.44
  -1  -2   4  632.24    3.17
  -1  -2   4  380.52    2.56
   1   2  -4  434.00    2.57
   1   2  -4  569.05    2.91
  -1  -2   3   48.31    0.88
  -1  -2   3   83.41    1.13
  -1  -2   3   51.46    0.93
   1   2  -3   53.07    0.90
   1   2  -3   77.09    1.06
   1   2  -3   53.92    0.97
  -1  -2   2  515.86    2.67
  -1  -2   2  870.79    3.45
  -1  -2   2  548.54    2.90
   1   2  -2  535.79    2.68
   1   2  -2  817.59    3.30
   1   2  -2  559.49    2.97
  -1  -2   1 1902.24    6.59
  -1  -2   1 3132.77   13.08
  -1  -2   1 2069.47    6.98
   1   2  -1 1862.92    4.93
   1   2  -1 2978.59   12.28
   1   2  -1 2056.62    6.67
  -1  -2   0   30.96    0.67
   1   2   0   26.83    0.65
  -1  -2  -1   17.43    0.54
  -1  -2  -1   24.56    0.61
  -1  -2  -1   17.01    0.50
  -1  -2  -1   16.20    0.47
  -1  -2  -1   17.91    0.57
   1   2   1   16.03    0.51
   1   2   1   25.52    0.64
   1   2   1   24.31    0.61
   1   2   1   25.90    0.68
   1   2   1   15.26    0.55
  -1  -2  -2  134.22    1.41
  -1  -2  -2  165.28    1.53
  -1  -2  -2  164.02    1.54
  -1  -2  -2  130.51    1.29
  -1  -2  -2  139.76    1.59
   1   2   2  115.53    1.33
   1   2   2  163.30    1.60
   1   2   2  164.35    1.58
   1   2   2  112.54    1.33
   1   2   2  116.88    1.22
   1   2   2  175.04    1.77
   1   2   2  124.37    1.52
  -1  -2  -3  152.77    1.56
  -1  -2  -3  150.09    1.75
  -1  -2  -3  148.66    1.52
  -1  -2  -3  157.37    1.76
  -1  -2  -3  144.10    1.69
   1   2   3  156.59    1.64
   1   2   3  151.55    1.59
   1   2   3  112.17    1.39
   1   2   3  109.86    1.25
   1   2   3  159.56    1.75
   1   2   3  112.36    1.52
  -1  -2  -4    6.45    0.46
  -1  -2  -4    5.46    0.37
  -1  -2  -4    5.79    0.42
  -1  -2  -4    5.31    0.40
   1   2   4    5.88    0.41
   1   2   4    5.41    0.38
   1   2   4    4.53    0.37
   1   2   4    3.96    0.31
   1   2   4    5.32    0.39
   1   2   4    4.10    0.37
  -1  -2  -5    1.29    0.25
  -1  -2  -5    1.84    0.30
   1   2   5    1.20    0.26
   1   2   5    1.28    0.25
   1   2   5    1.14    0.25
   1   2   5    1.50    0.23
   1   2   5    1.60    0.28
   1   2   5    1.05    0.24
  -1  -2  -6   29.09    0.88
  -1  -2  -6   15.15    0.61
  -1  -2  -6   22.58    0.72
  -1  -2  -6   16.23    0.68
  -1  -2  -6   22.21    0.83
   1   2   6   15.99    0.71
   1   2   6   15.11    0.64
   1   2   6   14.40    0.65
   1   2   6   13.58    0.57
   1   2   6   15.19    0.64
   1   2   6   16.77    0.72
  -1  -2  -7   32.62    0.88
  -1  -2  -7   43.61    0.99
  -1  -2  -7   32.38    0.96
   1   2   7   35.73    1.03
   1   2   7   32.87    0.96
   1   2   7   30.16    0.94
   1   2   7   31.74    0.92
   1   2   7   28.37    0.97
  -1  -2  -8   13.17    0.63
  -1  -2  -8   19.87    0.74
  -1  -2  -8   14.30    0.70
   1   2   8   15.72    0.78
   1   2   8   12.65    0.69
   1   2   8   14.17    0.66
   1   2   8   11.57    0.68
  -1  -2  -9    2.17    0.36
  -1  -2  -9    2.81    0.40
  -1  -2  -9    2.74    0.44
   1   2   9    2.27    0.43
   1   2   9    1.90    0.40
   1   2   9    2.06    0.37
   1   2   9    2.53    0.43
  -1  -2 -10   64.01    1.34
  -1  -2 -10   85.07    1.45
  -1  -2 -10   68.83    1.52
   1   2  10   71.38    1.67
   1   2  10   67.04    1.60
   1   2  10   62.95    1.44
   1   2  10   61.13    1.60
  -1  -2 -11    3.41    0.47
  -1  -2 -11    5.03    0.54
  -1  -2 -11    3.80    0.54
   1   2  11    3.67    0.56
   1   2  11    4.01    0.58
   1   2  11    2.67    0.53
  -1  -2 -12   10.05    0.65
  -1  -2 -12    8.36    0.70
   1   2  12    9.05    0.84
   1   2  12    8.12    0.78
   1   2  12    6.09    0.68
  -1  -2 -13    0.46    0.33
  -1  -2 -13    0.23    0.32
   1   2  13    0.11    0.38
   1   2  13    0.46    0.40
   1   2  13    0.40    0.34
  -1  -2 -14   24.84    1.09
   1   2  14   27.83    1.40
   1   2  14   22.96    1.27
   1   2  14   21.45    1.19
   1   2  15    1.68    0.57
   1   2  15    2.22    0.60
   1   2  15    2.19    0.56
   1   2  16    0.30    0.51
   1   2  16    0.27    0.47
   1   2  16   -0.09    0.33
  -1  -3  18    2.99    0.71
  -1  -3  18    4.71    0.89
  -1  -3  17    1.99    0.58
  -1  -3  17    2.77    0.75
  -1  -3  16    0.07    0.38
  -1  -3  16   -0.42    0.48
  -1  -3  15    3.62    0.63
  -1  -3  15    4.82    0.77
  -1  -3  14    6.25    0.75
  -1  -3  14    9.19    0.92
  -1  -3  13   29.93    1.22
  -1  -3  13   49.08    1.56
   1   3 -13   37.25    1.18
  -1  -3  12   73.50    1.72
  -1  -3  12  114.13    2.15
   1   3 -12   91.53    1.69
  -1  -3  11   91.07    1.80
  -1  -3  11  151.09    2.32
   1   3 -11  117.14    1.82
  -1  -3  10    7.66    0.61
  -1  -3  10   12.38    0.78
   1   3 -10    8.56    0.62
  -1  -3   9  122.35    1.90
  -1  -3   9  199.28    2.42
   1   3  -9  161.73    1.99
  -1  -3   8   14.21    0.68
  -1  -3   8   22.82    0.86
   1   3  -8   17.80    0.70
  -1  -3   7   14.05    0.65
  -1  -3   7   24.96    0.84
  -1  -3   6   34.18    0.91
  -1  -3   6   55.44    1.15
  -1  -3   6   34.80    0.97
  -1  -3   5   20.53    0.71
  -1  -3   5   34.74    0.89
  -1  -3   5   20.78    0.74
  -1  -3   4   87.66    1.34
  -1  -3   4  141.13    1.69
  -1  -3   4   89.12    1.43
  -1  -3   3   13.70    0.57
  -1  -3   3   23.86    0.72
  -1  -3   3   14.78    0.60
   1   3  -3   21.87    0.70
   1   3  -3   23.48    0.69
   1   3  -3   15.43    0.64
  -1  -3   2   44.77    0.95
  -1  -3   2   71.69    1.18
  -1  -3   2   45.56    1.00
   1   3  -2   71.81    1.18
   1   3  -2   73.63    1.21
   1   3  -2   46.81    1.04
  -1  -3   1    6.00    0.42
  -1  -3   1   10.03    0.50
  -1  -3   1    6.44    0.41
   1   3  -1   10.44    0.52
   1   3  -1   10.85    0.52
   1   3  -1    5.73    0.42
  -1  -3   0   23.60    0.72
  -1  -3   0   36.04    0.85
  -1  -3   0   24.77    0.75
   1   3   0   37.07    0.89
   1   3   0   38.24    0.93
   1   3   0   22.81    0.74
  -1  -3  -1    5.32    0.43
  -1  -3  -1    8.59    0.48
  -1  -3  -1    4.50    0.30
  -1  -3  -1    4.73    0.38
   1   3   1    8.20    0.48
   1   3   1    9.10    0.50
   1   3   1    4.98    0.41
  -1  -3  -2   86.73    1.36
  -1  -3  -2  112.32    1.52
  -1  -3  -2   87.16    1.11
  -1  -3  -2  115.92    1.70
  -1  -3  -2   88.48    1.44
   1   3   2  118.05    1.60
   1   3   2  117.35    1.68
   1   3   2   77.76    1.37
  -1  -3  -3   29.29    0.84
  -1  -3  -3   35.30    0.90
  -1  -3  -3   35.78    1.00
  -1  -3  -3   29.64    0.88
   1   3   3   36.13    0.95
   1   3   3   22.97    0.76
   1   3   3   37.07    0.99
   1   3   3   24.42    0.82
  -1  -3  -4   38.84    1.01
  -1  -3  -4   37.96    0.96
  -1  -3  -4   40.82    1.09
  -1  -3  -4   36.29    1.00
   1   3   4   42.84    1.07
   1   3   4   26.87    0.85
   1   3   4   26.84    0.69
   1   3   4   40.17    1.06
   1   3   4   27.48    0.89
  -1  -3  -5   34.77    1.02
  -1  -3  -5   29.23    0.88
  -1  -3  -5   30.18    0.99
  -1  -3  -5   31.63    1.08
   1   3   5   32.10    0.99
   1   3   5   21.45    0.81
   1   3   5   21.52    0.66
   1   3   5   30.68    0.96
   1   3   5   20.68    0.81
  -1  -3  -6    6.62    0.64
  -1  -3  -7   84.06    1.64
  -1  -3  -7   57.35    1.28
  -1  -3  -7   72.45    1.35
  -1  -3  -7   55.12    1.39
   1   3   7   62.00    1.46
   1   3   7   44.02    1.23
   1   3   7   43.94    1.04
   1   3   7   44.89    1.27
  -1  -3  -8    8.23    0.82
  -1  -3  -8    1.63    0.35
  -1  -3  -8    5.11    0.54
  -1  -3  -8    2.40    0.44
   1   3   8    1.12    0.36
   1   3   8    1.23    0.35
   1   3   8    1.72    0.35
  -1  -3  -9   67.91    1.51
  -1  -3  -9   91.60    1.59
  -1  -3  -9   68.74    1.66
   1   3   9   78.90    1.84
   1   3   9   59.70    1.58
   1   3   9   57.45    1.33
   1   3   9   53.49    1.51
  -1  -3 -10   76.54    1.63
  -1  -3 -10  108.74    1.73
  -1  -3 -10   79.46    1.83
   1   3  10   88.84    2.01
   1   3  10   68.47    1.75
   1   3  10   62.31    1.47
   1   3  10   63.73    1.72
  -1  -3 -11   13.66    0.85
  -1  -3 -11   17.52    0.83
  -1  -3 -11   12.99    0.88
   1   3  11   14.77    1.01
   1   3  11   13.32    0.92
   1   3  11   10.12    0.72
   1   3  11    9.95    0.80
  -1  -3 -12    0.16    0.34
  -1  -3 -12   -0.09    0.35
   1   3  12    0.31    0.40
   1   3  12    0.43    0.37
   1   3  12   -0.16    0.25
   1   3  12   -0.08    0.28
  -1  -3 -13    2.48    0.58
   1   3  13    2.12    0.60
   1   3  13    2.12    0.58
   1   3  13    1.54    0.42
   1   3  13    2.10    0.54
  -1  -3 -14   -0.22    0.37
   1   3  14    0.05    0.46
   1   3  14   -0.14    0.41
   1   3  14   -0.20    0.33
   1   3  14    0.37    0.37
   1   3  15    0.34    0.52
   1   3  15    0.16    0.47
   1   3  15   -0.29    0.40
   1   3  15   -0.17    0.33
   1   3  16   11.45    1.35
   1   3  16    7.78    1.04
   1   3  16    7.29    0.94
  -1  -4  18   -0.48    0.41
  -1  -4  18   -0.19    0.60
  -1  -4  17    0.32    0.43
  -1  -4  17    0.23    0.58
  -1  -4  16   12.94    1.07
  -1  -4  16   22.44    1.37
  -1  -4  15    1.75    0.51
  -1  -4  15    2.19    0.63
  -1  -4  14    1.74    0.48
  -1  -4  14    3.25    0.65
  -1  -4  13    0.45    0.33
  -1  -4  13    0.75    0.44
  -1  -4  12   78.18    1.82
  -1  -4  12  132.71    2.36
   1   4 -12  108.80    1.82
  -1  -4  11    0.77    0.32
  -1  -4  11    2.09    0.45
   1   4 -11    1.02    0.37
  -1  -4  10    0.81    0.30
  -1  -4  10    1.80    0.43
   1   4 -10    1.46    0.38
  -1  -4   9   20.83    0.88
  -1  -4   9   35.02    1.14
   1   4  -9   27.78    0.92
  -1  -4   8    2.05    0.34
  -1  -4   8    3.45    0.46
  -1  -4   7   13.92    0.70
  -1  -4   7   22.61    0.87
   1   4  -7   19.15    0.68
  -1  -4   6   26.58    0.89
  -1  -4   6   42.57    1.11
   1   4  -6   40.35    1.03
   1   4  -6   39.55    0.95
  -1  -4   5   23.58    0.83
  -1  -4   5   38.28    1.04
   1   4  -5   37.37    0.99
   1   4  -5   36.22    0.93
  -1  -4   4   24.15    0.83
  -1  -4   4   39.87    1.04
  -1  -4   4   27.71    1.16
   1   4  -4   40.90    1.03
   1   4  -4   41.24    1.01
  -1  -4   3    0.36    0.23
   1   4  -3    0.14    0.23
  -1  -4   2   -0.05    0.22
  -1  -4   2    0.13    0.18
   1   4  -2   -0.11    0.21
  -1  -4   1  254.02    2.52
  -1  -4   1  390.61    3.09
  -1  -4   1  256.23    2.63
   1   4  -1  405.50    3.13
   1   4  -1  412.45    3.30
   1   4  -1  258.99    2.69
  -1  -4   0   71.22    1.38
  -1  -4   0  108.90    1.67
  -1  -4   0   71.19    1.42
   1   4   0  113.04    1.70
   1   4   0  116.68    1.82
   1   4   0   70.33    1.44
  -1  -4  -1    1.17    0.30
  -1  -4  -1    2.58    0.39
  -1  -4  -1    1.19    0.20
  -1  -4  -1    2.83    0.44
  -1  -4  -1    1.27    0.28
   1   4   1    2.16    0.34
   1   4   1    2.96    0.43
   1   4   1    1.30    0.32
  -1  -4  -2   41.69    1.10
  -1  -4  -2   57.27    1.26
  -1  -4  -2   42.15    0.82
  -1  -4  -2   57.34    1.37
  -1  -4  -2   41.73    1.47
   1   4   2   59.35    1.31
   1   4   2   62.53    1.44
   1   4   2   36.54    1.07
  -1  -4  -3   39.89    1.10
  -1  -4  -3   50.23    1.21
  -1  -4  -3   51.44    1.34
   1   4   3   52.29    1.27
   1   4   3   32.67    1.05
  -1  -4  -4   17.48    0.83
  -1  -4  -4   18.97    0.81
  -1  -4  -4   18.65    0.87
   1   4   4   18.86    0.84
   1   4   4   12.43    0.70
  -1  -4  -5   12.79    0.79
  -1  -4  -5   12.32    0.71
  -1  -4  -5   13.42    0.79
   1   4   5   14.15    0.80
   1   4   5    8.71    0.63
   1   4   5    9.09    0.63
  -1  -4  -6   23.43    1.05
  -1  -4  -6   18.80    0.86
  -1  -4  -6   18.42    0.93
   1   4   6   18.73    0.93
   1   4   6   12.37    0.76
   1   4   6   12.65    0.56
   1   4   6   13.16    0.76
  -1  -4  -7   -0.38    0.42
  -1  -4  -7    0.15    0.32
  -1  -4  -7    0.93    0.37
   1   4   7   -0.19    0.33
   1   4   7   -0.02    0.31
   1   4   7    0.48    0.20
   1   4   7    0.59    0.27
  -1  -4  -8   26.57    1.41
  -1  -4  -8   16.82    0.96
  -1  -4  -8   21.09    1.07
   1   4   8   20.30    1.17
   1   4   8   14.29    0.93
   1   4   8   15.60    0.70
   1   4   8   15.23    0.88
  -1  -4  -9  175.30    2.77
  -1  -4  -9  107.26    2.06
  -1  -4  -9  150.12    2.15
  -1  -4  -9  113.63    2.33
   1   4   9  126.90    2.48
   1   4   9   83.03    1.97
   1   4   9   83.25    1.56
   1   4   9   81.01    1.93
  -1  -4 -10    0.52    0.36
  -1  -4 -10    2.33    0.50
  -1  -4 -10    0.51    0.44
   1   4  10    0.98    0.48
   1   4  10    0.62    0.40
   1   4  10    0.71    0.29
   1   4  10    0.78    0.36
  -1  -4 -11    0.70    0.42
  -1  -4 -11    0.63    0.46
   1   4  11    0.50    0.42
   1   4  11    0.69    0.41
   1   4  11    0.51    0.28
   1   4  11    0.03    0.30
  -1  -4 -12    0.56    0.66
  -1  -4 -12    0.49    0.45
   1   4  12    0.60    0.47
   1   4  12    0.39    0.40
   1   4  12    0.25    0.28
   1   4  12    0.05    0.32
  -1  -4 -13    6.41    0.86
   1   4  13    6.98    0.95
   1   4  13    5.10    0.81
   1   4  13    4.60    0.74
  -1  -4 -14   -0.25    0.40
   1   4  14   -0.18    0.47
   1   4  14    0.11    0.46
   1   4  14    0.49    0.42
  -1  -5  17    0.15    0.51
  -1  -5  17    1.00    0.66
  -1  -5  16    0.50    0.45
  -1  -5  16    0.78    0.62
  -1  -5  15    0.46    0.44
  -1  -5  15    0.81    0.54
  -1  -5  14    9.24    0.91
  -1  -5  14   17.57    1.20
  -1  -5  13    8.88    0.85
  -1  -5  13   15.66    1.08
  -1  -5  12    0.48    0.33
  -1  -5  12    0.54    0.43
  -1  -5  11   10.97    0.80
  -1  -5  11   17.91    1.02
   1   5 -11   13.20    0.75
   1   5 -11   12.69    0.79
   1   5 -11   11.54    0.59
  -1  -5  10    2.26    0.43
  -1  -5  10    4.12    0.59
   1   5 -10    3.68    0.49
   1   5 -10    2.70    0.47
   1   5 -10    3.46    0.42
  -1  -5   9   14.61    0.82
  -1  -5   9   23.82    1.04
   1   5  -9   20.64    0.85
   1   5  -9   19.96    0.75
  -1  -5   8   10.25    0.70
  -1  -5   8   16.77    0.87
   1   5  -8   15.42    0.76
   1   5  -8   14.77    0.67
  -1  -5   7    0.97    0.30
  -1  -5   7    1.92    0.41
   1   5  -7    1.45    0.34
   1   5  -7    1.96    0.35
  -1  -5   6   28.93    1.01
  -1  -5   6   46.92    1.28
   1   5  -6   43.11    1.15
   1   5  -6   43.01    1.11
  -1  -5   5   12.06    0.69
  -1  -5   5   20.36    0.89
   1   5  -5   18.95    0.81
   1   5  -5   18.19    0.77
  -1  -5   4    4.61    0.50
  -1  -5   4    8.84    0.63
   1   5  -4    8.22    0.62
   1   5  -4    8.01    0.56
  -1  -5   3    0.56    0.26
  -1  -5   3    1.03    0.32
   1   5  -3    1.08    0.30
   1   5  -3    0.97    0.29
   1   5  -3    0.49    0.28
  -1  -5   2   12.32    0.71
  -1  -5   2   19.72    0.86
   1   5  -2   19.90    0.84
   1   5  -2   12.73    0.74
  -1  -5   1    7.66    0.61
  -1  -5   1   11.61    0.71
   1   5  -1   11.73    0.69
   1   5  -1    7.75    0.61
  -1  -5   0    8.02    0.62
  -1  -5   0   12.82    0.74
  -1  -5   0    7.90    0.42
   1   5   0   12.57    0.71
   1   5   0    8.98    0.64
  -1  -5  -1   20.30    0.90
  -1  -5  -1   28.34    1.02
  -1  -5  -1   19.06    0.59
  -1  -5  -1   27.88    1.08
   1   5   1   28.74    1.02
   1   5   1   19.07    0.87
  -1  -5  -2   14.36    0.79
  -1  -5  -2   17.89    0.85
  -1  -5  -2   13.95    0.51
  -1  -5  -2   20.39    0.97
   1   5   2   20.14    0.91
   1   5   2   13.52    0.77
  -1  -5  -3    1.16    0.34
  -1  -5  -3    2.39    0.44
  -1  -5  -3    1.91    0.43
   1   5   3    1.88    0.40
   1   5   3    1.32    0.34
  -1  -5  -4    0.36    0.34
  -1  -5  -4    0.22    0.28
  -1  -5  -4    0.45    0.31
   1   5   4    0.36    0.32
   1   5   4    0.12    0.21
  -1  -5  -5   -0.05    0.34
  -1  -5  -5   -0.11    0.29
  -1  -5  -5    0.32    0.32
   1   5   5    0.06    0.32
   1   5   5    0.40    0.27
  -1  -5  -6    0.47    0.48
  -1  -5  -6    1.05    0.40
  -1  -5  -6    1.40    0.45
   1   5   6    0.87    0.42
   1   5   6    0.94    0.34
  -1  -5  -7    1.87    0.64
  -1  -5  -7    2.45    0.53
  -1  -5  -7    2.49    0.56
   1   5   7    2.06    0.56
   1   5   7    1.06    0.44
   1   5   7    1.66    0.42
  -1  -5  -8   -0.14    0.61
  -1  -5  -8    0.67    0.43
  -1  -5  -8    0.34    0.44
   1   5   8    0.98    0.50
   1   5   8    0.64    0.41
   1   5   8    0.45    0.26
   1   5   8    1.12    0.39
  -1  -5  -9   33.83    1.68
  -1  -5  -9   24.00    1.19
  -1  -5  -9   30.85    1.18
  -1  -5  -9   22.42    1.31
   1   5   9   27.93    1.44
   1   5   9   15.59    1.06
   1   5   9   14.17    0.71
   1   5   9   15.87    1.00
  -1  -5 -10   33.04    1.67
  -1  -5 -10   26.26    1.13
  -1  -5 -10   18.54    1.22
   1   5  10   22.39    1.37
   1   5  10   12.90    1.01
   1   5  10   13.04    0.96
  -1  -5 -11   15.83    1.36
  -1  -5 -11   11.38    1.04
   1   5  11   12.92    1.24
   1   5  11    7.93    0.92
   1   5  11    6.33    0.79
  -1  -5 -12   11.46    1.07
   1   5  12   11.89    1.25
   1   5  12    8.68    0.98
   1   5  12    7.04    0.83
  -1  -5 -13   -0.31    0.44
   1   5  13   -0.12    0.50
   1   5  13    0.60    0.50
   1   5  13   -0.14    0.35
  -1  -6  16    0.83    0.53
  -1  -6  16    0.69    0.68
  -1  -6  15   -0.08    0.40
  -1  -6  15    0.05    0.54
  -1  -6  14    5.23    0.78
  -1  -6  14    7.18    0.94
  -1  -6  13    4.35    0.68
  -1  -6  13    8.46    1.00
  -1  -6  12    3.49    0.59
  -1  -6  12    5.49    0.77
  -1  -6  11    0.09    0.32
  -1  -6  11    0.41    0.42
  -1  -6  10    0.09    0.30
  -1  -6  10    0.60    0.38
   1   6 -10    0.08    0.28
   1   6 -10    0.16    0.23
  -1  -6   9    2.55    0.47
  -1  -6   9    3.48    0.57
   1   6  -9    4.03    0.60
  -1  -6   8    0.11    0.27
  -1  -6   8    0.22    0.34
   1   6  -8    0.11    0.27
  -1  -6   7    1.66    0.39
  -1  -6   7    3.06    0.54
   1   6  -7    2.35    0.44
  -1  -6   6    0.85    0.31
  -1  -6   6    2.26    0.49
   1   6  -6    1.87    0.41
  -1  -6   5    0.06    0.24
  -1  -6   5    0.25    0.32
   1   6  -5    0.01    0.25
  -1  -6   4    6.27    0.64
  -1  -6   4   11.20    0.79
   1   6  -4   10.69    0.74
  -1  -6   3    3.88    0.52
  -1  -6   3    6.42    0.66
   1   6  -3    6.72    0.64
  -1  -6   2    6.76    0.66
  -1  -6   2   11.59    0.81
   1   6  -2   11.94    0.77
   1   6  -2    8.27    0.70
  -1  -6   1    0.66    0.34
  -1  -6   1    1.53    0.44
   1   6  -1    1.46    0.38
   1   6  -1    0.62    0.32
  -1  -6   0    1.81    0.43
  -1  -6   0    3.44    0.57
  -1  -6   0    2.08    0.27
   1   6   0    2.36    0.47
   1   6   0    1.78    0.42
  -1  -6  -1   10.53    0.82
  -1  -6  -1   14.71    0.91
  -1  -6  -1    9.36    0.45
   1   6   1   15.11    0.91
   1   6   1    9.45    0.73
  -1  -6  -2    7.26    0.74
  -1  -6  -2    9.49    0.80
  -1  -6  -2    6.98    0.40
  -1  -6  -2    9.41    0.81
   1   6   2   11.38    0.84
   1   6   2    5.94    0.62
  -1  -6  -3   -0.06    0.31
  -1  -6  -3    0.01    0.34
  -1  -6  -3   -0.19    0.29
   1   6   3   -0.40    0.30
   1   6   3    0.08    0.26
  -1  -6  -4    1.14    0.49
  -1  -6  -4    1.96    0.51
  -1  -6  -4    2.57    0.59
   1   6   4    1.49    0.48
   1   6   4    1.45    0.41
  -1  -6  -5    8.19    0.88
  -1  -6  -5    8.37    0.86
  -1  -6  -5    9.73    0.90
   1   6   5    9.38    0.96
   1   6   5    6.15    0.67
  -1  -6  -6   -1.10    0.50
  -1  -6  -6   -0.90    0.35
  -1  -6  -6   -0.10    0.39
   1   6   6   -0.29    0.43
   1   6   6   -0.06    0.27
  -1  -6  -7    1.45    0.74
  -1  -6  -7    0.66    0.51
  -1  -6  -7    1.51    0.60
   1   6   7    1.05    0.57
   1   6   7    1.13    0.43
  -1  -6  -8    7.29    1.02
  -1  -6  -8    6.71    0.88
  -1  -6  -8    7.25    0.96
   1   6   8    7.88    1.00
   1   6   8    4.84    0.69
  -1  -6  -9   -0.08    0.69
  -1  -6  -9    0.68    0.52
   1   6   9    0.22    0.55
   1   6   9    0.43    0.38
  -1  -6 -10    9.69    1.17
  -1  -6 -10    8.93    1.38
  -1  -6 -10    6.24    0.95
   1   6  10    6.86    0.99
   1   6  10    4.09    0.74
   1   6  10    4.86    0.74
  -1  -6 -11   -0.52    0.71
  -1  -6 -11    0.61    0.55
   1   6  11    0.47    0.61
   1   6  11    0.65    0.49
   1   6  11   -0.02    0.39
  -1  -7  15    0.68    0.54
  -1  -7  15    1.78    0.70
  -1  -7  14    0.38    0.46
  -1  -7  14    0.48    0.58
  -1  -7  13    2.77    0.64
  -1  -7  13    5.53    0.92
  -1  -7  12    0.57    0.46
  -1  -7  12    0.24    0.49
  -1  -7  11    6.08    0.81
  -1  -7  11   11.60    1.06
  -1  -7  10    0.25    0.36
  -1  -7  10    0.51    0.46
   1   7 -10    0.30    0.33
  -1  -7   9   -0.05    0.33
  -1  -7   9   -0.38    0.35
   1   7  -9   -0.12    0.28
  -1  -7   8    0.42    0.34
  -1  -7   8    0.43    0.41
   1   7  -8    0.03    0.30
  -1  -7   7    2.23    0.50
  -1  -7   7    2.36    0.58
   1   7  -7    2.64    0.49
  -1  -7   6    6.92    0.76
  -1  -7   6   11.90    0.95
   1   7  -6   11.30    0.83
  -1  -7   5   -0.20    0.30
  -1  -7   5    0.09    0.37
   1   7  -5   -0.15    0.31
  -1  -7   4    3.15    0.53
  -1  -7   4    5.34    0.73
   1   7  -4    4.65    0.63
  -1  -7   3   11.37    0.88
  -1  -7   3   18.05    1.07
   1   7  -3   17.80    0.99
  -1  -7   2    4.79    0.64
  -1  -7   2    9.49    0.87
   1   7  -2    9.81    0.82
   1   7  -2    6.34    0.71
  -1  -7   1    2.32    0.51
  -1  -7   1    3.60    0.63
  -1  -7   1    2.10    0.30
   1   7  -1    3.81    0.58
   1   7  -1    2.70    0.55
  -1  -7   0    0.27    0.36
  -1  -7   0    0.26    0.38
  -1  -7   0    0.20    0.16
   1   7   0    0.29    0.34
   1   7   0    0.04    0.31
  -1  -7  -1    4.90    0.69
  -1  -7  -1    7.31    0.88
   1   7   1    7.62    0.85
   1   7   1    4.54    0.66
  -1  -7  -2   -0.12    0.37
  -1  -7  -2   -0.35    0.36
   1   7   2   -0.36    0.38
   1   7   2   -0.09    0.28
  -1  -7  -3   -0.16    0.40
  -1  -7  -3    0.10    0.41
   1   7   3   -0.28    0.37
   1   7   3   -0.06    0.28
  -1  -7  -4    0.46    0.53
  -1  -7  -4    0.65    0.49
  -1  -7  -4    0.07    0.42
   1   7   4    0.84    0.52
   1   7   4    0.89    0.40
  -1  -7  -5    0.06    0.55
  -1  -7  -5    0.50    0.47
  -1  -7  -5    0.47    0.50
   1   7   5    0.37    0.50
   1   7   5   -0.23    0.31
  -1  -7  -6    4.09    0.85
  -1  -7  -6    5.13    0.83
  -1  -7  -6    4.30    0.84
   1   7   6    5.01    0.84
   1   7   6    3.66    0.65
  -1  -7  -7   -0.59    0.65
  -1  -7  -7   -0.20    0.48
  -1  -7  -7   -0.27    0.53
   1   7   7    0.35    0.52
   1   7   7   -0.14    0.35
  -1  -7  -8    2.50    0.87
  -1  -7  -8    2.17    0.69
   1   7   8    3.43    0.81
   1   7   8    1.63    0.53
  -1  -7  -9   35.71    1.99
  -1  -7  -9   24.21    1.56
   1   7   9   28.16    1.72
   1   7   9   14.76    1.12
  -1  -8  13    0.83    0.55
  -1  -8  13    1.37    0.69
  -1  -8  12    0.79    0.57
  -1  -8  12    2.26    0.70
  -1  -8  11    0.98    0.54
  -1  -8  11    2.10    0.68
  -1  -8  10    2.87    0.65
  -1  -8  10    5.47    0.87
  -1  -8   9   -0.02    0.38
  -1  -8   9   -0.41    0.44
  -1  -8   8   -0.06    0.41
  -1  -8   8   -0.11    0.45
   1   8  -8    0.10    0.35
  -1  -8   7    1.78    0.57
  -1  -8   7    3.24    0.73
   1   8  -7    2.36    0.54
  -1  -8   6    1.48    0.53
  -1  -8   6    0.70    0.55
   1   8  -6    0.55    0.40
  -1  -8   5    4.11    0.72
  -1  -8   5    5.94    0.89
   1   8  -5    5.15    0.68
  -1  -8   4    2.67    0.59
  -1  -8   4    3.67    0.70
   1   8  -4    3.42    0.60
  -1  -8   3   24.94    1.33
  -1  -8   3   34.04    1.52
   1   8  -3   36.09    1.41
  -1  -8   2    4.33    0.69
  -1  -8   2    6.27    0.87
   1   8  -2    7.71    0.89
  -1  -8   1    1.56    0.55
  -1  -8   1    2.54    0.63
   1   8  -1    2.62    0.59
   1   8  -1    2.20    0.55
  -1  -8   0    0.77    0.51
  -1  -8   0    0.80    0.52
   1   8   0    0.65    0.45
   1   8   0    0.48    0.41
  -1  -8  -1    9.94    1.10
  -1  -8  -1   11.43    1.08
   1   8   1   12.19    1.08
   1   8   1    7.98    0.87
  -1  -8  -2    6.91    0.94
  -1  -8  -2    8.79    1.04
   1   8   2   12.33    1.13
   1   8   2    7.09    0.83
  -1  -8  -3    0.68    0.58
  -1  -8  -3    1.04    0.60
   1   8   3    1.57    0.58
   1   8   3    0.84    0.44
  -1  -8  -4    6.81    0.99
  -1  -8  -4    8.93    1.11
   1   8   4    8.57    1.05
   1   8   4    4.50    0.74
  -1  -8  -5    0.50    0.63
  -1  -8  -5    0.07    0.52
   1   8   5    0.72    0.56
   1   8   5   -0.05    0.38
  -1  -8  -6    0.08    0.69
  -1  -8  -6   -0.30    0.53
   1   8   6    0.05    0.57
   1   8   6    0.13    0.40
  -1  -9  10   -0.11    0.54
  -1  -9  10    0.09    0.62
  -1  -9   9   -0.37    0.47
  -1  -9   9   -0.35    0.54
  -1  -9   8   -0.23    0.46
  -1  -9   8   -0.06    0.59
  -1  -9   7   -0.13    0.49
  -1  -9   7    0.38    0.61
   1   9  -7   -0.18    0.38
  -1  -9   6   -0.16    0.52
  -1  -9   6    0.38    0.62
   1   9  -6    0.47    0.48
  -1  -9   5   -0.01    0.50
  -1  -9   5   -0.30    0.54
   1   9  -5   -0.01    0.41
  -1  -9   4    6.16    0.90
  -1  -9   4    7.64    1.04
   1   9  -4    7.64    0.94
  -1  -9   3    0.60    0.54
  -1  -9   3    1.04    0.61
   1   9  -3    0.71    0.46
  -1  -9   2    0.96    0.58
  -1  -9   2    1.96    0.71
   1   9  -2    1.54    0.57
  -1  -9   1    0.24    0.54
  -1  -9   1    0.22    0.56
   1   9  -1    0.30    0.51
  -1  -9   0    0.53    0.60
  -1  -9   0    0.71    0.60
   1   9   0    0.29    0.49
   1   9   0    0.46    0.46
  -1  -9  -1    0.61    0.63
  -1  -9  -1    0.20    0.59
   1   9   1    0.48    0.55
   1   9   1    0.79    0.52
  -1  -9  -2   -0.05    0.60
  -1  -9  -2   -0.09    0.56
   1   9   2    0.35    0.51
   1   9   2    0.34    0.43
  -1  -9  -3    1.48    0.73
   2  -9  -3    0.06    0.57
   2  -9  -3    1.28    0.62
   2  -9  -3    0.57    0.53
   2  -9  -2    3.69    0.79
   2  -9  -2    3.65    0.78
   2  -9  -2    4.47    0.84
   2  -9  -1    0.95    0.54
   2  -9  -1    1.67    0.65
   2  -9  -1    0.88    0.55
   2  -9   0    1.20    0.57
   2  -9   0    1.40    0.57
   2  -9   0    1.14    0.57
   2  -9   1   19.66    1.32
   2  -9   1   23.34    1.35
   2  -9   1   21.83    1.33
   2  -9   2    7.75    0.91
   2  -9   2   10.96    1.06
   2  -9   2    9.34    0.96
   2  -9   3   -0.10    0.42
   2  -9   3    0.20    0.45
   2  -9   3    0.04    0.40
   2  -9   4    0.25    0.43
   2  -9   4   -0.26    0.38
   2  -9   4    0.91    0.48
   2  -9   5    0.47    0.45
   2  -9   5    0.50    0.46
   2  -9   5    0.86    0.44
   2  -9   6    0.67    0.47
   2  -9   6    1.21    0.51
   2  -9   6    1.31    0.49
   2  -9   7    0.47    0.42
   2  -9   7    0.24    0.43
   2  -9   8    3.81    0.67
   2  -9   8    5.27    0.80
  -2   8   7    1.96    0.58
   2  -8  -7    2.98    0.87
   2  -8  -7    2.05    0.74
   2  -8  -7    2.42    0.76
  -2   8   6   20.89    1.18
   2  -8  -6   24.51    1.68
   2  -8  -6   20.85    1.47
   2  -8  -6   19.81    1.45
  -2   8   5    6.10    0.75
   2  -8  -5    6.42    1.02
   2  -8  -5    5.83    0.94
   2  -8  -5    5.06    0.87
   2  -8  -4    3.69    0.82
   2  -8  -4    3.65    0.78
   2  -8  -4    2.77    0.69
   2  -8  -3    0.83    0.55
   2  -8  -3    1.36    0.56
   2  -8  -3    1.28    0.55
   2  -8  -2    0.18    0.44
   2  -8  -2   -0.14    0.41
   2  -8  -2    0.12    0.39
   2  -8  -1    3.88    0.67
   2  -8  -1    5.84    0.82
   2  -8  -1    6.42    0.89
   2  -8   0   26.47    1.31
   2  -8   0   33.54    1.41
   2  -8   0   31.92    1.46
   2  -8   1   15.95    1.09
   2  -8   1   20.44    1.16
   2  -8   1   21.39    1.20
   2  -8   2   -0.20    0.35
   2  -8   2   -0.25    0.34
   2  -8   2   -0.17    0.33
   2  -8   3   -0.47    0.34
   2  -8   3    0.00    0.34
   2  -8   3    0.27    0.34
   2  -8   4    0.36    0.35
   2  -8   4    0.37    0.36
   2  -8   4    0.66    0.37
   2  -8   5   -0.03    0.34
   2  -8   5    0.16    0.34
   2  -8   5    0.42    0.34
   2  -8   6    1.02    0.41
   2  -8   6    1.46    0.45
   2  -8   6    1.93    0.46
   2  -8   7   -0.01    0.29
   2  -8   7   -0.07    0.32
   2  -8   7   -0.05    0.25
   2  -8   8    3.57    0.55
   2  -8   8    6.61    0.76
   2  -8   9    6.56    0.77
   2  -8   9   11.36    0.89
   2  -8  10    1.29    0.46
   2  -8  10    2.60    0.57
   2  -8  11    0.06    0.37
   2  -8  11   -0.31    0.31
   2  -8  12   -0.05    0.39
   2  -8  12   -0.08    0.38
  -2   7  10   -0.26    0.47
   2  -7 -10    0.86    0.77
   2  -7 -10    0.34    0.60
   2  -7 -10    0.74    0.62
  -2   7   9   11.23    1.09
   2  -7  -9   16.57    1.58
   2  -7  -9   11.88    1.29
   2  -7  -9   11.28    1.23
  -2   7   8   24.13    1.31
   2  -7  -8   31.38    1.80
   2  -7  -8   22.52    1.46
   2  -7  -8   23.89    1.52
  -2   7   7    0.58    0.44
   2  -7  -7    0.27    0.61
   2  -7  -7    0.84    0.55
   2  -7  -7    0.48    0.51
  -2   7   6   -0.03    0.34
   2  -7  -6    0.10    0.53
   2  -7  -6    0.25    0.48
   2  -7  -6   -0.16    0.42
  -2   7   5    1.96    0.47
   2  -7  -5    0.36    0.53
   2  -7  -5    1.40    0.57
   2  -7  -5    0.82    0.48
   2  -7  -4   -0.31    0.36
   2  -7  -4    0.27    0.40
   2  -7  -4    0.07    0.37
   2  -7  -3    0.37    0.38
   2  -7  -3    0.58    0.39
   2  -7  -3    0.57    0.41
   2  -7  -2   19.78    1.10
   2  -7  -2   23.08    1.13
   2  -7  -2   23.60    1.24
   2  -7  -1   15.95    0.98
   2  -7  -1   20.19    1.06
   2  -7  -1   20.66    1.14
   2  -7   0    0.78    0.40
   2  -7   0    2.28    0.48
   2  -7   0    2.35    0.52
   2  -7   1   14.68    0.91
   2  -7   1   19.92    1.00
   2  -7   1   20.80    1.08
   2  -7   2   13.95    0.89
   2  -7   2   19.32    0.97
   2  -7   2   14.66    0.53
   2  -7   2   21.26    1.04
   2  -7   3    0.43    0.34
   2  -7   3    1.59    0.42
   2  -7   3    2.02    0.29
   2  -7   3    2.00    0.45
   2  -7   4   -0.15    0.25
   2  -7   4   -0.14    0.27
   2  -7   4    0.07    0.23
   2  -7   5    0.47    0.31
   2  -7   5    0.99    0.34
   2  -7   5    1.62    0.39
   2  -7   6    0.49    0.30
   2  -7   6    0.35    0.26
   2  -7   6    0.32    0.27
   2  -7   7    7.37    0.65
   2  -7   7    9.15    0.69
   2  -7   7    9.33    0.62
   2  -7   8   -0.01    0.26
   2  -7   8    0.20    0.28
   2  -7   8    0.18    0.24
   2  -7   9    2.23    0.46
   2  -7  10    0.86    0.35
   2  -7  10    1.43    0.41
   2  -7  12    3.98    0.62
   2  -7  13    0.82    0.43
   2  -7  14    8.42    0.90
   2  -7  14   14.27    1.06
  -2   6  12    0.44    0.55
   2  -6 -12    1.21    0.66
   2  -6 -12    1.39    0.65
  -2   6  11    1.39    0.59
   2  -6 -11    2.11    0.85
   2  -6 -11    1.40    0.65
   2  -6 -11    1.58    0.62
  -2   6  10    4.53    0.77
   2  -6 -10    7.86    1.07
   2  -6 -10    6.02    0.93
   2  -6 -10    5.82    0.96
  -2   6   9   43.65    1.60
   2  -6  -9   60.47    2.15
   2  -6  -9   42.68    1.74
   2  -6  -9   40.21    1.78
  -2   6   8    1.21    0.47
  -2   6   8    0.76    0.27
   2  -6  -8    1.73    0.62
   2  -6  -8    1.15    0.51
   2  -6  -8    1.56    0.60
  -2   6   7    2.34    0.52
  -2   6   7    2.05    0.35
   2  -6  -7    2.75    0.64
   2  -6  -7    2.38    0.62
   2  -6  -7    2.60    0.63
  -2   6   6    3.83    0.58
  -2   6   6    2.38    0.37
   2  -6  -6    2.82    0.63
   2  -6  -6    3.21    0.64
   2  -6  -6    3.18    0.64
  -2   6   5    0.08    0.30
   2  -6  -5    0.08    0.39
   2  -6  -5    0.21    0.33
   2  -6  -5    0.32    0.34
   2  -6  -4    1.28    0.45
   2  -6  -4    1.60    0.45
   2  -6  -4    1.93    0.52
   2  -6  -4    0.85    0.28
   2  -6  -3    0.08    0.27
   2  -6  -3    0.35    0.33
   2  -6  -3    0.40    0.34
   2  -6  -3   -0.13    0.16
   2  -6  -2    1.46    0.39
   2  -6  -2    2.58    0.49
   2  -6  -2    2.75    0.54
   2  -6  -2    0.89    0.24
   2  -6  -1    2.56    0.45
   2  -6  -1    3.37    0.50
   2  -6  -1    4.59    0.65
   2  -6  -1    2.27    0.34
   2  -6   0   19.83    0.89
   2  -6   0   27.91    1.02
   2  -6   0   20.39    1.21
   2  -6   0   28.12    1.13
   2  -6   0   17.38    0.74
   2  -6   1   35.97    1.11
   2  -6   1   54.57    1.33
   2  -6   1   35.73    1.24
   2  -6   1   56.95    1.52
   2  -6   2    9.64    0.66
   2  -6   2   15.95    0.78
   2  -6   2   12.75    0.52
   2  -6   2   17.30    0.86
   2  -6   3    1.95    0.36
   2  -6   3    3.00    0.47
   2  -6   3    3.12    0.47
   2  -6   4   -0.21    0.21
   2  -6   4    0.09    0.23
   2  -6   4    0.07    0.21
  -2   6  -5    0.50    0.26
   2  -6   5    0.61    0.25
  -2   6  -6    7.24    0.52
   2  -6   6    4.41    0.49
   2  -6   6    6.68    0.49
  -2   6  -7   13.97    0.64
   2  -6   7   13.39    0.62
   2  -6  11   32.87    1.11
   2  -6  11   43.89    1.26
   2  -6  14    0.27    0.34
   2  -6  15    0.25    0.39
   2  -6  15    0.30    0.44
  -2   5  14    0.35    0.55
   2  -5 -14    0.52    0.63
   2  -5 -14    0.73    0.56
  -2   5  13    0.53    0.54
   2  -5 -13    0.86    0.64
   2  -5 -13    0.59    0.54
  -2   5  12    0.56    0.48
  -2   5  12    0.45    0.42
   2  -5 -12    1.00    0.59
   2  -5 -12   -0.07    0.43
  -2   5  11    2.93    0.65
  -2   5  11    2.54    0.56
   2  -5 -11    5.05    0.92
   2  -5 -11    4.34    0.79
   2  -5 -11    2.77    0.71
  -2   5  10    7.14    0.88
  -2   5  10    5.57    0.72
  -2   5  10    3.79    0.42
   2  -5 -10   10.53    1.26
   2  -5 -10    7.46    0.93
   2  -5 -10    6.26    0.92
  -2   5   9    1.51    0.47
  -2   5   9    1.05    0.37
  -2   5   9    0.60    0.22
   2  -5  -9    2.55    0.66
   2  -5  -9    1.29    0.50
   2  -5  -9    0.59    0.48
  -2   5   8   40.10    1.38
  -2   5   8   23.62    1.02
  -2   5   8   22.90    0.73
   2  -5  -8   46.83    1.67
   2  -5  -8   35.75    1.40
   2  -5  -8   35.18    1.48
  -2   5   7   11.92    0.84
  -2   5   7    7.37    0.62
  -2   5   7    7.71    0.44
   2  -5  -7   15.00    1.07
   2  -5  -7   12.34    0.89
   2  -5  -7   13.65    0.73
   2  -5  -7   12.16    0.93
  -2   5   6    6.95    0.68
  -2   5   6    4.91    0.37
   2  -5  -6    6.53    0.80
   2  -5  -6    5.85    0.67
   2  -5  -6    6.83    0.72
   2  -5  -6    6.52    0.42
  -2   5   5    3.11    0.48
  -2   5   5    2.21    0.29
   2  -5  -5    2.66    0.50
   2  -5  -5    2.35    0.47
   2  -5  -5    2.80    0.55
   2  -5  -5    1.82    0.27
  -2   5   4    0.13    0.26
   2  -5  -4    0.27    0.30
   2  -5  -4    0.17    0.27
   2  -5  -4    0.22    0.29
   2  -5  -4    0.18    0.14
   2  -5  -3    3.31    0.46
   2  -5  -3    4.79    0.52
   2  -5  -3    4.23    0.58
   2  -5  -3    2.61    0.30
   2  -5  -2    7.64    0.58
   2  -5  -2    8.88    0.60
   2  -5  -2    7.06    0.53
   2  -5  -2    7.97    0.64
   2  -5  -2    5.88    0.38
   2  -5  -1    0.64    0.24
   2  -5  -1    1.05    0.28
   2  -5  -1    0.35    0.19
   2  -5  -1    0.16    0.15
   2  -5   0    2.10    0.33
   2  -5   0    3.94    0.43
   2  -5   0    2.57    0.34
   2  -5   0    3.97    0.47
   2  -5   0    2.38    0.31
  -2   5  -1    0.17    0.24
   2  -5   1    0.13    0.20
   2  -5   1    0.47    0.24
   2  -5   1    0.33    0.14
   2  -5   1    0.86    0.29
   2  -5   1    0.10    0.15
  -2   5  -2    3.18    0.39
   2  -5   2    1.73    0.28
   2  -5   2    2.88    0.37
   2  -5   2    2.55    0.30
   2  -5   2    3.04    0.43
   2  -5   2    2.20    0.34
  -2   5  -3   66.53    1.35
   2  -5   3   61.17    1.12
   2  -5   3   62.60    1.33
  -2   5  -4   73.74    1.36
   2  -5   4   70.52    1.35
  -2   5  -5    8.01    0.49
   2  -5   5    7.48    0.47
  -2   5  -6    0.17    0.18
   2  -5   6    0.45    0.18
   2  -5  14    6.98    0.79
   2  -5  15    0.00    0.30
   2  -5  15   -0.16    0.40
   2  -5  16   -0.18    0.35
   2  -5  16   -0.26    0.42
  -2   4  15    0.18    0.52
  -2   4  15    0.37    0.45
   2  -4 -15    0.21    0.58
   2  -4 -15    0.02    0.49
  -2   4  14    0.04    0.47
  -2   4  14    0.03    0.40
   2  -4 -14    0.49    0.55
   2  -4 -14    0.45    0.50
  -2   4  13   -0.15    0.43
  -2   4  13   -0.10    0.33
   2  -4 -13   -0.38    0.45
   2  -4 -13    0.25    0.47
  -2   4  12    1.59    0.54
  -2   4  12    1.41    0.48
  -2   4  12    1.14    0.30
   2  -4 -12    1.92    0.58
   2  -4 -12    0.95    0.53
  -2   4  11    2.64    0.58
  -2   4  11    2.95    0.56
  -2   4  11    1.90    0.30
   2  -4 -11    3.30    0.69
   2  -4 -11    2.49    0.66
  -2   4  10    0.55    0.38
  -2   4  10    0.52    0.32
  -2   4  10    0.46    0.19
   2  -4 -10    0.46    0.42
   2  -4 -10    0.40    0.42
  -2   4   9    3.51    0.57
  -2   4   9    3.30    0.52
  -2   4   9    2.61    0.30
   2  -4  -9    9.16    0.98
   2  -4  -9    3.71    0.59
   2  -4  -9    3.87    0.65
  -2   4   8    0.33    0.30
  -2   4   8    0.60    0.30
  -2   4   8    0.54    0.16
   2  -4  -8    1.16    0.48
   2  -4  -8    0.89    0.40
   2  -4  -8    0.89    0.37
  -2   4   7    1.57    0.39
  -2   4   7    1.32    0.32
  -2   4   7    1.22    0.20
   2  -4  -7    2.41    0.50
   2  -4  -7    2.16    0.45
   2  -4  -7    1.68    0.45
  -2   4   6    4.56    0.53
  -2   4   6    3.49    0.43
  -2   4   6    2.74    0.25
   2  -4  -6    5.90    0.69
   2  -4  -6    4.68    0.59
   2  -4  -6    5.13    0.38
   2  -4  -6    4.59    0.57
  -2   4   5    8.38    0.61
  -2   4   5    4.58    0.42
  -2   4   5    5.63    0.30
   2  -4  -5    8.30    0.71
   2  -4  -5    8.69    0.64
   2  -4  -5    8.71    0.47
   2  -4  -5    8.42    0.67
   2  -4  -5    7.54    0.35
  -2   4   4    0.69    0.27
   2  -4  -4    0.22    0.27
   2  -4  -4    0.37    0.26
   2  -4  -4    0.74    0.27
   2  -4  -4    0.53    0.22
   2  -4  -4    0.62    0.30
   2  -4  -4    0.50    0.13
   2  -4  -3    1.40    0.33
   2  -4  -3    1.70    0.34
   2  -4  -3    1.56    0.31
   2  -4  -3    2.31    0.42
   2  -4  -3    0.94    0.16
  -2   4   2   25.85    0.94
   2  -4  -2   18.60    0.71
   2  -4  -2   23.36    0.78
   2  -4  -2   18.77    0.68
   2  -4  -2   23.91    0.92
   2  -4  -2   14.86    0.47
  -2   4   1    0.51    0.22
   2  -4  -1    0.30    0.18
   2  -4  -1    0.46    0.20
   2  -4  -1    0.20    0.16
   2  -4  -1    0.51    0.25
   2  -4  -1    0.30    0.13
  -2   4   0    0.33    0.18
   2  -4   0    0.23    0.17
   2  -4   0    0.31    0.19
   2  -4   0    0.16    0.14
   2  -4   0    0.08    0.11
   2  -4   0    0.55    0.24
   2  -4   0    0.03    0.13
  -2   4  -1  156.20    1.97
   2  -4   1  105.58    1.28
   2  -4   1  149.25    1.96
  -2   4  -2    1.08    0.24
   2  -4   2    0.59    0.18
   2  -4   2    0.82    0.24
  -2   4  -3   10.10    0.52
   2  -4   3    9.15    0.49
  -2   4  -4    6.87    0.43
   2  -4   4    5.84    0.40
  -2   4  -5    8.31    0.42
   2  -4   5    8.25    0.42
   2  -4  13   -0.63    0.29
   2  -4  14    2.33    0.51
   2  -4  15    1.10    0.46
   2  -4  16    0.04    0.37
   2  -4  16    0.18    0.42
   2  -4  17    1.85    0.55
   2  -4  17    2.86    0.65
  -2   3  16   -0.67    0.49
  -2   3  16   -0.03    0.45
   2  -3 -16    0.15    0.46
  -2   3  15    0.14    0.49
  -2   3  15    0.22    0.45
   2  -3 -15    0.30    0.52
   2  -3 -15    0.37    0.46
  -2   3  14    1.11    0.57
  -2   3  14    1.28    0.51
  -2   3  14    0.97    0.33
   2  -3 -14    0.92    0.56
   2  -3 -14    1.71    0.56
  -2   3  13    6.82    0.87
  -2   3  13    6.75    0.83
  -2   3  13    6.13    0.52
   2  -3 -13    6.38    0.84
   2  -3 -13    7.04    0.83
  -2   3  12   12.75    1.03
  -2   3  12    9.86    0.85
  -2   3  12    8.79    0.56
   2  -3 -12   11.29    1.02
   2  -3 -12   10.60    0.96
  -2   3  11   24.23    1.22
  -2   3  11   19.89    1.05
  -2   3  11   17.48    0.68
   2  -3 -11   24.76    1.25
   2  -3 -11   22.57    1.19
  -2   3  10    8.48    0.80
  -2   3  10    7.81    0.69
  -2   3  10    7.48    0.45
   2  -3 -10    7.96    0.81
   2  -3 -10    8.81    0.79
  -2   3   9    0.73    0.34
  -2   3   9    0.24    0.25
  -2   3   9    0.51    0.16
   2  -3  -9    0.49    0.33
   2  -3  -9    1.06    0.38
  -2   3   8    0.43    0.28
  -2   3   8    0.18    0.22
  -2   3   8    0.45    0.13
   2  -3  -8    0.90    0.39
   2  -3  -8    0.33    0.31
   2  -3  -8    0.68    0.32
  -2   3   7    1.67    0.36
  -2   3   7    0.87    0.27
  -2   3   7    1.05    0.16
   2  -3  -7    2.11    0.44
   2  -3  -7    2.01    0.41
   2  -3  -7    1.77    0.41
  -2   3   6    1.40    0.32
  -2   3   6    1.25    0.26
   2  -3  -6    1.59    0.36
   2  -3  -6    1.26    0.33
   2  -3  -6    1.36    0.35
  -2   3   5  207.83    2.20
  -2   3   5  137.05    1.73
   2  -3  -5  234.80    2.52
   2  -3  -5  197.87    2.31
   2  -3  -5  197.34    2.59
   2  -3  -5  228.73    1.77
   2  -3  -5  191.37    2.51
  -2   3   4  115.30    1.53
  -2   3   4   70.94    1.16
  -2   3   4  100.92    1.73
   2  -3  -4  113.36    1.68
   2  -3  -4  103.09    1.58
   2  -3  -4  107.01    1.56
   2  -3  -4  119.72    1.37
   2  -3  -4   99.85    1.75
  -2   3   3    1.82    0.25
  -2   3   3    3.41    0.34
  -2   3   3    3.64    0.38
   2  -3  -3    3.97    0.42
   2  -3  -3    3.54    0.37
   2  -3  -3    4.03    0.36
   2  -3  -3    4.45    0.34
   2  -3  -3    3.42    0.38
  -2   3   2    2.79    0.22
  -2   3   2    3.64    0.36
   2  -3  -2    2.91    0.33
   2  -3  -2    4.00    0.35
   2  -3  -2    2.96    0.30
   2  -3  -2    4.92    0.36
   2  -3  -2    3.90    0.39
   2  -3  -2    2.22    0.17
  -2   3   1   41.31    1.01
   2  -3  -1   29.14    0.69
   2  -3  -1   41.65    0.81
   2  -3  -1   45.39    0.97
   2  -3  -1   39.60    1.00
   2  -3  -1   25.93    0.52
  -2   3   0  341.96    2.73
   2  -3   0  346.03    2.72
   2  -3   0  206.40    1.68
   2  -3   0  312.70    2.64
  -2   3  -1  325.15    2.55
   2  -3   1  328.22    2.74
   2  -3   1  212.37    1.83
   2  -3   1  284.44    2.41
  -2   3  -2  197.76    1.90
   2  -3   2  201.97    2.23
   2  -3   2  140.46    1.60
   2  -3   2  177.27    1.82
   2  -3   3   33.14    0.76
   2  -3   4  114.98    1.30
   2  -3  14   14.27    0.85
   2  -3  14   19.60    0.98
   2  -3  15    0.15    0.40
   2  -3  16    5.18    0.67
   2  -3  16    7.44    0.88
   2  -3  17    0.76    0.47
   2  -3  17    2.19    0.61
  -2   2  17    2.10    0.72
  -2   2  17    1.59    0.62
   2  -2 -17    2.37    0.64
  -2   2  16    1.31    0.65
  -2   2  16    0.46    0.53
   2  -2 -16    1.12    0.49
  -2   2  15   10.89    1.13
  -2   2  15   10.04    0.99
  -2   2  15    9.73    0.70
   2  -2 -15    9.90    1.04
   2  -2 -15   10.85    0.96
  -2   2  14   21.63    1.29
  -2   2  14   21.59    1.20
  -2   2  14   20.65    0.89
   2  -2 -14   21.95    1.26
   2  -2 -14   21.62    1.17
  -2   2  13    5.23    0.74
  -2   2  13    5.62    0.77
  -2   2  13    5.62    0.52
   2  -2 -13    6.10    0.81
   2  -2 -13    5.33    0.72
  -2   2  12   94.44    2.14
  -2   2  12   93.17    2.08
  -2   2  12   89.41    1.54
   2  -2 -12   98.82    2.18
   2  -2 -12   89.90    2.04
  -2   2  11   10.99    0.90
  -2   2  11   11.99    0.84
  -2   2  11   11.33    0.57
   2  -2 -11   11.98    0.93
   2  -2 -11   10.79    0.83
  -2   2  10   34.10    1.22
  -2   2  10   36.96    1.21
  -2   2  10   34.47    0.84
   2  -2 -10   34.73    1.25
   2  -2 -10   34.22    1.22
  -2   2   9    5.73    0.62
  -2   2   9    5.95    0.56
  -2   2   9    6.29    0.36
   2  -2  -9    5.87    0.64
   2  -2  -9    5.76    0.57
  -2   2   8    2.92    0.45
  -2   2   8    3.10    0.43
  -2   2   8    2.26    0.22
   2  -2  -8    3.19    0.47
   2  -2  -8    2.44    0.43
  -2   2   7   90.12    1.58
  -2   2   7   84.09    1.49
  -2   2   7   94.18    1.76
  -2   2   7   73.94    0.85
   2  -2  -7   92.10    1.65
   2  -2  -7   87.44    1.68
  -2   2   6    4.19    0.47
  -2   2   6    3.54    0.37
  -2   2   6    4.36    0.43
   2  -2  -6    5.85    0.59
   2  -2  -6    3.98    0.45
   2  -2  -6    4.22    0.43
  -2   2   5   32.99    0.85
  -2   2   5   28.14    0.76
  -2   2   5   35.98    1.00
   2  -2  -5   46.69    1.11
   2  -2  -5   35.11    0.93
   2  -2  -5   39.85    0.95
   2  -2  -5   42.91    0.67
   2  -2  -5   34.53    1.00
  -2   2   4   10.11    0.44
   2  -2  -4   11.61    0.53
   2  -2  -4   10.98    0.57
  -2   2   2  107.89    1.19
  -2   2   2  189.50    2.00
   2  -2  -2  160.71    1.47
   2  -2  -2  176.15    1.51
   2  -2  -2  169.18    1.50
   2  -2  -2  153.79    1.41
   2  -2  -2  211.43    1.78
   2  -2  -2  183.07    2.00
  -2   2   1   57.94    0.90
  -2   2   1   96.91    1.38
   2  -2  -1  107.22    1.33
   2  -2  -1   92.77    1.37
  -2   2   0  360.97    2.57
  -2   2   0  254.41    1.92
   2  -2   0  398.19    2.67
   2  -2   0  209.21    1.75
   2  -2   0  374.02    2.61
  -2   2  -1  366.79    2.71
   2  -2   1  398.98    2.78
   2  -2   1  231.49    1.94
   2  -2   1  374.39    2.49
  -2   2  -2  142.39    1.76
   2  -2   2  151.09    1.79
   2  -2   2   95.76    1.33
   2  -2   2  143.03    1.47
  -2   2  -3  371.72    2.94
   2  -2   3  409.52    3.03
   2  -2   3  274.91    2.38
   2  -2   3  382.95    2.26
  -2   2  -4  364.62    3.02
   2  -2   4  397.82    3.10
   2  -2   4  371.04    2.09
   2  -2   5    1.16    0.33
   2  -2  13    0.48    0.30
   2  -2  14    0.89    0.38
   2  -2  14    2.05    0.48
   2  -2  15    0.05    0.33
   2  -2  15    0.77    0.42
   2  -2  16   -0.26    0.37
   2  -2  16    0.48    0.46
   2  -2  17    8.46    0.98
   2  -2  17   12.78    1.11
  -2   1  18    1.01    0.68
  -2   1  18    1.61    0.66
  -2   1  17   -0.30    0.52
  -2   1  17   -0.29    0.46
  -2   1  17    0.13    0.33
   2  -1 -17    0.18    0.42
  -2   1  16    3.99    0.79
  -2   1  16    4.43    0.79
  -2   1  16    4.80    0.62
   2  -1 -16    3.40    0.63
  -2   1  15   -0.03    0.43
  -2   1  15    0.17    0.43
  -2   1  15   -0.07    0.29
   2  -1 -15   -0.15    0.47
   2  -1 -15   -0.04    0.36
  -2   1  14    0.89    0.46
  -2   1  14    0.78    0.48
  -2   1  14    0.65    0.31
   2  -1 -14    0.83    0.49
   2  -1 -14    0.88    0.43
  -2   1  13   42.46    1.53
  -2   1  13   55.17    1.69
  -2   1  13   50.71    1.30
   2  -1 -13   47.63    1.58
   2  -1 -13   41.81    1.38
  -2   1  12    3.73    0.60
  -2   1  12    4.78    0.67
   2  -1 -12    3.83    0.65
   2  -1 -12    3.81    0.56
  -2   1  11   22.43    1.06
  -2   1  11   28.23    1.14
   2  -1 -11   25.80    1.14
   2  -1 -11   22.35    0.99
  -2   1  10   16.84    0.89
  -2   1  10   20.53    0.92
   2  -1 -10   18.70    0.94
   2  -1 -10   16.94    0.82
  -2   1   9   40.76    1.18
  -2   1   9   51.75    1.29
   2  -1  -9   45.88    1.26
   2  -1  -9   43.68    1.20
  -2   1   8   61.38    1.34
  -2   1   8   75.03    1.45
   2  -1  -8   63.24    1.38
   2  -1  -8   64.11    1.40
  -2   1   7   12.14    0.63
  -2   1   7   15.75    0.67
   2  -1  -7   13.78    0.66
   2  -1  -7   13.86    0.67
  -2   1   6   80.13    1.33
  -2   1   6  103.81    1.48
   2  -1  -6   86.78    1.43
   2  -1  -6   96.76    1.82
   2  -1  -6   95.20    1.57
  -2   1   5    0.24    0.17
  -2   1   5    0.26    0.17
  -2   1   5    0.34    0.12
   2  -1  -5    0.03    0.16
   2  -1  -5    0.21    0.16
   2  -1  -5    0.23    0.17
  -2   1   4   20.94    0.58
  -2   1   4   16.44    0.54
  -2   1   4   21.47    0.59
  -2   1   4   26.41    0.54
   2  -1  -4   19.47    0.61
   2  -1  -4   25.93    0.67
   2  -1  -4   25.19    0.53
   2  -1  -4   22.71    0.73
  -2   1   3    1.48    0.19
  -2   1   3    1.52    0.21
  -2   1   3    1.57    0.20
  -2   1   3    2.21    0.22
   2  -1  -3    2.90    0.33
   2  -1  -3    1.53    0.22
   2  -1  -3    2.11    0.24
   2  -1  -3    2.37    0.22
   2  -1  -3    1.66    0.25
  -2   1   2   27.41    0.63
   2  -1  -2   12.15    0.40
   2  -1  -2   18.05    0.46
   2  -1  -2   27.34    0.62
   2  -1  -2   18.70    0.62
  -2   1   1  445.89    2.57
  -2   1   1  213.63    1.78
   2  -1  -1  472.42    2.62
   2  -1  -1  285.30    1.38
  -2   1   0    0.16    0.14
   2  -1   0    0.03    0.11
   2  -1   0    0.43    0.12
  -2   1  -1  704.87    3.55
  -2   1  -1  411.41    2.62
   2  -1   1  744.10    3.59
   2  -1   1  364.58    2.48
   2  -1   1  701.98    2.95
  -2   1  -2   -0.01    0.13
   2  -1   2    0.14    0.13
   2  -1   2   -0.05    0.12
  -2   1  -3   14.08    0.58
   2  -1   3   14.97    0.58
   2  -1   3    9.01    0.47
  -2   1  -4    5.60    0.41
   2  -1   4    6.06    0.41
   2  -1   4    3.09    0.34
  -2   1  -5    2.83    0.34
   2  -1   5    3.10    0.33
  -2   1  -6   43.73    1.09
   2  -1   6   50.93    1.20
  -2   1  -8    4.87    0.47
  -2   1  -9   10.71    0.68
  -2   1 -10   11.78    0.76
   2  -1  10   10.28    0.54
   2  -1  11   39.44    1.25
   2  -1  11   53.82    1.25
   2  -1  12    0.53    0.31
   2  -1  13    0.29    0.30
   2  -1  13    0.59    0.36
   2  -1  13   -0.05    0.36
   2  -1  14    4.61    0.60
   2  -1  14    7.56    0.80
   2  -1  14    5.14    0.77
   2  -1  15    1.45    0.45
   2  -1  15    1.87    0.53
   2  -1  15    1.36    0.55
   2  -1  16    0.49    0.43
   2  -1  16    0.21    0.47
   2  -1  16    0.20    0.44
   2  -1  17   -0.19    0.44
   2  -1  17    0.13    0.53
   2  -1  17   -0.31    0.43
  -2   0  18    0.79    0.57
  -2   0  18    1.52    0.69
  -2   0  17   10.95    1.15
  -2   0  17   14.88    1.29
   2   0 -17   10.85    0.88
  -2   0  16    8.12    1.00
  -2   0  16   11.43    1.12
   2   0 -16    8.78    0.79
  -2   0  15   11.58    1.03
  -2   0  15   16.36    1.19
   2   0 -15   12.58    1.06
   2   0 -15   12.27    0.85
  -2   0  14   11.00    0.98
  -2   0  14   15.49    1.11
   2   0 -14   11.82    1.01
   2   0 -14   10.83    0.80
  -2   0  13   -0.21    0.34
  -2   0  13    0.11    0.43
   2   0 -13   -0.43    0.41
   2   0 -13    0.01    0.32
  -2   0  12   29.88    1.25
  -2   0  12   44.58    1.49
   2   0 -12   31.21    1.28
   2   0 -12   31.85    1.12
  -2   0  11    4.30    0.57
  -2   0  11    5.47    0.67
   2   0 -11    4.52    0.60
   2   0 -11    4.02    0.54
  -2   0  10    1.75    0.39
  -2   0  10    2.50    0.47
   2   0 -10    2.03    0.43
   2   0 -10    1.97    0.39
  -2   0   9    1.51    0.32
  -2   0   9    3.07    0.45
   2   0  -9    1.74    0.36
   2   0  -9    1.54    0.32
  -2   0   8    0.99    0.27
  -2   0   8    2.24    0.37
   2   0  -8    1.19    0.30
   2   0  -8    0.82    0.25
  -2   0   7   73.49    1.34
  -2   0   7  125.76    1.73
   2   0  -7   85.94    1.46
   2   0  -7   96.22    1.54
  -2   0   6   70.21    1.23
  -2   0   6  120.52    1.58
   2   0  -6   84.29    1.37
   2   0  -6   95.26    1.48
  -2   0   5  204.31    1.91
  -2   0   5  362.73    2.52
  -2   0   5  340.89    1.95
  -2   0   5  174.66    1.34
   2   0  -5  334.13    2.48
  -2   0   4   76.48    1.09
  -2   0   4  150.45    1.49
  -2   0   4  141.13    1.31
  -2   0   4   69.35    0.79
   2   0  -4  141.02    1.50
  -2   0   3   99.36    1.11
  -2   0   3  216.09    1.60
  -2   0   3  205.88    1.65
  -2   0   3   99.08    0.92
   2   0  -3  120.54    1.29
   2   0  -3  202.72    1.66
   2   0  -3   98.81    0.93
  -2   0   2  163.34    1.21
  -2   0   2  159.71    1.51
  -2   0   2   86.05    0.88
   2   0  -2   81.21    0.96
   2   0  -2  151.94    1.30
   2   0  -2   73.79    0.83
  -2   0   1  203.55    1.77
  -2   0   1   89.77    1.23
  -2   0   1  125.10    1.14
   2   0  -1   87.54    0.89
   2   0  -1   97.16    1.01
  -2   0   0    8.51    0.43
  -2   0   0    1.79    0.24
  -2   0   0    4.19    0.27
   2   0   0    6.41    0.36
   2   0   0    2.57    0.23
  -2   0  -1    0.19    0.14
   2   0   1    5.05    0.34
   2   0   1    0.30    0.15
  -2   0  -2  145.24    1.68
  -2   0  -2   74.03    1.20
   2   0   2  128.79    1.55
   2   0   2   65.61    1.14
   2   0   2   95.88    1.30
  -2   0  -3   12.91    0.57
   2   0   3   12.54    0.53
   2   0   3    5.09    0.38
   2   0   3    9.76    0.49
  -2   0  -5   30.19    0.87
   2   0   5   31.57    0.87
   2   0   5   18.48    0.72
   2   0   5   28.57    0.89
  -2   0  -6    1.69    0.31
   2   0   6    3.15    0.35
   2   0   6    1.43    0.27
   2   0   6    2.17    0.25
   2   0   6    2.55    0.37
  -2   0  -7    9.31    0.57
   2   0   7    7.15    0.38
   2   0   7    8.84    0.61
  -2   0  -8    9.52    0.60
   2   0   8   10.26    0.52
   2   0   8    6.84    0.38
   2   0   8    9.09    0.66
  -2   0  -9    1.02    0.32
   2   0   9    0.87    0.28
   2   0   9    0.59    0.22
   2   0   9    0.71    0.26
   2   0   9    0.67    0.19
   2   0   9    0.79    0.31
  -2   0 -10    1.29    0.39
   2   0  10    1.52    0.35
   2   0  10    0.57    0.25
   2   0  10    1.28    0.34
   2   0  10    1.00    0.23
   2   0  10    1.10    0.40
  -2   0 -11   66.18    1.57
   2   0  11   60.71    1.41
   2   0  11   74.94    1.56
   2   0  11   53.02    1.04
   2   0  11   67.49    1.86
  -2   0 -12    1.70    0.51
   2   0  12    1.76    0.40
   2   0  12    2.34    0.46
   2   0  12    1.20    0.48
   2   0  13   17.55    0.98
   2   0  13   19.37    1.01
   2   0  13   17.85    1.13
   2   0  14    8.17    0.86
   2   0  14   10.22    0.91
   2   0  14    8.72    0.90
   2   0  15    8.06    0.89
   2   0  15    9.62    0.95
   2   0  15    8.95    0.96
   2   0  16    0.34    0.47
   2   0  16    1.15    0.56
   2   0  16    0.84    0.51
   2   0  17    5.98    0.86
   2   0  17    8.50    1.05
   2   0  17    6.94    0.98
  -2  -1  18    0.00    0.48
  -2  -1  18    0.23    0.59
  -2  -1  17   -0.21    0.41
  -2  -1  17    0.08    0.53
  -2  -1  16    3.46    0.68
  -2  -1  16    4.41    0.81
   2   1 -16    2.28    0.49
  -2  -1  15    9.86    0.95
  -2  -1  15   16.10    1.18
   2   1 -15   12.01    0.99
   2   1 -15   10.97    0.77
  -2  -1  14   28.53    1.29
  -2  -1  14   45.10    1.60
   2   1 -14   34.47    1.33
   2   1 -14   30.59    1.10
  -2  -1  13   36.57    1.37
  -2  -1  13   59.91    1.74
   2   1 -13   44.61    1.47
   2   1 -13   41.56    1.22
  -2  -1  12  125.72    2.28
  -2  -1  12  205.85    2.90
   2   1 -12  154.97    2.44
   2   1 -12  157.24    2.21
  -2  -1  11    2.14    0.42
  -2  -1  11    4.42    0.59
   2   1 -11    2.82    0.50
   2   1 -11    3.17    0.45
  -2  -1  10   69.90    1.55
  -2  -1  10  115.99    1.98
   2   1 -10   88.89    1.71
   2   1 -10   91.97    1.61
  -2  -1   9   13.91    0.72
  -2  -1   9   22.98    0.90
   2   1  -9   15.83    0.76
   2   1  -9   17.90    0.75
  -2  -1   8   28.68    0.92
  -2  -1   8   45.02    1.14
   2   1  -8   34.43    1.00
  -2  -1   7   16.32    0.68
  -2  -1   7   32.04    0.92
  -2  -1   7   15.19    0.56
   2   1  -7   19.51    0.75
  -2  -1   6    4.89    0.42
  -2  -1   6    9.25    0.52
  -2  -1   6    5.25    0.34
  -2  -1   5  111.53    1.47
  -2  -1   5  221.13    2.05
  -2  -1   5  105.55    1.28
   2   1  -5  196.42    1.95
  -2  -1   4   73.37    1.13
  -2  -1   4  147.68    1.57
  -2  -1   4   70.66    1.02
   2   1  -4  132.18    1.52
   2   1  -4   76.74    1.07
  -2  -1   3    9.75    0.44
  -2  -1   3   28.57    0.67
  -2  -1   3   11.85    0.44
   2   1  -3   10.60    0.53
   2   1  -3   23.74    0.63
   2   1  -3   11.55    0.45
  -2  -1   2   80.59    1.02
  -2  -1   2  177.39    1.49
  -2  -1   2   91.35    1.15
   2   1  -2   85.59    1.10
   2   1  -2  159.49    1.49
   2   1  -2   87.03    1.14
  -2  -1   1    0.84    0.16
  -2  -1   1    2.15    0.23
  -2  -1   1    0.81    0.17
   2   1  -1    0.54    0.15
   2   1  -1    1.47    0.21
   2   1  -1    0.65    0.17
  -2  -1   0    2.15    0.21
  -2  -1   0    2.36    0.28
  -2  -1   0    3.54    0.29
   2   1   0    1.50    0.21
   2   1   0    3.43    0.27
   2   1   0    2.76    0.28
  -2  -1  -1  300.36    2.43
  -2  -1  -1  173.42    1.82
  -2  -1  -1  232.04    2.05
   2   1   1  157.83    1.34
   2   1   1  251.69    1.70
   2   1   1  164.38    1.77
   2   1   1  183.55    1.85
  -2  -1  -2    5.43    0.41
  -2  -1  -2    1.40    0.24
  -2  -1  -2    4.27    0.35
   2   1   2    2.11    0.23
   2   1   2    2.61    0.25
   2   1   2    1.85    0.23
   2   1   2    1.56    0.24
   2   1   2    2.42    0.30
  -2  -1  -3   26.79    0.80
  -2  -1  -3   15.02    0.60
  -2  -1  -3   21.69    0.73
   2   1   3   17.56    0.50
   2   1   3   14.23    0.47
   2   1   3   13.30    0.58
   2   1   3   15.73    0.64
  -2  -1  -4   31.88    0.91
  -2  -1  -4   29.20    0.89
   2   1   4   18.81    0.55
   2   1   4   21.52    0.58
   2   1   4   19.70    0.57
   2   1   4   16.78    0.66
   2   1   4   22.29    0.69
   2   1   4   20.15    0.75
  -2  -1  -5  179.16    2.12
   2   1   5  127.14    1.47
   2   1   5  117.80    1.39
   2   1   5  117.69    1.42
   2   1   5   98.42    1.60
   2   1   5  125.91    1.60
   2   1   5  119.32    1.85
  -2  -1  -6   30.47    0.95
   2   1   6   22.75    0.71
   2   1   6   21.34    0.66
   2   1   6   21.43    0.69
   2   1   6   16.82    0.74
   2   1   6   21.00    0.70
   2   1   6   19.63    0.83
  -2  -1  -7   63.73    1.37
   2   1   7   50.31    1.09
   2   1   7   45.31    1.00
   2   1   7   47.73    1.05
   2   1   7   37.16    1.10
   2   1   7   45.24    1.02
   2   1   7   47.19    1.31
  -2  -1  -8   10.81    0.67
   2   1   8    7.42    0.58
   2   1   8    7.19    0.49
   2   1   8    7.59    0.54
   2   1   8    6.02    0.54
   2   1   8    6.83    0.46
   2   1   8    7.67    0.63
  -2  -1  -9   45.65    1.25
   2   1   9   39.46    1.12
   2   1   9   34.19    0.99
   2   1   9   36.31    1.07
   2   1   9   27.47    1.06
   2   1   9   34.33    0.95
   2   1   9   35.14    1.25
  -2  -1 -10   10.24    0.74
   2   1  10    7.09    0.68
   2   1  10    5.24    0.81
   2   1  10    9.70    0.70
   2   1  10    5.99    0.63
   2   1  10    6.48    0.50
   2   1  10    8.80    0.76
  -2  -1 -11   64.48    1.55
   2   1  11   61.67    1.56
   2   1  11   57.49    1.49
   2   1  11   51.41    1.21
   2   1  11   55.37    1.71
  -2  -1 -12    3.90    0.59
   2   1  12    3.37    0.53
   2   1  12    3.70    0.59
   2   1  12    2.85    0.56
  -2  -1 -13    5.87    0.71
   2   1  13    4.95    0.69
   2   1  13    6.30    0.82
  -2  -1 -14    1.97    0.53
   2   1  14    1.92    0.55
   2   1  14    1.75    0.54
   2   1  14    2.27    0.61
   2   1  15    1.33    0.50
   2   1  15    1.35    0.55
   2   1  15    0.63    0.46
   2   1  16    0.09    0.46
   2   1  16   -0.57    0.46
   2   1  16    0.04    0.41
  -2  -2  18    9.22    1.12
  -2  -2  18   13.06    1.32
  -2  -2  17    0.43    0.45
  -2  -2  17    0.78    0.57
  -2  -2  16   -0.20    0.37
  -2  -2  16   -0.17    0.49
   2   2 -16   -0.41    0.31
  -2  -2  15    3.90    0.66
  -2  -2  15    7.04    0.90
   2   2 -15    5.68    0.74
   2   2 -15    4.88    0.61
  -2  -2  14    0.21    0.33
  -2  -2  14   -0.02    0.43
   2   2 -14    0.06    0.38
   2   2 -14   -0.40    0.28
  -2  -2  13    6.52    0.75
  -2  -2  13    9.90    0.95
   2   2 -13    7.96    0.84
   2   2 -13    7.97    0.67
  -2  -2  12   48.49    1.48
  -2  -2  12   83.17    1.92
   2   2 -12   63.62    1.62
   2   2 -12   65.68    1.44
  -2  -2  11   34.79    1.20
  -2  -2  11   60.01    1.57
   2   2 -11   46.22    1.34
   2   2 -11   50.23    1.23
  -2  -2  10   -0.19    0.19
  -2  -2  10    0.31    0.31
   2   2 -10    0.13    0.28
  -2  -2   9    5.94    0.54
  -2  -2   9   10.81    0.70
   2   2  -9    7.01    0.59
  -2  -2   8    0.79    0.25
  -2  -2   8    0.98    0.23
  -2  -2   7    6.97    0.51
  -2  -2   7   11.55    0.64
  -2  -2   7    6.01    0.42
  -2  -2   6   24.90    0.82
  -2  -2   6   47.79    1.10
  -2  -2   6   24.11    0.75
  -2  -2   5    5.33    0.45
  -2  -2   5   12.11    0.60
  -2  -2   5    5.36    0.39
  -2  -2   4  176.61    1.89
  -2  -2   4  359.82    2.66
  -2  -2   4  177.88    1.90
   2   2  -4  319.47    2.87
   2   2  -4  192.22    2.01
  -2  -2   3  151.62    1.68
  -2  -2   3  305.00    2.35
  -2  -2   3  157.91    1.78
   2   2  -3  258.12    2.20
   2   2  -3  157.76    1.80
  -2  -2   2   62.82    1.06
  -2  -2   2  124.55    1.46
  -2  -2   2   68.73    1.18
   2   2  -2  106.54    1.39
   2   2  -2   65.29    1.18
  -2  -2   1    4.34    0.36
  -2  -2   1   10.50    0.47
  -2  -2   1    5.34    0.39
   2   2  -1    7.74    0.42
   2   2  -1    4.51    0.38
  -2  -2   0    0.31    0.16
  -2  -2   0    0.38    0.17
   2   2   0    0.16    0.16
  -2  -2  -1   17.02    0.56
  -2  -2  -1   30.54    0.70
  -2  -2  -1   14.87    0.60
  -2  -2  -1   19.53    0.70
   2   2   1   22.97    0.66
   2   2   1   16.10    0.65
  -2  -2  -2   38.69    0.80
  -2  -2  -2   47.81    0.86
  -2  -2  -2   32.01    0.85
  -2  -2  -2   39.52    1.00
   2   2   2   43.75    0.94
   2   2   2   42.40    0.89
   2   2   2   29.62    0.89
  -2  -2  -3   13.15    0.55
  -2  -2  -3   12.60    0.48
  -2  -2  -3    9.71    0.52
  -2  -2  -3   12.06    0.61
   2   2   3   11.78    0.56
   2   2   3   11.16    0.51
   2   2   3    8.16    0.47
   2   2   3    8.52    0.49
   2   2   3   12.15    0.58
   2   2   3    9.24    0.55
  -2  -2  -4    8.24    0.55
  -2  -2  -4    7.99    0.68
   2   2   4    6.37    0.50
   2   2   4    5.88    0.43
   2   2   4    4.63    0.41
   2   2   4    4.27    0.39
   2   2   4    7.28    0.48
   2   2   4    5.25    0.46
  -2  -2  -5   86.87    1.56
   2   2   5   68.08    1.29
   2   2   5   64.32    1.22
   2   2   5   49.75    1.11
   2   2   5   48.05    1.15
   2   2   5   66.45    1.33
   2   2   5   55.98    1.36
  -2  -2  -6  106.49    1.77
   2   2   6   79.60    1.45
   2   2   6   74.69    1.37
   2   2   6   64.09    1.30
   2   2   6   57.93    1.31
   2   2   6   75.75    1.45
   2   2   6   64.23    1.52
  -2  -2  -7    4.30    0.55
   2   2   7    4.21    0.51
   2   2   7    3.00    0.42
   2   2   7    2.27    0.37
   2   2   7    2.42    0.37
   2   2   7    2.84    0.42
   2   2   7    2.58    0.44
  -2  -2  -8    1.05    0.38
   2   2   8    0.67    0.31
   2   2   8    0.23    0.23
   2   2   8    0.30    0.27
   2   2   8    0.48    0.24
   2   2   8    0.61    0.23
   2   2   8    0.71    0.28
  -2  -2  -9   24.20    1.02
   2   2   9   17.13    0.92
   2   2   9   14.67    1.03
   2   2   9   13.33    0.81
   2   2   9   12.57    0.76
   2   2   9   15.12    0.90
  -2  -2 -10  103.91    1.94
   2   2  10   85.73    1.87
   2   2  10   70.74    1.69
   2   2  10   62.11    1.62
   2   2  10   71.25    1.90
  -2  -2 -11    5.98    0.71
   2   2  11    6.62    0.78
   2   2  11    4.79    0.64
   2   2  11    3.54    0.54
   2   2  11    3.66    0.60
  -2  -2 -12    6.63    0.74
   2   2  12    6.70    0.82
   2   2  12    5.61    0.72
   2   2  12    4.26    0.61
   2   2  12    4.70    0.71
  -2  -2 -13    0.57    0.44
   2   2  13    0.13    0.40
   2   2  13    0.65    0.46
   2   2  13    0.40    0.33
   2   2  13    0.61    0.39
  -2  -2 -14    0.76    0.47
   2   2  14    0.66    0.50
   2   2  14    0.91    0.49
   2   2  14    0.88    0.45
   2   2  15   -0.37    0.43
   2   2  15    0.16    0.43
   2   2  15   -0.49    0.32
   2   2  16    0.80    0.58
   2   2  16    0.91    0.61
   2   2  16    0.95    0.53
  -2  -3  18    0.85    0.58
  -2  -3  18    2.86    0.87
  -2  -3  17    1.45    0.57
  -2  -3  17    2.94    0.78
  -2  -3  16    0.22    0.40
  -2  -3  16   -0.19    0.49
  -2  -3  15    1.36    0.47
  -2  -3  15    2.42    0.67
   2   3 -15    1.25    0.41
  -2  -3  14   11.30    0.94
  -2  -3  14   21.50    1.23
   2   3 -14   15.98    1.00
   2   3 -14   14.74    0.81
  -2  -3  13    3.48    0.57
  -2  -3  13    6.13    0.79
   2   3 -13    3.83    0.61
   2   3 -13    5.43    0.61
  -2  -3  12   35.49    1.30
  -2  -3  12   63.57    1.73
   2   3 -12   49.16    1.47
  -2  -3  11   50.99    1.46
  -2  -3  11   93.82    1.96
   2   3 -11   68.53    1.63
  -2  -3  10    0.77    0.30
  -2  -3  10    2.19    0.45
   2   3 -10    1.34    0.38
  -2  -3   9    1.20    0.31
  -2  -3   9    2.67    0.47
  -2  -3   8   30.04    1.01
  -2  -3   8   56.94    1.38
  -2  -3   7    4.56    0.48
  -2  -3   7    8.97    0.64
  -2  -3   6    6.59    0.53
  -2  -3   6   15.54    0.75
  -2  -3   6    7.37    0.51
  -2  -3   5   63.20    1.30
  -2  -3   5  118.90    1.76
  -2  -3   5   65.25    1.34
  -2  -3   4  109.15    1.65
  -2  -3   4  205.76    2.23
  -2  -3   4  113.04    1.73
   2   3  -4  116.67    1.80
  -2  -3   3    0.83    0.30
  -2  -3   3    2.83    0.41
  -2  -3   3    1.23    0.28
   2   3  -3    0.51    0.27
  -2  -3   2  225.95    2.25
  -2  -3   2  403.37    2.97
  -2  -3   2  239.33    2.48
   2   3  -2  230.47    2.48
  -2  -3   1   77.61    1.33
  -2  -3   1  137.54    1.73
  -2  -3   1   78.21    1.46
   2   3  -1   77.01    1.48
  -2  -3   0   45.72    1.03
  -2  -3   0   73.97    1.27
  -2  -3   0   44.32    1.02
  -2  -3   0   49.01    1.18
   2   3   0   68.73    1.30
   2   3   0   74.67    1.55
   2   3   0   71.44    1.41
   2   3   0   42.82    1.13
  -2  -3  -1    7.49    0.51
  -2  -3  -1   13.60    0.60
  -2  -3  -1    4.74    0.42
  -2  -3  -1    7.39    0.53
   2   3   1   11.89    0.63
   2   3   1   12.25    0.59
   2   3   1   12.80    0.65
   2   3   1    6.46    0.52
  -2  -3  -2   13.79    0.63
  -2  -3  -2   17.35    0.67
  -2  -3  -2   11.95    0.57
   2   3   2   17.67    0.74
   2   3   2   16.55    0.69
   2   3   2   17.15    0.75
   2   3   2   11.33    0.64
  -2  -3  -3   67.23    1.27
  -2  -3  -3   72.86    1.28
  -2  -3  -3   55.34    1.17
   2   3   3   73.33    1.41
   2   3   3   74.45    1.59
   2   3   3   72.66    1.49
   2   3   3   50.64    1.30
  -2  -3  -4    0.23    0.29
  -2  -3  -4    0.24    0.20
   2   3   4    0.08    0.21
   2   3   4    0.06    0.21
   2   3   4    0.11    0.17
   2   3   4    0.36    0.26
   2   3   4    0.20    0.21
  -2  -3  -5   96.27    1.59
  -2  -3  -5   73.54    1.33
   2   3   5   78.64    1.56
   2   3   5   52.89    1.28
   2   3   5   52.14    1.21
   2   3   5   57.16    1.48
  -2  -3  -6    7.37    0.71
  -2  -3  -6    5.01    0.47
  -2  -3  -6    6.14    0.60
   2   3   6    5.03    0.57
   2   3   6    3.22    0.45
   2   3   6    3.26    0.42
   2   3   6    3.08    0.47
  -2  -3  -7    1.99    0.36
  -2  -3  -7    3.39    0.52
   2   3   7    1.76    0.40
   2   3   7    1.18    0.36
   2   3   7    1.85    0.34
   2   3   7    1.16    0.35
   2   3   8    1.11    0.39
   2   3   8    0.82    0.36
   2   3   8    1.63    0.39
  -2  -3  -9   23.78    1.11
   2   3   9   19.85    1.07
   2   3   9   12.80    0.89
   2   3   9   13.75    0.79
   2   3   9   15.06    0.94
  -2  -3 -10   10.33    0.86
   2   3  10    8.68    0.88
   2   3  10    6.68    0.74
   2   3  10    5.85    0.63
   2   3  10    5.69    0.69
  -2  -3 -11    8.80    0.82
   2   3  11    5.99    0.78
   2   3  11    5.48    0.73
   2   3  11    4.24    0.58
   2   3  11    5.28    0.74
  -2  -3 -12    0.93    0.47
   2   3  12    0.21    0.44
   2   3  12   -0.05    0.39
   2   3  12    0.40    0.34
   2   3  12    0.71    0.41
  -2  -3 -13    8.07    0.85
   2   3  13    6.34    0.88
   2   3  13    6.13    0.86
   2   3  13    5.21    0.70
   2   3  13    5.18    0.79
   2   3  14    3.07    0.74
   2   3  14    3.13    0.72
   2   3  14    3.51    0.72
   2   3  15    0.01    0.51
   2   3  15    0.08    0.50
   2   3  15    0.01    0.39
  -2  -4  18    2.48    0.73
  -2  -4  18    3.98    0.89
  -2  -4  17    0.52    0.54
  -2  -4  17    0.98    0.67
  -2  -4  16   -0.25    0.41
  -2  -4  16   -0.61    0.51
  -2  -4  15    0.48    0.43
  -2  -4  15    1.58    0.62
   2   4 -15    0.84    0.50
  -2  -4  14    3.44    0.61
  -2  -4  14    5.61    0.83
   2   4 -14    5.42    0.63
  -2  -4  13    0.63    0.36
  -2  -4  13    1.23    0.49
   2   4 -13    0.38    0.40
  -2  -4  12   37.62    1.37
  -2  -4  12   70.98    1.89
   2   4 -12   56.54    1.56
  -2  -4  11    0.37    0.29
  -2  -4  11    1.19    0.44
   2   4 -11    0.30    0.37
  -2  -4  10    1.50    0.39
  -2  -4  10    3.56    0.56
  -2  -4   9   16.64    0.87
  -2  -4   9   32.14    1.19
  -2  -4   8    0.32    0.25
  -2  -4   8    0.72    0.35
  -2  -4   7    4.97    0.52
  -2  -4   7   10.25    0.72
  -2  -4   6    5.16    0.53
  -2  -4   6    9.66    0.68
  -2  -4   5    2.97    0.43
  -2  -4   5    5.70    0.60
  -2  -4   4    9.88    0.69
  -2  -4   4   19.70    0.89
   2   4  -4   11.57    0.72
  -2  -4   3  107.10    1.79
  -2  -4   3  181.16    2.29
   2   4  -3  170.29    2.26
   2   4  -3  170.98    2.34
   2   4  -3  117.65    2.01
  -2  -4   2  248.32    2.64
  -2  -4   2  415.58    3.38
   2   4  -2  383.50    3.33
   2   4  -2  400.63    4.24
   2   4  -2  259.45    2.95
  -2  -4   1   10.43    0.66
  -2  -4   1   19.64    0.81
   2   4  -1   19.35    0.84
   2   4  -1    9.33    0.69
  -2  -4   0    3.50    0.43
  -2  -4   0    6.89    0.55
  -2  -4   0    3.42    0.38
   2   4   0    6.03    0.56
   2   4   0    3.44    0.48
  -2  -4  -1   17.06    0.78
  -2  -4  -1   21.52    0.84
  -2  -4  -1   15.46    0.65
   2   4   1   21.70    0.89
   2   4   1   14.35    0.77
  -2  -4  -2    8.44    0.61
  -2  -4  -2   11.22    0.65
  -2  -4  -2    7.23    0.48
   2   4   2    9.75    0.66
   2   4   2    6.68    0.58
  -2  -4  -3    0.88    0.29
  -2  -4  -3    2.36    0.40
  -2  -4  -3    1.18    0.26
   2   4   3    1.35    0.34
   2   4   3    1.05    0.31
  -2  -4  -4    1.43    0.38
  -2  -4  -4    2.17    0.40
   2   4   4    1.99    0.39
   2   4   4    0.99    0.31
  -2  -4  -5    2.30    0.47
  -2  -4  -5    1.48    0.36
   2   4   5    1.74    0.39
   2   4   5    1.31    0.37
   2   4   5    2.09    0.42
  -2  -4  -6    2.84    0.57
  -2  -4  -6    2.49    0.44
   2   4   6    2.15    0.47
   2   4   6    1.42    0.40
   2   4   6    1.55    0.34
   2   4   6    2.34    0.46
  -2  -4  -7   -0.64    0.46
  -2  -4  -7    0.32    0.31
  -2  -4  -7    0.63    0.41
   2   4   7   -0.32    0.36
   2   4   7   -0.11    0.33
   2   4   7    0.14    0.24
   2   4   7    0.09    0.27
  -2  -4  -8    1.60    0.57
  -2  -4  -8    1.04    0.37
  -2  -4  -8    1.51    0.47
   2   4   8    0.90    0.44
   2   4   8    0.64    0.40
   2   4   8    0.92    0.32
   2   4   8    0.97    0.38
  -2  -4  -9   20.89    1.21
  -2  -4  -9   17.47    1.01
   2   4   9   14.38    1.03
   2   4   9   10.28    0.87
   2   4   9    8.95    0.68
   2   4   9   10.08    0.85
  -2  -4 -10    5.07    0.73
   2   4  10    3.73    0.68
   2   4  10    3.12    0.62
   2   4  10    2.48    0.46
   2   4  10    2.54    0.56
  -2  -4 -11   -0.37    0.41
   2   4  11   -0.18    0.38
   2   4  11   -0.01    0.40
   2   4  11    0.37    0.30
   2   4  11    0.15    0.32
  -2  -4 -12    2.20    0.61
   2   4  12    1.68    0.65
   2   4  12    1.18    0.54
   2   4  12    1.52    0.44
   2   4  12    1.11    0.48
   2   4  13    3.33    0.75
   2   4  13    2.88    0.72
   2   4  13    3.22    0.72
   2   4  14   -0.24    0.44
  -2  -5  17    0.43    0.54
  -2  -5  17    0.87    0.69
  -2  -5  16   -0.06    0.47
  -2  -5  16   -0.52    0.56
  -2  -5  15    1.18    0.55
  -2  -5  15    2.34    0.71
  -2  -5  14    2.31    0.58
  -2  -5  14    4.67    0.81
  -2  -5  13    2.26    0.54
  -2  -5  13    3.53    0.74
  -2  -5  12    3.32    0.58
  -2  -5  12    5.19    0.78
   2   5 -12    3.94    0.60
  -2  -5  11    8.65    0.79
  -2  -5  11   14.84    1.05
  -2  -5  10   22.64    1.09
  -2  -5  10   42.67    1.48
  -2  -5   9    2.86    0.49
  -2  -5   9    6.96    0.77
  -2  -5   8    6.24    0.64
  -2  -5   8   12.69    0.87
  -2  -5   7    1.29    0.35
  -2  -5   7    2.49    0.49
   2   5  -7    2.06    0.44
  -2  -5   6   -0.07    0.22
  -2  -5   6    0.49    0.35
   2   5  -6    0.04    0.29
  -2  -5   5    6.19    0.63
  -2  -5   5   11.37    0.78
   2   5  -5   10.18    0.75
  -2  -5   4    2.79    0.45
  -2  -5   4    4.78    0.59
   2   5  -4    4.17    0.54
   2   5  -4    3.35    0.49
  -2  -5   3    0.34    0.29
  -2  -5   3    0.21    0.30
   2   5  -3    0.18    0.26
   2   5  -3    0.25    0.27
  -2  -5   2    0.37    0.27
  -2  -5   2   -0.14    0.25
   2   5  -2    0.28    0.29
   2   5  -2    0.37    0.29
  -2  -5   1    0.89    0.32
  -2  -5   1    1.36    0.37
   2   5  -1    1.17    0.36
   2   5  -1    0.49    0.30
  -2  -5   0    1.26    0.36
  -2  -5   0    1.69    0.40
  -2  -5   0    0.68    0.24
   2   5   0    1.09    0.34
   2   5   0    1.03    0.34
  -2  -5  -1    1.59    0.38
  -2  -5  -1    2.76    0.48
  -2  -5  -1    1.52    0.28
   2   5   1    2.03    0.39
   2   5   1    1.85    0.41
  -2  -5  -2    1.89    0.41
  -2  -5  -2    2.39    0.45
  -2  -5  -2    2.05    0.32
   2   5   2    1.98    0.43
   2   5   2    2.07    0.44
  -2  -5  -3    0.68    0.36
  -2  -5  -3    1.26    0.39
  -2  -5  -3    0.70    0.23
   2   5   3    1.12    0.37
   2   5   3    0.86    0.34
  -2  -5  -4    6.31    0.71
  -2  -5  -4    6.58    0.68
   2   5   4    6.23    0.72
   2   5   4    5.35    0.64
  -2  -5  -5   18.62    1.11
  -2  -5  -5   17.85    0.96
   2   5   5   20.02    1.10
   2   5   5   11.98    0.86
  -2  -5  -6   48.76    1.62
  -2  -5  -6   38.48    1.31
   2   5   6   43.79    1.55
   2   5   6   27.39    1.25
  -2  -5  -7    0.53    0.54
  -2  -5  -7    0.97    0.39
   2   5   7    1.50    0.48
   2   5   7    0.42    0.34
  -2  -5  -8    0.82    0.59
  -2  -5  -8    1.16    0.51
   2   5   8    0.85    0.47
   2   5   8    0.57    0.40
   2   5   8    0.63    0.38
  -2  -5  -9    0.25    0.60
  -2  -5  -9    0.42    0.48
   2   5   9    0.64    0.49
   2   5   9    0.16    0.39
   2   5   9   -0.18    0.32
  -2  -5 -10    1.80    0.71
  -2  -5 -10    1.67    0.59
   2   5  10    0.90    0.53
   2   5  10    1.06    0.50
   2   5  10    0.48    0.39
  -2  -5 -11    0.79    0.56
   2   5  11    0.70    0.55
   2   5  11    0.35    0.45
   2   5  11    0.29    0.42
   2   5  12    1.13    0.62
   2   5  12    0.31    0.46
   2   5  12    0.81    0.48
  -2  -6  16    2.76    0.72
  -2  -6  16    4.65    0.93
   2   6 -16    2.84    0.61
  -2  -6  15    0.20    0.48
  -2  -6  15    1.51    0.72
   2   6 -15    0.55    0.43
  -2  -6  14    0.36    0.48
  -2  -6  14    1.54    0.66
   2   6 -14    0.52    0.42
  -2  -6  13    1.77    0.57
  -2  -6  13    3.27    0.77
   2   6 -13    2.15    0.54
  -2  -6  12   -0.23    0.37
  -2  -6  12    0.46    0.51
   2   6 -12    0.44    0.40
  -2  -6  11    0.06    0.35
  -2  -6  11    0.28    0.48
   2   6 -11    0.47    0.37
  -2  -6  10    1.30    0.45
  -2  -6  10    2.57    0.60
   2   6 -10    1.54    0.46
  -2  -6   9    2.72    0.53
  -2  -6   9    4.50    0.71
   2   6  -9    3.69    0.60
  -2  -6   8    0.44    0.34
  -2  -6   8    0.53    0.42
   2   6  -8    0.67    0.38
  -2  -6   7    1.32    0.41
  -2  -6   7    2.48    0.55
   2   6  -7    1.78    0.46
  -2  -6   6   -0.01    0.31
  -2  -6   6    0.41    0.41
   2   6  -6    0.20    0.37
  -2  -6   5    1.59    0.47
  -2  -6   5    3.19    0.61
   2   6  -5    2.80    0.56
  -2  -6   4    1.76    0.49
  -2  -6   4    5.24    0.72
   2   6  -4    3.89    0.63
   2   6  -4    3.02    0.55
   2   6  -3    1.63    0.48
  -2  -6   2  167.90    2.66
  -2  -6   2  264.49    3.31
   2   6  -2  247.73    3.20
   2   6  -2  163.40    2.83
  -2  -6   1   12.63    0.89
  -2  -6   1   19.32    1.03
  -2  -6   1    9.79    0.64
   2   6  -1   18.48    1.02
   2   6  -1    8.67    0.87
  -2  -6   0    2.07    0.47
  -2  -6   0    3.35    0.56
  -2  -6   0    1.90    0.34
   2   6   0    2.86    0.51
   2   6   0    1.59    0.49
  -2  -6  -1    0.54    0.39
  -2  -6  -1    0.91    0.40
  -2  -6  -1    0.40    0.22
   2   6   1    0.90    0.37
   2   6   1    0.18    0.32
  -2  -6  -2   13.69    0.96
  -2  -6  -2   16.67    0.99
  -2  -6  -2   11.90    0.64
   2   6   2   17.69    1.04
   2   6   2   10.67    0.85
  -2  -6  -3    3.03    0.58
  -2  -6  -3    5.68    0.74
   2   6   3    3.56    0.62
   2   6   3    2.88    0.55
  -2  -6  -4   -0.18    0.46
  -2  -6  -4    0.30    0.39
   2   6   4    0.77    0.45
   2   6   4    0.50    0.37
  -2  -6  -5    8.59    0.94
  -2  -6  -5    8.44    0.87
   2   6   5    9.65    1.00
   2   6   5    6.33    0.74
  -2  -6  -6    7.70    0.95
  -2  -6  -6    6.78    0.83
   2   6   6    7.56    0.93
   2   6   6    4.66    0.71
  -2  -6  -7    8.22    1.02
   2   6   7    7.44    0.94
   2   6   7    4.57    0.72
  -2  -6  -8   14.00    1.43
   2   6   8   11.76    1.19
   2   6   8    6.88    0.83
  -2  -6  -9    0.33    0.70
  -2  -6  -9    0.63    0.58
   2   6   9    0.16    0.49
   2   6   9    0.00    0.39
  -2  -6 -10   -0.61    0.68
  -2  -6 -10    0.07    0.56
   2   6  10    1.28    0.62
   2   6  10    0.06    0.42
  -2  -7  14    0.39    0.53
  -2  -7  14    1.82    0.73
   2   7 -14    0.06    0.37
  -2  -7  13    0.20    0.49
  -2  -7  13    0.65    0.61
   2   7 -13    0.01    0.40
  -2  -7  12    1.41    0.55
  -2  -7  12    3.52    0.82
   2   7 -12    1.65    0.54
  -2  -7  11   -0.22    0.38
  -2  -7  11    0.23    0.51
   2   7 -11   -0.14    0.38
  -2  -7  10    8.33    0.93
  -2  -7  10   14.89    1.20
   2   7 -10   11.60    0.96
  -2  -7   9    4.22    0.68
  -2  -7   9    9.41    1.03
   2   7  -9    7.54    0.86
  -2  -7   8    3.38    0.63
  -2  -7   8    5.26    0.82
   2   7  -8    6.15    0.79
  -2  -7   7    6.18    0.80
  -2  -7   7    9.03    1.00
   2   7  -7    8.21    0.89
  -2  -7   6    3.01    0.62
  -2  -7   6    5.18    0.78
   2   7  -6    3.92    0.66
  -2  -7   5    0.61    0.44
  -2  -7   5    1.00    0.52
   2   7  -5    0.29    0.43
  -2  -7   4    7.18    0.89
  -2  -7   4   11.26    1.03
   2   7  -4   10.79    0.96
  -2  -7   3    8.31    0.93
  -2  -7   3   11.89    1.02
   2   7  -3   12.26    0.99
   2   7  -3    7.47    0.85
  -2  -7   2    8.80    0.93
  -2  -7   2   14.29    1.07
   2   7  -2   12.20    0.99
   2   7  -2    8.96    0.87
  -2  -7   1    0.26    0.43
  -2  -7   1    0.59    0.43
  -2  -7   1    0.01    0.22
   2   7  -1    0.21    0.37
   2   7  -1   -0.40    0.31
  -2  -7   0    1.07    0.53
  -2  -7   0    2.20    0.58
  -2  -7   0    0.56    0.26
   2   7   0    1.63    0.51
   2   7   0    1.33    0.49
  -2  -7  -1    1.02    0.50
  -2  -7  -1    1.36    0.50
   2   7   1    1.10    0.50
   2   7   1    0.85    0.43
  -2  -7  -2    1.87    0.59
  -2  -7  -2    3.76    0.68
   2   7   2    3.77    0.71
   2   7   2    1.66    0.52
  -2  -7  -3    1.67    0.61
  -2  -7  -3    3.75    0.71
   2   7   3    2.05    0.59
   2   7   3    1.82    0.53
  -2  -7  -4    7.85    0.98
  -2  -7  -4    8.36    0.95
   2   7   4    8.10    1.00
   2   7   4    6.05    0.85
  -2  -7  -5    3.31    0.79
  -2  -7  -5    1.82    1.04
   2   7   5    2.46    0.73
   2   7   5    1.72    0.52
  -2  -7  -6    3.77    0.91
   2   7   6    4.37    0.87
   2   7   6    2.36    0.62
  -2  -7  -7    7.14    1.10
   2   7   7    6.53    1.03
   2   7   7    3.44    0.70
  -2  -7  -8   21.96    1.72
   2   7   8   16.34    1.49
   2   7   8    8.00    0.96
  -2  -8  12    0.93    0.59
  -2  -8  12    0.81    0.66
   2   8 -12    0.54    0.47
  -2  -8  11    0.98    0.58
  -2  -8  11    0.96    0.65
   2   8 -11    0.28    0.43
  -2  -8  10    0.70    0.50
  -2  -8  10    1.30    0.63
   2   8 -10    0.97    0.51
  -2  -8   9   -0.15    0.46
  -2  -8   9    1.16    0.63
   2   8  -9    0.35    0.44
  -2  -8   8   -0.18    0.44
  -2  -8   8   -0.47    0.50
   2   8  -8   -0.20    0.40
  -2  -8   7    1.06    0.56
  -2  -8   7    1.48    0.67
   2   8  -7    1.47    0.56
  -2  -8   6   -0.08    0.47
  -2  -8   6   -0.17    0.52
   2   8  -6   -0.09    0.45
  -2  -8   5   -0.54    0.46
  -2  -8   5   -0.08    0.53
   2   8  -5    0.12    0.43
  -2  -8   4    1.61    0.63
  -2  -8   4    3.13    0.75
   2   8  -4    2.49    0.65
  -2  -8   3   10.86    1.16
  -2  -8   3   17.92    1.30
   2   8  -3   15.77    1.18
   2   8  -3   11.50    1.03
  -2  -8   2    4.09    0.77
  -2  -8   2    5.22    0.88
   2   8  -2    5.81    0.87
   2   8  -2    3.19    0.67
  -2  -8   1    7.47    0.96
  -2  -8   1    8.12    1.00
   2   8  -1    9.07    1.06
   2   8  -1    6.24    0.88
  -2  -8   0    7.59    0.97
  -2  -8   0    8.57    1.07
   2   8   0   11.06    1.11
   2   8   0    5.90    0.86
  -2  -8  -1    2.50    0.72
  -2  -8  -1    3.75    0.79
   2   8   1    3.32    0.70
   2   8   1    1.84    0.60
  -2  -8  -2   -0.12    0.55
  -2  -8  -2    0.26    0.52
   2   8   2   -0.11    0.51
   2   8   2    0.13    0.39
  -2  -8  -3   -0.19    0.59
  -2  -8  -3    0.53    0.55
   2   8   3   -0.61    0.50
   2   8   3    0.13    0.43
  -2  -8  -4    1.31    0.74
   2   8   4    1.90    0.71
   2   8   4    1.31    0.50
  -2  -8  -5   -0.10    0.70
   2   8   5   -0.35    0.58
   2   8   5    0.14    0.44
  -2  -9   8    0.60    0.62
  -2  -9   8    2.12    0.83
   2   9  -8    0.89    0.55
  -2  -9   7    0.11    0.55
  -2  -9   7    0.43    0.65
   2   9  -7    0.28    0.48
  -2  -9   6    0.09    0.52
  -2  -9   6    0.21    0.60
   2   9  -6   -0.37    0.42
  -2  -9   5   -0.28    0.56
  -2  -9   5   -0.89    0.52
   2   9  -5   -0.55    0.42
  -2  -9   4    2.03    0.75
  -2  -9   4    2.18    0.75
   2   9  -4    2.13    0.65
  -2  -9   3   -0.13    0.57
  -2  -9   3    0.69    0.62
   2   9  -3    0.29    0.52
  -2  -9   2    0.29    0.63
  -2  -9   2    0.55    0.65
   2   9  -2    0.21    0.51
  -2  -9   1    0.66    0.67
  -2  -9   1    0.31    0.63
   2   9  -1    0.56    0.55
   2   9  -1    0.53    0.49
  -2  -9   0    0.38    0.62
  -2  -9   0    0.03    0.58
   2   9   0    0.09    0.55
   2   9   0   -0.26    0.43
   3  -9  -1    2.16    0.66
   3  -9  -1    2.48    0.73
   3  -9   0    0.53    0.49
   3  -9   0    0.53    0.49
   3  -9   0   -0.11    0.44
   3  -9   1    0.22    0.42
   3  -9   1   -0.11    0.39
   3  -9   1   -0.50    0.39
   3  -9   2    0.11    0.43
   3  -9   2    0.15    0.39
   3  -9   2    0.17    0.41
   3  -9   3    1.65    0.54
   3  -9   3    2.46    0.57
   3  -9   3    2.22    0.61
   3  -9   4    1.41    0.51
   3  -9   4    1.87    0.51
   3  -9   4    1.16    0.51
   3  -9   5    0.09    0.40
   3  -9   5    0.70    0.42
   3  -8  -6    1.92    0.75
   3  -8  -6    1.62    0.69
   3  -8  -6    1.07    0.65
   3  -8  -5    2.83    0.80
   3  -8  -5    2.46    0.72
   3  -8  -5    1.80    0.66
   3  -8  -4    1.95    0.67
   3  -8  -4    2.01    0.63
   3  -8  -4    2.06    0.66
   3  -8  -3    0.80    0.53
   3  -8  -3    0.28    0.44
   3  -8  -3    1.20    0.57
   3  -8  -2    0.46    0.45
   3  -8  -2    0.44    0.42
   3  -8  -2   -0.02    0.43
   3  -8  -1    6.36    0.81
   3  -8  -1    8.37    0.91
   3  -8  -1    8.13    0.95
   3  -8   0    1.60    0.50
   3  -8   0    2.20    0.56
   3  -8   0    1.35    0.54
   3  -8   1   15.38    1.03
   3  -8   1   18.53    1.09
   3  -8   1   18.12    1.16
   3  -8   2    0.04    0.39
   3  -8   2   -0.18    0.31
   3  -8   2    0.46    0.40
   3  -8   3    0.31    0.36
   3  -8   3    0.26    0.35
   3  -8   3    0.63    0.39
   3  -8   4   -0.18    0.33
   3  -8   4   -0.14    0.28
   3  -8   4    0.14    0.33
   3  -8   5    1.13    0.40
   3  -8   5    1.56    0.45
   3  -8   6    0.17    0.31
   3  -8   6   -0.02    0.26
   3  -8   6   -0.12    0.27
   3  -8   7    6.57    0.69
  -3   7   9    2.49    0.61
   3  -7  -9    4.06    0.94
   3  -7  -9    2.75    0.77
   3  -7  -9    2.33    0.87
   3  -7  -8    4.32    0.91
   3  -7  -8    3.65    0.83
   3  -7  -8    2.95    0.81
   3  -7  -7   23.80    1.60
   3  -7  -7   19.64    1.34
   3  -7  -7   18.05    1.37
   3  -7  -6    9.14    1.08
   3  -7  -6    7.27    0.96
   3  -7  -6    6.71    0.98
   3  -7  -5   -0.03    0.54
   3  -7  -5    0.05    0.45
   3  -7  -5    0.26    0.46
   3  -7  -4    3.71    0.67
   3  -7  -4    5.27    0.79
   3  -7  -4    5.74    0.88
   3  -7  -3    9.87    0.98
   3  -7  -3    9.80    0.91
   3  -7  -3    9.42    0.95
   3  -7  -2   11.51    0.94
   3  -7  -2   13.37    0.95
   3  -7  -2   11.83    0.99
   3  -7  -1   23.79    1.15
   3  -7  -1   29.94    1.24
   3  -7  -1   29.72    1.38
   3  -7   0   39.52    1.36
   3  -7   0   50.06    1.48
   3  -7   0   47.74    1.65
   3  -7   1    3.33    0.56
   3  -7   1    4.66    0.63
   3  -7   1    6.07    0.79
   3  -7   2    0.58    0.34
   3  -7   2    0.56    0.37
   3  -7   3    5.95    0.65
   3  -7   3    6.83    0.81
   3  -7   3    9.14    0.75
   3  -7   4    1.71    0.40
   3  -7   4    1.94    0.35
   3  -7   4    2.69    0.50
   3  -7   5    0.89    0.29
   3  -7   5    1.34    0.37
   3  -7   6    3.88    0.53
   3  -7   6    4.72    0.52
   3  -7   7    3.44    0.54
   3  -7   7    3.47    0.52
  -3   6  11    1.89    0.63
   3  -6 -11    3.00    0.89
   3  -6 -11    3.51    0.89
   3  -6 -11    1.82    0.69
  -3   6  10    2.30    0.58
   3  -6 -10    3.29    0.92
   3  -6 -10    2.64    0.76
   3  -6 -10    2.60    0.78
  -3   6   9   11.15    0.94
   3  -6  -9   19.57    1.52
   3  -6  -9   12.08    1.14
   3  -6  -9   10.54    1.14
   3  -6  -8   15.29    1.36
   3  -6  -8   11.99    1.09
   3  -6  -8   11.76    1.12
   3  -6  -7   11.34    1.20
   3  -6  -7    9.24    1.00
   3  -6  -7    8.46    0.96
   3  -6  -6    2.89    0.67
   3  -6  -6    3.32    0.66
   3  -6  -6    3.32    0.67
   3  -6  -5    8.56    0.96
   3  -6  -5    7.36    0.79
   3  -6  -5    7.21    0.82
   3  -6  -4    1.28    0.47
   3  -6  -4    1.73    0.48
   3  -6  -4    1.31    0.48
   3  -6  -3    1.27    0.45
   3  -6  -3    1.75    0.47
   3  -6  -3    1.35    0.45
   3  -6  -2    0.56    0.34
   3  -6  -2    0.81    0.37
   3  -6  -2    0.85    0.40
   3  -6  -1   51.69    1.39
   3  -6  -1   63.93    1.52
   3  -6  -1   61.88    1.75
   3  -6   0   25.29    1.02
   3  -6   0   33.53    1.11
   3  -6   0   34.86    1.30
   3  -6   0   22.45    0.85
   3  -6   1    6.44    0.62
   3  -6   1    5.15    0.40
   3  -6   1    8.37    0.71
   3  -6   1    4.83    0.46
   3  -6   2   10.61    0.67
   3  -6   2    7.30    0.50
   3  -6   2   11.18    0.75
   3  -6   3    0.36    0.20
   3  -6   4    1.22    0.30
   3  -6   4    1.30    0.34
   3  -6   5    2.56    0.42
   3  -6   5    2.76    0.43
   3  -6   6    0.65    0.29
   3  -6   6    0.53    0.26
   3  -6   7    3.75    0.41
  -3   5  13    2.43    0.67
   3  -5 -13    1.52    0.70
   3  -5 -13    2.78    0.75
  -3   5  12    0.89    0.50
   3  -5 -12    1.87    0.71
   3  -5 -12    1.57    0.65
  -3   5  11    2.89    0.64
   3  -5 -11    3.67    0.77
   3  -5 -11    2.84    0.73
  -3   5  10    0.23    0.40
   3  -5 -10    0.37    0.59
   3  -5 -10    0.51    0.48
   3  -5 -10   -0.43    0.41
  -3   5   9    3.35    0.58
   3  -5  -9    4.60    0.83
   3  -5  -9    4.63    0.79
   3  -5  -9    3.09    0.74
  -3   5   8    8.16    0.74
   3  -5  -8   13.84    1.19
   3  -5  -8    7.28    0.88
   3  -5  -8    7.54    0.88
  -3   5   7    0.31    0.29
   3  -5  -7    0.59    0.46
   3  -5  -7    0.28    0.39
   3  -5  -6    6.92    0.78
   3  -5  -6    5.86    0.72
   3  -5  -6    6.49    0.85
   3  -5  -5    1.99    0.49
   3  -5  -5    1.48    0.43
   3  -5  -5    1.71    0.49
   3  -5  -4   18.88    0.98
   3  -5  -4   18.41    0.92
   3  -5  -4   17.26    1.00
   3  -5  -3   43.39    1.28
   3  -5  -3   45.81    1.28
   3  -5  -3   44.97    1.47
   3  -5  -2   26.00    0.96
   3  -5  -2   30.04    1.02
   3  -5  -2   24.06    0.91
   3  -5  -2   30.45    1.20
   3  -5  -2   18.57    0.55
   3  -5  -1    2.55    0.41
   3  -5  -1    3.94    0.50
   3  -5  -1    2.98    0.39
   3  -5  -1    3.09    0.53
   3  -5  -1    2.37    0.29
   3  -5   0   85.60    1.46
   3  -5   0   60.04    1.20
   3  -5   0   86.74    1.84
   3  -5   0   56.60    1.09
   3  -5   1    2.62    0.33
   3  -5   1    4.43    0.54
   3  -5   1    3.39    0.39
   3  -5   2   44.45    1.08
   3  -5   2   64.51    1.50
  -3   5  -3   15.37    0.88
   3  -5   3    8.21    0.56
   3  -5   3   12.30    0.69
   3  -5   4    4.04    0.45
   3  -5   4    4.86    0.47
   3  -5   5    1.93    0.36
   3  -5   5    3.45    0.39
   3  -5   6    0.68    0.27
   3  -5   6    0.98    0.26
   3  -5   7    2.33    0.32
  -3   4  14    0.54    0.54
   3  -4 -14    0.65    0.60
   3  -4 -14    1.37    0.60
  -3   4  13   10.16    1.05
   3  -4 -13   10.80    1.17
   3  -4 -13    9.71    1.05
  -3   4  12    6.43    0.84
   3  -4 -12    7.95    0.99
   3  -4 -12    6.62    0.91
  -3   4  11    8.18    0.87
   3  -4 -11    9.15    1.02
   3  -4 -11    9.75    0.99
  -3   4  10   13.23    0.93
  -3   4  10    7.93    0.70
   3  -4 -10   12.35    1.04
   3  -4 -10   11.94    1.01
  -3   4   9    0.85    0.38
  -3   4   9    1.56    0.39
   3  -4  -9    1.37    0.55
   3  -4  -9    1.83    0.55
   3  -4  -9    1.53    0.52
  -3   4   8    2.30    0.44
  -3   4   8    1.63    0.38
   3  -4  -8    3.75    0.65
   3  -4  -8    2.37    0.54
   3  -4  -8    2.79    0.60
  -3   4   7    7.06    0.61
  -3   4   7    5.08    0.48
  -3   4   7    5.30    0.38
   3  -4  -7   14.51    1.02
   3  -4  -7    6.91    0.74
   3  -4  -7   10.43    0.53
   3  -4  -7    7.08    0.75
  -3   4   6   10.84    0.58
  -3   4   6   11.57    0.48
   3  -4  -6   23.45    1.10
   3  -4  -6   18.15    0.93
   3  -4  -6   21.33    0.73
   3  -4  -6   17.89    0.99
  -3   4   5    0.11    0.13
   3  -4  -5    0.23    0.32
   3  -4  -5    0.41    0.31
   3  -4  -5    0.01    0.19
   3  -4  -5    0.55    0.30
  -3   4   4    6.23    0.37
   3  -4  -4    9.27    0.72
   3  -4  -4    7.64    0.61
   3  -4  -4    9.11    0.61
   3  -4  -4   10.02    0.58
   3  -4  -4    7.70    0.65
  -3   4   3    0.62    0.17
   3  -4  -3    1.07    0.30
   3  -4  -3    0.80    0.30
   3  -4  -3    1.16    0.28
   3  -4  -3    0.75    0.30
   3  -4  -2    6.58    0.54
   3  -4  -2    6.42    0.50
   3  -4  -2    6.69    0.47
   3  -4  -2    6.46    0.57
   3  -4  -1   42.75    0.94
   3  -4  -1   55.88    1.42
   3  -4  -1   37.86    0.73
   3  -4   0   55.09    1.10
   3  -4   0   86.52    1.70
   3  -4   1  102.15    1.55
   3  -4   1  151.65    2.16
   3  -4   2    8.18    0.53
   3  -4   2   11.88    0.65
   3  -4   3   84.35    1.55
   3  -4   3  107.53    1.70
   3  -4   4   27.25    0.95
   3  -4   4   32.66    0.92
   3  -4   5   15.86    0.78
   3  -4   5   18.67    0.68
   3  -4   6    2.05    0.40
   3  -4   6    2.33    0.32
   3  -3 -16    1.04    0.67
   3  -3 -16    0.51    0.56
  -3   3  15    2.78    0.70
   3  -3 -15    2.16    0.73
   3  -3 -15    1.55    0.60
  -3   3  14    1.49    0.57
  -3   3  14    0.99    0.49
   3  -3 -14    1.83    0.65
   3  -3 -14    1.07    0.56
  -3   3  13    1.10    0.49
  -3   3  13    1.13    0.47
   3  -3 -13    1.47    0.63
   3  -3 -13    1.06    0.51
  -3   3  12    2.77    0.59
  -3   3  12    2.54    0.55
   3  -3 -12    3.30    0.70
   3  -3 -12    2.14    0.59
  -3   3  11    0.34    0.37
  -3   3  11    0.33    0.31
   3  -3 -11    0.36    0.48
   3  -3 -11    0.15    0.40
  -3   3  10    5.00    0.64
  -3   3  10    5.10    0.62
   3  -3 -10    6.68    0.82
   3  -3 -10    5.80    0.77
  -3   3   9   29.28    1.10
  -3   3   9   26.59    1.01
   3  -3  -9   33.05    1.31
   3  -3  -9   31.19    1.30
  -3   3   8    7.43    0.63
  -3   3   8    6.13    0.53
   3  -3  -8    8.01    0.73
   3  -3  -8    7.08    0.70
  -3   3   7   22.16    0.85
  -3   3   7   16.02    0.70
   3  -3  -7   32.49    1.21
   3  -3  -7   23.16    1.00
   3  -3  -7   21.47    1.02
  -3   3   6    0.62    0.23
  -3   3   6    0.63    0.22
   3  -3  -6    0.41    0.30
   3  -3  -6    0.52    0.28
  -3   3   5   41.86    0.91
  -3   3   5   40.57    0.92
   3  -3  -5   88.38    1.66
   3  -3  -5   66.15    1.41
   3  -3  -5   79.14    1.51
   3  -3  -5   82.13    1.28
   3  -3  -5   62.43    1.57
  -3   3   4   18.48    0.63
   3  -3  -4   35.70    1.04
   3  -3  -4   29.15    0.90
   3  -3  -4   31.59    0.92
   3  -3  -4   36.42    0.92
   3  -3  -4   28.84    1.06
  -3   3   3   24.85    0.72
   3  -3  -3   39.38    1.00
   3  -3  -3   35.79    0.92
   3  -3  -3   38.03    0.93
   3  -3  -3   45.09    1.05
   3  -3  -3   37.56    1.16
  -3   3   2    2.46    0.29
   3  -3  -2    3.05    0.34
   3  -3  -2    3.23    0.34
   3  -3  -2    4.10    0.40
   3  -3  -2    3.65    0.44
   3  -3   0  129.08    1.71
   3  -3   0  221.42    2.51
   3  -3   1  131.20    1.78
   3  -3   1  217.66    2.41
   3  -3   2    3.98    0.41
   3  -3   2    6.63    0.49
   3  -3   3   14.49    0.68
   3  -3   3   21.16    0.74
   3  -3   4    1.11    0.27
   3  -3   4    1.70    0.29
   3  -3   5    7.36    0.56
   3  -3   5    9.98    0.49
   3  -3   6   14.19    0.77
   3  -3   6   17.14    0.58
   3  -3   7   14.63    0.82
  -3   2  16    0.23    0.52
  -3   2  16   -0.02    0.44
   3  -2 -16    0.02    0.59
   3  -2 -16    0.25    0.46
  -3   2  15   -0.04    0.43
  -3   2  15    0.14    0.42
   3  -2 -15    0.24    0.55
   3  -2 -15    0.34    0.45
  -3   2  14    5.64    0.81
  -3   2  14    5.50    0.77
   3  -2 -14    5.94    0.89
   3  -2 -14    5.14    0.77
  -3   2  13   -0.09    0.38
  -3   2  13    0.27    0.39
   3  -2 -13    0.55    0.53
   3  -2 -13    0.45    0.44
  -3   2  12    5.54    0.72
  -3   2  12    6.19    0.72
  -3   2  12    6.10    0.39
   3  -2 -12    7.22    0.88
   3  -2 -12    6.10    0.80
  -3   2  11    0.59    0.33
  -3   2  11    0.31    0.30
   3  -2 -11    0.09    0.41
   3  -2 -11    0.30    0.37
  -3   2  10   10.07    0.78
  -3   2  10   10.46    0.72
   3  -2 -10   11.45    0.93
   3  -2 -10   10.28    0.82
  -3   2   9    0.33    0.27
  -3   2   9    0.06    0.21
   3  -2  -9    0.08    0.33
   3  -2  -9    0.20    0.27
  -3   2   8    0.75    0.27
  -3   2   8    0.78    0.25
   3  -2  -8    1.03    0.35
   3  -2  -8    0.80    0.34
  -3   2   7   18.79    0.77
  -3   2   7   19.17    0.74
   3  -2  -7   24.06    0.94
   3  -2  -7   24.23    1.02
  -3   2   6    2.77    0.36
  -3   2   6    3.17    0.36
   3  -2  -6    4.04    0.48
   3  -2  -6    2.47    0.40
   3  -2  -6    4.14    0.55
  -3   2   5   41.47    0.90
  -3   2   5   56.32    1.02
   3  -2  -5   78.50    1.47
   3  -2  -5   50.67    1.16
   3  -2  -5   64.66    1.27
   3  -2  -5   67.24    1.10
   3  -2  -5   56.40    1.42
  -3   2   4    0.25    0.17
   3  -2  -4    0.32    0.27
   3  -2  -4    0.00    0.17
   3  -2  -4    0.18    0.17
   3  -2  -4    0.22    0.17
   3  -2  -4    0.18    0.19
  -3   2   3   11.31    0.54
  -3   2   3    6.15    0.42
   3  -2  -3   15.65    0.64
   3  -2  -3    8.73    0.47
   3  -2  -3   15.06    0.57
   3  -2  -3   15.19    0.60
   3  -2  -3   10.75    0.62
  -3   2   2   12.60    0.59
  -3   2   2    4.47    0.38
   3  -2  -2   15.67    0.63
   3  -2  -2   10.45    0.59
  -3   2   1    6.23    0.46
  -3   2   1    3.37    0.35
   3  -2  -1    7.46    0.48
   3  -2  -1    6.35    0.48
   3  -2  -1    5.01    0.27
  -3   2   0   28.97    0.91
  -3   2   0   20.23    0.72
   3  -2   0   36.73    1.03
   3  -2   0   15.79    0.65
   3  -2   0   30.07    0.91
   3  -2   0   31.32    0.68
  -3   2  -1  108.25    1.75
  -3   2  -1   76.48    1.39
   3  -2   1   60.67    1.24
   3  -2   1  112.88    1.66
   3  -2   1  118.50    1.43
  -3   2  -2  174.61    2.28
   3  -2   2  106.40    1.69
   3  -2   2  186.75    2.05
  -3   2  -3    1.42    0.35
   3  -2   3    0.30    0.19
   3  -2   3    0.54    0.21
  -3   2  -4   24.69    0.94
   3  -2   4   17.01    0.76
  -3   2  -5    0.60    0.26
   3  -2   5    0.61    0.22
  -3   2  -6    0.31    0.25
   3  -2   6    0.13    0.19
  -3   2  -7    0.62    0.33
   3  -2   7    0.45    0.24
  -3   2  -8   19.46    0.99
   3  -2   8   14.79    0.86
   3  -2  13    8.83    0.98
   3  -2  14   -0.10    0.41
   3  -2  15    0.40    0.54
   3  -2  16   -0.49    0.40
   3  -2  16   -0.20    0.48
  -3   1  17    1.82    0.68
  -3   1  17    0.96    0.58
   3  -1 -17    1.42    0.58
  -3   1  16    1.03    0.57
  -3   1  16    0.16    0.48
   3  -1 -16    0.83    0.63
   3  -1 -16    0.72    0.50
  -3   1  15    2.27    0.61
  -3   1  15    2.37    0.65
   3  -1 -15    1.97    0.69
   3  -1 -15    1.80    0.54
  -3   1  14    0.82    0.47
  -3   1  14    0.88    0.51
  -3   1  14    0.82    0.29
   3  -1 -14    0.69    0.57
   3  -1 -14    0.49    0.43
  -3   1  13    9.11    0.92
  -3   1  13   10.90    0.95
   3  -1 -13    8.59    1.06
   3  -1 -13    8.68    0.83
  -3   1  12   12.57    0.95
  -3   1  12   14.97    0.98
   3  -1 -12   14.22    1.11
   3  -1 -12   12.26    0.93
  -3   1  11    2.69    0.51
  -3   1  11    5.93    0.71
   3  -1 -11    2.17    0.58
  -3   1  10   -0.05    0.25
  -3   1  10    0.60    0.32
  -3   1  10    0.39    0.15
   3  -1 -10    0.30    0.36
   3  -1 -10    0.56    0.34
  -3   1   9    4.66    0.54
  -3   1   9    5.88    0.55
  -3   1   9    3.37    0.25
   3  -1  -9    4.86    0.60
   3  -1  -9    6.37    0.64
  -3   1   8   18.82    0.80
  -3   1   8   27.24    0.92
   3  -1  -8   23.92    0.96
   3  -1  -8   24.02    0.99
  -3   1   7   11.91    0.62
  -3   1   7   18.15    0.72
  -3   1   7   19.55    0.57
   3  -1  -7   15.31    0.75
   3  -1  -7   16.04    0.81
  -3   1   6   23.55    0.77
  -3   1   6   34.34    0.89
  -3   1   6   41.40    0.84
   3  -1  -6   29.33    0.93
   3  -1  -6   39.62    1.03
   3  -1  -6   37.03    1.13
  -3   1   5   48.81    0.95
  -3   1   5   62.89    1.07
   3  -1  -5   44.40    1.06
   3  -1  -5   57.88    1.16
   3  -1  -5   53.80    1.32
  -3   1   4   50.23    1.00
   3  -1  -4   50.76    1.02
   3  -1  -4   43.54    1.15
  -3   1   3    5.27    0.40
   3  -1  -3    5.40    0.35
   3  -1  -3    5.47    0.39
  -3   1   2   43.36    1.01
  -3   1   2   19.86    0.71
   3  -1  -2   40.74    0.77
   3  -1  -2   42.06    0.97
   3  -1  -2   20.75    0.47
  -3   1   1   26.95    0.83
  -3   1   1   12.57    0.58
   3  -1  -1   27.48    0.82
   3  -1  -1   14.75    0.46
  -3   1   0  106.64    1.65
  -3   1   0   56.41    1.19
   3  -1   0  105.82    1.61
   3  -1   0   69.05    1.04
  -3   1  -1   45.97    1.13
  -3   1  -1   26.03    0.85
   3  -1   1   41.44    1.33
   3  -1   1   21.66    0.79
   3  -1   1   32.72    0.80
  -3   1  -2  160.26    2.14
  -3   1  -2   96.91    1.63
   3  -1   2   84.52    1.53
   3  -1   2  130.66    1.68
  -3   1  -3  198.32    2.44
   3  -1   3  112.29    1.81
   3  -1   3  174.81    2.08
  -3   1  -4    1.32    0.31
   3  -1   4    0.72    0.23
   3  -1   4    1.87    0.33
  -3   1  -5   12.31    0.70
   3  -1   5    8.14    0.58
   3  -1   5   11.62    0.67
  -3   1  -6    0.47    0.27
   3  -1   6    0.29    0.22
   3  -1   6    0.57    0.26
  -3   1  -7    6.19    0.59
   3  -1   7    4.45    0.51
   3  -1   7    6.76    0.61
  -3   1  -8    0.06    0.27
   3  -1   8   -0.02    0.22
   3  -1   8    0.13    0.14
   3  -1   8    0.10    0.28
  -3   1  -9   27.54    1.16
   3  -1   9   20.94    1.04
   3  -1   9   28.60    1.23
  -3   1 -10  172.64    2.79
   3  -1  10  124.65    2.49
   3  -1  10  173.62    3.00
  -3   1 -11   13.35    1.01
   3  -1  11    9.72    0.88
   3  -1  11   14.03    1.09
  -3   1 -12   19.81    1.19
   3  -1  12   21.45    1.26
   3  -1  13    4.93    0.80
   3  -1  14    1.27    0.46
   3  -1  14    0.79    0.48
   3  -1  15    0.51    0.46
   3  -1  15    0.84    0.53
   3  -1  16    2.07    0.57
   3  -1  16    1.81    0.59
   3  -1  16    1.31    0.63
  -3   0  17    4.67    0.84
  -3   0  17    7.71    1.04
   3   0 -17    4.46    0.73
  -3   0  16   12.99    1.17
  -3   0  16   19.32    1.34
   3   0 -16   16.44    1.30
   3   0 -16   15.10    1.05
  -3   0  15   10.18    1.02
  -3   0  15   15.02    1.18
   3   0 -15   13.28    1.17
   3   0 -15   10.29    0.89
  -3   0  14   11.19    1.02
  -3   0  14   16.80    1.19
   3   0 -14   14.22    1.17
   3   0 -14   14.24    0.97
  -3   0  13   51.02    1.66
  -3   0  13   86.83    2.11
   3   0 -13   69.53    1.95
   3   0 -13   65.44    1.78
  -3   0  12    2.29    0.53
  -3   0  12    3.81    0.64
   3   0 -12    1.66    0.58
   3   0 -12    1.58    0.51
  -3   0  11   84.24    1.86
  -3   0  11  138.08    2.35
  -3   0  11   67.19    1.25
   3   0 -11  110.10    2.19
   3   0 -11  115.13    2.19
  -3   0  10   26.46    1.04
  -3   0  10   44.79    1.32
  -3   0  10   21.84    0.69
   3   0 -10   33.64    1.22
   3   0 -10   35.40    1.23
  -3   0   9    5.88    0.56
  -3   0   9   10.49    0.69
  -3   0   9    4.95    0.34
   3   0  -9    7.96    0.65
   3   0  -9    8.11    0.67
  -3   0   8    0.21    0.21
  -3   0   8    0.51    0.27
  -3   0   8    0.66    0.20
  -3   0   8    0.26    0.13
   3   0  -8    0.22    0.24
   3   0  -8    0.15    0.23
  -3   0   7    2.46    0.37
  -3   0   7    4.96    0.46
  -3   0   7    5.00    0.37
  -3   0   7    2.47    0.23
   3   0  -7    2.48    0.40
   3   0  -7    4.14    0.48
  -3   0   6   34.39    0.92
  -3   0   6   68.74    1.25
  -3   0   6   68.47    1.14
  -3   0   6   33.47    0.67
   3   0  -6   58.27    1.93
  -3   0   5    1.91    0.28
  -3   0   5    8.86    0.49
  -3   0   5    8.88    0.49
  -3   0   5    2.87    0.24
   3   0  -5    6.96    0.46
  -3   0   4   53.37    0.95
  -3   0   4  111.28    1.33
  -3   0   4  117.02    1.58
  -3   0   4   59.85    0.88
   3   0  -4  104.97    1.46
   3   0  -4   55.61    0.87
  -3   0   3   42.06    1.00
  -3   0   3   23.49    0.58
   3   0  -3   36.34    0.82
   3   0  -3   19.06    0.54
  -3   0   2    3.34    0.42
  -3   0   2    0.89    0.22
  -3   0   2    2.05    0.24
   3   0  -2    0.64    0.19
   3   0  -2    3.22    0.27
   3   0  -2    0.96    0.17
  -3   0   1   12.51    0.62
  -3   0   1    6.34    0.45
  -3   0   1    9.57    0.43
   3   0  -1   12.41    0.43
   3   0  -1    5.95    0.36
  -3   0   0   63.09    1.30
  -3   0   0   29.23    0.89
  -3   0   0   50.39    0.98
   3   0   0   33.23    0.81
  -3   0  -1   24.42    0.87
  -3   0  -1   11.87    0.61
  -3   0  -1   19.97    0.68
   3   0   1    9.69    0.56
   3   0   1   12.39    0.55
  -3   0  -2  188.52    2.33
  -3   0  -2  100.53    1.69
   3   0   2   87.33    1.58
   3   0   2  115.86    1.68
  -3   0  -3  215.79    2.56
  -3   0  -3  127.40    1.95
   3   0   3  105.48    1.78
   3   0   3  142.94    1.96
  -3   0  -4   63.14    1.45
   3   0   4   31.76    1.04
   3   0   4   45.02    1.19
  -3   0  -5   14.37    0.76
   3   0   5    7.40    0.56
   3   0   5   11.39    0.68
  -3   0  -6    3.03    0.46
   3   0   6    2.11    0.39
   3   0   6    2.48    0.42
  -3   0  -7    1.43    0.39
   3   0   7    0.77    0.29
   3   0   7    0.68    0.23
   3   0   7    0.79    0.31
  -3   0  -8    3.10    0.54
   3   0   8    1.71    0.38
   3   0   8    2.49    0.37
   3   0   8    2.74    0.48
  -3   0  -9   38.88    1.36
   3   0   9   25.31    1.13
   3   0   9   29.80    0.87
   3   0   9   36.31    1.38
  -3   0 -10   74.14    1.88
   3   0  10   47.26    1.57
   3   0  10   57.53    1.21
   3   0  10   64.29    1.88
  -3   0 -11   11.93    0.97
   3   0  11   11.82    0.78
   3   0  11    6.69    0.78
   3   0  11   10.45    0.96
  -3   0 -12   11.17    0.98
   3   0  12   12.06    0.83
   3   0  12   10.68    0.98
  -3   0 -13    2.99    0.70
   3   0  13    2.79    0.53
   3   0  13    2.66    0.54
   3   0  13    2.32    0.60
  -3   0 -14    0.17    0.49
   3   0  14    0.49    0.37
   3   0  14    0.63    0.41
   3   0  14    0.41    0.45
   3   0  15    2.29    0.57
   3   0  15    2.43    0.61
   3   0  15    1.87    0.61
   3   0  16    5.94    0.87
   3   0  16    5.23    0.89
  -3  -1  18    1.01    0.64
  -3  -1  18    0.92    0.69
  -3  -1  17    1.52    0.65
  -3  -1  17    2.06    0.72
   3   1 -17    2.07    0.56
  -3  -1  16    0.17    0.43
  -3  -1  16    0.45    0.55
   3   1 -16    0.36    0.57
   3   1 -16   -0.11    0.41
  -3  -1  15    0.68    0.44
  -3  -1  15    0.44    0.56
   3   1 -15    0.96    0.58
   3   1 -15    0.69    0.47
  -3  -1  14   22.55    1.24
  -3  -1  14   44.81    1.68
   3   1 -14   30.80    1.45
   3   1 -14   31.85    1.30
  -3  -1  13    2.02    0.52
  -3  -1  13    3.49    0.67
   3   1 -13    2.09    0.65
   3   1 -13    1.86    0.50
  -3  -1  12    5.02    0.66
  -3  -1  12   10.20    0.96
   3   1 -12    7.26    0.84
   3   1 -12    7.50    0.79
  -3  -1  11   22.51    1.06
  -3  -1  11   41.92    1.41
  -3  -1  11   19.49    0.78
   3   1 -11   29.72    1.26
   3   1 -11   32.80    1.24
  -3  -1  10    2.42    0.44
  -3  -1  10    3.60    0.56
  -3  -1  10    1.60    0.29
   3   1 -10    2.07    0.45
   3   1 -10    3.17    0.52
  -3  -1   9    1.29    0.35
  -3  -1   9    2.44    0.44
  -3  -1   9    1.23    0.25
   3   1  -9    1.61    0.41
  -3  -1   8   -0.02    0.20
  -3  -1   8   -0.09    0.23
  -3  -1   8    0.02    0.12
  -3  -1   7    0.36    0.21
  -3  -1   6    4.52    0.46
  -3  -1   6    8.85    0.56
  -3  -1   6    4.11    0.33
  -3  -1   5  123.09    1.64
  -3  -1   5  264.49    2.36
  -3  -1   5  124.52    1.53
   3   1  -5  233.57    2.37
   3   1  -5  131.96    1.60
  -3  -1   4    0.63    0.21
  -3  -1   4    2.18    0.31
  -3  -1   4    0.26    0.16
   3   1  -4    1.47    0.27
   3   1  -4    0.40    0.20
  -3  -1   3   38.99    0.83
  -3  -1   3   92.00    1.23
  -3  -1   3   47.03    0.96
   3   1  -3   80.05    1.28
   3   1  -3   41.63    0.93
  -3  -1   2   15.71    0.67
  -3  -1   2    9.38    0.47
   3   1  -2   16.13    0.57
   3   1  -2    7.93    0.46
  -3  -1   1   23.61    0.83
  -3  -1   1   10.80    0.59
  -3  -1   1   14.92    0.59
   3   1  -1   20.01    0.62
   3   1  -1   11.83    0.54
  -3  -1   0  111.74    1.77
  -3  -1   0   53.44    1.23
  -3  -1   0   75.00    1.32
   3   1   0   86.17    1.19
   3   1   0   56.18    1.17
  -3  -1  -1    7.99    0.57
  -3  -1  -1    4.48    0.42
  -3  -1  -1    7.09    0.48
   3   1   1    4.10    0.39
   3   1   1    6.77    0.37
   3   1   1    4.70    0.41
  -3  -1  -2    0.28    0.18
   3   1   2    0.29    0.18
  -3  -1  -3   17.68    0.85
  -3  -1  -3    9.27    0.60
   3   1   3    7.85    0.43
   3   1   3    8.72    0.58
   3   1   3    9.99    0.60
  -3  -1  -4   76.09    1.62
   3   1   4   49.60    0.94
   3   1   4   37.78    0.85
   3   1   4   36.92    1.12
   3   1   4   44.56    1.24
  -3  -1  -5    5.13    0.59
   3   1   5    3.56    0.42
   3   1   5    2.94    0.35
   3   1   5    2.20    0.37
   3   1   5    2.98    0.43
  -3  -1  -6    2.50    0.50
   3   1   6    1.37    0.29
   3   1   6    1.20    0.25
   3   1   6    0.85    0.28
   3   1   6    1.43    0.32
   3   1   6    1.11    0.34
  -3  -1  -7    0.79    0.38
   3   1   7    0.19    0.24
   3   1   7    0.22    0.21
   3   1   7    0.04    0.21
   3   1   7    0.15    0.23
   3   1   7    0.21    0.20
   3   1   7    0.33    0.27
  -3  -1  -8    7.99    0.76
   3   1   8    7.42    0.63
   3   1   8    6.28    0.52
   3   1   8    6.12    0.56
   3   1   8    5.56    0.60
   3   1   8    6.04    0.51
   3   1   8    6.98    0.69
  -3  -1  -9   46.79    1.53
   3   1   9   37.75    1.17
   3   1   9   34.46    1.10
   3   1   9   27.77    1.19
   3   1   9   33.77    1.04
   3   1   9   35.91    1.39
  -3  -1 -10   23.23    1.19
   3   1  10   21.20    1.00
   3   1  10   18.13    0.93
   3   1  10   15.15    0.96
   3   1  10   16.77    0.90
   3   1  10   17.95    1.09
  -3  -1 -11   75.97    1.94
   3   1  11   67.19    1.65
   3   1  11   56.61    1.53
   3   1  11   45.92    1.61
   3   1  11   56.61    1.86
  -3  -1 -12    0.96    0.51
   3   1  12    0.86    0.43
   3   1  12    0.59    0.37
   3   1  12    0.28    0.38
  -3  -1 -13    2.33    0.63
   3   1  13    1.99    0.53
   3   1  13    1.77    0.51
   3   1  13    1.95    0.57
  -3  -1 -14    0.98    0.55
   3   1  14    0.48    0.45
   3   1  14    1.11    0.51
   3   1  14    1.22    0.52
  -3  -1 -15    0.63    0.58
   3   1  15    0.10    0.46
   3   1  15   -0.07    0.44
   3   1  15    0.40    0.49
  -3  -2  18    0.37    0.61
  -3  -2  18    0.80    0.73
  -3  -2  17    3.06    0.76
  -3  -2  17    5.35    1.00
   3   2 -17    3.32    0.95
  -3  -2  16    3.65    0.76
  -3  -2  16    5.71    0.92
   3   2 -16    3.65    0.65
  -3  -2  15    8.17    0.96
  -3  -2  15   13.35    1.21
   3   2 -15   10.89    1.12
   3   2 -15   10.37    0.89
  -3  -2  14    1.43    0.48
  -3  -2  14    1.64    0.61
   3   2 -14    0.66    0.55
   3   2 -14    0.85    0.46
  -3  -2  13   40.35    1.50
  -3  -2  13   75.60    2.01
   3   2 -13   56.39    1.77
   3   2 -13   58.65    1.62
  -3  -2  12   51.19    1.59
  -3  -2  12  100.49    2.18
   3   2 -12   75.29    1.91
   3   2 -12   82.91    1.88
  -3  -2  11   55.19    1.56
  -3  -2  11  102.11    2.08
   3   2 -11   79.31    1.88
  -3  -2  10    6.85    0.66
  -3  -2  10   12.02    0.83
   3   2 -10    7.43    0.77
  -3  -2   9    5.81    0.58
  -3  -2   9   13.34    0.79
  -3  -2   8   10.52    0.68
  -3  -2   8   20.34    0.88
  -3  -2   8   10.10    0.56
  -3  -2   7    7.84    0.60
  -3  -2   7   15.91    0.78
  -3  -2   7    8.54    0.51
  -3  -2   6   15.47    0.73
  -3  -2   6   31.76    0.98
  -3  -2   6   14.56    0.64
  -3  -2   5   25.43    0.85
  -3  -2   5   55.67    1.20
  -3  -2   5   26.74    0.84
   3   2  -5   27.81    0.88
  -3  -2   4    0.81    0.25
  -3  -2   4    2.36    0.35
  -3  -2   4    1.05    0.23
   3   2  -4    0.61    0.23
  -3  -2   3    3.85    0.41
  -3  -2   3    8.58    0.50
  -3  -2   3    3.57    0.37
   3   2  -3    6.09    0.44
   3   2  -3    4.04    0.41
  -3  -2   2    8.48    0.49
  -3  -2   2   17.23    0.62
  -3  -2   2    9.00    0.53
   3   2  -2   13.05    0.59
   3   2  -2    8.06    0.51
  -3  -2   1    0.96    0.24
  -3  -2   1    2.45    0.31
  -3  -2   1    0.60    0.23
  -3  -2   1    1.02    0.24
   3   2  -1    1.49    0.29
   3   2  -1    0.95    0.25
  -3  -2   0    0.23    0.17
  -3  -2   0   -0.01    0.14
  -3  -2   0    0.08    0.16
   3   2   0    0.17    0.19
   3   2   0    0.27    0.19
  -3  -2  -1   10.15    0.60
   3   2   1   13.21    0.59
   3   2   1   10.15    0.60
  -3  -2  -2    8.40    0.61
  -3  -2  -2    4.45    0.45
   3   2   2    6.07    0.45
   3   2   2    4.76    0.47
  -3  -2  -3   50.38    1.36
  -3  -2  -3   29.61    1.01
   3   2   3   38.84    1.01
   3   2   3   38.32    0.96
   3   2   3   25.84    0.95
   3   2   3   30.12    1.06
  -3  -2  -4    5.18    0.59
   3   2   4    3.13    0.42
   3   2   4    2.71    0.36
   3   2   4    2.35    0.35
   3   2   4    1.77    0.35
   3   2   4    2.47    0.42
  -3  -2  -5   15.33    0.88
   3   2   5   11.41    0.67
   3   2   5   10.07    0.57
   3   2   5    6.92    0.52
   3   2   5    6.15    0.56
   3   2   5    8.57    0.66
  -3  -2  -6   10.08    0.81
   3   2   6    7.10    0.61
   3   2   6    6.45    0.52
   3   2   6    5.27    0.52
   3   2   6    4.30    0.51
   3   2   6    5.05    0.58
  -3  -2  -7   35.15    1.30
   3   2   7   26.23    1.00
   3   2   7   23.42    1.20
   3   2   7   17.12    0.82
   3   2   7   16.53    0.88
   3   2   7   19.11    1.00
  -3  -2  -8   10.08    0.94
   3   2   8    7.50    0.74
   3   2   8    5.29    0.64
   3   2   8    5.74    0.62
   3   2   8    6.61    0.70
  -3  -2  -9   37.62    1.45
   3   2   9   27.75    1.16
   3   2   9   22.48    1.03
   3   2   9   20.75    1.05
   3   2   9   22.42    1.17
  -3  -2 -10    6.45    0.84
   3   2  10    6.84    0.80
   3   2  10    4.41    0.62
   3   2  10    3.51    0.57
   3   2  10    4.28    0.68
  -3  -2 -11   23.09    1.22
   3   2  11   18.69    1.08
   3   2  11   15.48    0.98
   3   2  11   12.95    0.95
   3   2  11   13.90    1.05
  -3  -2 -12   10.63    0.99
   3   2  12   10.06    0.96
   3   2  12    7.58    0.84
   3   2  12    8.23    0.91
  -3  -2 -13    3.18    0.70
   3   2  13    3.58    0.67
   3   2  13    2.72    0.65
   3   2  13    2.16    0.61
  -3  -2 -14   -0.23    0.48
   3   2  14   -0.46    0.39
   3   2  14   -0.01    0.43
   3   2  14   -0.10    0.43
  -3  -3  17    1.23    0.67
  -3  -3  17    3.00    0.86
  -3  -3  16    8.79    1.09
  -3  -3  16   17.08    1.39
   3   3 -16   12.99    0.98
  -3  -3  15    4.08    0.77
  -3  -3  15    7.97    1.03
   3   3 -15    5.51    0.84
   3   3 -15    5.82    0.75
  -3  -3  14   19.71    1.21
  -3  -3  14   34.10    1.53
   3   3 -14   27.51    1.40
   3   3 -14   29.25    1.25
  -3  -3  13    0.97    0.43
  -3  -3  13    1.59    0.55
   3   3 -13    0.93    0.52
  -3  -3  12    3.17    0.57
  -3  -3  12    7.28    0.86
   3   3 -12    4.83    0.72
  -3  -3  11    0.31    0.31
  -3  -3  11    1.66    0.51
   3   3 -11    0.40    0.47
  -3  -3  10    1.34    0.39
  -3  -3  10    3.65    0.59
  -3  -3   9   -0.10    0.25
  -3  -3   9    0.05    0.32
  -3  -3   8    3.57    0.50
  -3  -3   8    8.12    0.69
  -3  -3   7    6.21    0.59
  -3  -3   7   13.29    0.78
  -3  -3   6    0.47    0.26
  -3  -3   6    0.73    0.32
  -3  -3   5   21.86    0.87
  -3  -3   5   45.36    1.20
   3   3  -5   24.53    0.95
  -3  -3   4   14.31    0.72
  -3  -3   4   30.91    0.99
   3   3  -4   13.65    0.73
  -3  -3   3   20.71    0.82
  -3  -3   3   41.87    1.09
   3   3  -3   21.72    0.89
  -3  -3   2   -0.23    0.22
  -3  -3   2   -0.10    0.21
   3   3  -2   -0.05    0.21
  -3  -3   1    2.00    0.36
  -3  -3   1    3.82    0.47
  -3  -3   1    1.69    0.33
   3   3  -1    1.99    0.36
  -3  -3   0   55.78    1.17
  -3  -3   0   84.93    1.40
  -3  -3   0   47.98    1.26
   3   3   0   47.08    1.31
  -3  -3  -1    4.42    0.49
  -3  -3  -1    7.08    0.51
  -3  -3  -1    3.06    0.42
   3   3   1    5.63    0.56
   3   3   1    5.73    0.54
   3   3   1    2.89    0.45
  -3  -3  -2    0.29    0.23
  -3  -3  -2   -0.01    0.19
   3   3   2    0.40    0.26
   3   3   2    0.15    0.21
   3   3   2    0.08    0.23
  -3  -3  -3   16.76    0.81
   3   3   3   21.30    0.90
   3   3   3   20.55    0.83
   3   3   3   16.74    0.88
  -3  -3  -4   24.71    1.07
  -3  -3  -4   16.27    0.82
   3   3   4   20.21    0.91
   3   3   4   19.75    0.95
   3   3   4   13.52    0.82
  -3  -3  -5    6.60    0.72
   3   3   5    4.30    0.53
   3   3   5    3.34    0.48
   3   3   5    3.57    0.49
   3   3   5    3.47    0.55
  -3  -3  -6    0.92    0.43
   3   3   6    0.41    0.32
   3   3   6    0.01    0.26
   3   3   6    0.31    0.25
   3   3   6   -0.04    0.26
  -3  -3  -7    3.75    0.68
   3   3   7    2.21    0.49
   3   3   7    1.35    0.42
   3   3   7    1.68    0.40
   3   3   7    1.46    0.43
  -3  -3  -8    1.82    0.60
   3   3   8    1.38    0.47
   3   3   8    1.07    0.41
   3   3   8    1.06    0.35
   3   3   8    1.32    0.44
  -3  -3  -9    5.55    0.83
   3   3   9    4.44    0.67
   3   3   9    3.05    0.57
   3   3   9    2.52    0.48
   3   3   9    3.41    0.62
  -3  -3 -10    2.49    0.67
   3   3  10    2.45    0.57
   3   3  10    1.74    0.50
   3   3  10    1.65    0.44
   3   3  10    2.11    0.56
  -3  -3 -11    0.06    0.51
   3   3  11   -0.32    0.37
   3   3  11   -0.08    0.38
   3   3  11    0.22    0.36
   3   3  11    0.02    0.35
  -3  -3 -12    3.51    0.75
   3   3  12    3.76    0.71
   3   3  12    2.38    0.63
   3   3  12    3.57    0.74
  -3  -3 -13    5.17    0.87
   3   3  13    4.93    0.83
   3   3  13    3.49    0.73
   3   3  13    4.30    0.79
  -3  -4  17    2.72    0.75
  -3  -4  17    4.93    0.98
  -3  -4  16    4.07    0.85
  -3  -4  16    5.56    0.95
  -3  -4  15   -0.05    0.46
  -3  -4  15    0.69    0.59
   3   4 -15   -0.17    0.44
  -3  -4  14   -0.08    0.40
  -3  -4  14    0.53    0.55
   3   4 -14   -0.29    0.50
  -3  -4  13    0.28    0.42
  -3  -4  13    1.07    0.55
   3   4 -13    0.27    0.49
  -3  -4  12    2.55    0.57
  -3  -4  12    5.18    0.78
   3   4 -12    2.83    0.62
  -3  -4  11    0.91    0.41
  -3  -4  11    2.04    0.53
  -3  -4  10    2.23    0.47
  -3  -4  10    4.04    0.63
  -3  -4   9    1.64    0.43
  -3  -4   9    2.15    0.52
  -3  -4   8    2.80    0.50
  -3  -4   8    6.66    0.74
  -3  -4   7    1.08    0.36
  -3  -4   7    2.80    0.52
  -3  -4   6    6.82    0.65
  -3  -4   6   13.33    0.84
  -3  -4   5    8.52    0.69
  -3  -4   5   18.98    0.93
   3   4  -5   10.28    0.74
  -3  -4   4   15.96    0.84
  -3  -4   4   26.63    1.03
   3   4  -4   14.95    0.83
  -3  -4   3    2.98    0.45
  -3  -4   3    5.89    0.60
   3   4  -3    3.09    0.48
  -3  -4   2    0.73    0.30
  -3  -4   2    1.52    0.37
   3   4  -2    0.42    0.29
  -3  -4   1   11.98    0.72
  -3  -4   1   19.86    0.86
  -3  -4   1   11.14    0.68
   3   4  -1   17.10    0.88
   3   4  -1   10.89    0.75
  -3  -4   0    0.00    0.25
  -3  -4   0    0.77    0.30
  -3  -4   0    0.12    0.21
   3   4   0    0.16    0.27
   3   4   0    0.33    0.28
  -3  -4  -1    3.72    0.47
  -3  -4  -1    5.39    0.55
  -3  -4  -1    3.24    0.43
   3   4   1    5.93    0.64
   3   4   1    3.21    0.49
  -3  -4  -2    9.81    0.70
  -3  -4  -2   12.30    0.69
  -3  -4  -2    8.18    0.62
   3   4   2   11.82    0.80
   3   4   2    7.20    0.67
  -3  -4  -3   12.92    0.81
  -3  -4  -3   13.05    0.72
  -3  -4  -3   10.83    0.70
   3   4   3   14.98    0.90
   3   4   3    8.59    0.73
  -3  -4  -4   31.61    1.16
  -3  -4  -4   27.55    0.96
   3   4   4   27.56    1.15
   3   4   4   18.24    1.02
  -3  -4  -5   29.29    1.01
  -3  -4  -5   36.02    1.39
   3   4   5   28.48    1.20
   3   4   5   19.89    1.09
  -3  -4  -6   13.27    0.99
   3   4   6    9.83    0.86
   3   4   6    6.25    0.74
  -3  -4  -7    6.13    0.81
   3   4   7    3.99    0.63
   3   4   7    2.71    0.53
   3   4   7    2.65    0.56
  -3  -4  -8    0.28    0.49
   3   4   8    0.49    0.41
   3   4   8   -0.03    0.35
   3   4   8    0.40    0.31
   3   4   8    0.71    0.40
  -3  -4  -9    1.85    0.66
   3   4   9    1.59    0.53
   3   4   9    0.76    0.45
   3   4   9    1.60    0.44
   3   4   9    0.67    0.45
  -3  -4 -10    2.09    0.69
   3   4  10    2.06    0.59
   3   4  10    1.42    0.53
   3   4  10    0.73    0.39
   3   4  10    1.20    0.51
  -3  -4 -11    3.82    0.80
   3   4  11    3.49    0.74
   3   4  11    2.12    0.63
   3   4  11    2.47    0.69
  -3  -4 -12    1.40    0.68
   3   4  12    1.15    0.59
   3   4  12    0.70    0.54
   3   4  12    0.34    0.47
  -3  -5  16    0.51    0.56
  -3  -5  16    0.28    0.66
  -3  -5  15    7.43    1.02
  -3  -5  15   13.96    1.32
  -3  -5  14    4.94    0.81
  -3  -5  14    8.35    1.04
  -3  -5  13    6.92    0.89
  -3  -5  13   13.80    1.20
   3   5 -13   10.52    1.06
  -3  -5  12    0.89    0.51
  -3  -5  12    2.33    0.65
  -3  -5  11    0.59    0.42
  -3  -5  11    0.92    0.52
  -3  -5  10    0.03    0.35
  -3  -5  10    0.92    0.48
  -3  -5   9    3.66    0.59
  -3  -5   9    7.39    0.86
  -3  -5   8    0.00    0.31
  -3  -5   8   -0.01    0.39
  -3  -5   7    4.65    0.63
  -3  -5   7    7.77    0.86
  -3  -5   6   13.87    0.96
  -3  -5   6   27.40    1.24
  -3  -5   5   23.26    1.15
  -3  -5   5   44.64    1.49
   3   5  -5   33.98    1.38
   3   5  -5   25.20    1.17
  -3  -5   4    1.90    0.51
  -3  -5   4    6.27    0.76
   3   5  -4    4.01    0.65
   3   5  -4    2.47    0.55
  -3  -5   3  111.72    2.12
  -3  -5   3  193.69    2.74
   3   5  -3  165.63    2.66
   3   5  -3  112.77    2.34
  -3  -5   1   76.36    1.73
  -3  -5   1  121.15    2.13
  -3  -5   1   72.28    1.66
   3   5  -1  106.93    2.15
   3   5  -1   69.22    1.87
  -3  -5   0    2.91    0.51
  -3  -5   0    5.97    0.64
  -3  -5   0    1.30    0.37
   3   5   0    4.03    0.59
   3   5   0    1.41    0.48
  -3  -5  -1    0.65    0.38
  -3  -5  -1    1.31    0.39
  -3  -5  -1    0.59    0.29
   3   5   1    1.05    0.41
   3   5   1    0.50    0.36
  -3  -5  -2   -0.23    0.34
  -3  -5  -2    0.06    0.31
  -3  -5  -2   -0.32    0.20
   3   5   2   -0.25    0.31
   3   5   2   -0.02    0.28
  -3  -5  -3    0.26    0.44
  -3  -5  -3    0.35    0.36
  -3  -5  -3    0.06    0.24
   3   5   3    0.27    0.39
   3   5   3    0.38    0.34
  -3  -5  -4    0.47    0.46
  -3  -5  -4    0.59    0.38
   3   5   4    0.11    0.37
   3   5   4    0.48    0.35
  -3  -5  -5    3.02    0.64
   3   5   5    2.34    0.56
   3   5   5    1.40    0.46
  -3  -5  -6   10.29    1.05
  -3  -5  -6    9.29    0.98
   3   5   6    6.10    0.79
   3   5   6    4.92    0.74
  -3  -5  -7    1.89    0.63
  -3  -5  -7    1.84    0.63
   3   5   7    0.75    0.46
   3   5   7    0.59    0.41
  -3  -5  -8    2.11    0.67
  -3  -5  -8    2.17    0.69
   3   5   8    0.95    0.51
   3   5   8    0.69    0.44
  -3  -5  -9    0.81    0.62
   3   5   9    0.31    0.52
   3   5   9    0.60    0.46
  -3  -5 -10    3.07    0.79
   3   5  10    2.45    0.72
   3   5  10    1.57    0.58
   3   5  10    1.43    0.54
  -3  -5 -11    1.15    0.71
   3   5  11    0.64    0.53
  -3  -6  15    0.26    0.55
  -3  -6  15    0.03    0.63
  -3  -6  14    0.89    0.58
  -3  -6  14    1.47    0.71
  -3  -6  13    3.84    0.79
  -3  -6  13    7.92    1.04
  -3  -6  12    0.27    0.50
  -3  -6  12    1.00    0.60
  -3  -6  11    1.35    0.55
  -3  -6  11    3.45    0.77
  -3  -6  10    6.88    0.86
  -3  -6  10   12.11    1.11
   3   6 -10   10.14    0.99
  -3  -6   9    5.34    0.75
  -3  -6   9   11.21    1.05
   3   6  -9    8.57    0.93
  -3  -6   8    1.58    0.50
  -3  -6   8    2.24    0.60
   3   6  -8    1.30    0.50
  -3  -6   7   -0.21    0.36
  -3  -6   7   -0.14    0.41
   3   6  -7   -0.02    0.38
  -3  -6   6    0.05    0.39
  -3  -6   6    0.46    0.48
   3   6  -6   -0.16    0.40
  -3  -6   5    2.69    0.59
  -3  -6   5    5.65    0.81
   3   6  -5    4.43    0.71
   3   6  -5    2.77    0.59
  -3  -6   4    8.47    0.92
  -3  -6   4   15.28    1.08
   3   6  -4   12.41    1.06
   3   6  -4    8.94    0.86
  -3  -6   3    5.61    0.74
  -3  -6   3   10.20    0.93
   3   6  -3    8.18    0.91
   3   6  -3    5.07    0.71
  -3  -6   2   16.78    1.06
  -3  -6   2   24.86    1.19
  -3  -6   2   14.34    0.84
   3   6  -2   23.38    1.24
   3   6  -2   14.47    1.03
  -3  -6   1   -0.15    0.37
  -3  -6   1    0.50    0.40
  -3  -6   1    0.07    0.27
   3   6  -1    0.39    0.40
   3   6  -1    0.14    0.38
  -3  -6   0    0.94    0.46
  -3  -6   0    1.51    0.46
  -3  -6   0    1.09    0.35
   3   6   0    1.46    0.50
   3   6   0    0.36    0.40
  -3  -6  -1   -0.09    0.41
  -3  -6  -1   -0.27    0.34
  -3  -6  -1   -0.04    0.25
   3   6   1   -0.06    0.36
   3   6   1   -0.11    0.32
  -3  -6  -2    0.01    0.43
  -3  -6  -2    1.16    0.47
  -3  -6  -2    0.36    0.28
   3   6   2    0.20    0.41
   3   6   2    0.66    0.41
  -3  -6  -3    1.82    0.61
  -3  -6  -3    2.03    0.41
   3   6   3    2.64    0.63
   3   6   3    1.88    0.55
  -3  -6  -4    0.37    0.53
   3   6   4    0.95    0.49
   3   6   4    0.47    0.41
  -3  -6  -5   33.52    1.59
   3   6   5   31.80    1.56
   3   6   5   18.63    1.21
  -3  -6  -6    6.64    0.90
   3   6   6    4.87    0.81
   3   6   6    3.46    0.69
  -3  -6  -7    0.45    0.66
  -3  -6  -7    0.51    0.59
   3   6   7    0.49    0.54
   3   6   7    0.31    0.44
  -3  -6  -8   -0.12    0.67
  -3  -6  -8    0.13    0.59
   3   6   8    0.53    0.57
   3   6   8    0.61    0.48
  -3  -6  -9    0.46    0.63
   3   6   9    0.10    0.54
   3   6   9    0.04    0.43
  -3  -7  13    2.07    0.67
  -3  -7  13    3.39    0.86
   3   7 -13    2.57    0.68
  -3  -7  12    2.74    0.75
  -3  -7  12    4.64    0.93
   3   7 -12    3.42    0.70
  -3  -7  11    1.15    0.60
  -3  -7  11    1.68    0.68
   3   7 -11    1.66    0.59
  -3  -7  10    0.44    0.52
  -3  -7  10    0.98    0.61
   3   7 -10    0.90    0.53
  -3  -7   9   -0.01    0.48
  -3  -7   9   -0.08    0.49
   3   7  -9    0.19    0.47
  -3  -7   8   -0.26    0.43
  -3  -7   8    0.78    0.56
   3   7  -8   -0.31    0.41
  -3  -7   7    0.34    0.48
  -3  -7   7    0.74    0.58
   3   7  -7    0.76    0.55
  -3  -7   6   -0.08    0.47
  -3  -7   6    0.27    0.53
   3   7  -6   -0.19    0.49
  -3  -7   5    0.87    0.55
  -3  -7   5    1.36    0.63
   3   7  -5    0.64    0.56
  -3  -7   4    4.89    0.79
  -3  -7   4    8.35    1.02
   3   7  -4    7.47    0.96
   3   7  -4    5.02    0.79
  -3  -7   3   12.06    1.12
  -3  -7   3   19.84    1.24
  -3  -7   3   11.71    0.84
   3   7  -3   18.63    1.27
   3   7  -3   11.47    1.05
  -3  -7   2   18.35    1.25
  -3  -7   2   29.30    1.40
  -3  -7   2   15.46    0.92
   3   7  -2   28.55    1.46
   3   7  -2   17.60    1.20
  -3  -7   1    2.41    0.65
  -3  -7   1    3.70    0.68
  -3  -7   1    2.33    0.47
   3   7  -1    4.14    0.73
   3   7  -1    2.49    0.65
  -3  -7   0    0.93    0.54
  -3  -7   0    1.30    0.54
   3   7   0    1.86    0.59
   3   7   0    0.99    0.50
  -3  -7  -1    0.70    0.55
  -3  -7  -1    1.16    0.61
   3   7   1    0.63    0.53
   3   7   1    0.15    0.42
  -3  -7  -2   -0.28    0.48
   3   7   2   -0.33    0.43
   3   7   2   -0.45    0.33
  -3  -7  -3    0.58    0.64
   3   7   3    0.39    0.51
   3   7   3    0.70    0.48
  -3  -7  -4    0.24    0.60
   3   7   4    0.62    0.58
   3   7   4    0.17    0.42
  -3  -7  -5    0.14    0.68
   3   7   5   -0.28    0.49
   3   7   5    0.34    0.45
  -3  -7  -6    0.06    0.70
   3   7   6   -0.04    0.55
   3   7   6   -0.26    0.37
  -3  -8  10    0.24    0.57
  -3  -8  10    0.48    0.65
   3   8 -10    0.59    0.54
  -3  -8   9    0.49    0.60
  -3  -8   9    0.29    0.60
   3   8  -9    0.07    0.50
  -3  -8   8   -0.51    0.51
  -3  -8   8    0.53    0.59
   3   8  -8   -0.04    0.49
  -3  -8   7    0.43    0.55
  -3  -8   7   -0.34    0.54
   3   8  -7    0.05    0.52
  -3  -8   6    1.52    0.67
  -3  -8   6    1.93    0.73
   3   8  -6    1.23    0.59
  -3  -8   5    1.60    0.67
  -3  -8   5    1.28    0.66
   3   8  -5    1.13    0.60
  -3  -8   4    2.32    0.73
  -3  -8   4    4.87    0.89
   3   8  -4    4.00    0.80
   3   8  -4    2.52    0.65
  -3  -8   3    4.94    0.88
  -3  -8   3    6.36    0.91
   3   8  -3    8.18    1.04
   3   8  -3    4.68    0.83
  -3  -8   2    0.24    0.55
  -3  -8   2   -0.18    0.49
   3   8  -2    1.04    0.60
   3   8  -2    0.32    0.44
  -3  -8   1    0.45    0.58
  -3  -8   1    0.34    0.58
   3   8  -1    0.66    0.55
   3   8  -1    0.05    0.45
  -3  -8   0   -0.08    0.58
   3   8   0    0.30    0.57
   3   8   0    0.15    0.47
  -3  -8  -1    0.44    0.63
   3   8   1    1.27    0.66
   3   8   1    1.00    0.54
  -3  -8  -2    0.52    0.64
   3   8   2   -0.41    0.53
   3   8   2    0.16    0.47
   4  -8  -3    0.84    0.56
   4  -8  -3    0.38    0.53
   4  -8  -3    0.65    0.53
   4  -8  -2    3.23    0.69
   4  -8  -2    2.94    0.66
   4  -8  -2    2.99    0.72
   4  -8  -1    1.18    0.53
   4  -8  -1    1.50    0.52
   4  -8  -1    1.37    0.56
   4  -8   0    0.92    0.45
   4  -8   0    1.05    0.46
   4  -8   0    0.98    0.52
   4  -8   1    1.42    0.48
   4  -8   1    1.29    0.45
   4  -8   1    1.07    0.49
   4  -8   2    0.69    0.40
   4  -8   2    1.10    0.43
   4  -8   2    0.98    0.47
   4  -8   3   -0.03    0.30
   4  -8   3    0.26    0.36
   4  -8   4   -0.24    0.31
   4  -7  -7   -0.01    0.66
   4  -7  -7   -0.37    0.50
   4  -7  -7   -0.11    0.47
   4  -7  -6    0.58    0.62
   4  -7  -6    0.03    0.48
   4  -7  -6    0.26    0.51
   4  -7  -5    0.24    0.54
   4  -7  -5    0.29    0.44
   4  -7  -5    0.42    0.47
   4  -7  -4    7.66    0.96
   4  -7  -4    6.42    0.86
   4  -7  -4    6.72    1.01
   4  -7  -3    2.65    0.64
   4  -7  -3    2.10    0.55
   4  -7  -3    1.77    0.57
   4  -7  -2    2.74    0.58
   4  -7  -2    2.87    0.61
   4  -7  -2    2.07    0.61
   4  -7  -1    1.83    0.47
   4  -7  -1    1.87    0.47
   4  -7  -1    1.59    0.52
   4  -7   0    1.80    0.45
   4  -7   0    2.53    0.52
   4  -7   0    2.04    0.55
   4  -7   1    0.19    0.30
   4  -7   1    0.47    0.37
   4  -7   2    6.78    0.73
   4  -7   3   14.86    0.94
   4  -7   4    1.87    0.46
   4  -7   5    1.69    0.43
   4  -7   7    0.17    0.30
   4  -6 -10   -0.41    0.68
   4  -6 -10    0.20    0.60
   4  -6 -10    0.45    0.68
   4  -6  -9    1.43    0.74
   4  -6  -9    1.52    0.65
   4  -6  -9    1.11    0.61
   4  -6  -8    0.29    0.60
   4  -6  -8    0.06    0.50
   4  -6  -8    0.17    0.53
   4  -6  -7    0.32    0.60
   4  -6  -7    0.23    0.49
   4  -6  -7   -0.01    0.46
   4  -6  -6    1.35    0.58
   4  -6  -6    1.16    0.51
   4  -6  -6    1.06    0.52
   4  -6  -5   14.33    1.16
   4  -6  -5   10.94    0.94
   4  -6  -5    8.91    0.96
   4  -6  -4    5.79    0.76
   4  -6  -4    4.38    0.70
   4  -6  -4    4.05    0.72
   4  -6  -3    0.06    0.38
   4  -6  -3    0.51    0.38
   4  -6  -3    0.30    0.38
   4  -6  -2    1.75    0.42
   4  -6  -2    1.82    0.47
   4  -6  -2    1.74    0.56
   4  -6  -1   12.74    0.82
   4  -6  -1   11.53    0.94
   4  -6   0   16.02    0.86
   4  -6   0   14.92    0.99
   4  -6   1    6.17    0.69
   4  -6   2    5.08    0.51
   4  -6   2    7.01    0.69
   4  -6   3    2.87    0.44
   4  -6   3    4.32    0.61
   4  -6   4    9.84    0.71
   4  -6   4   14.70    0.84
   4  -6   5    6.68    0.65
   4  -6   5    9.09    0.67
   4  -6   6   14.17    0.89
   4  -6   6   17.89    0.84
   4  -6   7    5.81    0.68
   4  -6   8    0.29    0.51
  -4   5  12    2.85    0.63
   4  -5 -12    3.34    0.85
   4  -5 -12    3.31    0.83
  -4   5  11    0.29    0.37
   4  -5 -11    0.48    0.58
   4  -5 -11    0.72    0.60
   4  -5 -10   -0.21    0.53
   4  -5 -10    0.56    0.55
   4  -5  -9    4.48    0.84
   4  -5  -9    2.30    0.69
   4  -5  -9    3.07    0.78
   4  -5  -8   34.94    1.65
   4  -5  -8   22.88    1.33
   4  -5  -8   21.93    1.35
   4  -5  -7    1.73    0.61
   4  -5  -7    1.72    0.58
   4  -5  -7    1.15    0.53
   4  -5  -6    0.73    0.51
   4  -5  -6    0.42    0.43
   4  -5  -6    0.43    0.42
   4  -5  -5    0.24    0.41
   4  -5  -5    0.86    0.42
   4  -5  -5    0.14    0.34
   4  -5  -4   43.95    1.45
   4  -5  -4   36.85    1.28
   4  -5  -4   34.72    1.45
   4  -5  -3   37.35    1.28
   4  -5  -3   33.78    1.17
   4  -5  -3   32.09    1.35
   4  -5  -2   61.94    1.48
   4  -5  -2   61.51    1.46
   4  -5  -2   58.81    1.74
   4  -5  -1   80.19    1.97
   4  -5   0    7.08    0.68
   4  -5   1   14.35    0.85
   4  -5   2    5.49    0.54
   4  -5   2    9.09    0.69
   4  -5   3    6.41    0.58
   4  -5   3    9.05    0.67
   4  -5   4    1.81    0.40
   4  -5   4    2.63    0.44
   4  -5   5    0.35    0.25
   4  -5   5    0.71    0.27
   4  -5   6    1.68    0.41
   4  -5   6    2.31    0.39
   4  -5   7    0.61    0.32
   4  -5   7    0.29    0.23
   4  -5   8    0.43    0.34
  -4   4  13    6.25    0.86
   4  -4 -13    7.22    1.07
   4  -4 -13    6.42    1.00
  -4   4  12   10.39    0.95
   4  -4 -12   14.05    1.30
   4  -4 -12   12.32    1.19
  -4   4  11    3.18    0.61
   4  -4 -11    4.18    0.83
   4  -4 -11    3.66    0.80
  -4   4  10    5.07    0.65
   4  -4 -10    8.12    0.98
   4  -4 -10    6.22    0.91
  -4   4   9   15.72    0.86
   4  -4  -9   18.92    1.22
   4  -4  -9   18.07    1.20
  -4   4   8    9.49    0.58
   4  -4  -8   15.67    1.08
   4  -4  -8   14.19    1.05
  -4   4   7    1.66    0.31
   4  -4  -7    4.25    0.67
   4  -4  -7    2.34    0.56
   4  -4  -7    2.13    0.54
  -4   4   6    2.07    0.33
   4  -4  -6    3.67    0.62
   4  -4  -6    2.87    0.54
   4  -4  -6    2.94    0.58
  -4   4   5    0.06    0.15
   4  -4  -5   -0.26    0.35
   4  -4  -5   -0.16    0.28
   4  -4  -5   -0.01    0.26
  -4   4   4    2.82    0.36
   4  -4  -4    4.34    0.56
   4  -4  -4    4.54    0.56
   4  -4  -4    3.08    0.54
  -4   4   3    0.58    0.21
   4  -4  -3    0.83    0.35
   4  -4  -3    0.72    0.29
   4  -4  -3    0.25    0.29
   4  -4  -2   29.87    1.02
   4  -4  -2   30.84    0.97
   4  -4  -2   25.45    0.99
   4  -4  -2   28.97    1.19
   4  -4  -1    1.92    0.43
   4  -4  -1    2.89    0.31
   4  -4   0   39.80    1.31
   4  -4   1   25.74    0.96
   4  -4   1   38.22    1.25
   4  -4   2    4.96    0.51
   4  -4   2    7.72    0.62
   4  -4   3    8.69    0.65
   4  -4   3   12.81    0.72
   4  -4   4    0.04    0.20
   4  -4   4    0.01    0.19
   4  -4   5    0.01    0.21
   4  -4   5    0.18    0.20
   4  -4   6    7.28    0.67
   4  -4   6    9.27    0.57
   4  -4   7   12.52    0.87
   4  -4   7   15.32    0.66
   4  -4   8    4.93    0.66
  -4   3  14    5.22    0.81
   4  -3 -14    6.04    1.01
   4  -3 -14    5.00    0.92
  -4   3  13    0.24    0.41
   4  -3 -13   -0.40    0.52
   4  -3 -13   -0.07    0.48
  -4   3  12    2.65    0.56
   4  -3 -12    3.47    0.78
   4  -3 -12    3.32    0.73
  -4   3  11    0.04    0.34
   4  -3 -11   -0.17    0.49
   4  -3 -11    0.35    0.46
  -4   3  10    0.15    0.31
   4  -3 -10   -0.24    0.47
   4  -3 -10   -0.10    0.34
  -4   3   9   -0.14    0.24
   4  -3  -9   -0.40    0.40
   4  -3  -9   -0.11    0.34
   4  -3  -8    4.11    0.64
   4  -3  -8    4.20    0.68
  -4   3   7    0.13    0.18
   4  -3  -7    0.24    0.33
   4  -3  -7    0.48    0.37
  -4   3   6   11.87    0.64
   4  -3  -6   20.47    0.95
   4  -3  -6   24.37    0.87
   4  -3  -6   18.94    1.04
  -4   3   5    5.03    0.45
   4  -3  -5   11.48    0.83
   4  -3  -5    8.06    0.63
   4  -3  -5   10.09    0.97
   4  -3  -5    8.68    0.75
  -4   3   4   26.13    0.90
   4  -3  -4   55.03    1.36
   4  -3  -4   40.16    1.11
   4  -3  -4   47.86    1.17
   4  -3  -4   41.23    1.39
  -4   3   3    6.02    0.48
   4  -3  -3   12.40    0.75
   4  -3  -3    8.28    0.55
   4  -3  -3   10.39    0.61
   4  -3  -3    9.43    0.72
  -4   3   2    1.08    0.27
   4  -3  -2    1.98    0.33
   4  -3  -2    1.85    0.42
  -4   3   1   77.86    1.69
  -4   3   1   52.31    1.28
   4  -3  -1   75.54    1.73
   4  -3  -1   61.84    0.94
  -4   3   0   46.89    1.37
   4  -3   0   46.11    1.33
   4  -3   0   44.02    0.92
  -4   3  -1    0.71    0.32
   4  -3   1    0.05    0.19
   4  -3   1    0.32    0.25
   4  -3   1    0.68    0.23
  -4   3  -2    4.78    0.65
   4  -3   2    2.46    0.41
   4  -3   2    4.38    0.49
   4  -3   2    4.88    0.47
  -4   3  -3    3.44    0.57
   4  -3   3    2.09    0.39
   4  -3   3    3.99    0.46
   4  -3   3    5.01    0.51
  -4   3  -4    3.02    0.55
   4  -3   4    0.44    0.25
   4  -3   4    0.78    0.26
   4  -3   4    0.95    0.31
  -4   3  -5    4.06    0.63
   4  -3   5    2.12    0.42
   4  -3   5    3.02    0.41
   4  -3   6    2.30    0.44
   4  -3   6    4.31    0.43
   4  -3   7    0.70    0.31
   4  -3   7    0.93    0.27
   4  -3   8    3.73    0.61
   4  -3  10   -0.35    0.35
   4  -3  11    4.43    0.77
   4  -3  12   17.26    1.28
   4  -3  13    2.12    0.72
   4  -3  14    1.36    0.67
  -4   2  15    3.19    0.68
   4  -2 -15    4.46    0.90
   4  -2 -15    4.60    0.84
  -4   2  14    2.06    0.61
   4  -2 -14    2.19    0.76
   4  -2 -14    1.72    0.61
  -4   2  13    6.97    0.85
   4  -2 -13    9.24    1.13
   4  -2 -13    8.41    0.95
  -4   2  12   12.48    0.95
   4  -2 -12   17.33    1.27
   4  -2 -12   16.60    1.16
  -4   2  11    6.60    0.76
   4  -2 -11    8.53    1.03
   4  -2 -11    8.94    0.93
  -4   2  10    4.87    0.62
  -4   2  10    5.46    0.67
   4  -2 -10    7.09    0.85
   4  -2 -10    7.41    0.82
  -4   2   9    0.95    0.33
  -4   2   9    1.00    0.30
   4  -2  -9    1.03    0.44
   4  -2  -9    1.65    0.50
  -4   2   8    9.85    0.60
   4  -2  -8   12.58    0.85
   4  -2  -8   12.12    0.90
  -4   2   7    3.02    0.37
  -4   2   7    3.60    0.41
   4  -2  -7    2.96    0.48
   4  -2  -7    3.78    0.62
  -4   2   6   -0.08    0.20
   4  -2  -6    0.07    0.26
   4  -2  -6    0.15    0.22
   4  -2  -6   -0.03    0.23
  -4   2   5    0.65    0.26
  -4   2   5    0.18    0.19
   4  -2  -5    0.60    0.30
   4  -2  -5    0.64    0.24
   4  -2  -5    0.47    0.30
  -4   2   4    5.14    0.50
  -4   2   4    2.71    0.40
   4  -2  -4    5.86    0.46
   4  -2  -4    5.64    0.58
  -4   2   3   61.10    1.39
  -4   2   3   34.82    1.06
   4  -2  -3   66.42    1.22
   4  -2  -3   59.92    1.55
  -4   2   2   82.24    1.65
  -4   2   2   51.15    1.28
   4  -2  -2   94.68    1.34
   4  -2  -2   83.07    1.78
   4  -2  -2   49.50    0.78
  -4   2   1   32.21    1.09
  -4   2   1   19.97    0.84
   4  -2  -1   32.49    1.12
   4  -2  -1   21.56    0.61
  -4   2   0   19.19    0.89
  -4   2   0   12.88    0.71
   4  -2   0   18.06    0.85
   4  -2   0   14.60    0.57
  -4   2  -1   47.42    1.36
  -4   2  -1   33.80    1.10
   4  -2   1   26.78    0.99
   4  -2   1   49.27    1.30
   4  -2   1   40.57    0.98
  -4   2  -2   39.88    1.29
   4  -2   2   22.97    0.94
   4  -2   2   39.33    1.14
   4  -2   2   36.71    1.01
  -4   2  -3   11.08    0.76
   4  -2   3    6.01    0.56
   4  -2   3   10.82    0.64
  -4   2  -4   13.49    0.84
   4  -2   4    8.20    0.64
   4  -2   4   15.02    0.77
  -4   2  -5    0.13    0.28
   4  -2   5   -0.02    0.21
   4  -2   5    0.08    0.26
  -4   2  -6   41.23    1.45
   4  -2   6   25.65    1.12
   4  -2   6   42.23    1.36
  -4   2  -7   54.73    1.71
   4  -2   7   34.86    1.34
   4  -2   7   53.72    1.60
  -4   2  -8   58.23    1.81
   4  -2   8   37.30    1.43
   4  -2   8   53.44    1.67
  -4   2  -9   35.91    1.54
   4  -2   9   22.57    1.40
   4  -2   9   33.06    1.42
  -4   2 -10    8.97    1.08
   4  -2  10    9.39    0.94
   4  -2  11   10.46    1.00
   4  -2  12    1.38    0.56
   4  -2  13   11.33    1.14
   4  -2  14    3.57    0.79
  -4   1  16    0.14    0.49
   4  -1 -16   -0.24    0.61
   4  -1 -16    0.09    0.47
  -4   1  15    1.11    0.55
   4  -1 -15    0.60    0.63
   4  -1 -15    1.86    0.64
  -4   1  14    2.19    0.59
   4  -1 -14    3.69    0.81
   4  -1 -14    3.29    0.70
  -4   1  13    0.32    0.41
  -4   1  13    1.61    0.54
   4  -1 -13    1.11    0.62
   4  -1 -13    0.85    0.45
  -4   1  12    2.24    0.55
  -4   1  12    3.78    0.61
   4  -1 -12    3.73    0.75
   4  -1 -12    4.17    0.74
  -4   1  11   29.44    1.22
  -4   1  11   38.90    1.32
   4  -1 -11   39.78    1.56
   4  -1 -11   39.05    1.54
  -4   1  10   58.54    1.54
  -4   1  10   85.27    1.77
   4  -1 -10   82.50    2.00
   4  -1 -10   85.87    2.13
  -4   1   9   -0.16    0.24
  -4   1   9    0.10    0.23
   4  -1  -9    0.07    0.35
   4  -1  -9    0.22    0.34
  -4   1   8    1.61    0.35
  -4   1   8    2.91    0.41
  -4   1   8    2.81    0.39
   4  -1  -8    2.06    0.44
   4  -1  -8    1.72    0.44
  -4   1   7   46.75    1.08
  -4   1   7   58.34    1.21
   4  -1  -7   44.01    1.30
   4  -1  -7   51.01    1.54
  -4   1   6   24.43    0.84
   4  -1  -6   23.01    0.87
   4  -1  -6   22.26    1.03
  -4   1   5   18.28    0.76
   4  -1  -5   16.14    0.71
   4  -1  -5   15.12    0.85
  -4   1   4    8.60    0.60
  -4   1   4    3.61    0.46
   4  -1  -4    7.20    0.49
   4  -1  -4    7.34    0.63
   4  -1  -4    3.95    0.26
  -4   1   3   81.57    1.59
  -4   1   3   41.50    1.19
   4  -1  -3   76.51    1.29
   4  -1  -3   40.04    0.76
  -4   1   2    5.83    0.55
  -4   1   2    1.75    0.34
   4  -1  -2    4.58    0.36
   4  -1  -2    1.93    0.25
  -4   1   1   63.12    1.48
  -4   1   1   32.77    1.08
   4  -1  -1   33.44    0.82
  -4   1   0   37.64    1.19
  -4   1   0   20.90    0.89
   4  -1   0   22.21    0.74
  -4   1  -1    3.30    0.52
  -4   1  -1    0.55    0.24
   4  -1   1    1.29    0.26
  -4   1  -2   22.77    0.99
  -4   1  -2   14.40    0.78
   4  -1   2   10.85    0.69
   4  -1   2   15.34    0.71
  -4   1  -3    2.68    0.50
   4  -1   3    1.43    0.35
   4  -1   3    1.74    0.34
  -4   1  -4    1.32    0.39
   4  -1   4    0.36    0.24
   4  -1   4    0.79    0.28
  -4   1  -5   76.18    1.86
   4  -1   5   41.33    1.36
   4  -1   5   60.81    1.55
  -4   1  -6    6.89    0.74
   4  -1   6    4.96    0.63
   4  -1   6    6.12    0.64
  -4   1  -7    0.55    0.43
   4  -1   7    0.02    0.24
   4  -1   7    0.64    0.34
  -4   1  -8   24.84    1.26
   4  -1   8   14.60    0.96
   4  -1   8   22.26    1.16
  -4   1  -9    1.55    0.57
   4  -1   9    0.67    0.41
   4  -1   9    1.53    0.48
  -4   1 -10    2.49    0.67
   4  -1  10    1.16    0.51
  -4   1 -11   30.81    1.53
   4  -1  11   27.39    1.43
  -4   1 -12   11.11    1.14
   4  -1  12   10.87    1.08
  -4   1 -13    2.52    0.76
   4  -1  13    1.67    0.60
   4  -1  14   -0.03    0.45
  -4   0  16    2.15    0.69
   4   0 -16    3.21    0.84
   4   0 -16    2.77    0.71
  -4   0  15    4.32    0.80
  -4   0  15    7.51    1.10
   4   0 -15    6.60    0.99
   4   0 -15    5.68    0.84
  -4   0  14    0.51    0.46
  -4   0  14    1.27    0.56
   4   0 -14    1.07    0.63
   4   0 -14    0.72    0.52
  -4   0  13    1.91    0.54
  -4   0  13    3.66    0.68
   4   0 -13    2.37    0.66
   4   0 -13    2.64    0.64
  -4   0  12    0.95    0.44
   4   0 -12    0.85    0.57
   4   0 -12    0.89    0.47
  -4   0  11   24.00    1.14
  -4   0  11   43.94    1.42
   4   0 -11   35.61    1.46
   4   0 -11   38.12    1.49
  -4   0  10    0.76    0.37
  -4   0  10    1.01    0.37
  -4   0  10    1.32    0.32
  -4   0  10    0.57    0.19
   4   0 -10    0.60    0.42
   4   0 -10    0.82    0.48
  -4   0   9    8.75    0.69
  -4   0   9   17.28    0.84
  -4   0   9   17.77    0.72
  -4   0   9    7.98    0.41
   4   0  -9   13.30    0.90
   4   0  -9   14.30    0.94
  -4   0   8    2.83    0.43
  -4   0   8    5.58    0.53
  -4   0   8    5.91    0.51
  -4   0   8    2.74    0.27
   4   0  -8    3.01    0.50
   4   0  -8    5.49    0.66
  -4   0   7   10.04    0.64
  -4   0   7   20.32    0.78
  -4   0   7   21.86    0.83
  -4   0   7   11.02    0.45
  -4   0   6   24.59    0.78
  -4   0   6   26.98    0.92
  -4   0   6   14.74    0.52
  -4   0   5    6.22    0.57
  -4   0   5    3.99    0.31
   4   0  -5    5.22    0.47
   4   0  -5    2.86    0.31
  -4   0   4  182.15    2.36
  -4   0   4  114.23    1.43
   4   0  -4  156.29    1.98
   4   0  -4   81.47    1.24
  -4   0   3    6.83    0.61
  -4   0   3    1.82    0.35
  -4   0   3    2.49    0.31
   4   0  -3    4.44    0.39
   4   0  -3    1.66    0.27
  -4   0   2    4.15    0.54
  -4   0   2    1.49    0.32
  -4   0   2    2.61    0.31
   4   0  -2    3.04    0.33
   4   0  -2    1.43    0.27
  -4   0   1    4.41    0.61
  -4   0   1    1.64    0.33
  -4   0   1    2.93    0.35
   4   0  -1    1.78    0.29
  -4   0   0   53.81    1.44
  -4   0   0   26.93    1.01
  -4   0   0   45.26    1.10
   4   0   0   26.57    0.86
  -4   0  -1   35.78    1.22
  -4   0  -1   16.14    0.82
   4   0   1   16.94    0.75
  -4   0  -2   15.72    0.88
  -4   0  -2    7.27    0.61
   4   0   2    7.93    0.62
   4   0   2    7.98    0.58
  -4   0  -3    0.30    0.31
  -4   0  -3    0.21    0.22
   4   0   3    0.07    0.21
   4   0   3    0.30    0.25
  -4   0  -4    3.85    0.58
   4   0   4    1.54    0.35
   4   0   4    2.05    0.39
  -4   0  -5   11.46    0.84
   4   0   5    5.78    0.61
   4   0   5    6.58    0.62
  -4   0  -6    8.45    0.81
   4   0   6    4.91    0.60
   4   0   6    6.24    0.65
  -4   0  -7   12.42    0.95
   4   0   7    7.10    0.71
   4   0   7    8.74    0.76
  -4   0  -8   28.73    1.38
   4   0   8   15.63    1.00
   4   0   8   22.01    1.17
  -4   0  -9  125.67    2.63
   4   0   9   80.18    3.26
   4   0   9   92.03    2.31
  -4   0 -10   78.84    2.17
   4   0  10   60.71    1.98
  -4   0 -11   13.80    1.16
   4   0  11    9.44    0.99
  -4   0 -12    3.81    0.80
   4   0  12    3.10    0.71
  -4   0 -13    1.10    0.61
   4   0  13   -0.04    0.44
  -4   0 -14    1.92    0.70
   4   0  14    0.75    0.47
   4   0  14    0.86    0.57
  -4  -1  17    2.84    0.78
   4   1 -17    4.48    0.82
  -4  -1  16    3.86    0.80
  -4  -1  16    7.10    0.99
   4   1 -16    4.86    0.96
   4   1 -16    4.25    0.79
  -4  -1  15    1.80    0.64
  -4  -1  15    3.00    0.74
   4   1 -15    2.83    0.82
   4   1 -15    2.15    0.63
  -4  -1  14    2.51    0.61
  -4  -1  14    4.83    0.84
   4   1 -14    3.81    0.81
   4   1 -14    3.20    0.68
  -4  -1  13   10.74    0.98
  -4  -1  13   21.04    1.25
   4   1 -13   15.06    1.23
   4   1 -13   15.38    1.11
  -4  -1  12   47.14    1.57
  -4  -1  12   88.97    2.09
  -4  -1  12   78.36    1.43
   4   1 -12   67.98    1.96
   4   1 -12   73.56    2.01
  -4  -1  11   18.27    1.03
  -4  -1  11   34.25    1.32
  -4  -1  11   29.50    0.95
  -4  -1  11   15.34    1.11
   4   1 -11   24.30    1.25
   4   1 -11   27.83    1.31
  -4  -1  10   14.00    0.87
  -4  -1  10   28.15    1.15
  -4  -1  10   25.54    0.91
  -4  -1  10   12.11    0.61
   4   1 -10   19.27    1.10
   4   1 -10   23.86    1.20
  -4  -1   9    0.14    0.27
  -4  -1   9    0.55    0.34
  -4  -1   9    0.31    0.25
  -4  -1   9    0.32    0.19
  -4  -1   8    0.15    0.27
  -4  -1   8    0.79    0.34
  -4  -1   8    0.58    0.27
  -4  -1   8    0.30    0.16
  -4  -1   7   10.89    0.69
  -4  -1   7   23.39    0.89
  -4  -1   7   21.59    0.87
  -4  -1   7   11.58    0.55
  -4  -1   6    5.42    0.50
  -4  -1   6    5.51    0.55
  -4  -1   6    2.04    0.31
  -4  -1   5   15.03    0.65
  -4  -1   5   15.11    0.79
  -4  -1   5    6.18    0.44
   4   1  -5    4.38    0.42
  -4  -1   4   29.16    0.77
  -4  -1   4   30.60    1.06
  -4  -1   4   17.59    0.69
   4   1  -4   25.77    0.87
   4   1  -4   13.99    0.65
  -4  -1   3    3.26    0.48
  -4  -1   3    1.03    0.32
  -4  -1   3    1.25    0.27
   4   1  -3    1.73    0.29
   4   1  -3    1.08    0.27
  -4  -1   2   44.75    1.30
  -4  -1   2   20.85    0.92
  -4  -1   2   27.92    0.89
   4   1  -2   35.78    0.95
   4   1  -2   20.07    0.77
  -4  -1   1   57.94    1.49
  -4  -1   1   29.66    1.08
  -4  -1   1   41.52    1.12
   4   1  -1   46.95    1.05
   4   1  -1   28.61    0.94
  -4  -1   0   19.66    0.97
  -4  -1   0    9.13    0.66
   4   1   0   13.43    0.60
   4   1   0    9.89    0.61
  -4  -1  -1   72.95    1.74
  -4  -1  -1   34.48    1.19
   4   1   1   49.14    1.04
   4   1   1   35.46    1.11
  -4  -1  -2  104.63    2.10
  -4  -1  -2   54.41    1.49
   4   1   2   67.49    1.19
   4   1   2   52.43    1.39
  -4  -1  -3   -0.01    0.33
  -4  -1  -3   -0.13    0.20
   4   1   3    0.27    0.24
   4   1   3   -0.02    0.22
  -4  -1  -4   29.95    1.26
   4   1   4   18.54    0.68
   4   1   4   13.83    0.83
   4   1   4   16.02    0.87
  -4  -1  -5    1.55    0.50
   4   1   5    0.95    0.27
   4   1   5    0.35    0.24
   4   1   5    0.92    0.34
   4   1   5    0.58    0.32
  -4  -1  -6    7.98    0.84
   4   1   6    4.14    0.48
   4   1   6    3.69    0.56
   4   1   6    4.71    0.62
  -4  -1  -7   -0.33    0.41
   4   1   7    0.00    0.27
   4   1   7    0.32    0.32
  -4  -1  -8   16.35    1.19
   4   1   8    8.86    0.72
   4   1   8    9.28    0.81
   4   1   8   12.36    0.94
  -4  -1  -9    9.56    1.11
   4   1   9    7.67    0.77
   4   1   9    7.57    0.87
  -4  -1 -10    8.41    1.05
   4   1  10    4.41    0.60
   4   1  10    4.64    0.77
  -4  -1 -11    4.68    0.86
   4   1  11    4.59    0.65
   4   1  11    2.57    0.52
   4   1  11    3.63    0.72
  -4  -1 -12    5.79    0.92
   4   1  12    4.76    0.69
   4   1  12    4.49    0.67
   4   1  12    5.05    0.84
  -4  -1 -13    0.36    0.55
   4   1  13    0.22    0.41
   4   1  13    0.39    0.42
   4   1  13    0.11    0.46
  -4  -2  17    5.01    1.00
   4   2 -17    4.20    0.81
  -4  -2  16    1.30    0.65
  -4  -2  16    2.12    0.80
   4   2 -16    1.07    0.73
   4   2 -16    1.26    0.57
  -4  -2  15    3.11    0.74
  -4  -2  15    5.01    0.92
   4   2 -15    4.34    0.86
   4   2 -15    3.96    0.77
  -4  -2  14   11.46    1.11
  -4  -2  14   23.97    1.41
   4   2 -14   15.44    1.29
   4   2 -14   19.11    1.21
  -4  -2  13    0.88    0.49
  -4  -2  13    1.57    0.60
   4   2 -13    0.92    0.57
   4   2 -13    1.50    0.57
  -4  -2  12    1.69    0.50
  -4  -2  12    3.03    0.66
   4   2 -12    1.81    0.61
   4   2 -12    1.28    0.61
  -4  -2  11    1.65    0.48
  -4  -2  11    2.90    0.61
   4   2 -11    1.34    0.54
  -4  -2  10    1.18    0.42
  -4  -2  10    2.24    0.52
  -4  -2   9    1.72    0.44
  -4  -2   9    3.78    0.61
  -4  -2   8    1.06    0.37
  -4  -2   8    2.12    0.47
  -4  -2   7    4.51    0.54
  -4  -2   7    9.24    0.68
  -4  -2   6    2.98    0.44
  -4  -2   6    6.26    0.57
   4   2  -6    2.94    0.43
  -4  -2   5    2.67    0.41
  -4  -2   5    5.76    0.52
   4   2  -5    3.26    0.44
  -4  -2   4    8.89    0.59
  -4  -2   4   18.70    0.73
   4   2  -4    8.43    0.60
  -4  -2   3    1.19    0.28
  -4  -2   3    0.23    0.25
   4   2  -3    0.60    0.27
   4   2  -3    0.34    0.25
  -4  -2   2    2.13    0.45
  -4  -2   2    0.32    0.26
   4   2  -2    1.65    0.34
   4   2  -2    0.89    0.29
  -4  -2   1   26.42    1.09
  -4  -2   1   15.07    0.83
   4   2  -1   21.90    0.82
   4   2  -1   13.96    0.76
  -4  -2   0    0.95    0.38
  -4  -2   0    0.44    0.25
   4   2   0    0.85    0.29
   4   2   0    0.14    0.23
  -4  -2  -1   13.60    0.88
  -4  -2  -1    7.14    0.63
   4   2   1    9.73    0.59
   4   2   1    7.65    0.63
  -4  -2  -2    1.75    0.47
  -4  -2  -2    0.86    0.30
   4   2   2    1.41    0.33
   4   2   2    0.75    0.30
  -4  -2  -3    6.63    0.84
  -4  -2  -3    2.36    0.43
   4   2   3    3.52    0.44
   4   2   3    2.57    0.48
  -4  -2  -4    2.37    0.58
  -4  -2  -4    0.84    0.33
   4   2   4    1.34    0.35
   4   2   4    0.93    0.35
  -4  -2  -5   -0.03    0.39
   4   2   5   -0.11    0.26
   4   2   5   -0.21    0.25
   4   2   5    0.02    0.25
  -4  -2  -6    8.00    0.93
   4   2   6    6.85    0.70
   4   2   6    4.28    0.55
   4   2   6    4.07    0.59
   4   2   6    5.47    0.67
  -4  -2  -7    0.08    0.57
   4   2   7    0.07    0.35
   4   2   7   -0.11    0.30
   4   2   7    0.46    0.34
   4   2   7    0.51    0.38
  -4  -2  -8   27.25    1.46
   4   2   8   20.80    1.07
   4   2   8   14.06    0.89
   4   2   8   13.89    0.99
   4   2   8   16.33    1.08
  -4  -2  -9    8.77    1.09
   4   2   9    6.25    0.74
   4   2   9    4.56    0.66
   4   2   9    4.84    0.76
  -4  -2 -10   30.10    1.54
   4   2  10   24.99    1.22
   4   2  10   17.94    1.05
   4   2  10   16.55    1.18
  -4  -2 -11    0.42    0.58
   4   2  11    0.51    0.43
   4   2  11    0.31    0.41
   4   2  11    0.16    0.45
  -4  -2 -12    2.84    0.77
   4   2  12    2.44    0.58
   4   2  12    1.16    0.52
   4   2  12    1.62    0.63
  -4  -2 -13    0.27    0.61
   4   2  13   -0.04    0.45
  -4  -3  16    0.90    0.65
  -4  -3  16    1.34    0.74
   4   3 -16    1.60    0.64
  -4  -3  15    4.68    0.87
  -4  -3  15    7.86    1.05
   4   3 -15    5.64    0.96
   4   3 -15    6.14    0.87
  -4  -3  14    1.51    0.57
  -4  -3  14    2.02    0.68
   4   3 -14    0.71    0.63
   4   3 -14    0.94    0.61
  -4  -3  13    7.81    0.98
  -4  -3  13   13.45    1.13
   4   3 -13    9.64    1.10
  -4  -3  12    2.52    0.59
  -4  -3  12    5.50    0.79
   4   3 -12    3.24    0.70
  -4  -3  11    6.94    0.84
  -4  -3  11   14.23    1.02
  -4  -3  10    2.25    0.50
  -4  -3  10    4.66    0.70
  -4  -3   9    0.26    0.34
  -4  -3   9    1.30    0.45
  -4  -3   8   -0.19    0.29
  -4  -3   8   -0.14    0.30
  -4  -3   7   10.30    0.78
  -4  -3   7   24.67    1.04
  -4  -3   6    6.63    0.66
  -4  -3   6   14.00    0.82
   4   3  -6    6.69    0.63
  -4  -3   5    1.37    0.38
  -4  -3   5    3.13    0.45
   4   3  -5    1.54    0.38
  -4  -3   4    3.17    0.45
  -4  -3   4    8.17    0.63
   4   3  -4    3.68    0.53
  -4  -3   3    4.48    0.52
  -4  -3   3   10.05    0.66
   4   3  -3    4.90    0.57
  -4  -3   2   33.15    0.99
  -4  -3   2   18.85    0.95
   4   3  -2   17.88    0.91
  -4  -3   1   32.37    0.94
  -4  -3   1   15.75    0.89
   4   3  -1   15.38    0.90
  -4  -3   0   33.77    0.89
  -4  -3   0   28.89    1.16
   4   3   0   30.33    1.19
  -4  -3  -1    4.48    0.66
  -4  -3  -1    1.66    0.38
   4   3   1    2.22    0.46
  -4  -3  -2    1.07    0.41
  -4  -3  -2    0.25    0.27
   4   3   2    0.67    0.33
   4   3   2    0.46    0.31
  -4  -3  -3    0.50    0.42
  -4  -3  -3    0.08    0.26
   4   3   3    0.52    0.34
   4   3   3    0.34    0.31
  -4  -3  -4    1.13    0.50
  -4  -3  -4    0.83    0.35
   4   3   4    0.73    0.37
   4   3   4    0.98    0.38
  -4  -3  -5    5.98    0.89
   4   3   5    3.37    0.57
   4   3   5    2.81    0.57
  -4  -3  -6    0.42    0.55
   4   3   6   -0.21    0.33
   4   3   6    0.41    0.36
  -4  -3  -7    0.81    0.63
   4   3   7    1.03    0.45
   4   3   7    0.38    0.37
   4   3   7    0.31    0.36
   4   3   7    0.97    0.46
  -4  -3  -8   -0.37    0.56
   4   3   8   -0.20    0.37
   4   3   8   -0.03    0.35
   4   3   8    0.69    0.42
  -4  -3  -9   21.03    1.40
   4   3   9   17.87    1.16
   4   3   9   11.27    0.95
   4   3   9   11.17    1.03
  -4  -3 -10    3.86    0.87
   4   3  10    2.72    0.63
   4   3  10    1.50    0.53
   4   3  10    1.34    0.55
  -4  -3 -11    6.06    0.99
   4   3  11    5.44    0.79
   4   3  11    4.04    0.75
   4   3  11    3.52    0.77
   4   3  12    0.05    0.47
  -4  -4  16   12.54    1.38
  -4  -4  16   18.60    1.55
   4   4 -16   16.21    1.30
  -4  -4  15    0.86    0.58
  -4  -4  15    1.58    0.69
  -4  -4  14    8.93    1.10
  -4  -4  14   14.34    1.25
   4   4 -14   12.36    1.24
  -4  -4  13    0.25    0.46
  -4  -4  13    1.61    0.62
   4   4 -13    0.27    0.53
  -4  -4  12   11.69    1.07
  -4  -4  12   18.86    1.22
  -4  -4  11   -0.31    0.39
  -4  -4  11   -0.22    0.38
  -4  -4  10    0.27    0.39
  -4  -4  10    1.27    0.50
  -4  -4   9    4.42    0.65
  -4  -4   9    8.50    0.85
  -4  -4   8    0.80    0.39
  -4  -4   8    1.38    0.45
  -4  -4   7   -0.06    0.34
  -4  -4   7   -0.04    0.35
  -4  -4   6    4.82    0.64
  -4  -4   6    8.59    0.79
   4   4  -6    4.85    0.64
  -4  -4   5    0.97    0.43
  -4  -4   5    2.60    0.50
   4   4  -5    1.95    0.45
  -4  -4   4    1.41    0.44
  -4  -4   4    2.74    0.53
   4   4  -4    1.58    0.41
  -4  -4   3    0.13    0.34
  -4  -4   3    1.19    0.39
  -4  -4   3    0.57    0.29
   4   4  -3    0.30    0.32
  -4  -4   2   35.64    1.19
  -4  -4   2   60.48    1.44
  -4  -4   2   30.35    1.23
   4   4  -2   29.62    1.25
  -4  -4   1   13.58    0.84
  -4  -4   1   21.08    0.91
  -4  -4   1   11.00    0.81
   4   4  -1   10.86    0.85
  -4  -4   0    5.51    0.65
  -4  -4   0    7.18    0.63
  -4  -4   0    3.50    0.55
   4   4   0    6.83    0.75
   4   4   0    3.65    0.59
  -4  -4  -1   -0.28    0.23
   4   4   1    0.34    0.35
   4   4   1   -0.04    0.28
  -4  -4  -2    3.48    0.53
   4   4   2    4.75    0.68
   4   4   2    3.31    0.57
  -4  -4  -3   11.41    0.98
  -4  -4  -3    6.49    0.70
   4   4   3    8.45    0.87
   4   4   3    6.38    0.75
  -4  -4  -4   15.20    1.12
  -4  -4  -4    8.94    0.81
   4   4   4   11.94    0.98
   4   4   4    7.86    0.80
  -4  -4  -5   26.52    1.41
   4   4   5   19.20    1.15
   4   4   5   13.18    1.02
  -4  -4  -6    0.41    0.56
   4   4   6    0.42    0.40
   4   4   6   -0.08    0.32
  -4  -4  -7    1.58    0.71
   4   4   7    1.16    0.53
   4   4   7    1.27    0.50
  -4  -4  -8    1.44    0.72
   4   4   8    1.44    0.55
   4   4   8    0.49    0.47
  -4  -4  -9    2.27    0.80
   4   4   9    0.95    0.53
   4   4   9    1.09    0.52
  -4  -4 -10    3.59    0.84
   4   4  10    2.20    0.66
   4   4  10    1.86    0.60
   4   4  10    2.00    0.62
  -4  -5  15    5.90    1.00
  -4  -5  15   11.24    1.33
  -4  -5  14    0.89    0.61
  -4  -5  14    0.17    0.58
  -4  -5  13    1.14    0.63
  -4  -5  13    1.25    0.65
  -4  -5  12    0.10    0.47
  -4  -5  12   -0.28    0.47
  -4  -5  11    0.85    0.49
  -4  -5  11    0.55    0.51
  -4  -5  10    4.17    0.73
  -4  -5  10    9.49    0.99
  -4  -5   9    2.58    0.62
  -4  -5   9    5.08    0.76
  -4  -5   8    0.56    0.44
  -4  -5   8    1.36    0.53
  -4  -5   7    1.33    0.50
  -4  -5   7    3.50    0.65
  -4  -5   6    3.11    0.61
  -4  -5   6    7.34    0.83
   4   5  -6    3.17    0.62
  -4  -5   5    5.84    0.73
  -4  -5   5   10.95    0.91
   4   5  -5    5.57    0.73
  -4  -5   4    1.99    0.52
  -4  -5   4    3.09    0.58
   4   5  -4    1.34    0.48
  -4  -5   3   18.11    1.07
  -4  -5   3   32.67    1.25
  -4  -5   3   16.51    0.99
   4   5  -3   27.96    1.32
   4   5  -3   18.09    1.12
  -4  -5   2    1.67    0.49
  -4  -5   2    2.78    0.52
  -4  -5   2    0.89    0.38
   4   5  -2    2.80    0.56
   4   5  -2    1.18    0.46
  -4  -5   1    6.81    0.81
  -4  -5   1   10.31    0.98
  -4  -5   1    5.70    0.66
   4   5  -1    8.98    0.91
   4   5  -1    5.54    0.75
  -4  -5   0    0.16    0.38
  -4  -5   0   -0.04    0.27
   4   5   0    0.16    0.39
   4   5   0    0.07    0.36
  -4  -5  -1    0.34    0.40
  -4  -5  -1    0.24    0.31
   4   5   1    0.20    0.39
   4   5   1   -0.15    0.32
  -4  -5  -2    0.11    0.40
  -4  -5  -2   -0.11    0.25
   4   5   2   -0.11    0.39
   4   5   2    0.03    0.34
  -4  -5  -3    0.46    0.44
  -4  -5  -3    0.01    0.29
   4   5   3   -0.02    0.42
   4   5   3    0.74    0.40
  -4  -5  -4   12.15    1.15
   4   5   4   10.21    1.04
   4   5   4    6.43    0.84
  -4  -5  -5   -0.24    0.54
   4   5   5    0.85    0.50
   4   5   5    0.51    0.41
  -4  -5  -6    4.42    0.90
   4   5   6    3.45    0.72
   4   5   6    2.14    0.62
  -4  -5  -7    1.41    0.70
   4   5   7    0.76    0.55
   4   5   7    0.40    0.44
  -4  -5  -8    1.39    0.76
   4   5   8    2.24    0.70
   4   5   8    1.50    0.59
  -4  -6  13    1.33    0.66
  -4  -6  13    0.52    0.63
  -4  -6  12   -0.36    0.51
  -4  -6  12   -0.13    0.53
  -4  -6  11    0.62    0.54
  -4  -6  11    0.27    0.56
  -4  -6  10    0.31    0.50
  -4  -6  10    0.39    0.56
  -4  -6   9    0.37    0.50
  -4  -6   9    1.20    0.56
  -4  -6   8   -0.06    0.43
  -4  -6   8   -0.17    0.45
  -4  -6   7    0.89    0.53
  -4  -6   7    2.92    0.70
   4   6  -7    1.81    0.65
  -4  -6   6    1.09    0.55
  -4  -6   6    1.52    0.58
   4   6  -6    1.33    0.59
   4   6  -6    1.15    0.50
  -4  -6   5    0.48    0.49
  -4  -6   5   -0.18    0.45
   4   6  -5    0.08    0.50
   4   6  -5    0.57    0.44
  -4  -6   4    4.47    0.74
  -4  -6   4    6.41    0.82
   4   6  -4    6.14    0.87
   4   6  -4    4.49    0.75
  -4  -6   3   11.67    1.06
  -4  -6   3   18.68    1.39
   4   6  -3   16.44    1.22
   4   6  -3   10.91    1.00
  -4  -6   2    8.94    0.99
   4   6  -2   12.53    1.11
   4   6  -2    8.23    0.92
  -4  -6   1    6.61    0.82
   4   6  -1    8.88    1.01
   4   6  -1    5.97    0.84
  -4  -6   0    2.51    0.60
   4   6   0    2.68    0.67
   4   6   0    1.83    0.56
  -4  -6  -1    0.91    0.51
   4   6   1    0.79    0.52
   4   6   1    0.66    0.47
  -4  -6  -2    0.48    0.51
   4   6   2    0.05    0.51
   4   6   2    0.04    0.38
  -4  -6  -3    1.14    0.56
   4   6   3    0.49    0.52
   4   6   3    0.23    0.44
  -4  -6  -4    0.57    0.60
   4   6   4   -0.28    0.44
   4   6   4   -0.07    0.40
  -4  -6  -5    0.17    0.61
   4   6   5    0.08    0.48
   4   6   5    0.08    0.43
  -4  -6  -6    0.01    0.68
   4   6   6    0.23    0.54
   4   6   6    0.25    0.48
  -4  -7  11    2.12    0.74
  -4  -7  10    0.44    0.60
  -4  -7  10    0.30    0.59
   4   7 -10    0.20    0.57
  -4  -7   9    3.71    0.83
  -4  -7   9    5.42    0.91
   4   7  -9    4.57    0.88
  -4  -7   8    1.05    0.65
  -4  -7   8    3.16    0.80
   4   7  -8    1.81    0.69
  -4  -7   7    8.18    1.06
  -4  -7   7   16.47    1.31
   4   7  -7   13.66    1.31
  -4  -7   6    3.68    0.77
  -4  -7   6    7.36    1.15
   4   7  -6    5.86    0.93
  -4  -7   5    0.29    0.56
   4   7  -5   -0.05    0.50
   4   7  -5    0.42    0.47
  -4  -7   4    2.74    0.73
   4   7  -4    5.31    0.90
   4   7  -4    2.94    0.72
  -4  -7   3    0.05    0.52
   4   7  -3    0.05    0.49
   4   7  -3   -0.23    0.42
  -4  -7   2    1.27    0.64
   4   7  -2    1.29    0.62
   4   7  -2    0.91    0.52
  -4  -7   1    2.01    0.66
   4   7  -1    3.38    0.78
   4   7  -1    1.47    0.59
  -4  -7   0    0.80    0.57
   4   7   0   -0.28    0.46
   4   7   0    0.19    0.47
  -4  -7  -1    0.49    0.59
   4   7   1   -0.09    0.50
   4   7   1    0.23    0.48
  -4  -7  -2   -0.16    0.54
   4   7   2    0.62    0.56
   4   7   2    0.35    0.48
  -4  -7  -3    2.83    0.73
   4   7   3    2.61    0.72
   4   7   3    1.76    0.64
   5  -7  -4    2.91    0.73
   5  -7  -4    2.71    0.67
   5  -7  -4    3.50    0.81
   5  -7  -3    0.56    0.50
   5  -7  -3   -0.01    0.38
   5  -7  -3    0.20    0.46
   5  -7  -2    0.27    0.48
   5  -7  -2    0.47    0.40
   5  -7  -2    0.00    0.38
   5  -7  -1    0.52    0.45
   5  -7  -1    0.82    0.41
   5  -7  -1    1.18    0.53
   5  -7   0    2.31    0.61
   5  -7   1    6.31    0.88
   5  -7   2    0.78    0.42
   5  -7   3    2.49    0.56
   5  -7   4    0.30    0.36
   5  -6  -7    0.01    0.60
   5  -6  -7    0.07    0.51
   5  -6  -7    0.03    0.51
   5  -6  -6    1.96    0.67
   5  -6  -6    0.13    0.48
   5  -6  -6    0.83    0.55
   5  -6  -5    2.22    0.70
   5  -6  -5    2.07    0.60
   5  -6  -5    2.39    0.69
   5  -6  -4   17.93    1.23
   5  -6  -4   12.92    1.04
   5  -6  -4   11.93    1.09
   5  -6  -3    4.80    0.73
   5  -6  -3    4.16    0.69
   5  -6  -3    3.54    0.71
   5  -6  -2    1.55    0.51
   5  -6  -2    1.94    0.52
   5  -6  -2    1.38    0.51
   5  -6  -1    0.22    0.37
   5  -6  -1    0.41    0.38
   5  -6   0    0.83    0.42
   5  -6   1    0.83    0.41
   5  -6   2    9.09    0.82
   5  -6   3    8.52    0.82
   5  -6   3   10.89    0.85
   5  -6   4    0.40    0.32
   5  -6   4    0.46    0.34
   5  -6   5    3.79    0.63
   5  -6   5    4.77    0.65
   5  -5 -10    1.87    0.74
   5  -5  -9   -0.34    0.55
   5  -5  -9    0.15    0.47
   5  -5  -8    1.51    0.64
   5  -5  -8    0.96    0.57
   5  -5  -7    3.96    0.77
   5  -5  -7    4.09    0.79
   5  -5  -7    2.81    0.70
   5  -5  -6   -0.38    0.48
   5  -5  -6   -0.43    0.41
   5  -5  -6   -0.14    0.41
   5  -5  -5    0.73    0.50
   5  -5  -5    0.45    0.42
   5  -5  -5    0.54    0.44
   5  -5  -4    1.63    0.53
   5  -5  -4    0.92    0.46
   5  -5  -4    0.58    0.45
   5  -5  -3    4.44    0.63
   5  -5  -3    3.89    0.59
   5  -5  -3    3.08    0.61
   5  -5  -2    3.60    0.56
   5  -5  -2    3.74    0.68
   5  -5  -1   -0.16    0.27
   5  -5   0    8.30    0.79
   5  -5   1    5.35    0.72
   5  -5   2    3.42    0.56
   5  -5   2    5.31    0.57
   5  -5   3    0.31    0.28
   5  -5   3    0.44    0.33
   5  -5   3    0.52    0.33
   5  -5   4    0.18    0.28
   5  -5   4    0.51    0.31
   5  -5   5    0.73    0.36
   5  -5   5    0.91    0.35
   5  -5   6    1.34    0.38
   5  -4 -11   -0.01    0.60
   5  -4 -11    0.45    0.52
   5  -4 -10   -0.01    0.57
   5  -4 -10   -0.41    0.46
   5  -4  -9    0.78    0.63
   5  -4  -9    1.45    0.62
   5  -4  -8    1.40    0.61
   5  -4  -8    1.93    0.60
   5  -4  -7    7.30    0.88
   5  -4  -7    5.91    0.84
  -5   4   6    0.03    0.22
   5  -4  -6   -0.06    0.38
   5  -4  -6    0.33    0.39
  -5   4   5   -0.16    0.18
   5  -4  -5    0.34    0.44
   5  -4  -5    0.18    0.36
   5  -4  -5    0.43    0.38
  -5   4   4    2.70    0.44
   5  -4  -4    4.40    0.62
   5  -4  -4    3.44    0.56
   5  -4  -4    2.05    0.52
  -5   4   3    1.37    0.34
   5  -4  -3    2.10    0.45
   5  -4  -3    1.51    0.48
   5  -4  -2   50.49    1.68
   5  -4  -1   31.41    1.34
   5  -4   0    4.48    0.65
   5  -4   0    4.41    0.42
   5  -4   1   11.54    0.83
   5  -4   1   10.60    0.62
   5  -4   2    4.40    0.64
   5  -4   2    4.53    0.51
   5  -4   3    3.28    0.55
   5  -4   3    3.67    0.58
   5  -4   3    4.70    0.56
   5  -4   4    0.77    0.35
   5  -4   4    1.28    0.37
   5  -4   4    1.33    0.41
   5  -4   5    6.78    0.72
   5  -4   5    9.59    0.69
   5  -4   5   12.09    0.87
   5  -4   6    3.13    0.48
   5  -4   6    3.73    0.63
   5  -4   7    2.12    0.48
   5  -4   7    2.36    0.57
   5  -4   8    1.10    0.50
   5  -4   9    1.26    0.55
   5  -4  10    1.10    0.58
   5  -4  11    2.51    0.70
  -5   3  13    0.21    0.45
   5  -3 -13    0.54    0.65
   5  -3 -13    0.57    0.59
   5  -3 -12    0.69    0.66
   5  -3 -12    1.02    0.58
   5  -3 -11   -0.73    0.54
   5  -3 -11   -0.08    0.45
   5  -3 -10   11.45    1.16
   5  -3 -10   10.68    1.07
  -5   3   9   33.34    1.22
   5  -3  -9   57.01    1.86
   5  -3  -9   54.21    1.97
  -5   3   8    0.44    0.29
   5  -3  -8    1.37    0.50
   5  -3  -8    1.88    0.59
  -5   3   7    6.80    0.62
   5  -3  -7   12.40    0.94
   5  -3  -7    9.78    0.95
  -5   3   6   17.58    0.89
   5  -3  -6   25.99    1.15
   5  -3  -6   27.93    1.35
  -5   3   5   24.04    1.01
   5  -3  -5   36.09    1.24
   5  -3  -5   39.16    1.54
  -5   3   4   30.03    1.15
  -5   3   4   18.88    0.91
   5  -3  -4   27.93    1.05
   5  -3  -4   31.08    1.36
  -5   3   3   29.47    1.19
  -5   3   3   20.66    0.95
   5  -3  -3   29.58    1.30
  -5   3   2   17.15    0.99
  -5   3   2   11.58    0.75
   5  -3  -2   15.37    0.98
  -5   3   1    3.45    0.63
  -5   3   1    2.53    0.45
   5  -3  -1    3.71    0.61
   5  -3  -1    2.73    0.32
  -5   3   0    1.22    0.48
   5  -3   0    1.46    0.44
   5  -3   0    1.15    0.28
  -5   3  -1   17.84    1.06
   5  -3   1   17.95    0.96
   5  -3   1   16.11    0.72
  -5   3  -2    4.81    0.72
   5  -3   2    5.24    0.60
   5  -3   2    4.73    0.50
  -5   3  -3    1.55    0.53
   5  -3   3    0.64    0.31
   5  -3   3    1.60    0.41
   5  -3   3    1.61    0.37
  -5   3  -4    2.65    0.63
   5  -3   4    1.15    0.38
   5  -3   4    2.54    0.47
   5  -3   4    2.55    0.46
  -5   3  -5    0.49    0.44
   5  -3   5    0.46    0.33
   5  -3   5    0.90    0.34
   5  -3   5    1.14    0.38
  -5   3  -6    1.14    0.53
   5  -3   6    0.80    0.32
   5  -3   6    0.93    0.40
  -5   3  -7    0.11    0.46
   5  -3   7    0.08    0.25
   5  -3   7    0.19    0.34
   5  -3   8    4.08    0.66
   5  -3   9    1.06    0.51
   5  -3  10    0.17    0.46
   5  -3  11   -0.03    0.45
   5  -3  12    9.77    1.15
  -5   2  14    5.81    0.88
   5  -2 -14    8.58    1.15
   5  -2 -14    5.94    1.00
  -5   2  13   11.39    1.04
   5  -2 -13   17.85    1.47
   5  -2 -13   15.65    1.31
  -5   2  12    6.29    0.77
   5  -2 -12    7.76    1.02
   5  -2 -12    7.36    1.04
  -5   2  11    8.57    0.84
   5  -2 -11   14.86    1.23
   5  -2 -11   13.63    1.17
   5  -2 -10    1.19    0.56
   5  -2 -10    1.23    0.55
  -5   2   9   -0.13    0.28
   5  -2  -9    0.11    0.42
   5  -2  -9    0.03    0.44
  -5   2   8    2.75    0.47
   5  -2  -8    2.11    0.55
   5  -2  -8    2.48    0.58
  -5   2   7    8.17    0.66
  -5   2   7    4.19    0.57
   5  -2  -7    6.19    0.72
   5  -2  -7    6.53    0.78
  -5   2   6   10.74    0.73
  -5   2   6    5.56    0.58
   5  -2  -6    9.95    0.79
   5  -2  -6    9.99    0.88
  -5   2   5    6.58    0.65
  -5   2   5    3.93    0.53
   5  -2  -5    6.08    0.64
   5  -2  -5    6.19    0.73
  -5   2   4    2.31    0.48
  -5   2   4    0.75    0.30
   5  -2  -4    1.89    0.52
  -5   2   3   68.89    1.72
  -5   2   3   41.01    1.33
   5  -2  -3   66.28    1.84
  -5   2   2    1.62    0.48
  -5   2   2    0.54    0.28
   5  -2  -2    1.62    0.47
   5  -2  -2    0.82    0.22
  -5   2   1   47.27    1.50
  -5   2   1   29.77    1.17
   5  -2  -1   50.18    1.56
   5  -2  -1   29.72    0.84
  -5   2   0    2.93    0.54
  -5   2   0    1.50    0.40
   5  -2   0    2.55    0.50
   5  -2   0    1.92    0.34
  -5   2  -1    1.48    0.45
  -5   2  -1    0.17    0.24
   5  -2   1    1.51    0.40
   5  -2   1    0.99    0.26
  -5   2  -2    2.77    0.58
   5  -2   2    2.19    0.47
   5  -2   2    1.41    0.34
  -5   2  -3    6.04    0.81
   5  -2   3    2.63    0.49
   5  -2   3    4.45    0.56
  -5   2  -4    0.99    0.45
   5  -2   4    0.61    0.32
   5  -2   4    0.77    0.33
  -5   2  -5    8.61    0.88
   5  -2   5    5.46    0.68
   5  -2   5    8.31    0.74
  -5   2  -6   28.01    1.40
   5  -2   6   23.37    1.14
  -5   2  -7    0.32    0.44
   5  -2   7    0.05    0.33
  -5   2  -8    0.42    0.51
   5  -2   8    0.10    0.33
  -5   2  -9    2.29    0.73
   5  -2   9    1.50    0.52
  -5   2 -10    0.47    0.61
   5  -2  10    1.06    0.51
  -5   2 -11   13.90    1.31
   5  -2  11   13.17    1.15
   5  -2  12    1.87    0.65
  -5   1  14   -0.01    0.46
   5  -1 -14    0.16    0.64
   5  -1 -14    0.48    0.55
  -5   1  13    0.27    0.44
   5  -1 -13    0.57    0.66
   5  -1 -13    0.38    0.55
  -5   1  12    4.41    0.71
   5  -1 -12    6.09    0.92
   5  -1 -12    5.97    0.90
  -5   1  11    5.59    0.70
   5  -1 -11    9.16    1.06
   5  -1 -11    8.36    0.98
  -5   1  10   18.70    0.97
  -5   1  10   28.54    1.20
   5  -1 -10   30.55    1.43
   5  -1 -10   30.48    1.49
  -5   1   9   12.82    0.74
   5  -1  -9   11.74    0.97
   5  -1  -9   12.07    1.01
  -5   1   8    4.50    0.56
   5  -1  -8    3.77    0.63
   5  -1  -8    4.05    0.68
  -5   1   7    0.07    0.30
   5  -1  -7    0.37    0.35
   5  -1  -7   -0.12    0.34
  -5   1   6    5.30    0.61
  -5   1   6    2.91    0.52
   5  -1  -6    4.17    0.67
  -5   1   5   14.64    0.85
  -5   1   5    6.93    0.65
   5  -1  -5   13.64    0.95
  -5   1   4   34.51    1.24
  -5   1   4   17.31    0.93
   5  -1  -4   30.41    1.29
   5  -1  -4   17.38    0.59
  -5   1   3   67.52    1.71
  -5   1   3   35.19    1.26
   5  -1  -3   33.19    0.85
  -5   1   2   57.11    1.61
  -5   1   2   30.08    1.19
   5  -1  -2   28.97    0.85
  -5   1   1    1.71    0.46
  -5   1   1    0.34    0.27
   5  -1  -1    0.51    0.24
  -5   1   0   21.69    1.09
  -5   1   0   11.51    0.80
   5  -1   0   12.45    0.67
  -5   1  -1    3.16    0.55
  -5   1  -1    1.06    0.35
   5  -1   1    1.15    0.31
  -5   1  -2    0.62    0.37
  -5   1  -2    0.22    0.27
   5  -1   2    0.27    0.25
  -5   1  -3    0.03    0.35
   5  -1   3   -0.26    0.23
   5  -1   3    0.34    0.27
  -5   1  -4    0.97    0.45
   5  -1   4    0.27    0.31
   5  -1   4    0.70    0.32
  -5   1  -5    3.39    0.71
   5  -1   5    1.78    0.47
   5  -1   5    2.44    0.50
  -5   1  -6    8.13    0.92
   5  -1   6    6.76    0.74
  -5   1  -7   11.87    1.05
   5  -1   7   10.19    0.88
  -5   1  -8    6.19    0.90
   5  -1   8    4.45    0.73
  -5   1  -9    3.53    0.78
   5  -1   9    2.69    0.63
  -5   1 -10    0.49    0.58
   5  -1  10    0.37    0.46
  -5   1 -11    1.84    0.72
   5  -1  11    1.85    0.61
  -5   1 -12    0.07    0.59
   5  -1  12    0.07    0.49
  -5   0  15    0.11    0.55
   5   0 -15   -0.07    0.68
   5   0 -15   -0.60    0.51
  -5   0  14    1.11    0.56
   5   0 -14    1.93    0.79
   5   0 -14    2.69    0.72
  -5   0  13    2.98    0.66
   5   0 -13    3.75    0.81
   5   0 -13    3.54    0.79
  -5   0  12    0.23    0.39
   5   0 -12   -0.25    0.52
   5   0 -12    0.60    0.50
  -5   0  11   17.43    1.04
   5   0 -11   27.25    1.41
   5   0 -11   26.82    1.44
  -5   0  10    3.86    0.59
  -5   0  10    5.48    0.61
   5   0 -10    3.56    0.69
   5   0 -10    4.82    0.87
  -5   0   9    0.98    0.37
  -5   0   9    1.33    0.39
   5   0  -9    0.30    0.43
   5   0  -9    0.75    0.49
  -5   0   8    4.06    0.57
   5   0  -8    2.30    0.58
  -5   0   7    3.75    0.57
  -5   0   6    0.72    0.38
  -5   0   6    0.51    0.19
  -5   0   5    4.09    0.62
  -5   0   5    1.61    0.43
  -5   0   5    2.71    0.34
   5   0  -5    1.68    0.30
  -5   0   4    3.07    0.58
  -5   0   4    1.26    0.37
  -5   0   4    1.80    0.31
   5   0  -4    1.16    0.27
  -5   0   3   18.52    1.02
  -5   0   3    9.04    0.73
  -5   0   3   15.47    0.69
   5   0  -3    8.52    0.55
  -5   0   2   17.79    1.02
  -5   0   2    8.17    0.70
  -5   0   2   15.52    0.77
   5   0  -2    8.15    0.56
  -5   0   1   12.22    0.90
  -5   0   1    6.15    0.65
   5   0  -1    5.72    0.53
  -5   0   0   38.31    1.42
  -5   0   0   17.91    0.98
   5   0   0   18.31    0.85
  -5   0  -1   18.58    1.08
  -5   0  -1    9.79    0.78
   5   0   1    9.80    0.68
  -5   0  -2    1.42    0.49
  -5   0  -2    0.52    0.32
   5   0   2    0.69    0.31
  -5   0  -3    5.27    0.79
  -5   0  -3    2.24    0.55
   5   0   3    2.63    0.50
  -5   0  -4    0.88    0.48
   5   0   4    0.03    0.29
   5   0   4    0.47    0.33
  -5   0  -5    8.13    0.92
   5   0   5    3.79    0.73
   5   0   5    4.71    0.65
  -5   0  -6   29.57    1.46
   5   0   6   19.22    1.11
  -5   0  -7   12.30    1.12
   5   0   7    8.43    0.84
  -5   0  -8    8.89    1.07
   5   0   8    5.65    0.79
  -5   0  -9    2.89    0.76
   5   0   9    1.68    0.57
  -5   0 -10    7.53    1.04
   5   0  10    6.36    0.95
  -5   0 -11    1.92    0.75
   5   0  11    0.89    0.54
  -5   0 -12   -0.06    0.60
   5   0  12   -0.22    0.46
  -5  -1  15   -0.65    0.48
   5   1 -15   -0.14    0.67
   5   1 -15   -0.54    0.50
  -5  -1  14    0.80    0.59
   5   1 -14    1.04    0.69
   5   1 -14    0.52    0.55
  -5  -1  13    1.78    0.59
   5   1 -13    2.18    0.70
   5   1 -13    1.57    0.63
  -5  -1  12    1.65    0.55
   5   1 -12    2.35    0.68
   5   1 -12    2.52    0.72
  -5  -1  11    1.36    0.49
  -5  -1  11    2.31    0.48
   5   1 -11    1.55    0.61
   5   1 -11    1.61    0.64
  -5  -1  10    3.04    0.57
  -5  -1  10    5.31    0.66
   5   1 -10    2.43    0.68
  -5  -1   9    0.28    0.34
  -5  -1   8    5.69    0.64
  -5  -1   8   12.17    0.83
  -5  -1   7    8.99    0.76
  -5  -1   7    4.92    0.49
  -5  -1   6    0.44    0.38
   5   1  -6    0.36    0.26
  -5  -1   5    0.23    0.38
  -5  -1   5    0.08    0.26
   5   1  -5    0.10    0.23
  -5  -1   4    8.96    0.83
  -5  -1   4    4.00    0.60
   5   1  -4    4.49    0.48
  -5  -1   3   12.57    0.95
  -5  -1   3    5.33    0.64
   5   1  -3    5.10    0.53
  -5  -1   2   55.12    1.68
  -5  -1   2   26.55    1.18
   5   1  -2   25.40    0.99
  -5  -1   1    7.33    0.82
  -5  -1   1    2.44    0.48
   5   1  -1    2.76    0.45
  -5  -1   0   10.72    0.93
  -5  -1   0    4.47    0.61
   5   1   0    4.23    0.55
  -5  -1  -1    9.28    0.91
  -5  -1  -1    4.17    0.59
   5   1   1    4.30    0.58
  -5  -1  -2    3.29    0.68
  -5  -1  -2    1.52    0.52
   5   1   2    0.65    0.34
  -5  -1  -3   16.98    1.14
   5   1   3    8.34    0.74
  -5  -1  -4   11.67    1.05
   5   1   4    5.64    0.68
  -5  -1  -5    1.27    0.58
   5   1   5    0.89    0.39
  -5  -1  -6    3.32    0.76
   5   1   6    1.78    0.50
  -5  -1  -7   18.70    1.31
   5   1   7   10.11    0.94
  -5  -1  -8    2.06    0.72
   5   1   8    1.16    0.43
   5   1   8    1.25    0.53
  -5  -1  -9    7.42    1.07
   5   1   9    4.43    0.79
  -5  -1 -10    0.55    0.65
   5   1  10    0.28    0.44
  -5  -1 -11   -0.32    0.58
   5   1  11    0.24    0.38
   5   1  11    0.28    0.47
  -5  -2  15    2.08    0.71
   5   2 -15    1.99    0.82
   5   2 -15    2.32    0.72
  -5  -2  14    2.94    0.75
   5   2 -14    4.89    0.94
   5   2 -14    3.96    0.84
  -5  -2  13    0.18    0.50
   5   2 -13    0.04    0.57
   5   2 -13    1.09    0.62
  -5  -2  12    0.96    0.48
  -5  -2  12    2.22    0.50
   5   2 -12    1.47    0.62
  -5  -2  11    0.83    0.48
  -5  -2  11    2.00    0.48
  -5  -2  10    0.50    0.40
  -5  -2  10    0.90    0.40
  -5  -2   9    0.18    0.35
  -5  -2   9    0.64    0.38
  -5  -2   8    7.45    0.75
  -5  -2   8   13.01    0.90
  -5  -2   7    0.83    0.37
  -5  -2   7    1.54    0.47
  -5  -2   6    6.73    0.67
  -5  -2   6   15.21    0.97
   5   2  -6    6.55    0.62
  -5  -2   5   17.97    1.04
   5   2  -5    9.72    0.71
  -5  -2   4    2.84    0.56
  -5  -2   4    0.18    0.34
   5   2  -4    0.44    0.30
  -5  -2   3   -0.13    0.36
  -5  -2   3   -0.03    0.25
   5   2  -3    0.01    0.26
  -5  -2   2    0.31    0.41
  -5  -2   2    0.03    0.26
   5   2  -2    0.48    0.31
  -5  -2   1   93.06    2.24
  -5  -2   1   48.60    1.75
   5   2  -1   44.56    1.42
  -5  -2   0    2.35    0.61
  -5  -2   0    0.74    0.54
   5   2   0    0.24    0.31
  -5  -2  -1   44.33    1.66
   5   2   1   20.46    1.06
  -5  -2  -2    8.40    0.95
   5   2   2    4.00    0.62
  -5  -2  -3    2.27    0.62
   5   2   3    0.64    0.37
  -5  -2  -4   -0.09    0.47
   5   2   4   -0.53    0.29
   5   2   4    0.12    0.30
  -5  -2  -5   11.89    1.14
   5   2   5    7.44    0.83
   5   2   5    5.88    0.80
  -5  -2  -6   47.80    1.91
   5   2   6   35.47    1.34
   5   2   6   25.55    1.35
  -5  -2  -7   25.10    1.53
   5   2   7   17.27    1.06
   5   2   7   13.37    1.08
  -5  -2  -8   25.76    1.58
   5   2   8   18.35    1.10
   5   2   8   12.72    0.93
   5   2   8   11.70    1.06
  -5  -2  -9    2.29    0.81
   5   2   9    1.25    0.50
   5   2   9    1.00    0.45
   5   2   9    0.75    0.51
  -5  -2 -10   10.01    1.26
   5   2  10    8.97    0.96
   5   2  10    5.31    0.77
   5   2  10    6.28    0.97
  -5  -3  14   -0.03    0.54
   5   3 -14    0.64    0.64
   5   3 -14    0.52    0.64
  -5  -3  13    8.08    1.02
   5   3 -13   13.13    1.28
  -5  -3  12    0.15    0.50
  -5  -3  11    6.13    0.83
  -5  -3  10    0.33    0.40
  -5  -3   9    0.63    0.42
  -5  -3   8    0.36    0.38
  -5  -3   7    7.87    0.79
  -5  -3   6    1.57    0.45
   5   3  -6    1.38    0.41
  -5  -3   5    5.37    0.63
   5   3  -5    3.59    0.57
  -5  -3   4    2.45    0.56
   5   3  -4    1.02    0.38
  -5  -3   3    2.70    0.65
   5   3  -3    0.97    0.39
  -5  -3   2   66.15    1.99
   5   3  -2   35.21    1.37
  -5  -3   1   55.96    1.87
   5   3  -1   28.21    1.27
  -5  -3   0    2.05    0.62
   5   3   0    0.96    0.42
  -5  -3  -1    1.34    0.55
   5   3   1    0.24    0.34
  -5  -3  -2   15.11    1.17
   5   3   2   11.16    0.91
   5   3   2    7.27    0.79
  -5  -3  -3    7.05    0.98
   5   3   3    4.44    0.65
   5   3   3    3.35    0.63
  -5  -3  -4   -0.21    0.53
   5   3   4   -0.62    0.34
   5   3   4    0.12    0.37
  -5  -3  -5    7.67    1.09
   5   3   5    4.28    0.70
   5   3   5    4.03    0.70
  -5  -3  -6    8.24    1.14
   5   3   6    5.11    0.78
   5   3   6    4.53    0.75
  -5  -3  -7   18.03    1.45
   5   3   7   13.62    1.13
   5   3   7    8.96    1.01
  -5  -3  -8    7.81    1.16
   5   3   8    5.77    0.80
   5   3   8    3.44    0.73
  -5  -3  -9    0.46    0.72
   5   3   9    0.64    0.49
   5   3   9    0.35    0.50
  -5  -4  13    0.16    0.57
  -5  -4  12    0.65    0.56
  -5  -4  11    0.21    0.48
  -5  -4  10   -0.02    0.47
  -5  -4   9    2.89    0.65
  -5  -4   8    0.28    0.43
  -5  -4   7    7.82    0.85
   5   4  -7    5.93    0.77
  -5  -4   6    1.01    0.44
   5   4  -6    1.15    0.44
  -5  -4   5    1.20    0.47
   5   4  -5    1.42    0.48
  -5  -4   4    0.06    0.38
   5   4  -4    0.32    0.35
   5   4  -3   -0.11    0.32
   5   4  -2   11.97    0.93
  -5  -4   1    9.06    1.03
   5   4  -1    5.59    0.76
  -5  -4   0   31.89    1.55
   5   4   0   25.69    1.31
   5   4   0   16.69    1.12
  -5  -4  -1    3.44    0.79
   5   4   1    2.33    0.57
   5   4   1    1.55    0.50
  -5  -4  -2   -0.32    0.46
   5   4   2   -0.64    0.38
   5   4   2    0.03    0.34
  -5  -4  -3   -0.22    0.50
   5   4   3   -0.09    0.41
   5   4   3    0.02    0.36
  -5  -4  -4    1.27    0.67
   5   4   4    1.59    0.58
   5   4   4    1.15    0.48
  -5  -4  -5    6.40    1.11
   5   4   5    4.52    0.80
   5   4   5    2.69    0.66
  -5  -4  -6    0.65    0.74
   5   4   6   -0.52    0.46
   5   4   6   -0.32    0.39
  -5  -4  -7    0.46    0.72
   5   4   7    0.07    0.50
   5   4   7    0.07    0.42
  -5  -5  12    1.74    0.69
  -5  -5  11    0.71    0.55
  -5  -5  10    0.99    0.57
  -5  -5   9    0.78    0.56
  -5  -5   8   -0.32    0.42
  -5  -5   7    0.44    0.50
  -5  -5   6    1.69    0.57
   5   5  -6    1.38    0.52
  -5  -5   5    0.22    0.45
   5   5  -5   -0.25    0.37
  -5  -5   4    0.99    0.50
   5   5  -4    0.85    0.46
  -5  -5   3    3.34    0.62
   5   5  -3    3.27    0.70
   5   5  -3    1.81    0.55
  -5  -5   2    0.59    0.45
   5   5  -2    0.25    0.45
   5   5  -2    0.29    0.40
   5   5  -1    0.54    0.46
   5   5  -1    0.49    0.43
   5   5   0    1.12    0.54
   5   5   0    0.82    0.46
  -5  -5  -1    2.05    0.69
   5   5   1    1.38    0.58
   5   5   1    0.55    0.45
  -5  -5  -2    2.33    0.75
   5   5   2    1.66    0.63
   5   5   2    1.26    0.52
  -5  -5  -3    1.02    0.70
   5   5   3    0.70    0.56
   5   5   3    0.54    0.46
  -5  -5  -4    1.34    0.72
   5   5   4    2.30    0.69
   5   5   4    1.02    0.52
  -5  -5  -5    0.09    0.65
   5   5   5   -0.12    0.52
   5   5   5    0.37    0.46
  -5  -6  10    0.69    0.67
  -5  -6   9    0.05    0.56
  -5  -6   8   -0.16    0.55
  -5  -6   7    0.75    0.58
  -5  -6   6    0.36    0.54
   5   6  -6    0.39    0.55
   5   6  -6    0.36    0.50
  -5  -6   5    0.07    0.51
   5   6  -5    0.39    0.56
   5   6  -5    0.24    0.47
  -5  -6   4    0.43    0.55
   5   6  -4    0.57    0.57
   5   6  -4    0.40    0.45
  -5  -6   3   -0.20    0.50
   5   6  -3    0.20    0.49
   5   6  -3   -0.18    0.41
  -5  -6   2    0.67    0.53
   5   6  -2    0.48    0.55
   5   6  -2    0.28    0.44
  -5  -6   1    0.77    0.52
   5   6  -1    0.04    0.50
   5   6  -1    0.03    0.45
   5   6   0    0.29    0.56
   5   6   0    0.18    0.45
   5   6   1    1.60    0.66
   5   6   1    0.78    0.56
  -5  -6  -2    3.31    0.88
   5   6   2    2.28    0.74
   5   6   2    1.41    0.60
   6  -6  -2    0.06    0.44
   6  -6  -2   -0.03    0.39
   6  -6  -1    0.48    0.44
   6  -6   0    2.07    0.60
   6  -6   1   -0.15    0.34
   6  -6   2    4.88    0.78
   6  -5  -6    1.46    0.63
   6  -5  -6    1.47    0.62
   6  -5  -5    1.09    0.56
   6  -5  -5    0.77    0.51
   6  -5  -4    2.41    0.61
   6  -5  -4    3.22    0.68
   6  -5  -4    2.40    0.69
   6  -5  -3    0.33    0.46
   6  -5  -3    0.35    0.43
   6  -5  -2    0.34    0.41
   6  -5  -1    0.45    0.38
   6  -5   0   -0.05    0.33
   6  -5   1    0.49    0.38
   6  -5   2    3.68    0.67
   6  -5   3    0.93    0.42
   6  -5   4    3.38    0.60
   6  -4  -8    8.94    1.10
   6  -4  -8    6.63    1.01
   6  -4  -7    0.85    0.54
   6  -4  -7    0.68    0.55
   6  -4  -6    0.32    0.49
   6  -4  -6    0.38    0.48
   6  -4  -5    4.12    0.71
   6  -4  -5    3.00    0.70
  -6   4   4    0.81    0.48
   6  -4  -4    1.17    0.47
   6  -4  -4    1.61    0.55
  -6   4   3   -0.08    0.42
   6  -4  -3   -0.34    0.31
   6  -4  -2    0.89    0.46
   6  -4  -1    3.05    0.65
   6  -4   0    1.11    0.46
   6  -4   1    0.51    0.39
   6  -4   2    0.60    0.37
   6  -4   3    0.01    0.31
   6  -4   4    0.51    0.34
   6  -4   4    0.22    0.35
   6  -4   5    2.14    0.50
   6  -4   5    2.65    0.58
   6  -4   6    6.67    0.83
   6  -4   7    1.63    0.55
   6  -3 -10    0.47    0.62
   6  -3 -10    1.41    0.70
   6  -3  -9    5.73    0.92
   6  -3  -9    4.68    0.89
   6  -3  -8   -0.05    0.49
   6  -3  -8    0.46    0.50
   6  -3  -7   -0.24    0.41
   6  -3  -7    0.10    0.43
   6  -3  -6    2.00    0.57
   6  -3  -6    2.00    0.63
  -6   3   5    2.06    0.53
   6  -3  -5    1.80    0.54
   6  -3  -5    1.41    0.55
  -6   3   4    6.41    0.78
   6  -3  -4    7.84    0.79
   6  -3  -4    5.37    0.79
  -6   3   3    1.39    0.52
   6  -3  -3    1.43    0.56
  -6   3   2    7.69    0.96
   6  -3  -2    6.76    0.81
  -6   3   1    0.91    0.52
   6  -3  -1    1.28    0.49
  -6   3   0    6.36    0.93
   6  -3   0    6.13    0.84
  -6   3  -1   -0.48    0.39
   6  -3   1    0.29    0.36
   6  -3   1   -0.16    0.28
  -6   3  -2    0.50    0.52
   6  -3   2    0.84    0.38
   6  -3   2    0.61    0.31
  -6   3  -3    0.18    0.47
   6  -3   3    0.26    0.31
   6  -3   3    0.37    0.32
  -6   3  -4    0.53    0.54
   6  -3   4    1.00    0.41
   6  -3   4    0.50    0.34
  -6   3  -5   10.05    1.13
   6  -3   5    9.71    0.81
   6  -3   5    8.02    0.80
  -6   3  -6   -0.16    0.51
   6  -3   6   -0.03    0.31
   6  -3   6   -0.24    0.34
  -6   3  -7    1.01    0.62
   6  -3   7    0.46    0.42
   6  -3   8   -0.14    0.42
   6  -2 -11    6.39    1.00
   6  -2 -11    5.12    0.94
   6  -2 -10    7.25    0.98
   6  -2 -10    5.27    0.94
   6  -2  -9    3.97    0.78
   6  -2  -9    3.56    0.77
  -6   2   8    7.82    0.77
   6  -2  -8    7.30    0.91
   6  -2  -8    7.75    0.97
  -6   2   7    6.65    0.74
   6  -2  -7    5.53    0.75
   6  -2  -7    5.86    0.91
  -6   2   6    6.96    0.75
   6  -2  -6    7.51    0.84
   6  -2  -6    6.37    0.90
  -6   2   5   14.54    0.97
   6  -2  -5   14.82    1.11
  -6   2   4   18.21    1.08
   6  -2  -4   18.56    1.19
  -6   2   3   13.84    1.01
   6  -2  -3   13.81    1.05
  -6   2   2    0.54    0.42
   6  -2  -2    0.40    0.42
  -6   2   1    7.83    0.87
   6  -2  -1    7.17    0.81
   6  -2  -1    4.90    0.56
  -6   2   0    0.92    0.50
   6  -2   0    0.75    0.42
   6  -2   0    0.37    0.27
  -6   2  -1    1.75    0.58
   6  -2   1    1.51    0.49
   6  -2   1    0.64    0.30
  -6   2  -2    6.30    0.92
   6  -2   2    5.91    0.71
   6  -2   2    4.37    0.58
  -6   2  -3    3.10    0.74
   6  -2   3    3.70    0.65
   6  -2   3    1.88    0.46
  -6   2  -4   -0.09    0.44
   6  -2   4    0.36    0.34
   6  -2   4    0.68    0.39
  -6   2  -5    0.63    0.55
   6  -2   5    0.07    0.34
  -6   2  -6    0.01    0.48
   6  -2   6    0.01    0.34
  -6   2  -7    1.90    0.72
   6  -2   7    0.96    0.47
  -6   2  -8    2.13    0.77
   6  -2   8    1.30    0.52
  -6   2  -9    0.89    0.71
   6  -2   9   -0.15    0.41
   6  -1 -12   12.45    1.36
   6  -1 -12   10.27    1.21
   6  -1 -11    5.83    0.94
   6  -1 -11    4.97    0.89
   6  -1 -10    0.04    0.52
   6  -1 -10    0.14    0.52
  -6   1   9    0.45    0.43
   6  -1  -9    0.18    0.49
   6  -1  -9    0.87    0.56
  -6   1   8    5.52    0.72
   6  -1  -8    4.41    0.77
   6  -1  -8    3.98    0.79
  -6   1   7    5.95    0.77
   6  -1  -7    5.68    0.87
  -6   1   6   13.18    0.94
   6  -1  -6   13.40    1.09
  -6   1   5    3.02    0.63
   6  -1  -5    2.01    0.61
  -6   1   4   15.41    1.04
   6  -1  -4   13.05    1.04
  -6   1   3   22.29    1.21
   6  -1  -3   13.06    0.74
  -6   1   2    6.00    0.87
   6  -1  -2    2.94    0.43
  -6   1   1    3.39    0.68
   6  -1  -1    2.03    0.40
  -6   1   0   11.51    1.01
   6  -1   0    5.83    0.59
  -6   1  -1    9.48    0.96
   6  -1   1    4.87    0.59
  -6   1  -2    0.31    0.44
   6  -1   2   -0.05    0.28
  -6   1  -3    2.21    0.63
   6  -1   3    1.15    0.41
  -6   1  -4    2.04    0.64
   6  -1   4    0.94    0.40
  -6   1  -5    2.15    0.70
   6  -1   5    1.96    0.53
  -6   1  -6   -0.15    0.50
   6  -1   6    0.19    0.38
  -6   1  -7   -0.07    0.52
   6  -1   7    0.30    0.40
  -6   1  -8    9.72    1.19
   6  -1   8    5.92    0.87
  -6   1  -9    4.12    0.98
   6  -1   9    2.32    0.65
   6   0 -12    0.08    0.66
   6   0 -12    0.07    0.54
   6   0 -11    6.38    0.97
   6   0 -11    7.83    1.11
   6   0 -10    3.37    0.80
   6   0 -10    2.96    0.77
  -6   0   9    0.11    0.37
   6   0  -9    0.38    0.48
  -6   0   8    1.57    0.49
   6   0  -8    1.11    0.56
  -6   0   7    7.82    0.81
  -6   0   6    3.13    0.63
  -6   0   5    0.50    0.45
   6   0  -5    0.48    0.31
  -6   0   4    7.15    0.91
   6   0  -4    2.91    0.45
  -6   0   3    6.39    0.86
   6   0  -3    3.26    0.48
  -6   0   2   16.80    1.16
   6   0  -2    6.83    0.62
  -6   0   1   13.64    1.09
   6   0  -1    5.81    0.63
  -6   0   0    6.51    0.91
   6   0   0    2.69    0.50
  -6   0  -1    9.58    1.02
   6   0   1    5.05    0.65
  -6   0  -2    6.38    0.92
   6   0   2    3.39    0.59
  -6   0  -3    6.27    0.98
   6   0   3    2.52    0.54
  -6   0  -4   15.12    1.26
   6   0   4    7.63    0.82
  -6   0  -5    7.62    1.05
   6   0   5    4.69    0.74
  -6   0  -6    0.01    0.53
   6   0   6    0.10    0.39
  -6   0  -7    7.90    1.12
   6   0   7    4.54    0.77
  -6   0  -8    0.81    0.68
   6   0   8   -0.02    0.40
   6   1 -12   -0.20    0.63
   6   1 -12    0.48    0.60
   6   1 -11    0.10    0.58
   6   1 -11   -0.19    0.51
  -6  -1  10    9.65    0.88
   6   1 -10    9.30    1.12
  -6  -1   9    0.56    0.41
  -6  -1   8    2.20    0.58
  -6  -1   7    0.67    0.45
  -6  -1   6   19.98    1.19
   6   1  -6    9.42    0.69
  -6  -1   5   18.00    1.17
   6   1  -5    8.69    0.70
  -6  -1   4   22.17    1.29
   6   1  -4    9.89    0.74
  -6  -1   3   18.95    1.23
   6   1  -3    8.27    0.72
  -6  -1   2    2.52    0.65
   6   1  -2    1.20    0.39
  -6  -1   1   22.87    1.37
   6   1  -1   10.36    0.80
  -6  -1   0   34.29    1.63
   6   1   0   16.91    1.00
  -6  -1  -1    5.53    0.93
   6   1   1    1.98    0.49
  -6  -1  -2    9.74    1.11
   6   1   2    4.92    0.70
  -6  -1  -3    6.95    1.03
   6   1   3    3.43    0.64
  -6  -1  -4    5.61    0.96
   6   1   4    3.19    0.63
  -6  -1  -5   11.23    1.25
   6   1   5    6.94    0.90
  -6  -1  -6    1.77    0.76
   6   1   6    0.84    0.50
  -6  -1  -7    2.44    0.84
   6   1   7    1.94    0.62
  -6  -1  -8    0.48    0.69
   6   1   8    0.28    0.48
  -6  -2  12    1.69    0.63
   6   2 -12    2.20    0.76
   6   2 -12    2.44    0.79
  -6  -2  11    0.17    0.46
  -6  -2  11    0.55    0.47
  -6  -2  10    0.26    0.40
  -6  -2  10    0.10    0.41
  -6  -2   9    0.48    0.46
  -6  -2   8    5.80    0.85
  -6  -2   7    0.37    0.45
  -6  -2   6    2.56    0.69
   6   2  -6    1.00    0.40
  -6  -2   5    2.10    0.66
   6   2  -5    0.80    0.38
  -6  -2   4    1.64    0.64
   6   2  -4    0.77    0.37
  -6  -2   3    1.31    0.61
   6   2  -3    0.44    0.34
  -6  -2   2   21.74    1.40
   6   2  -2   10.19    0.86
  -6  -2   1   10.89    1.15
   6   2  -1    4.76    0.69
  -6  -2   0    0.75    0.58
   6   2   0   -0.24    0.32
  -6  -2  -1    7.33    1.07
   6   2   1    3.17    0.62
  -6  -2  -2    0.16    0.57
   6   2   2    0.29    0.36
  -6  -2  -3    1.43    0.71
   6   2   3    0.71    0.43
  -6  -2  -4    1.89    0.76
   6   2   4    0.94    0.50
   6   2   4    1.59    0.55
  -6  -2  -5   11.77    1.34
   6   2   5    7.76    0.96
   6   2   5    5.91    0.88
  -6  -2  -6   28.50    1.75
   6   2   6   21.46    1.23
   6   2   6   14.15    1.19
  -6  -2  -7    5.17    1.06
   6   2   7    2.82    0.74
  -6  -3  11    0.39    0.50
  -6  -3  11    0.40    0.50
  -6  -3  10    2.19    0.61
  -6  -3  10    2.20    0.62
  -6  -3   9    0.98    0.49
  -6  -3   9    1.82    0.59
  -6  -3   8    1.76    0.61
  -6  -3   7    0.52    0.50
   6   3  -7   -0.11    0.37
  -6  -3   6    0.15    0.47
   6   3  -6   -0.03    0.35
  -6  -3   5    1.09    0.60
   6   3  -5    0.38    0.40
  -6  -3   4    3.09    0.76
   6   3  -4    1.00    0.45
  -6  -3   3    2.91    0.80
   6   3  -3    1.33    0.47
  -6  -3   2   12.19    1.21
   6   3  -2    5.93    0.79
  -6  -3   1   10.94    1.19
   6   3  -1    5.13    0.76
  -6  -3   0    1.52    0.68
   6   3   0    1.34    0.51
  -6  -3  -1    1.28    0.68
   6   3   1    0.79    0.45
  -6  -3  -2    0.48    0.59
   6   3   2    0.15    0.45
   6   3   2    0.11    0.38
  -6  -3  -3    3.17    0.88
   6   3   3    1.16    0.54
   6   3   3    1.47    0.55
  -6  -3  -4   -0.06    0.64
   6   3   4   -0.58    0.46
   6   3   4    0.17    0.41
  -6  -3  -5    1.63    0.86
   6   3   5    1.44    0.59
   6   3   5    0.75    0.51
  -6  -4  10    0.24    0.51
  -6  -4  10    0.66    0.54
  -6  -4   9   -0.04    0.48
  -6  -4   9    0.03    0.47
  -6  -4   8   -0.26    0.45
  -6  -4   8   -0.18    0.49
  -6  -4   7    1.84    0.69
   6   4  -7    0.71    0.48
  -6  -4   6    1.80    0.67
   6   4  -6    1.45    0.53
  -6  -4   5    1.93    0.70
   6   4  -5    1.20    0.52
  -6  -4   4    2.06    0.72
   6   4  -4    0.38    0.45
  -6  -4   3   -0.20    0.50
   6   4  -3    0.43    0.42
  -6  -4   2    0.89    0.66
   6   4  -2    0.22    0.39
  -6  -4   1    1.29    0.68
   6   4  -1    0.33    0.42
  -6  -4   0    1.42    0.68
   6   4   0    1.08    0.56
   6   4   0    0.73    0.47
  -6  -4  -1    0.44    0.65
   6   4   1   -0.52    0.42
   6   4   1    0.18    0.43
  -6  -4  -2    0.16    0.64
   6   4   2   -0.36    0.48
   6   4   2    0.13    0.42
  -6  -4  -3    0.56    0.73
   6   4   3    0.47    0.55
   6   4   3   -0.16    0.43
  -6  -5   6    0.54    0.56
   6   5  -6    0.43    0.51
   6   5  -5    4.15    0.76
  -6  -5   4    2.59    0.81
   6   5  -4    1.18    0.57
  -6  -5   3    2.17    0.76
   6   5  -3    2.94    0.80
   6   5  -3    1.31    0.56
  -6  -5   2    0.43    0.64
   6   5  -2    0.75    0.58
   6   5  -2    0.21    0.48
  -6  -5   1    0.59    0.69
   6   5  -1   -0.15    0.51
   6   5  -1   -0.10    0.43
  -7   3   4    2.06    0.65
   7  -3  -4    1.87    0.57
   7  -3  -4    0.91    0.52
  -7   3   3    0.37    0.47
   7  -3  -3    0.52    0.43
   7  -3  -3   -0.03    0.41
  -7   3   2    5.07    0.87
   7  -3  -2    4.25    0.79
  -7   3   1    3.11    0.76
   7  -3  -1    3.66    0.76
  -7   3   0    0.44    0.55
   7  -3   0    0.05    0.38
  -7   3  -1   -0.03    0.52
   7  -3   1    0.27    0.42
  -7   3  -2   -0.17    0.52
   7  -3   2   -0.26    0.35
  -7   2   6    5.27    0.81
   7  -2  -6    6.36    0.88
   7  -2  -6    5.08    1.11
  -7   2   5    1.40    0.57
   7  -2  -5    1.61    0.62
  -7   2   4    1.11    0.56
   7  -2  -4    1.36    0.61
  -7   2   3   -0.09    0.42
   7  -2  -3    0.18    0.44
  -7   2   2    0.68    0.52
   7  -2  -2    0.28    0.48
  -7   2   1    0.26    0.52
   7  -2  -1    0.19    0.45
  -7   2   0    4.20    0.87
   7  -2   0    5.29    0.85
  -7   2  -1    0.26    0.54
   7  -2   1    1.15    0.52
  -7   2  -2    2.17    0.77
   7  -2   2    2.67    0.67
  -7   2  -3    2.31    0.78
   7  -2   3    2.25    0.65
  -7   1   7   -0.12    0.38
   7  -1  -7    0.25    0.80
  -7   1   6    0.79    0.50
   7  -1  -6    0.29    0.54
  -7   1   5    0.77    0.50
   7  -1  -5    0.29    0.48
  -7   1   4    0.05    0.41
   7  -1  -4   -0.28    0.42
  -7   1   3    0.24    0.46
   7  -1  -3    0.07    0.41
  -7   1   2    3.35    0.78
   7  -1  -2    2.77    0.66
  -7   1   1    0.69    0.55
  -7   1   0    1.54    0.65
  -7   1  -1    9.94    1.13
  -7   1  -2    2.13    0.75
   7  -1   2    1.42    0.50
  -7   1  -3    0.43    0.62
   7  -1   3    0.15    0.37
  -7   0   7    8.44    0.96
   7   0  -7    5.88    1.07
  -7   0   6   12.84    1.10
  -7   0   5    5.60    0.89
  -7   0   4    4.95    0.85
  -7   0   3    0.38    0.51
  -7   0   2    9.62    1.10
  -7   0   1    7.98    1.10
  -7   0   0    5.17    0.99
   7   0   0    2.09    0.53
  -7   0  -1    3.28    0.82
   7   0   1    2.64    0.56
  -7   0  -2    0.38    0.59
   7   0   2    0.56    0.43
  -7   0  -3    0.58    0.63
   7   0   3    0.59    0.45
  -7  -1   7   -0.35    0.44
  -7  -1   6    0.76    0.55
  -7  -1   5    4.71    0.89
  -7  -1   4    4.78    0.89
  -7  -1   3    1.14    0.62
  -7  -1   2    8.37    1.19
   7   1  -2    2.71    0.59
  -7  -1   1    7.20    1.10
   7   1  -1    3.63    0.66
  -7  -1   0    7.44    1.19
   7   1   0    3.13    0.64
  -7  -1  -1    0.59    0.68
   7   1   1   -0.22    0.36
  -7  -1  -2   -0.12    0.57
   7   1   2    0.47    0.41
  -7  -2   6   -0.20    0.47
  -7  -2   5    0.49    0.59
  -7  -2   4    8.31    1.14
   7   2  -4    4.21    0.75
  -7  -2   3   13.49    1.33
   7   2  -3    6.27    0.82
  -7  -2   2    0.22    0.61
   7   2  -2    0.03    0.43
  -7  -2   1    5.43    1.01
   7   2  -1    3.02    0.65
  -7  -2   0    1.42    0.76
   7   2   0    0.40    0.44
   0   0   0    0.00    0.00
;
_shelx_hkl_checksum              25624
loop_
_space_group_symop_operation_xyz
'x, y, z'
'-x, -y, -z'
loop_
_atom_site_label
_atom_site_type_symbol
_atom_site_fract_x
_atom_site_fract_y
_atom_site_fract_z
_atom_site_U_iso_or_equiv
_atom_site_adp_type
_atom_site_occupancy
_atom_site_site_symmetry_order
_atom_site_calc_flag
_atom_site_refinement_flags_posn
_atom_site_refinement_flags_adp
_atom_site_refinement_flags_occupancy
_atom_site_disorder_assembly
_atom_site_disorder_group
C1 C 0.6185(6) 0.8025(4) 0.81716(17) 0.0508(8) Uani 1 1 d . . . . .
H1 H 0.7146 0.8669 0.7915 0.061 Uiso 1 1 calc R U . . .
C2 C 0.6190(7) 0.8345(4) 0.90702(18) 0.0622(9) Uani 1 1 d . . . . .
H2 H 0.7156 0.9205 0.9415 0.075 Uiso 1 1 calc R U . . .
C3 C 0.4794(7) 0.7413(5) 0.94518(19) 0.0681(10) Uani 1 1 d . . . . .
H3 H 0.4820 0.7627 1.0057 0.082 Uiso 1 1 calc R U . . .
C4 C 0.3347(7) 0.6157(5) 0.89456(19) 0.0653(10) Uani 1 1 d . . . . .
H4 H 0.2374 0.5535 0.9207 0.078 Uiso 1 1 calc R U . . .
C5 C 0.3329(5) 0.5812(4) 0.80487(18) 0.0500(8) Uani 1 1 d . . . . .
H5 H 0.2359 0.4948 0.7710 0.060 Uiso 1 1 calc R U . . .
C6 C 0.4745(4) 0.6745(3) 0.76521(15) 0.0370(6) Uani 1 1 d . . . . .
C7 C 0.4706(4) 0.6318(3) 0.66746(15) 0.0350(6) Uani 1 1 d . . . . .
C8 C 0.6290(4) 0.7314(3) 0.62399(15) 0.0367(6) Uani 1 1 d . . . . .
H8 H 0.6437 0.8495 0.6544 0.044 Uiso 1 1 calc R U . . .
C9 C 0.3697(5) 0.8068(3) 0.51222(15) 0.0353(6) Uani 1 1 d . . . . .
C10 C 0.1084(5) 0.8495(4) 0.39672(16) 0.0435(7) Uani 1 1 d . . . . .
H10A H 0.1203 0.9689 0.4224 0.052 Uiso 1 1 calc R U . . .
H10B H -0.0210 0.7963 0.4151 0.052 Uiso 1 1 calc R U . . .
C11 C 0.0845(5) 0.8262(3) 0.29831(16) 0.0387(6) Uani 1 1 d . . . . .
C12 C -0.0927(5) 0.8948(4) 0.25658(18) 0.0508(8) Uani 1 1 d . . . . .
H12 H -0.1918 0.9539 0.2893 0.061 Uiso 1 1 calc R U . . .
C13 C -0.1225(6) 0.8755(4) 0.16595(19) 0.0603(9) Uani 1 1 d . . . . .
H13 H -0.2402 0.9233 0.1384 0.072 Uiso 1 1 calc R U . . .
C14 C 0.0206(6) 0.7863(4) 0.11686(19) 0.0602(9) Uani 1 1 d . . . . .
H14 H -0.0004 0.7725 0.0562 0.072 Uiso 1 1 calc R U . . .
C15 C 0.1939(6) 0.7182(4) 0.15784(19) 0.0601(9) Uani 1 1 d . . . . .
H15 H 0.2905 0.6571 0.1246 0.072 Uiso 1 1 calc R U . . .
C16 C 0.2291(6) 0.7385(4) 0.24884(18) 0.0508(8) Uani 1 1 d . . . . .
H16 H 0.3497 0.6929 0.2759 0.061 Uiso 1 1 calc R U . . .
C17 C 0.8587(5) 0.6606(4) 0.63120(19) 0.0485(7) Uani 1 1 d . . . . .
H17A H 0.8479 0.5470 0.5987 0.073 Uiso 1 1 calc R U . . .
H17B H 0.9098 0.6610 0.6915 0.073 Uiso 1 1 calc R U . . .
H17C H 0.9621 0.7296 0.6079 0.073 Uiso 1 1 calc R U . . .
N1 N 0.5484(4) 0.7251(3) 0.53294(13) 0.0414(6) Uani 1 1 d . . . . .
O1 O 0.3446(3) 0.5164(2) 0.62517(11) 0.0465(6) Uani 1 1 d . . . . .
O2 O 0.2790(4) 0.8998(2) 0.56403(12) 0.0499(6) Uani 1 1 d . . . . .
O3 O 0.3053(3) 0.7736(2) 0.42514(11) 0.0435(5) Uani 1 1 d . . . . .
H1N H 0.602(5) 0.650(3) 0.4907(18) 0.042(7) Uiso 1 1 d . . . . .
loop_
_atom_site_aniso_label
_atom_site_aniso_U_11
_atom_site_aniso_U_22
_atom_site_aniso_U_33
_atom_site_aniso_U_23
_atom_site_aniso_U_13
_atom_site_aniso_U_12
C1 0.061(2) 0.0541(16) 0.0360(14) 0.0094(12) 0.0029(13) -0.0059(14)
C2 0.078(2) 0.0679(19) 0.0332(14) 0.0019(14) -0.0042(15) -0.0114(17)
C3 0.092(3) 0.079(2) 0.0321(15) 0.0080(15) 0.0099(16) -0.004(2)
C4 0.076(3) 0.081(2) 0.0421(16) 0.0158(16) 0.0177(16) -0.0085(19)
C5 0.0497(18) 0.0550(16) 0.0434(15) 0.0048(13) 0.0093(13) -0.0057(13)
C6 0.0384(15) 0.0421(13) 0.0300(13) 0.0058(10) 0.0023(10) 0.0068(11)
C7 0.0286(13) 0.0408(13) 0.0340(13) 0.0016(11) 0.0029(10) 0.0093(11)
C8 0.0361(15) 0.0431(13) 0.0307(12) 0.0060(10) 0.0033(10) 0.0060(11)
C9 0.0398(15) 0.0365(12) 0.0312(12) 0.0083(10) 0.0069(11) 0.0055(11)
C10 0.0435(16) 0.0530(15) 0.0377(14) 0.0139(12) 0.0074(12) 0.0146(12)
C11 0.0424(16) 0.0390(13) 0.0344(13) 0.0077(11) 0.0019(11) 0.0025(11)
C12 0.0460(18) 0.0603(17) 0.0430(15) 0.0038(13) -0.0026(13) 0.0132(14)
C13 0.062(2) 0.072(2) 0.0425(16) 0.0098(15) -0.0142(15) 0.0112(17)
C14 0.072(2) 0.073(2) 0.0335(14) 0.0107(14) -0.0016(15) 0.0013(18)
C15 0.071(2) 0.074(2) 0.0404(16) 0.0139(15) 0.0166(15) 0.0173(17)
C16 0.0542(19) 0.0641(18) 0.0404(15) 0.0193(13) 0.0106(13) 0.0194(15)
C17 0.0346(16) 0.0640(17) 0.0505(16) 0.0177(13) 0.0062(12) 0.0097(13)
N1 0.0437(14) 0.0524(13) 0.0293(11) 0.0054(10) 0.0071(10) 0.0170(11)
O1 0.0410(12) 0.0554(11) 0.0382(10) -0.0035(9) 0.0061(8) -0.0003(9)
O2 0.0554(13) 0.0599(12) 0.0356(10) 0.0042(9) 0.0081(9) 0.0257(10)
O3 0.0457(12) 0.0547(11) 0.0311(9) 0.0078(8) 0.0029(8) 0.0180(9)
loop_
_atom_type_symbol
_atom_type_description
_atom_type_scat_dispersion_real
_atom_type_scat_dispersion_imag
_atom_type_scat_source
C C 0.0033 0.0016 'International Tables Vol C Tables 4.2.6.8 and 6.1.1.4'
H H 0.0000 0.0000 'International Tables Vol C Tables 4.2.6.8 and 6.1.1.4'
N N 0.0061 0.0033 'International Tables Vol C Tables 4.2.6.8 and 6.1.1.4'
O O 0.0106 0.0060 'International Tables Vol C Tables 4.2.6.8 and 6.1.1.4'
loop_
_geom_angle_atom_site_label_1
_geom_angle_atom_site_label_2
_geom_angle_atom_site_label_3
_geom_angle
_geom_angle_site_symmetry_1
_geom_angle_site_symmetry_3
C2 C1 C6 120.1(3) . .
C2 C1 H1 120.0 . .
C6 C1 H1 120.0 . .
C3 C2 C1 120.5(3) . .
C3 C2 H2 119.8 . .
C1 C2 H2 119.8 . .
C2 C3 C4 120.0(3) . .
C2 C3 H3 120.0 . .
C4 C3 H3 120.0 . .
C3 C4 C5 120.3(3) . .
C3 C4 H4 119.9 . .
C5 C4 H4 119.9 . .
C4 C5 C6 120.3(3) . .
C4 C5 H5 119.8 . .
C6 C5 H5 119.8 . .
C5 C6 C1 118.8(2) . .
C5 C6 C7 118.9(2) . .
C1 C6 C7 122.3(3) . .
O1 C7 C6 119.7(2) . .
O1 C7 C8 121.2(2) . .
C6 C7 C8 119.0(2) . .
N1 C8 C7 111.5(2) . .
N1 C8 C17 109.5(2) . .
C7 C8 C17 109.6(2) . .
N1 C8 H8 108.7 . .
C7 C8 H8 108.7 . .
C17 C8 H8 108.7 . .
O2 C9 N1 124.7(2) . .
O2 C9 O3 124.0(2) . .
N1 C9 O3 111.2(2) . .
O3 C10 C11 108.3(2) . .
O3 C10 H10A 110.0 . .
C11 C10 H10A 110.0 . .
O3 C10 H10B 110.0 . .
C11 C10 H10B 110.0 . .
H10A C10 H10B 108.4 . .
C16 C11 C12 119.1(2) . .
C16 C11 C10 122.7(2) . .
C12 C11 C10 118.2(2) . .
C11 C12 C13 120.2(3) . .
C11 C12 H12 119.9 . .
C13 C12 H12 119.9 . .
C14 C13 C12 120.4(3) . .
C14 C13 H13 119.8 . .
C12 C13 H13 119.8 . .
C15 C14 C13 119.3(3) . .
C15 C14 H14 120.3 . .
C13 C14 H14 120.3 . .
C14 C15 C16 121.2(3) . .
C14 C15 H15 119.4 . .
C16 C15 H15 119.4 . .
C11 C16 C15 119.7(3) . .
C11 C16 H16 120.2 . .
C15 C16 H16 120.2 . .
C8 C17 H17A 109.5 . .
C8 C17 H17B 109.5 . .
H17A C17 H17B 109.5 . .
C8 C17 H17C 109.5 . .
H17A C17 H17C 109.5 . .
H17B C17 H17C 109.5 . .
C9 N1 C8 119.4(2) . .
C9 N1 H1N 119.9(18) . .
C8 N1 H1N 119.7(18) . .
C9 O3 C10 115.42(18) . .
loop_
_geom_bond_atom_site_label_1
_geom_bond_atom_site_label_2
_geom_bond_distance
_geom_bond_site_symmetry_2
C1 C2 1.384(4) .
C1 C6 1.388(4) .
C1 H1 0.9300 .
C2 C3 1.359(5) .
C2 H2 0.9300 .
C3 C4 1.371(5) .
C3 H3 0.9300 .
C4 C5 1.381(4) .
C4 H4 0.9300 .
C5 C6 1.381(4) .
C5 H5 0.9300 .
C6 C7 1.505(3) .
C7 O1 1.214(3) .
C7 C8 1.514(4) .
C8 N1 1.445(3) .
C8 C17 1.533(4) .
C8 H8 0.9800 .
C9 O2 1.205(3) .
C9 N1 1.337(3) .
C9 O3 1.350(3) .
C10 O3 1.433(3) .
C10 C11 1.508(3) .
C10 H10A 0.9700 .
C10 H10B 0.9700 .
C11 C16 1.375(4) .
C11 C12 1.387(4) .
C12 C13 1.390(4) .
C12 H12 0.9300 .
C13 C14 1.371(5) .
C13 H13 0.9300 .
C14 C15 1.362(5) .
C14 H14 0.9300 .
C15 C16 1.396(4) .
C15 H15 0.9300 .
C16 H16 0.9300 .
C17 H17A 0.9600 .
C17 H17B 0.9600 .
C17 H17C 0.9600 .
N1 H1N 0.91(3) .
loop_
_geom_hbond_atom_site_label_D
_geom_hbond_atom_site_label_H
_geom_hbond_atom_site_label_A
_geom_hbond_distance_DH
_geom_hbond_distance_HA
_geom_hbond_distance_DA
_geom_hbond_angle_DHA
_geom_hbond_site_symmetry_A
C17 H17A O3 0.96 2.65 3.515(4) 150.5 2_666
C17 H17C O2 0.96 2.53 3.481(4) 171.2 1_655
N1 H1N O1 0.91(3) 2.12(3) 3.018(3) 166(3) 2_666
loop_
_geom_torsion_atom_site_label_1
_geom_torsion_atom_site_label_2
_geom_torsion_atom_site_label_3
_geom_torsion_atom_site_label_4
_geom_torsion
_geom_torsion_site_symmetry_1
_geom_torsion_site_symmetry_2
_geom_torsion_site_symmetry_3
_geom_torsion_site_symmetry_4
C6 C1 C2 C3 0.0(6) . . . .
C1 C2 C3 C4 -0.8(6) . . . .
C2 C3 C4 C5 1.2(6) . . . .
C3 C4 C5 C6 -0.9(6) . . . .
C4 C5 C6 C1 0.2(5) . . . .
C4 C5 C6 C7 179.1(3) . . . .
C2 C1 C6 C5 0.2(5) . . . .
C2 C1 C6 C7 -178.6(3) . . . .
C5 C6 C7 O1 -0.3(4) . . . .
C1 C6 C7 O1 178.5(3) . . . .
C5 C6 C7 C8 -178.7(2) . . . .
C1 C6 C7 C8 0.1(4) . . . .
O1 C7 C8 N1 24.9(3) . . . .
C6 C7 C8 N1 -156.7(2) . . . .
O1 C7 C8 C17 -96.5(3) . . . .
C6 C7 C8 C17 81.9(3) . . . .
O3 C10 C11 C16 2.6(4) . . . .
O3 C10 C11 C12 -178.1(2) . . . .
C16 C11 C12 C13 -0.3(5) . . . .
C10 C11 C12 C13 -179.5(3) . . . .
C11 C12 C13 C14 1.0(5) . . . .
C12 C13 C14 C15 -0.7(5) . . . .
C13 C14 C15 C16 -0.4(5) . . . .
C12 C11 C16 C15 -0.8(5) . . . .
C10 C11 C16 C15 178.4(3) . . . .
C14 C15 C16 C11 1.2(5) . . . .
O2 C9 N1 C8 7.0(4) . . . .
O3 C9 N1 C8 -173.9(2) . . . .
C7 C8 N1 C9 70.1(3) . . . .
C17 C8 N1 C9 -168.5(2) . . . .
O2 C9 O3 C10 -3.7(4) . . . .
N1 C9 O3 C10 177.3(2) . . . .
C11 C10 O3 C9 170.0(2) . . . .
