#------------------------------------------------------------------------------
#$Date: 2016-05-06 03:19:51 +0300 (Fri, 06 May 2016) $
#$Revision: 182609 $
#$URL: svn://www.crystallography.net/cod/cif/7/11/89/7118903.cif $
#------------------------------------------------------------------------------
#
# This file is available in the Crystallography Open Database (COD),
# http://www.crystallography.net/
#
# All data on this site have been placed in the public domain by the
# contributors.
#
data_7118903
loop_
_publ_author_name
'Ivanov, Daniil M.'
'Novikov, Alexander S.'
'Ananyev, Ivan V.'
'Kirina, Yulia V.'
'Kukushkin, Vadim Yu'
_publ_section_title
;
 Halogen bonding between metal centers and halocarbons.
;
_journal_issue                   32
_journal_name_full
'Chemical communications (Cambridge, England)'
_journal_page_first              5565
_journal_page_last               5568
_journal_paper_doi               10.1039/c6cc01107a
_journal_volume                  52
_journal_year                    2016
_chemical_formula_moiety         'C6 H12 Cl2 N4 Pt, 2(C H I3)'
_chemical_formula_sum            'C8 H14 Cl2 I6 N4 Pt'
_chemical_formula_weight         1193.62
_space_group_crystal_system      triclinic
_space_group_IT_number           2
_space_group_name_Hall           '-P 1'
_space_group_name_H-M_alt        'P -1'
_symmetry_space_group_name_Hall  '-P 1'
_symmetry_space_group_name_H-M   'P -1'
_atom_sites_solution_hydrogens   geom
_audit_creation_method           SHELXL-2014/7
_audit_update_record
;
2016-01-11 deposited with the CCDC.
2016-03-16 downloaded from the CCDC.
;
_cell_angle_alpha                81.5317(9)
_cell_angle_beta                 75.7689(9)
_cell_angle_gamma                65.7138(8)
_cell_formula_units_Z            2
_cell_length_a                   9.2555(4)
_cell_length_b                   9.6136(4)
_cell_length_c                   15.3533(7)
_cell_measurement_reflns_used    583
_cell_measurement_temperature    120(2)
_cell_measurement_theta_max      25
_cell_measurement_theta_min      3
_cell_volume                     1205.36(9)
_computing_cell_refinement       'Bruker SAINT'
_computing_data_collection       'Bruker APEX II'
_computing_data_reduction        'Bruker SAINT'
_computing_molecular_graphics    'SHELXL-2014/7 (Sheldrick, 2014)'
_computing_publication_material  'SHELXL-2014/7 (Sheldrick, 2014)'
_computing_structure_refinement  'SHELXL-2014/7 (Sheldrick, 2014)'
_computing_structure_solution    'SHELXS-97 (Sheldrick, 1997)'
_diffrn_ambient_temperature      120(2)
_diffrn_measured_fraction_theta_full 0.999
_diffrn_measured_fraction_theta_max 0.999
_diffrn_measurement_device_type  'Bruker APEX II CCD area detector''
_diffrn_measurement_method       'omega scans'
_diffrn_radiation_type           MoK\a
_diffrn_radiation_wavelength     0.71073
_diffrn_reflns_av_R_equivalents  0.0351
_diffrn_reflns_av_unetI/netI     0.0366
_diffrn_reflns_Laue_measured_fraction_full 0.999
_diffrn_reflns_Laue_measured_fraction_max 0.999
_diffrn_reflns_limit_h_max       12
_diffrn_reflns_limit_h_min       -12
_diffrn_reflns_limit_k_max       13
_diffrn_reflns_limit_k_min       -13
_diffrn_reflns_limit_l_max       20
_diffrn_reflns_limit_l_min       -20
_diffrn_reflns_number            19998
_diffrn_reflns_point_group_measured_fraction_full 0.999
_diffrn_reflns_point_group_measured_fraction_max 0.999
_diffrn_reflns_theta_full        25.242
_diffrn_reflns_theta_max         29.000
_diffrn_reflns_theta_min         2.327
_exptl_absorpt_coefficient_mu    13.725
_exptl_absorpt_correction_T_max  0.288
_exptl_absorpt_correction_T_min  0.189
_exptl_absorpt_correction_type   multi-scan
_exptl_absorpt_process_details   SADABS
_exptl_crystal_colour            colorless
_exptl_crystal_density_diffrn    3.289
_exptl_crystal_description       prism
_exptl_crystal_F_000             1040
_exptl_crystal_size_max          0.173
_exptl_crystal_size_mid          0.163
_exptl_crystal_size_min          0.127
_refine_diff_density_max         1.672
_refine_diff_density_min         -0.790
_refine_diff_density_rms         0.217
_refine_ls_extinction_method     none
_refine_ls_goodness_of_fit_ref   1.026
_refine_ls_hydrogen_treatment    constr
_refine_ls_matrix_type           full
_refine_ls_number_parameters     206
_refine_ls_number_reflns         6397
_refine_ls_number_restraints     16
_refine_ls_restrained_S_all      1.025
_refine_ls_R_factor_all          0.0423
_refine_ls_R_factor_gt           0.0322
_refine_ls_shift/su_max          0.001
_refine_ls_shift/su_mean         0.000
_refine_ls_structure_factor_coef Fsqd
_refine_ls_weighting_details
'w=1/[\s^2^(Fo^2^)+(0.0353P)^2^+1.8847P] where P=(Fo^2^+2Fc^2^)/3'
_refine_ls_weighting_scheme      calc
_refine_ls_wR_factor_gt          0.0703
_refine_ls_wR_factor_ref         0.0738
_reflns_Friedel_coverage         0.000
_reflns_number_gt                5361
_reflns_number_total             6397
_reflns_threshold_expression     I>2\s(I)
_cod_data_source_file            c6cc01107a2.cif
_cod_data_source_block           a
_cod_depositor_comments
'Adding full bibliography for 7118900--7118914.cif.'
_cod_database_code               7118903
_shelx_shelxl_version_number     2014/7
_shelx_space_group_comment
;
The symmetry employed for this shelxl refinement is uniquely defined
by the following loop, which should always be used as a source of
symmetry information in preference to the above space-group names.
They are only intended as comments.
;
_shelx_estimated_absorpt_t_min   0.200
_shelx_estimated_absorpt_t_max   0.275
_shelx_res_file
;

    a.res created by SHELXL-2014/7


TITL a in P-1
CELL 0.71073   9.25550   9.61360  15.35330  81.5317  75.7689  65.7138
ZERR    2.00   0.00040   0.00040   0.00070   0.0009   0.0009   0.0008
LATT  1
SFAC C H N I PT CL
UNIT 16 28 8 12 2 4

TEMP -153.000
SIZE 0.127 0.163 0.173

L.S. 10
omit     1   2   3
omit     0  -1   1
omit     1   0   0
omit     0   0   1
omit     1   0   2
omit     1   2   0
omit -4 58
BOND $h
conf
htab
FMAP 2
PLAN 20
acta
isor 0.005 c2 c3
eadp c2 c2'
eadp c3 c3'
dfix 1.47 0.01 n2 c2 n2 c3 n2 c2' n2 c3'
WGHT    0.035300    1.884700
FVAR       0.18989   0.53789
PT1   5    0.500000    0.500000    0.000000    10.50000    0.02468    0.01779 =
         0.02183   -0.00030   -0.00834   -0.01037
CL1   6    0.239699    0.583641    0.085312    11.00000    0.01947    0.02114 =
         0.02335   -0.00456   -0.00432   -0.00805
N1    3    0.541335    0.651734    0.051438    11.00000    0.02409    0.02321 =
         0.02944   -0.00498   -0.00753   -0.00967
C1    1    0.573710    0.737287    0.078553    11.00000    0.02628    0.02440 =
         0.02238   -0.00101   -0.00861   -0.01102
N2    3    0.614005    0.834333    0.108429    11.00000    0.02661    0.02453 =
         0.04425   -0.00963   -0.00789   -0.01017
PART   1
C2    1    0.775275    0.786983    0.128304    21.00000    0.01680    0.03946 =
         0.03372   -0.00884   -0.00366   -0.01330
AFIX 137
H2A   2    0.836086    0.677530    0.119324    21.00000   -1.50000
H2B   2    0.764223    0.807008    0.190876    21.00000   -1.50000
H2C   2    0.833243    0.844781    0.087987    21.00000   -1.50000
AFIX   0
C3    1    0.507491    0.996730    0.111693    21.00000    0.03227    0.01534 =
         0.02449   -0.00071   -0.01238   -0.00838
AFIX 137
H3A   2    0.431977    1.020878    0.071465    21.00000   -1.50000
H3B   2    0.572826    1.058429    0.092433    21.00000   -1.50000
H3C   2    0.446391    1.019561    0.173366    21.00000   -1.50000
AFIX   0
PART   2
C2'   1    0.761947    0.771245    0.145627   -21.00000    0.01680    0.03946 =
         0.03372   -0.00884   -0.00366   -0.01330
AFIX 137
H2'A  2    0.851532    0.703011    0.102878   -21.00000   -1.50000
H2'B  2    0.743738    0.713804    0.202604   -21.00000   -1.50000
H2'C  2    0.789033    0.854934    0.156154   -21.00000   -1.50000
AFIX   0
C3'   1    0.493864    0.984073    0.138920   -21.00000    0.03227    0.01534 =
         0.02449   -0.00071   -0.01238   -0.00838
AFIX 137
H3'A  2    0.402382    1.016173    0.108859   -21.00000   -1.50000
H3'B  2    0.543742    1.059179    0.124079   -21.00000   -1.50000
H3'C  2    0.455239    0.976860    0.204182   -21.00000   -1.50000
AFIX   0
PART   0
PT1A  5    0.500000    0.000000    0.500000    10.50000    0.01839    0.02245 =
         0.02474    0.00312   -0.00650   -0.01152
CL1A  6    0.597935   -0.121948    0.365251    11.00000    0.02047    0.03210 =
         0.02230   -0.00724    0.00026   -0.01729
N1A   3    0.672002    0.078169    0.468589    11.00000    0.02487    0.02360 =
         0.02616    0.00146   -0.00602   -0.01342
C1A   1    0.767128    0.131029    0.444550    11.00000    0.02041    0.02504 =
         0.02185   -0.00235   -0.00428   -0.00646
N2A   3    0.875516    0.189641    0.421373    11.00000    0.02859    0.02893 =
         0.02784    0.00201   -0.00242   -0.01839
C2A   1    0.826455    0.356214    0.414333    11.00000    0.04093    0.02830 =
         0.03463   -0.00229   -0.00494   -0.02236
AFIX 137
H2AA  2    0.712878    0.405253    0.444654    11.00000   -1.50000
H2AB  2    0.839075    0.391518    0.350764    11.00000   -1.50000
H2AC  2    0.894678    0.383013    0.442883    11.00000   -1.50000
AFIX   0
C3A   1    1.040737    0.095225    0.376893    11.00000    0.01992    0.03976 =
         0.04658   -0.00042   -0.00321   -0.01345
AFIX 137
H3AA  2    1.055413   -0.012456    0.383868    11.00000   -1.50000
H3AB  2    1.118872    0.108660    0.404364    11.00000   -1.50000
H3AC  2    1.058196    0.126458    0.312761    11.00000   -1.50000
AFIX   0
C1S   1    0.938845    0.196769    0.106703    11.00000    0.03247    0.02600 =
         0.02367   -0.00213   -0.00695   -0.01309
AFIX  13
H1SA  2    0.908239    0.222506    0.046484    11.00000   -1.20000
AFIX   0
I1S   4    0.717218    0.242401    0.205697    11.00000    0.02471    0.03213 =
         0.03082   -0.00389   -0.00534   -0.01158
I2S   4    1.062320    0.337812    0.116348    11.00000    0.03099    0.02267 =
         0.03142   -0.00198   -0.00392   -0.01316
I3S   4    1.091770   -0.041500    0.110083    11.00000    0.02925    0.02140 =
         0.03244   -0.00220   -0.00753   -0.01043
C2S   1    0.259226    0.558709    0.311873    11.00000    0.02666    0.02946 =
         0.02875    0.00194   -0.00764   -0.01145
AFIX  13
H2SA  2    0.286141    0.542946    0.245937    11.00000   -1.20000
AFIX   0
I4S   4    0.391824    0.684614    0.331899    11.00000    0.02301    0.02546 =
         0.03006   -0.00026   -0.00330   -0.01130
I5S   4    0.335079    0.336284    0.378494    11.00000    0.02545    0.02268 =
         0.05100    0.00420   -0.00602   -0.00923
I6S   4    0.001157    0.683204    0.347333    11.00000    0.02332    0.02581 =
         0.03405    0.00293   -0.00862   -0.01090

HKLF 4

REM  a in P-1
REM R1 =  0.0322 for    5361 Fo > 4sig(Fo)  and  0.0423 for all    6397 data
REM    206 parameters refined using     16 restraints

END

WGHT      0.0361      1.4417

REM Instructions for potential hydrogen bonds
HTAB C2 I2S
EQIV $1 x, y+1, z
HTAB C2 Cl1A_$1
HTAB C2 I3S_$1
HTAB C2' I2S
EQIV $2 -x+2, -y+1, -z
HTAB C2' I2S_$2
HTAB C2' Cl1A_$1
HTAB C2' I3S_$1
EQIV $3 x-1, y+1, z
HTAB C3' I3S_$3
HTAB C3' Cl1A_$1
EQIV $4 x+1, y-1, z
HTAB C3A I4S_$4
HTAB C3A I6S_$4
EQIV $5 -x+1, -y+1, -z
HTAB C1S Cl1_$5
EQIV $6 -x+2, -y, -z
HTAB C1S I3S_$6
HTAB C2S Cl1

REM Highest difference peak  1.672,  deepest hole -0.790,  1-sigma level  0.217
Q1    1   0.4991  0.4781  0.0595  11.00000  0.05    1.67
Q2    1   0.5023  0.0388  0.4407  11.00000  0.05    1.66
Q3    1   0.5482 -0.0847  0.3663  11.00000  0.05    1.59
Q4    1   0.6345 -0.1754  0.3634  11.00000  0.05    1.57
Q5    1   0.6134 -0.0835  0.3582  11.00000  0.05    1.57
Q6    1   0.3263  0.3552  0.3247  11.00000  0.05    1.56
Q7    1   0.5906 -0.1256  0.3988  11.00000  0.05    1.53
Q8    1   0.5887 -0.1572  0.3639  11.00000  0.05    1.35
Q9    1   0.6996  0.2760  0.1477  11.00000  0.05    1.33
Q10   1   0.0184  0.6604  0.4015  11.00000  0.05    1.31
Q11   1   0.2294  0.5245  0.0882  11.00000  0.05    1.30
Q12   1   0.7349  0.3230  0.1909  11.00000  0.05    1.20
Q13   1   0.4904  0.0910  0.4858  11.00000  0.05    1.18
Q14   1   0.4873  0.4183  0.0136  11.00000  0.05    1.13
Q15   1   1.0546  0.3064  0.1743  11.00000  0.05    1.10
Q16   1   0.0130  0.7660  0.3363  11.00000  0.05    1.07
Q17   1   0.2269  0.5844  0.1246  11.00000  0.05    1.07
Q18   1   1.1017 -0.0752  0.1748  11.00000  0.05    1.02
Q19   1   0.7249  0.2260  0.2664  11.00000  0.05    1.02
Q20   1   0.5154 -0.0462  0.4485  11.00000  0.05    1.01
;
_shelx_res_checksum              45310
_shelx_hkl_file
;
  -1   0   0 151.032 4.79844   4
  -1   0   0 155.627 4.26123   2
  -1   0   0 157.811 5.14976   3
  -1   0   0 147.575 4.32859   2
   1   0   0 161.754 5.19594   1
  -2   0   0 1725.90 35.3863   4
  -2   0   0 1730.96 38.6644   3
  -2   0   0 1786.04 40.2530   2
   2   0   0 1647.89 37.3263   1
  -3   0   0 647.786 17.8592   4
  -3   0   0 654.820 16.8189   2
  -3   0   0 681.424 19.2843   3
   3   0   0 630.922 18.7356   1
  -4   0   0 333.939 14.3032   3
  -4   0   0 357.747 13.7470   4
  -4   0   0 342.922 10.5697   2
   4   0   0 371.631 15.1789   1
  -5   0   0 439.263 17.5872   3
  -5   0   0 469.647 13.4325   2
   5   0   0 445.263 18.5818   1
   5   0   0 436.410 15.4955   4
  -6   0   0 31.4782 3.65283   2
  -6   0   0 34.3844 7.53193   3
   6   0   0 30.4217 7.47009   1
   6   0   0 34.7994 5.70031   4
  -7   0   0 208.057 14.6480   3
  -7   0   0 217.418 8.56324   2
   7   0   0 239.669 12.8088   4
   7   0   0 209.919 15.5451   1
  -8   0   0 212.287 15.4893   3
   8   0   0 245.443 18.2937   1
   8   0   0 265.593 14.4077   4
  -9   0   0 126.613 14.7513   3
   9   0   0 132.943 11.2306   4
   9   0   0 201.702 19.4138   1
 -10   0   0 276.057 19.4028   3
  10   0   0 282.067 21.3629   1
  10   0   0 282.044 17.0170   4
 -11   0   0 13.2955 9.34901   3
  11   0   0 17.2533 11.5377   1
  11  -1   0 66.8582 15.4253   1
 -11   1   0 36.9402 11.3374   3
  10  -1   0 139.456 18.8265   1
 -10   1   0 115.788 15.3313   3
   9  -1   0 4.59845 4.33643   4
   9  -1   0 4.77787 8.96446   1
  -9   1   0 -5.0415 6.45017   3
   8  -1   0 171.076 17.5095   1
   8  -1   0 202.240 12.3217   4
  -8   1   0 188.074 14.9954   3
   7  -1   0 205.258 16.8476   1
   7  -1   0 231.432 12.0921   4
  -7   1   0 221.123 9.87020   2
  -7   1   0 203.878 14.7896   3
   6  -1   0 6.60273 3.36856   4
   6  -1   0 6.93823 6.45891   1
  -6   1   0 -0.1859 2.08263   2
  -6   1   0 7.37648 5.81409   3
   5  -1   0 295.049 15.8475   1
   5  -1   0 306.130 12.1577   4
  -5   1   0 299.273 11.0937   2
  -5   1   0 322.298 15.2405   3
   4  -1   0 2.72452 5.13687   1
   4  -1   0 4.99217 2.76390   4
  -4   1   0 8.20822 2.46510   2
  -4   1   0 10.4979 4.84612   3
   3  -1   0 6.75242 5.02556   1
   3  -1   0 10.9896 2.65119   4
  -3   1   0 6.37692 4.22475   3
  -3   1   0 9.00514 2.39140   2
   2  -1   0 86.5187 5.30071   2
   2  -1   0 97.4656 7.62574   1
   2  -1   0 86.5516 4.33329   4
  -2   1   0 85.0413 6.38069   3
   1  -1   0 92.3846 4.71433   2
   1  -1   0 97.7000 3.32357   4
   1  -1   0 95.2078 6.04283   1
   1  -1   0 89.5019 3.35610   4
  -1   1   0 76.5045 4.89427   3
   0  -1   0 114.218 2.89279   4
   0  -1   0 123.549 4.62193   2
   0  -1   0 117.683 4.63006   1
   0   1   0 120.357 3.86340   3
   0   1   0 112.871 2.80043   4
  -1  -1   0 388.221 9.06814   1
  -1  -1   0 406.468 9.85669   4
  -1  -1   0 390.376 10.2568   2
  -1  -1   0 395.269 9.98293   3
  -2  -1   0 4.82652 2.74391   4
  -2  -1   0 3.38254 2.87523   3
   2   1   0 11.2232 1.49848   2
   2   1   0 5.05915 2.33012   1
  -3  -1   0 1450.56 34.5333   3
  -3  -1   0 1417.50 33.1239   2
  -3  -1   0 1376.58 32.4046   4
   3   1   0 1472.97 33.0890   2
   3   1   0 1391.99 32.7069   1
  -4  -1   0 436.580 11.4371   2
  -4  -1   0 420.698 15.4701   4
  -4  -1   0 440.373 15.6756   3
   4   1   0 448.776 15.6271   1
  -5  -1   0 131.165 9.82064   4
  -5  -1   0 144.159 5.21587   2
  -5  -1   0 138.449 9.60736   3
   5   1   0 140.449 10.0448   1
  -6  -1   0 454.229 12.7116   2
  -6  -1   0 465.989 18.9387   3
   6   1   0 488.845 19.5041   1
  -7  -1   0 423.566 19.5697   3
   7   1   0 442.857 17.8223   4
   7   1   0 430.593 20.2335   1
  -8  -1   0 179.569 13.4383   3
   8   1   0 187.379 15.2426   1
   8   1   0 179.325 12.4068   4
  -9  -1   0 7.04861 6.28476   3
   9   1   0 8.58512 5.17923   4
   9   1   0 5.78929 7.78395   1
 -10  -1   0 9.04804 7.20107   3
  10   1   0 5.77441 5.20787   4
  10   1   0 3.34802 8.29983   1
 -11  -1   0 156.812 17.3258   3
  11   1   0 128.814 17.9103   1
  11   1   0 167.097 14.2857   4
 -12  -1   0 11.1314 9.06685   3
  12   1   0 -0.0950 10.3879   1
  10  -2   0 10.8649 11.5926   1
 -10   2   0 15.3472 9.09670   3
   9  -2   0 4.48316 9.32126   1
  -9   2   0 -0.9403 7.30656   3
   8  -2   0 407.242 17.5528   4
   8  -2   0 392.225 23.6065   1
  -8   2   0 348.317 19.7687   3
   7  -2   0 1263.56 42.5255   1
   7  -2   0 1255.68 32.7245   4
  -7   2   0 1232.91 39.5930   3
  -7   2   0 1315.09 35.7885   2
   6  -2   0 145.420 9.15864   4
   6  -2   0 180.395 17.3808   1
  -6   2   0 149.896 8.65092   2
  -6   2   0 152.974 12.6825   3
   5  -2   0 730.162 20.2083   4
   5  -2   0 726.728 26.8665   1
  -5   2   0 711.787 24.6791   3
  -5   2   0 754.220 22.5757   2
   4  -2   0 377.619 12.1070   4
   4  -2   0 346.913 17.2494   1
  -4   2   0 373.343 13.4938   2
  -4   2   0 381.424 15.8829   3
   3  -2   0 3316.35 75.8099   1
   3  -2   0 3459.61 82.6970   2
   3  -2   0 3474.42 65.9885   4
  -3   2   0 3451.99 76.5688   3
   2  -2   0 86.9462 4.02406   4
   2  -2   0 76.4482 8.01243   1
   2  -2   0 82.0793 6.39403   2
  -2   2   0 73.1542 6.79630   3
   1  -2   0 684.488 20.1929   1
   1  -2   0 707.506 20.3146   2
  -1   2   0 698.591 18.3361   3
   0  -2   0 282.436 10.4544   1
   0  -2   0 256.362 6.58810   4
   0   2   0 271.383 6.69706   4
   0   2   0 260.426 8.44327   3
  -1  -2   0 128.498 5.71943   4
  -1  -2   0 133.792 5.79994   1
  -1  -2   0 131.160 6.13422   3
  -1  -2   0 123.645 6.28164   2
  -2  -2   0 2635.40 57.4093   3
  -2  -2   0 2702.17 53.5097   4
  -2  -2   0 2660.43 62.4648   2
   2   2   0 2665.32 53.4252   1
  -3  -2   0 2829.29 61.5744   3
  -3  -2   0 2774.16 64.5954   2
  -3  -2   0 2739.33 57.5094   4
   3   2   0 2796.16 57.4495   1
  -4  -2   0 2595.26 59.6336   2
  -4  -2   0 2565.32 59.3005   3
  -4  -2   0 2656.03 56.4594   4
   4   2   0 2536.37 55.7121   1
  -5  -2   0 1050.00 29.6933   3
  -5  -2   0 978.562 28.7537   4
   5   2   0 1030.05 28.0010   1
  -6  -2   0 7.32493 5.19407   4
  -6  -2   0 11.3084 5.40471   3
   6   2   0 4.74360 4.79683   1
  -7  -2   0 139.565 11.7558   3
   7   2   0 166.563 12.4892   1
  -8  -2   0 37.6632 8.12741   3
   8   2   0 46.4150 7.96469   4
   8   2   0 43.3309 9.43459   1
  -9  -2   0 50.1169 10.1195   3
   9   2   0 60.6136 11.0680   1
   9   2   0 54.9435 8.82818   4
 -10  -2   0 54.3561 10.9358   3
  10   2   0 52.0721 9.20175   4
 -11  -2   0 292.572 20.1969   3
  11   2   0 300.335 21.1576   1
  11   2   0 284.610 18.2500   4
 -12  -2   0 139.459 16.9463   3
  12   2   0 158.784 19.2416   1
  12   2   0 154.710 16.3603   4
  10  -3   0 0.84430 11.9986   1
 -10   3   0 8.75519 9.30723   3
   9  -3   0 14.0159 10.9738   1
  -9   3   0 -2.0318 7.58248   3
   8  -3   0 145.762 17.7963   1
  -8   3   0 160.480 16.1535   3
   7  -3   0 23.5510 10.1341   1
  -7   3   0 21.2609 4.83038   2
  -7   3   0 16.1534 7.82339   3
   6  -3   0 7.00489 7.39460   1
   6  -3   0 5.40291 3.15455   4
  -6   3   0 4.21456 6.26620   3
  -6   3   0 7.09170 3.86598   2
   5  -3   0 2.07576 6.65828   1
   5  -3   0 12.6470 3.03237   4
  -5   3   0 4.59892 6.06775   3
  -5   3   0 1.19125 2.68255   2
   4  -3   0 32.4027 3.73523   4
   4  -3   0 27.5622 8.04651   1
  -4   3   0 24.6541 4.58011   2
  -4   3   0 18.3296 5.70139   3
   3  -3   0 577.152 13.1974   4
   3  -3   0 528.686 19.1164   2
   3  -3   0 525.529 21.3976   1
  -3   3   0 570.473 19.3754   3
   2  -3   0 49.0244 6.47407   2
   2  -3   0 61.7844 9.06269   1
  -2   3   0 55.7764 6.81072   3
   1  -3   0 521.014 18.9130   1
   1  -3   0 504.987 17.8360   2
  -1   3   0 514.119 15.8443   3
   0  -3   0 4364.79 80.3794   4
   0  -3   0 4410.61 90.0792   1
   0  -3   0 4394.67 104.023   2
   0   3   0 4303.25 91.8015   3
  -1  -3   0 186.208 7.34904   4
  -1  -3   0 193.547 8.52616   1
  -1  -3   0 166.551 8.83301   2
  -1  -3   0 199.855 8.50556   3
  -2  -3   0 2833.23 63.8496   3
  -2  -3   0 2972.90 58.9406   4
  -2  -3   0 2877.77 59.3902   1
  -2  -3   0 3032.46 70.5673   2
  -3  -3   0 1439.73 35.2391   3
  -3  -3   0 1433.21 36.3148   2
  -3  -3   0 1451.07 34.0571   4
   3   3   0 1449.43 32.1230   1
  -4  -3   0 165.909 9.90975   3
  -4  -3   0 165.134 7.25022   2
  -4  -3   0 165.798 10.6488   4
   4   3   0 150.418 7.99815   1
  -5  -3   0 11.2653 5.44778   4
  -5  -3   0 8.70424 5.03612   3
  -5  -3   0 10.5336 2.42499   2
   5   3   0 14.7478 4.40224   1
  -6  -3   0 89.9167 10.1559   4
  -6  -3   0 122.532 11.2836   3
   6   3   0 103.874 9.10387   1
  -7  -3   0 162.027 12.5071   3
  -7  -3   0 164.476 13.4303   4
   7   3   0 162.488 11.4225   1
  -8  -3   0 293.448 16.6035   3
   8   3   0 295.268 16.3573   4
   8   3   0 297.248 16.8173   1
  -9  -3   0 20.6103 7.82056   3
   9   3   0 23.6601 7.85306   1
   9   3   0 27.8980 7.05100   4
 -10  -3   0 162.278 17.1477   3
  10   3   0 143.625 14.9403   1
  10   3   0 137.802 14.4588   4
 -11  -3   0 7.05691 7.25089   3
  11   3   0 13.9195 9.00883   1
  11   3   0 18.1766 7.22162   4
 -12  -3   0 67.3302 12.6427   3
  12   3   0 83.8497 14.3301   1
  12   3   0 108.429 13.8535   4
   9  -4   0 34.5754 14.2098   1
  -9   4   0 30.8114 10.6266   3
   8  -4   0 49.9091 14.0968   1
  -8   4   0 39.7000 10.4325   3
   7  -4   0 113.672 16.8378   1
  -7   4   0 104.406 12.8468   3
  -7   4   0 115.630 9.41429   2
   6  -4   0 17.3508 9.20899   1
  -6   4   0 31.3533 5.61777   2
  -6   4   0 48.1370 9.46322   3
   5  -4   0 312.347 20.1724   1
  -5   4   0 370.006 16.0507   2
  -5   4   0 344.390 18.2883   3
   4  -4   0 973.028 33.5157   1
   4  -4   0 970.162 30.7348   2
  -4   4   0 1021.79 31.4351   3
   3  -4   0 1227.69 37.3344   1
   3  -4   0 1238.26 36.7334   2
  -3   4   0 1254.24 34.8479   3
   2  -4   0 115.572 11.4334   1
   2  -4   0 148.195 10.0213   2
  -2   4   0 133.524 9.42000   3
   1  -4   0 203.780 11.7737   2
   1  -4   0 242.556 13.9239   1
  -1   4   0 230.344 10.6436   3
   0  -4   0 216.568 7.29679   4
   0  -4   0 220.350 12.1087   2
   0  -4   0 225.438 12.8142   1
   0   4   0 227.991 9.78427   3
  -1  -4   0 764.285 18.7347   4
  -1  -4   0 773.829 24.2980   2
  -1  -4   0 780.001 21.9478   1
   1   4   0 768.144 20.7007   3
  -2  -4   0 71.2165 6.44395   4
  -2  -4   0 82.7310 7.56139   2
  -2  -4   0 83.8855 6.25385   1
  -2  -4   0 64.6411 6.54479   3
  -3  -4   0 169.010 8.09992   1
  -3  -4   0 166.163 9.60937   4
  -3  -4   0 178.720 9.70968   3
  -3  -4   0 181.590 9.20702   2
  -4  -4   0 183.083 10.1653   3
  -4  -4   0 179.529 8.79427   2
  -4  -4   0 162.564 10.9013   4
   4   4   0 185.164 8.54274   1
  -5  -4   0 1979.14 47.0302   2
  -5  -4   0 1868.26 46.3761   4
  -5  -4   0 1850.85 47.1232   3
   5   4   0 1876.09 43.2765   1
  -6  -4   0 184.291 7.17286   2
  -6  -4   0 161.397 12.3542   4
  -6  -4   0 184.792 11.9593   3
   6   4   0 171.613 10.1436   1
  -7  -4   0 602.755 24.3694   4
  -7  -4   0 594.084 22.8225   3
   7   4   0 551.569 20.5179   1
  -8  -4   0 454.107 20.8322   3
  -8  -4   0 434.546 21.8364   4
   8   4   0 435.885 18.8434   1
  -9  -4   0 485.023 22.5904   3
   9   4   0 454.889 21.2837   4
   9   4   0 443.536 20.4864   1
 -10  -4   0 133.610 14.9560   3
  10   4   0 165.790 16.1599   4
  10   4   0 150.194 14.8763   1
 -11  -4   0 112.923 14.5214   3
  11   4   0 115.674 14.4238   1
  11   4   0 139.904 15.0796   4
 -12  -4   0 -1.4055 7.09854   3
  12   4   0 8.58446 8.73283   1
  12   4   0 11.6028 6.29819   4
   9  -5   0 18.7776 14.0229   1
  -9   5   0 15.3724 9.75979   3
   8  -5   0 -1.6989 11.4364   1
  -8   5   0 9.48204 9.48674   3
   7  -5   0 9.77867 11.2904   1
  -7   5   0 5.53039 7.72369   3
  -7   5   0 26.2781 6.10776   2
   6  -5   0 -0.8035 8.39174   1
  -6   5   0 0.72358 3.50290   2
  -6   5   0 -4.2207 6.56295   3
   5  -5   0 345.962 21.7412   1
  -5   5   0 387.136 17.3558   2
  -5   5   0 363.983 19.4758   3
   4  -5   0 423.223 22.9255   1
  -4   5   0 419.730 19.6949   3
   3  -5   0 546.902 24.7690   1
   3  -5   0 595.141 22.7542   2
  -3   5   0 567.362 21.4786   3
   2  -5   0 381.281 19.0781   1
   2  -5   0 370.948 17.6594   2
  -2   5   0 379.437 16.1443   3
   1  -5   0 695.004 24.7204   2
   1  -5   0 702.916 25.3946   1
  -1   5   0 699.732 21.8653   3
   0  -5   0 514.815 20.1885   2
   0  -5   0 507.972 20.2386   1
   0  -5   0 484.881 12.4053   4
   0   5   0 499.122 16.7840   3
  -1  -5   0 1102.49 25.6200   4
  -1  -5   0 1101.31 30.4798   1
  -1  -5   0 1121.98 33.9128   2
   1   5   0 1089.15 28.4955   3
  -2  -5   0 194.850 11.2998   2
  -2  -5   0 194.184 9.96182   1
  -2  -5   0 194.695 10.4558   3
  -2  -5   0 191.697 9.58387   4
  -3  -5   0 202.984 12.5241   2
  -3  -5   0 284.213 12.6559   3
  -3  -5   0 270.028 10.9192   1
  -3  -5   0 258.877 12.4494   4
  -4  -5   0 2028.98 47.8032   4
  -4  -5   0 2010.64 44.9692   1
  -4  -5   0 1974.54 49.4621   3
  -4  -5   0 2023.44 52.2754   2
  -5  -5   0 138.981 10.2642   3
  -5  -5   0 140.583 9.29217   2
  -5  -5   0 133.025 11.0890   4
   5   5   0 139.272 8.29783   1
  -6  -5   0 263.712 13.9784   3
  -6  -5   0 276.419 10.9998   2
  -6  -5   0 288.971 15.9564   4
   6   5   0 244.769 11.8105   1
  -7  -5   0 -1.5521 2.23820   2
  -7  -5   0 1.04900 5.66696   4
  -7  -5   0 -2.8242 4.91680   3
   7   5   0 -2.6467 3.41514   1
  -8  -5   0 153.907 13.2322   3
  -8  -5   0 132.393 14.5010   4
   8   5   0 153.895 11.5855   1
  -9  -5   0 68.6533 10.9959   3
   9   5   0 55.1766 8.81394   1
   9   5   0 73.9770 10.5345   4
 -10  -5   0 136.765 15.4982   3
  10   5   0 117.388 13.6802   4
  10   5   0 147.997 14.3964   1
 -11  -5   0 18.9286 8.74437   3
  11   5   0 26.4086 8.52189   1
  11   5   0 25.4456 7.77621   4
 -12  -5   0 -1.6039 7.28057   3
  12   5   0 -0.1889 5.50117   4
  12   5   0 -0.1179 7.47393   1
   8  -6   0 98.7067 18.3911   1
  -8   6   0 75.0412 13.9487   3
   7  -6   0 114.089 18.4093   1
  -7   6   0 116.970 14.8241   3
  -7   6   0 128.588 11.3251   2
   6  -6   0 361.045 25.7200   1
  -6   6   0 422.069 22.9778   3
  -6   6   0 419.294 19.5356   2
   5  -6   0 13.5905 9.42301   1
  -5   6   0 29.2278 6.60946   2
  -5   6   0 22.1540 8.09538   3
   4  -6   0 11.9448 8.33879   1
  -4   6   0 16.8888 5.54375   2
  -4   6   0 17.0120 7.00564   3
   3  -6   0 16.9554 8.58238   1
   3  -6   0 -2.3167 5.06298   2
  -3   6   0 8.31602 6.35237   3
   2  -6   0 554.129 24.5949   1
   2  -6   0 543.624 22.9518   2
  -2   6   0 536.085 20.6627   3
   1  -6   0 158.728 12.2665   2
   1  -6   0 168.208 14.3139   1
  -1   6   0 167.711 10.5293   3
   0  -6   0 1841.61 47.2662   1
   0  -6   0 1785.79 51.2134   2
   0   6   0 1745.18 34.8406   4
   0   6   0 1758.29 44.3143   3
  -1  -6   0 40.7236 5.04421   4
  -1  -6   0 25.9121 6.48324   2
  -1  -6   0 32.4437 7.06932   1
   1   6   0 36.8364 5.28590   3
  -2  -6   0 3625.98 73.0194   4
  -2  -6   0 3569.02 91.0966   2
  -2  -6   0 3643.53 78.1523   1
   2   6   0 3536.45 79.8743   3
  -3  -6   0 74.3337 8.61484   2
  -3  -6   0 102.495 9.79127   3
  -3  -6   0 79.0622 7.62667   1
  -3  -6   0 81.4261 8.51864   4
  -4  -6   0 148.919 9.11091   1
  -4  -6   0 150.658 10.2954   2
  -4  -6   0 156.245 11.0876   4
  -4  -6   0 154.028 10.7054   3
  -5  -6   0 1.40546 5.08857   4
  -5  -6   0 -3.2195 3.99948   3
  -5  -6   0 1.21196 3.83598   2
   5   6   0 2.53337 2.88691   1
  -6  -6   0 327.343 14.0221   2
  -6  -6   0 316.168 16.3099   3
  -6  -6   0 313.721 17.3328   4
   6   6   0 326.279 13.5793   1
  -7  -6   0 992.292 33.3869   4
  -7  -6   0 950.281 31.8033   3
  -7  -6   0 996.642 27.9026   2
   7   6   0 940.292 27.9958   1
  -8  -6   0 72.6852 11.7884   4
  -8  -6   0 72.3590 11.0888   3
   8   6   0 70.6748 8.61715   1
  -9  -6   0 197.525 15.2059   3
   9   6   0 195.085 13.4748   1
   9   6   0 216.822 15.0286   4
  10   6   0 90.0774 10.9817   1
  10   6   0 90.1733 11.9515   4
 -11  -6   0 134.690 15.6295   3
  11   6   0 149.643 15.9777   4
  11   6   0 111.835 12.9755   1
 -12  -6   0 317.196 21.5187   3
  12   6   0 337.728 21.0706   4
  12   6   0 375.048 21.0965   1
   7  -7   0 171.830 22.3260   1
  -7   7   0 122.009 12.9127   2
  -7   7   0 158.469 18.0618   3
   6  -7   0 40.9620 13.1866   1
  -6   7   0 23.0408 6.37912   2
  -6   7   0 43.1960 11.2571   3
   5  -7   0 94.3814 15.2964   1
  -5   7   0 78.2263 10.3395   2
  -5   7   0 82.5076 12.2329   3
   4  -7   0 139.857 17.6050   1
  -4   7   0 139.576 11.6323   2
  -4   7   0 142.855 14.2921   3
   3  -7   0 346.561 19.2123   2
   3  -7   0 284.397 20.1649   1
  -3   7   0 351.472 17.9209   3
   2  -7   0 24.3832 9.58234   1
   2  -7   0 11.9155 6.90774   2
  -2   7   0 17.2401 6.31387   3
   1  -7   0 -3.7433 5.21354   2
   1  -7   0 7.20278 7.72990   1
  -1   7   0 -3.5092 4.30380   3
   0  -7   0 122.717 13.3222   1
   0  -7   0 92.9264 10.9877   2
   0   7   0 105.642 9.03206   3
  -1  -7   0 178.631 13.2909   2
  -1  -7   0 160.687 13.2454   1
   1   7   0 151.793 9.72829   3
   1   7   0 156.169 7.03405   4
  -2  -7   0 20.6489 6.72590   2
  -2  -7   0 17.5232 5.81587   1
  -2  -7   0 16.0625 4.74989   4
   2   7   0 23.0913 5.02369   3
  -3  -7   0 247.200 12.4945   1
  -3  -7   0 247.135 13.8266   3
  -3  -7   0 254.233 13.0612   4
  -3  -7   0 222.388 14.1107   2
  -4  -7   0 171.545 10.8296   1
  -4  -7   0 146.231 11.8215   3
  -4  -7   0 148.576 11.5971   4
  -4  -7   0 156.155 12.1032   2
  -5  -7   0 149.978 11.8949   2
  -5  -7   0 153.558 12.2849   3
  -5  -7   0 144.201 13.5873   4
  -5  -7   0 152.585 10.3546   1
  -6  -7   0 17.2816 6.18130   3
  -6  -7   0 20.4086 7.11354   4
  -6  -7   0 24.8696 6.00669   2
   6   7   0 24.1452 5.03221   1
  -7  -7   0 186.766 15.8937   4
  -7  -7   0 196.380 14.8088   3
  -7  -7   0 178.066 11.2520   2
   7   7   0 156.126 10.3839   1
  -8  -7   0 201.060 15.1778   3
  -8  -7   0 194.549 16.4134   4
   8   7   0 186.840 11.7503   1
  -9  -7   0 17.6083 7.67125   3
   9   7   0 25.3168 6.48414   1
   9   7   0 24.7222 7.35883   4
 -10  -7   0 32.3511 9.18323   3
  10   7   0 33.1252 7.66791   1
  10   7   0 28.7887 7.97895   4
 -11  -7   0 44.6953 10.7036   3
  11   7   0 51.4417 10.3959   4
  11   7   0 52.4156 9.49028   1
 -12  -7   0 -2.6435 7.16568   3
  12   7   0 10.3468 6.73718   4
  12   7   0 5.67933 6.87096   1
   6  -8   0 12.8826 12.7512   1
  -6   8   0 21.3974 10.5648   3
  -6   8   0 4.42306 5.15853   2
   5  -8   0 267.470 24.6299   1
  -5   8   0 235.766 16.2682   2
  -5   8   0 218.969 17.7057   3
   4  -8   0 20.8258 11.0278   1
  -4   8   0 7.40866 7.15712   3
  -4   8   0 6.70475 5.43473   2
   3  -8   0 669.077 30.8520   1
   3  -8   0 656.890 28.2085   2
  -3   8   0 618.575 25.1358   3
   2  -8   0 53.9795 11.3340   1
   2  -8   0 37.5183 9.19115   2
  -2   8   0 42.1106 8.57592   3
   1  -8   0 850.802 33.2822   1
   1  -8   0 895.443 33.7524   2
  -1   8   0 917.949 29.5482   3
   0  -8   0 22.4930 8.73044   1
   0  -8   0 13.7623 7.46474   2
   0   8   0 26.0390 6.30051   3
  -1  -8   0 149.531 14.6657   1
  -1  -8   0 115.186 12.8647   2
   1   8   0 133.350 9.90223   3
   1   8   0 152.577 7.69393   4
  -2  -8   0 41.0885 9.23783   2
  -2  -8   0 61.3619 9.18664   1
   2   8   0 66.0304 7.96204   3
   2   8   0 61.3327 6.27519   4
  -3  -8   0 196.268 14.8196   2
  -3  -8   0 141.178 11.1870   4
  -3  -8   0 147.843 11.4922   1
   3   8   0 179.937 11.0472   3
  -4  -8   0 1496.58 39.9167   1
  -4  -8   0 1604.23 47.8116   2
  -4  -8   0 1517.81 43.2446   3
  -4  -8   0 1646.13 41.7459   4
  -5  -8   0 468.781 18.2015   1
  -5  -8   0 471.551 21.1231   2
  -5  -8   0 447.430 20.7457   3
  -5  -8   0 430.279 20.4079   4
  -6  -8   0 263.262 16.3632   3
  -6  -8   0 251.445 15.2154   2
  -6  -8   0 283.378 17.2310   4
   6   8   0 251.779 12.8830   1
  -7  -8   0 18.9521 7.92564   4
  -7  -8   0 19.3775 6.09538   2
  -7  -8   0 10.4485 6.84114   3
   7   8   0 11.2898 4.93464   1
  -8  -8   0 148.560 14.8673   3
  -8  -8   0 114.860 14.4195   4
   8   8   0 125.865 10.2645   1
  -9  -8   0 461.395 23.4095   3
   9   8   0 462.389 22.3565   4
   9   8   0 483.062 19.6535   1
 -10  -8   0 49.4562 10.8508   3
  10   8   0 36.1245 8.63536   4
  10   8   0 41.7499 7.87462   1
 -11  -8   0 309.925 21.3153   3
  11   8   0 329.118 17.6490   1
  11   8   0 343.424 20.8599   4
 -12  -8   0 15.3600 8.92261   3
  12   8   0 12.3795 6.75570   4
   5  -9   0 7.35781 12.0166   1
  -5   9   0 9.60949 9.01149   3
  -5   9   0 8.27942 5.70201   2
   4  -9   0 2.38753 9.87637   1
  -4   9   0 10.6826 8.04347   3
  -4   9   0 5.33935 5.67923   2
   3  -9   0 241.240 21.0560   1
  -3   9   0 227.720 16.0086   2
  -3   9   0 212.215 15.9377   3
   2  -9   0 30.6895 10.6406   1
   2  -9   0 27.0251 9.41940   2
  -2   9   0 39.5524 8.87769   3
   1  -9   0 -0.5885 7.61118   1
   1  -9   0 2.83572 6.92564   2
  -1   9   0 0.77720 4.95954   3
   0  -9   0 368.858 21.1989   2
   0  -9   0 326.823 20.7000   1
   0   9   0 369.740 17.6344   3
  -1  -9   0 -2.1220 6.28579   2
  -1  -9   0 -1.2287 6.32427   1
   1   9   0 15.2406 5.55009   3
  -2  -9   0 161.947 13.8580   1
  -2  -9   0 106.996 13.2282   2
   2   9   0 156.497 11.3403   3
  -3  -9   0 119.045 11.9418   1
  -3  -9   0 118.795 12.9761   2
   3   9   0 138.757 8.87649   4
   3   9   0 104.358 9.41922   3
  -4  -9   0 134.067 12.2326   1
  -4  -9   0 109.500 12.6844   2
   4   9   0 110.568 9.64860   3
  -5  -9   0 61.1087 9.99051   4
  -5  -9   0 76.6104 10.7453   3
  -5  -9   0 72.2781 8.76706   1
  -5  -9   0 77.7610 10.3423   2
  -6  -9   0 51.3925 9.56559   3
  -6  -9   0 46.4603 8.68785   2
  -6  -9   0 49.4285 9.91286   4
   6   9   0 47.0474 7.08026   1
  -7  -9   0 0.64611 6.12866   3
  -7  -9   0 -4.7859 4.51623   2
   7   9   0 6.77280 4.21171   1
  -8  -9   0 7.18375 6.44706   3
   8   9   0 12.4589 5.83220   4
   8   9   0 15.8160 5.25164   1
  -9  -9   0 83.5003 12.2778   3
   9   9   0 58.2326 8.35722   1
   9   9   0 90.1736 12.1548   4
  10   9   0 26.5555 8.04566   4
  10   9   0 33.4744 6.94902   1
 -11  -9   0 8.39193 8.95146   3
  11   9   0 18.3764 7.94796   4
 -12  -9   0 123.027 17.1291   3
  12   9   0 167.044 18.0828   4
   4 -10   0 81.3393 15.8961   1
  -4  10   0 138.725 14.7077   2
  -4  10   0 131.733 15.5723   3
   3 -10   0 66.3434 14.1679   1
  -3  10   0 66.5670 10.9252   2
  -3  10   0 65.5182 11.5450   3
   2 -10   0 112.434 16.0124   1
  -2  10   0 141.472 15.1426   2
  -2  10   0 119.654 13.1895   3
   1 -10   0 216.126 20.5549   1
   1 -10   0 178.441 18.2594   2
  -1  10   0 203.835 14.5523   3
   0 -10   0 -5.0838 6.93935   1
   0 -10   0 -8.6760 5.81915   2
   0  10   0 9.38044 5.47616   3
  -1 -10   0 185.531 17.2722   1
  -1 -10   0 161.541 16.8598   2
   1  10   0 162.018 12.5228   3
  -2 -10   0 201.937 15.8842   1
  -2 -10   0 204.530 16.9183   2
   2  10   0 185.180 12.7233   3
  -3 -10   0 227.824 15.4527   1
  -3 -10   0 228.933 16.9107   2
   3  10   0 245.727 13.9605   3
  -4 -10   0 63.5465 10.8139   2
  -4 -10   0 76.6296 10.1416   1
   4  10   0 58.8463 8.39783   3
   4  10   0 62.8978 7.91205   4
  -5 -10   0 97.3042 12.7722   2
  -5 -10   0 133.796 12.4786   1
   5  10   0 110.440 10.9461   4
   5  10   0 108.951 10.9061   3
  -6 -10   0 204.173 15.8379   3
  -6 -10   0 221.905 13.7719   1
  -6 -10   0 229.896 16.2813   2
   6  10   0 206.184 13.4124   4
  -7 -10   0 277.804 18.1244   3
  -7 -10   0 297.962 17.8640   2
   7  10   0 293.084 16.6796   4
   7  10   0 313.846 15.3843   1
  -8 -10   0 682.854 28.9216   3
   8  10   0 677.853 24.0758   1
   8  10   0 687.672 26.8851   4
  -9 -10   0 78.9036 12.8091   3
   9  10   0 48.1192 9.18116   4
   9  10   0 63.8082 9.45030   1
 -10 -10   0 78.7391 13.3007   3
  10  10   0 50.4040 9.96988   4
 -11 -10   0 16.8855 9.49941   3
  11  10   0 29.4980 8.77753   4
   2 -11   0 14.2353 10.8581   1
  -2  11   0 17.7633 7.12981   2
  -2  11   0 18.2266 8.23923   3
   1 -11   0 37.9107 11.7181   1
  -1  11   0 31.6699 8.58850   3
   0 -11   0 309.640 22.2199   1
   0 -11   0 270.596 21.8292   2
   0  11   0 344.335 17.8893   3
  -1 -11   0 3.15013 7.72171   1
  -1 -11   0 -6.4547 6.79519   2
   1  11   0 11.1731 5.79537   3
  -2 -11   0 0.55370 7.05793   2
  -2 -11   0 11.5278 8.03127   1
   2  11   0 17.1605 6.41259   3
  -3 -11   0 -4.7581 7.16739   2
  -3 -11   0 23.9647 8.25590   1
   3  11   0 31.4233 6.94667   3
  -4 -11   0 76.7768 11.0634   1
  -4 -11   0 75.6384 12.2581   2
   4  11   0 85.3214 10.2633   3
  -5 -11   0 17.8551 6.88765   1
  -5 -11   0 14.4095 8.15188   2
   5  11   0 29.8504 6.69496   3
   5  11   0 20.0288 6.01125   4
  -6 -11   0 127.689 14.6795   2
  -6 -11   0 114.468 12.3977   1
   6  11   0 139.841 11.2736   3
   6  11   0 127.326 12.5513   4
  -7 -11   0 22.3413 8.38776   3
  -7 -11   0 17.6050 8.49704   2
   7  11   0 30.7402 6.52112   1
   7  11   0 18.3368 6.19912   4
  -8 -11   0 234.608 17.7798   3
   8  11   0 235.680 15.9761   4
  -9 -11   0 -3.3984 7.14614   3
   9  11   0 8.70934 6.35834   4
 -10 -11   0 64.1705 12.9080   3
  10  11   0 74.4432 11.7114   4
   1 -12   0 18.4546 10.7295   1
  -1  12   0 21.4507 7.81431   2
  -1  12   0 22.9698 8.08649   3
   0 -12   0 265.071 21.2998   1
   0  12   0 209.599 15.7290   3
  -1 -12   0 190.687 19.2762   1
  -1 -12   0 203.653 21.1171   2
   1  12   0 201.103 15.0958   3
  -2 -12   0 136.199 17.4112   2
  -2 -12   0 120.254 14.8968   1
   2  12   0 150.733 14.4314   3
  -3 -12   0 11.7468 8.37887   2
  -3 -12   0 15.1669 8.28665   1
   3  12   0 4.73674 5.60118   3
  -4 -12   0 140.683 14.5699   1
  -4 -12   0 139.259 16.6269   2
   4  12   0 156.728 12.6143   3
  -5 -12   0 91.3486 13.7243   2
  -5 -12   0 81.6365 11.3822   1
   5  12   0 117.357 12.2857   3
  -6 -12   0 128.097 13.6025   1
  -6 -12   0 136.477 16.1767   2
   6  12   0 136.071 12.1515   3
  -7 -12   0 38.1013 10.3869   2
   7  12   0 55.4438 9.34055   4
   7  12   0 49.5296 8.55199   3
  -8 -12   0 -2.1927 7.80962   3
   8  12   0 2.96758 5.30305   4
  -9 -12   0 61.0901 12.6243   3
   9  12   0 62.5673 10.7499   4
  -2 -13   0 20.8089 10.3974   2
  -2 -13   0 28.0487 10.2141   1
   2  13   0 21.6073 7.41820   3
  -3 -13   0 2.66050 9.34496   2
  -3 -13   0 -5.7778 6.82852   1
   3  13   0 3.33932 5.78099   3
  -4 -13   0 5.28729 7.98109   1
  -4 -13   0 -10.375 7.86828   2
   4  13   0 10.0294 5.86434   3
  -5 -13   0 116.965 13.9830   1
  -5 -13   0 91.6518 14.4791   2
   5  13   0 120.824 13.4251   3
  -6 -13   0 0.31769 8.33931   2
   6  13   0 32.4599 7.93918   3
  -7 -13   0 28.2952 11.1735   2
   7  13   0 40.8064 8.92137   3
   8  13   0 237.834 16.7328   3
   8  13   0 204.818 15.8972   4
   7  13  -1 66.6540 10.7334   3
  -7 -13   1 52.1488 11.9318   2
   6  13  -1 27.9432 7.94589   3
  -6 -13   1 13.8531 9.04851   2
   5  13  -1 35.1437 8.34433   3
  -5 -13   1 36.4011 11.0765   2
   4  13  -1 275.879 17.3112   3
  -4 -13   1 235.013 21.1941   2
   3  13  -1 14.9497 7.14948   3
  -3 -13   1 3.27148 8.78650   2
  -3 -13   1 17.4868 8.58020   1
   2  13  -1 409.747 21.5447   3
  -2 -13   1 464.908 24.9137   1
  -2 -13   1 467.092 28.7491   2
   9  12  -1 15.8834 7.04703   4
  -9 -12   1 28.7714 10.2938   3
   8  12  -1 15.7658 6.68236   4
  -8 -12   1 4.53316 8.12962   3
   7  12  -1 9.34339 5.33429   3
   7  12  -1 11.2967 6.30919   4
  -7 -12   1 3.73455 7.70848   2
   6  12  -1 47.6757 9.35851   3
  -6 -12   1 68.4120 12.1798   2
   5  12  -1 50.2604 9.11891   3
  -5 -12   1 61.6488 10.4076   1
  -5 -12   1 48.4040 11.2618   2
   4  12  -1 14.5382 6.59547   3
  -4 -12   1 19.8157 9.20409   2
  -4 -12   1 15.4741 7.74292   1
   3  12  -1 30.6570 7.98352   3
  -3 -12   1 29.6599 8.95147   1
  -3 -12   1 22.7826 9.79443   2
   2  12  -1 7.02453 5.80822   3
  -2 -12   1 6.74908 7.62436   1
  -2 -12   1 6.95344 9.19966   2
   1  12  -1 21.2581 7.50790   3
  -1 -12   1 2.25230 9.00543   2
  -1 -12   1 13.5885 8.32532   1
   0  12  -1 22.0382 7.41307   3
   0 -12   1 24.3179 11.5529   2
   0 -12   1 18.5105 9.81468   1
  -1  12  -1 9.17395 6.55290   3
  10  11  -1 103.045 13.8959   4
 -10 -11   1 82.5644 14.1400   3
   9  11  -1 129.402 14.7179   4
  -9 -11   1 86.8373 13.9373   3
   8  11  -1 9.00835 6.14291   4
  -8 -11   1 24.4191 9.45559   3
   7  11  -1 380.888 19.3522   4
  -7 -11   1 348.490 20.9632   3
  -7 -11   1 367.663 21.6190   2
   6  11  -1 15.7400 5.75925   4
  -6 -11   1 19.0877 6.68581   1
  -6 -11   1 10.9878 7.89251   3
  -6 -11   1 10.6975 7.67071   2
   5  11  -1 1055.35 31.5674   4
   5  11  -1 1028.50 33.4799   3
  -5 -11   1 1010.99 32.1993   1
  -5 -11   1 1004.10 38.3318   2
   4  11  -1 65.9788 9.47553   3
  -4 -11   1 44.2049 9.00129   1
  -4 -11   1 57.9093 11.2161   2
   3  11  -1 33.3476 7.44922   3
  -3 -11   1 32.4795 8.64999   1
  -3 -11   1 28.9246 10.0313   2
   2  11  -1 14.7372 6.26113   3
  -2 -11   1 4.18643 6.67265   1
  -2 -11   1 5.98855 8.05094   2
   1  11  -1 5.68203 5.73449   3
  -1 -11   1 2.02260 7.67287   2
  -1 -11   1 8.31277 8.17839   1
   0  11  -1 314.405 18.6450   3
   0 -11   1 363.324 23.8724   2
   0 -11   1 343.951 22.3533   1
  -1  11  -1 75.1660 11.2121   3
   1 -11   1 78.0925 13.7314   1
   1 -11   1 66.7715 13.5517   2
  -2  11  -1 81.6997 11.8755   3
   2 -11   1 69.9256 14.1021   1
  11  10  -1 4.46462 6.85659   4
 -11 -10   1 1.64463 8.36798   3
  10  10  -1 161.504 16.9092   4
 -10 -10   1 165.429 17.3833   3
   9  10  -1 10.9221 6.29524   4
  -9 -10   1 34.5590 10.4208   3
   8  10  -1 29.7451 7.87282   4
  -8 -10   1 28.6615 9.26764   3
   7  10  -1 57.3290 9.45759   4
   7  10  -1 65.9719 8.30302   1
  -7 -10   1 63.5972 11.5731   3
  -7 -10   1 68.1871 10.2622   2
   6  10  -1 11.5952 5.10315   4
   6  10  -1 17.9514 5.14523   1
  -6 -10   1 11.5595 7.76241   3
  -6 -10   1 11.3481 6.57364   2
   5  10  -1 197.891 12.4587   4
  -5 -10   1 182.368 15.2224   3
  -5 -10   1 184.735 12.6974   1
  -5 -10   1 161.523 15.7190   2
   4  10  -1 8.96876 5.06017   3
   4  10  -1 8.24272 4.18968   4
  -4 -10   1 12.1332 6.28080   1
  -4 -10   1 0.24350 5.68603   2
   3  10  -1 149.687 11.9288   3
  -3 -10   1 119.818 13.7475   2
  -3 -10   1 131.293 12.9829   1
   2  10  -1 504.368 21.0599   3
  -2 -10   1 512.176 25.7064   2
  -2 -10   1 489.111 22.6076   1
   1  10  -1 16.4066 6.27740   3
  -1 -10   1 11.0465 7.58440   1
  -1 -10   1 26.3441 8.86224   2
   0  10  -1 108.126 12.2291   3
   0 -10   1 123.786 15.6180   1
   0 -10   1 81.4967 13.1498   2
  -1  10  -1 163.025 13.4962   3
   1 -10   1 94.4512 14.4496   1
   1 -10   1 139.083 16.7073   2
  -2  10  -1 6.86550 6.45448   3
   2 -10   1 26.5946 9.58391   2
   2 -10   1 23.4500 10.3584   1
  -3  10  -1 42.6289 10.1339   3
  -3  10  -1 27.9494 8.10550   2
   3 -10   1 53.1266 13.8532   1
  -4  10  -1 21.8789 7.31451   2
  -4  10  -1 14.6409 9.00760   3
   4 -10   1 19.4409 11.4159   1
  11   9  -1 79.7502 12.5132   4
 -11  -9   1 54.2973 12.4414   3
  10   9  -1 106.395 13.7268   4
 -10  -9   1 121.701 15.3439   3
   9   9  -1 33.0016 8.42972   4
  -9  -9   1 24.6614 9.02400   3
   8   9  -1 122.176 9.69413   1
   8   9  -1 134.375 13.9372   4
  -8  -9   1 121.081 14.5788   3
   7   9  -1 311.118 14.5554   1
   7   9  -1 321.372 17.1672   4
  -7  -9   1 299.804 18.6267   3
  -7  -9   1 318.668 17.6679   2
   6   9  -1 74.8758 9.61685   4
   6   9  -1 70.7289 8.11464   1
  -6  -9   1 55.3767 9.98100   3
  -6  -9   1 75.4022 10.4237   2
   5   9  -1 106.227 10.5341   4
  -5  -9   1 94.7979 12.2957   3
  -5  -9   1 106.743 12.2055   2
  -5  -9   1 130.794 10.3760   1
   4   9  -1 72.7422 8.27633   4
   4   9  -1 77.4563 8.99064   3
  -4  -9   1 78.8829 11.0319   2
  -4  -9   1 78.0202 9.43833   1
   3   9  -1 871.755 27.8780   3
   3   9  -1 814.289 24.0007   4
  -3  -9   1 847.052 27.5953   1
  -3  -9   1 812.984 32.3560   2
   2   9  -1 446.882 19.1055   3
  -2  -9   1 423.695 20.2575   1
  -2  -9   1 438.754 22.6173   2
   1   9  -1 394.667 17.9175   3
  -1  -9   1 411.696 21.6369   2
  -1  -9   1 405.175 20.9463   1
   0   9  -1 42.3475 7.78189   3
   0  -9   1 44.8445 10.6401   2
   0  -9   1 67.4177 11.7629   1
  -1   9  -1 30.3153 7.31600   3
   1  -9   1 15.0160 7.91566   2
   1  -9   1 14.1283 9.01620   1
  -2   9  -1 12.5706 6.49781   3
   2  -9   1 1.82575 6.74202   2
   2  -9   1 20.2826 9.66451   1
  -3   9  -1 20.7188 8.40337   3
   3  -9   1 7.10032 7.84263   2
   3  -9   1 16.1979 10.2066   1
  -4   9  -1 21.1887 8.93664   3
  -4   9  -1 26.8789 7.33670   2
   4  -9   1 6.97147 10.7267   1
  -5   9  -1 154.268 15.3233   2
  -5   9  -1 136.096 16.1245   3
   5  -9   1 175.748 21.0953   1
  12   8  -1 21.4451 8.46046   4
 -12  -8   1 -4.6362 8.10104   3
  11   8  -1 -2.4101 5.57214   4
 -11  -8   1 18.2612 9.04579   3
  10   8  -1 38.9865 8.71802   4
  10   8  -1 30.6591 7.55252   1
 -10  -8   1 34.7100 9.60989   3
   9   8  -1 6.93250 5.71071   4
   9   8  -1 27.1553 6.11576   1
  -9  -8   1 15.6895 7.69245   3
   8   8  -1 9.34971 4.46123   1
   8   8  -1 13.2618 5.65834   4
  -8  -8   1 10.7877 7.13548   3
   7   8  -1 352.996 15.2215   1
   7   8  -1 357.524 18.1427   4
  -7  -8   1 368.640 17.6762   2
  -7  -8   1 350.720 19.4154   3
   6   8  -1 222.501 11.7093   1
   6   8  -1 228.874 14.2180   4
  -6  -8   1 240.308 15.0013   2
  -6  -8   1 234.086 16.2384   3
   5   8  -1 759.245 25.0319   4
  -5  -8   1 721.609 27.3668   3
  -5  -8   1 784.584 23.9350   1
  -5  -8   1 753.905 28.2227   2
   4   8  -1 32.8687 5.89577   4
  -4  -8   1 25.4216 7.87351   2
  -4  -8   1 34.8760 6.91250   1
  -4  -8   1 29.4461 7.81381   3
   3   8  -1 38.9886 5.70792   4
   3   8  -1 51.3927 7.56335   3
  -3  -8   1 44.5343 7.72252   1
  -3  -8   1 40.0709 8.74801   2
   2   8  -1 617.773 22.3395   3
   2   8  -1 651.681 18.8598   4
  -2  -8   1 686.963 24.1415   1
  -2  -8   1 650.911 26.9717   2
   1   8  -1 565.050 20.7249   3
  -1  -8   1 536.156 24.6696   2
  -1  -8   1 535.581 22.9039   1
   0   8  -1 91.1997 10.0558   3
   0  -8   1 104.896 13.0557   1
   0  -8   1 95.8997 12.6992   2
  -1   8  -1 16.4196 6.28666   3
   1  -8   1 11.2718 7.79142   1
   1  -8   1 14.1204 7.28598   2
  -2   8  -1 216.734 14.6506   3
   2  -8   1 181.441 15.3668   2
   2  -8   1 248.113 19.7197   1
  -3   8  -1 7.36925 6.65124   3
   3  -8   1 6.00367 6.86955   2
   3  -8   1 15.4889 9.37955   1
  -4   8  -1 39.2252 9.48384   3
   4  -8   1 21.1772 10.3003   1
  -5   8  -1 17.3991 8.99467   3
  -5   8  -1 37.6835 8.09133   2
   5  -8   1 29.4644 11.9673   1
  -6   8  -1 33.0830 11.0317   3
  -6   8  -1 40.7679 8.43150   2
   6  -8   1 34.7897 13.3086   1
  12   7  -1 3.81368 7.24752   4
 -12  -7   1 12.4305 8.78502   3
  11   7  -1 20.2547 8.19014   4
  11   7  -1 9.32657 6.32545   1
 -11  -7   1 15.3346 8.42959   3
  10   7  -1 592.706 26.6033   4
  10   7  -1 578.400 22.6494   1
 -10  -7   1 562.981 27.0655   3
   9   7  -1 407.788 20.7357   4
   9   7  -1 414.039 17.8837   1
  -9  -7   1 422.914 22.0287   3
   8   7  -1 959.170 28.9028   1
   8   7  -1 1005.17 33.0622   4
  -8  -7   1 1030.42 34.8279   3
   7   7  -1 -0.5318 3.85685   4
   7   7  -1 7.42708 4.03327   1
  -7  -7   1 5.46000 6.13268   3
  -7  -7   1 -0.9683 4.50877   2
   6   7  -1 138.647 9.19270   1
  -6  -7   1 179.390 13.6727   3
  -6  -7   1 174.084 11.7908   2
   5   7  -1 11.8764 3.96810   1
  -5  -7   1 5.76833 6.37687   4
  -5  -7   1 12.1462 6.18147   2
  -5  -7   1 16.1649 6.72557   3
  -4  -7   1 536.690 21.2470   4
  -4  -7   1 433.856 21.9733   2
  -4  -7   1 576.260 22.5275   3
  -4  -7   1 555.289 18.1873   1
   3   7  -1 4.58124 3.31282   4
  -3  -7   1 0.43804 4.81669   2
  -3  -7   1 3.54685 3.86234   1
  -3  -7   1 0.42644 5.25206   3
   2   7  -1 715.904 19.6916   4
   2   7  -1 698.336 22.7511   3
  -2  -7   1 763.237 23.8253   1
  -2  -7   1 636.565 26.0021   2
   1   7  -1 20.3167 3.58236   4
   1   7  -1 11.0821 4.69879   3
  -1  -7   1 7.07766 5.62700   2
  -1  -7   1 12.7075 6.38790   1
   0   7  -1 1191.29 33.7816   3
   0  -7   1 1146.44 35.9212   1
   0  -7   1 1163.41 38.9947   2
  -1   7  -1 20.1121 6.05156   3
   1  -7   1 24.9568 7.40730   2
   1  -7   1 15.9690 8.06240   1
  -2   7  -1 541.050 21.5724   3
   2  -7   1 523.854 23.8895   2
   2  -7   1 516.034 25.2645   1
  -3   7  -1 151.304 12.5352   3
   3  -7   1 144.092 16.0506   1
   3  -7   1 142.566 14.2146   2
  -4   7  -1 154.751 15.1800   3
   4  -7   1 166.103 14.5316   2
   4  -7   1 154.313 17.3595   1
  -5   7  -1 50.2574 10.5622   3
  -5   7  -1 72.3520 9.93209   2
   5  -7   1 78.1281 14.5091   1
  -6   7  -1 21.8192 9.71064   3
  -6   7  -1 27.7490 6.97400   2
   6  -7   1 29.8344 11.8859   1
  -7   7  -1 -10.955 8.24730   3
  -7   7  -1 3.28435 4.65115   2
   7  -7   1 -3.3083 11.2920   1
  12   6  -1 26.7027 9.38551   1
  12   6  -1 54.2915 11.2292   4
 -12  -6   1 39.0019 10.9090   3
  11   6  -1 3.28545 5.99236   1
  11   6  -1 6.01941 5.87509   4
 -11  -6   1 1.98472 7.34838   3
  10   6  -1 86.0751 12.4789   4
  10   6  -1 88.6605 10.7625   1
 -10  -6   1 84.6265 12.6204   3
   9   6  -1 430.911 18.7732   1
   9   6  -1 447.000 21.5476   4
  -9  -6   1 451.612 22.8166   3
   8   6  -1 10.7794 5.10781   1
   8   6  -1 10.6299 5.64882   4
  -8  -6   1 12.2820 7.13537   3
   7   6  -1 13.0760 5.23515   4
   7   6  -1 8.64863 4.26377   1
  -7  -6   1 20.9852 5.11234   2
  -7  -6   1 17.4210 7.04862   3
   6   6  -1 32.3213 5.25530   1
  -6  -6   1 35.7087 8.43881   4
  -6  -6   1 21.9069 6.75270   3
  -6  -6   1 31.3072 5.98284   2
   5   6  -1 99.7817 7.21928   1
  -5  -6   1 110.214 11.7788   4
  -5  -6   1 120.494 11.4335   3
  -5  -6   1 103.201 8.79195   2
  -4  -6   1 655.263 22.8697   2
  -4  -6   1 681.997 23.4184   4
  -4  -6   1 609.807 22.6879   3
  -4  -6   1 648.453 19.2479   1
  -3  -6   1 262.378 13.1293   4
  -3  -6   1 234.148 13.0805   3
  -3  -6   1 225.328 12.7937   2
  -3  -6   1 251.238 11.2385   1
   2   6  -1 10.1763 3.79594   3
   2   6  -1 9.54613 3.23908   4
  -2  -6   1 9.71504 5.21364   2
  -2  -6   1 9.85626 4.16247   1
   1   6  -1 718.961 22.6416   3
   1   6  -1 743.693 18.7338   4
  -1  -6   1 773.826 24.8825   1
  -1  -6   1 756.453 26.8382   2
   0   6  -1 9.43526 3.92995   3
   0   6  -1 2.97731 1.79911   4
   0  -6   1 7.95904 5.24010   1
   0  -6   1 -6.2954 5.03476   2
  -1   6  -1 492.368 18.4427   3
   1  -6   1 470.007 21.5416   1
   1  -6   1 464.934 21.0672   2
  -2   6  -1 239.939 13.9056   3
   2  -6   1 274.911 17.2950   1
   2  -6   1 279.721 15.9491   2
  -3   6  -1 71.7744 9.93540   3
   3  -6   1 96.1110 13.1313   1
   3  -6   1 85.7770 10.6623   2
  -4   6  -1 123.282 13.1779   3
   4  -6   1 163.289 17.2287   1
   4  -6   1 146.811 12.2963   2
  -5   6  -1 15.6985 5.33761   2
  -5   6  -1 20.2277 7.98904   3
   5  -6   1 10.3861 9.15959   1
  -6   6  -1 6.51312 8.07948   3
  -6   6  -1 8.08241 4.83514   2
   6  -6   1 19.6727 11.0675   1
  -7   6  -1 9.18778 5.10541   2
  -7   6  -1 27.3939 9.74940   3
   7  -6   1 5.27889 11.0915   1
  -8   6  -1 1.48938 8.88091   3
   8  -6   1 0.32431 12.6804   1
  12   5  -1 43.2339 11.0798   1
  12   5  -1 72.9732 11.9495   4
 -12  -5   1 72.0017 13.0595   3
  11   5  -1 159.220 15.5664   1
  11   5  -1 133.270 15.0265   4
 -11  -5   1 142.009 16.3002   3
  10   5  -1 10.7302 6.31774   4
  10   5  -1 2.26591 6.04865   1
 -10  -5   1 12.3607 8.02598   3
   9   5  -1 11.5822 5.91352   4
   9   5  -1 9.09392 5.75213   1
  -9  -5   1 13.2789 7.47654   3
   8   5  -1 4.27665 4.72207   4
   8   5  -1 8.46936 5.24435   1
  -8  -5   1 10.7531 6.82762   3
   7   5  -1 987.671 31.0194   4
   7   5  -1 925.118 27.4531   1
  -7  -5   1 905.728 30.8426   3
  -7  -5   1 986.869 26.6866   2
   6   5  -1 266.649 12.2953   1
  -6  -5   1 283.855 16.4914   4
  -6  -5   1 265.470 14.6118   3
  -6  -5   1 301.902 12.1334   2
   5   5  -1 3593.94 76.4141   1
  -5  -5   1 3713.93 80.9123   4
  -5  -5   1 3612.04 84.5943   3
  -5  -5   1 3752.08 89.3189   2
   4   5  -1 15.6428 3.50367   1
  -4  -5   1 14.4457 4.48812   2
  -4  -5   1 16.9794 5.31761   3
  -4  -5   1 17.2492 5.94217   4
  -3  -5   1 1989.61 46.1467   4
  -3  -5   1 1991.47 43.6346   1
  -3  -5   1 1963.49 52.4689   2
  -2  -5   1 51.0795 6.38352   4
  -2  -5   1 37.9131 6.71098   2
  -2  -5   1 47.2483 5.86490   1
  -2  -5   1 54.3116 7.60258   3
   1   5  -1 11.4424 3.46377   3
   1   5  -1 9.50692 2.58366   4
  -1  -5   1 18.2940 5.14876   1
  -1  -5   1 2.55385 4.57960   2
   0   5  -1 4.35976 3.54873   3
   0   5  -1 9.60384 2.23662   4
   0  -5   1 12.5073 5.74236   1
   0  -5   1 4.56271 4.86768   2
  -1   5  -1 45.7908 6.46157   3
   1  -5   1 49.1825 8.06961   1
   1  -5   1 38.1013 7.49157   2
  -2   5  -1 1945.02 48.9494   3
   2  -5   1 1889.73 51.0379   1
   2  -5   1 1963.05 54.3092   2
  -3   5  -1 546.184 20.8104   3
   3  -5   1 546.842 21.9437   2
   3  -5   1 500.570 23.1391   1
  -4   5  -1 50.6225 9.09381   3
   4  -5   1 34.7991 7.23704   2
   4  -5   1 35.9003 9.44119   1
  -5   5  -1 161.659 14.1958   3
   5  -5   1 148.491 16.2876   1
  -6   5  -1 18.5252 5.38307   2
  -6   5  -1 25.3247 8.78455   3
   6  -5   1 21.1074 10.3508   1
  -7   5  -1 695.898 29.7688   3
  -7   5  -1 678.169 25.7514   2
   7  -5   1 659.825 33.1714   1
  -8   5  -1 21.5608 10.3525   3
   8  -5   1 22.1729 12.7108   1
  -9   5  -1 55.4628 13.2850   3
   9  -5   1 29.9673 15.2063   1
  12   4  -1 25.7734 8.82254   4
  12   4  -1 36.9389 11.1269   1
 -12  -4   1 46.7051 11.4490   3
  11   4  -1 32.6275 8.93724   4
  11   4  -1 37.0080 9.78333   1
 -11  -4   1 22.5531 9.44098   3
  10   4  -1 41.9548 9.14647   4
  10   4  -1 37.5081 9.14059   1
 -10  -4   1 27.8705 9.36703   3
   9   4  -1 4.14251 5.10932   4
   9   4  -1 7.91343 6.01379   1
  -9  -4   1 0.70310 6.08066   3
   8   4  -1 828.371 27.5953   1
   8   4  -1 877.820 29.7857   4
  -8  -4   1 879.998 30.9805   3
   7   4  -1 215.975 13.5942   4
   7   4  -1 204.069 12.2895   1
  -7  -4   1 214.760 8.05597   2
  -7  -4   1 175.586 13.4918   3
   6   4  -1 3.94928 3.48065   1
  -6  -4   1 4.54502 2.83759   2
  -6  -4   1 1.25156 4.66281   3
  -6  -4   1 5.95165 5.38181   4
   5   4  -1 1303.81 31.7593   1
  -5  -4   1 1326.72 34.4436   2
  -5  -4   1 1274.99 35.5399   3
  -5  -4   1 1303.44 36.4925   4
   4   4  -1 210.266 8.72555   1
  -4  -4   1 197.568 11.3304   3
  -4  -4   1 210.285 10.0114   2
  -4  -4   1 224.336 12.7815   4
  -3  -4   1 131.377 8.55245   2
  -3  -4   1 139.307 10.1538   4
  -3  -4   1 121.197 9.09937   3
  -3  -4   1 131.116 6.94729   1
  -2  -4   1 185.212 8.21511   1
  -2  -4   1 181.398 9.61965   4
  -2  -4   1 181.158 10.2160   2
  -2  -4   1 175.956 9.98053   3
   1   4  -1 666.827 19.2220   3
  -1  -4   1 675.135 22.5413   2
  -1  -4   1 699.240 19.8993   1
   0   4  -1 -0.8644 2.85077   3
   0   4  -1 4.46917 1.84819   4
   0  -4   1 -0.3506 4.08113   2
   0  -4   1 12.8726 5.35682   1
  -1   4  -1 1.03163 3.48554   3
   1  -4   1 0.00956 3.92587   2
   1  -4   1 7.96101 5.44423   1
  -2   4  -1 790.777 24.0376   3
   2  -4   1 746.537 25.6929   2
   2  -4   1 790.924 26.6142   1
  -3   4  -1 65.9537 8.08795   3
   3  -4   1 55.3452 7.59948   2
   3  -4   1 56.0362 9.99300   1
  -4   4  -1 14.8517 6.27064   3
   4  -4   1 17.7455 5.41955   2
   4  -4   1 10.7223 7.00029   1
  -5   4  -1 -0.8971 5.34797   3
   5  -4   1 1.17489 3.97771   2
   5  -4   1 4.98054 7.23890   1
  -6   4  -1 42.6107 9.54542   3
  -6   4  -1 47.4923 6.82579   2
   6  -4   1 40.6927 11.0700   1
  -7   4  -1 21.7372 5.22081   2
  -7   4  -1 23.5087 8.65068   3
   7  -4   1 19.4190 10.2760   1
  -8   4  -1 4.35010 8.40413   3
   8  -4   1 6.74688 9.77670   1
  -9   4  -1 2.24990 8.72312   3
   9  -4   1 21.1541 13.5054   1
  12   3  -1 177.582 17.8090   4
  12   3  -1 172.594 19.3275   1
 -12  -3   1 127.337 16.3022   3
  11   3  -1 22.5958 7.82367   4
  11   3  -1 9.27671 8.34259   1
 -11  -3   1 2.58344 7.70591   3
  10   3  -1 249.920 17.6171   1
  10   3  -1 269.048 17.3958   4
 -10  -3   1 236.489 17.1347   3
   9   3  -1 9.19741 6.82924   1
   9   3  -1 10.5291 5.86822   4
  -9  -3   1 5.94784 7.07668   3
   8   3  -1 552.714 22.6243   1
   8   3  -1 595.540 23.7938   4
  -8  -3   1 571.459 24.1120   3
   7   3  -1 170.002 11.8872   4
   7   3  -1 146.922 11.4605   1
  -7  -3   1 178.975 13.0694   3
   6   3  -1 136.020 9.90899   1
   6   3  -1 136.725 10.2869   4
  -6  -3   1 144.753 10.7854   3
  -6  -3   1 151.020 6.47094   2
   5   3  -1 562.951 18.0057   1
  -5  -3   1 561.580 20.0336   3
  -5  -3   1 566.114 21.1788   4
  -5  -3   1 557.164 16.2148   2
   4   3  -1 171.267 8.52015   1
  -4  -3   1 176.040 9.89276   3
  -4  -3   1 176.036 11.3596   4
  -4  -3   1 172.787 7.84355   2
   3   3  -1 1866.24 39.7486   1
  -3  -3   1 1895.24 44.4851   3
  -3  -3   1 1890.46 46.9000   2
  -3  -3   1 1875.41 43.0428   4
  -2  -3   1 13.5069 3.64484   2
  -2  -3   1 19.9368 4.09277   3
  -2  -3   1 17.4290 2.81355   1
  -2  -3   1 19.3852 4.43200   4
  -1  -3   1 6229.95 129.050   3
  -1  -3   1 6033.35 143.653   2
  -1  -3   1 6174.29 120.607   1
  -1  -3   1 6191.01 115.360   4
   0   3  -1 1912.93 43.1288   3
   0   3  -1 1854.66 36.7433   4
   0  -3   1 1941.36 43.0313   1
  -1   3  -1 38.3539 5.52360   3
   1  -3   1 28.6347 5.38612   2
   1  -3   1 30.1908 6.49335   1
  -2   3  -1 78.8752 7.79788   3
   2  -3   1 62.9650 8.52278   1
   2  -3   1 61.4466 6.90911   2
  -3   3  -1 968.857 28.1855   3
   3  -3   1 950.714 29.6865   1
   3  -3   1 984.621 28.8917   2
  -4   3  -1 1075.40 32.3327   3
   4  -3   1 1071.46 33.7353   1
   4  -3   1 1065.47 32.0438   2
   4  -3   1 1152.12 24.0291   4
  -5   3  -1 238.090 14.9437   3
   5  -3   1 221.674 16.3558   1
   5  -3   1 248.657 9.20095   4
  -6   3  -1 966.985 29.0905   2
  -6   3  -1 910.460 31.9763   3
   6  -3   1 923.794 34.4694   1
   6  -3   1 958.964 24.0158   4
  -7   3  -1 103.904 12.4101   3
  -7   3  -1 120.448 8.72304   2
   7  -3   1 118.271 15.8240   1
  -8   3  -1 84.9986 12.4867   3
   8  -3   1 79.7787 14.7540   1
  -9   3  -1 87.9296 13.6588   3
   9  -3   1 104.362 17.7365   1
 -10   3  -1 64.5978 12.9793   3
  10  -3   1 78.0858 17.2628   1
  12   2  -1 47.6166 10.2428   4
  12   2  -1 18.1651 10.8838   1
 -12  -2   1 19.3729 9.98968   3
  11   2  -1 94.2703 14.6163   1
  11   2  -1 130.036 15.1415   4
 -11  -2   1 103.354 15.1239   3
  10   2  -1 -4.0028 7.00026   1
  10   2  -1 6.93586 5.68731   4
 -10  -2   1 4.55140 6.83351   3
   9   2  -1 -2.1230 4.24463   4
   9   2  -1 -0.1776 6.89307   1
  -9  -2   1 2.92212 6.59870   3
   8   2  -1 887.946 30.0774   1
   8   2  -1 830.649 28.6738   4
  -8  -2   1 829.579 29.9926   3
   7   2  -1 7.78698 6.15817   1
   7   2  -1 12.0151 4.86936   4
  -7  -2   1 7.74280 6.08591   3
   6   2  -1 41.0351 7.20364   1
   6   2  -1 57.8201 7.57977   4
  -6  -2   1 62.6247 8.54032   3
  -6  -2   1 54.3708 4.25122   2
   5   2  -1 2513.43 56.1047   4
   5   2  -1 2478.08 56.3084   1
  -5  -2   1 2544.66 59.3680   2
  -5  -2   1 2511.78 60.2022   3
   4   2  -1 311.737 12.1791   1
  -4  -2   1 333.003 10.5829   2
  -4  -2   1 300.690 14.2120   4
  -4  -2   1 311.975 13.7191   3
   3   2  -1 333.194 10.8562   1
  -3  -2   1 351.191 12.7252   3
  -3  -2   1 343.480 11.0605   2
  -3  -2   1 340.275 13.9017   4
   2   2  -1 1758.28 36.3815   1
  -2  -2   1 1805.60 43.5640   2
  -2  -2   1 1818.36 40.8364   3
  -2  -2   1 1758.58 38.5812   4
  -1  -2   1 355.004 9.35243   1
  -1  -2   1 350.121 11.5207   3
  -1  -2   1 342.572 11.6420   2
   0   2  -1 247.243 6.81288   4
   0   2  -1 250.423 8.34006   3
   0  -2   1 246.229 9.50059   1
   0  -2   1 237.147 9.62075   2
  -1   2  -1 69.7797 5.52275   3
   1  -2   1 63.5090 6.43748   1
   1  -2   1 70.6232 5.93211   2
  -2   2  -1 222.585 10.5042   3
   2  -2   1 269.114 10.8006   2
   2  -2   1 234.507 12.0034   1
  -3   2  -1 28.8060 5.82508   3
   3  -2   1 22.3184 6.48431   1
   3  -2   1 18.9615 2.81021   4
   3  -2   1 14.4677 4.13516   2
  -4   2  -1 38.1220 6.81053   3
   4  -2   1 32.6847 3.99534   4
   4  -2   1 35.2032 5.07060   2
   4  -2   1 38.1846 8.08933   1
  -5   2  -1 6.96466 5.37395   3
  -5   2  -1 6.14347 2.75162   2
   5  -2   1 8.30071 6.37179   1
   5  -2   1 2.74725 2.55630   4
  -6   2  -1 189.809 13.8317   3
  -6   2  -1 204.963 10.0166   2
   6  -2   1 192.105 9.94121   4
   6  -2   1 205.425 16.4647   1
  -7   2  -1 313.340 18.4785   3
  -7   2  -1 314.215 13.1582   2
   7  -2   1 330.851 13.8691   4
   7  -2   1 300.941 20.2602   1
  -8   2  -1 99.6660 13.1920   3
   8  -2   1 87.2160 14.6636   1
  -9   2  -1 138.947 16.1088   3
   9  -2   1 140.368 17.6371   1
 -10   2  -1 312.437 22.4711   3
  10  -2   1 325.077 25.6719   1
 -11   2  -1 -7.3363 8.45299   3
  11  -2   1 -10.745 10.3795   1
  12   1  -1 6.74363 10.8392   1
  11   1  -1 111.420 13.2836   4
  11   1  -1 152.797 19.0401   1
 -11  -1   1 139.992 16.8639   3
  10   1  -1 138.808 17.0256   1
  10   1  -1 113.266 13.1705   4
 -10  -1   1 98.3196 13.9799   3
   9   1  -1 63.9727 11.9947   1
   9   1  -1 76.3164 10.2972   4
  -9  -1   1 78.6852 12.0290   3
   8   1  -1 1276.09 38.8272   1
   8   1  -1 1256.06 36.4947   4
  -8  -1   1 1189.76 38.2804   3
   7   1  -1 164.951 13.8887   1
   7   1  -1 155.864 11.2183   4
  -7  -1   1 105.706 11.4525   3
  -7  -1   1 135.142 6.61173   2
   6   1  -1 856.618 25.9739   4
   6   1  -1 812.484 26.4152   1
  -6  -1   1 818.642 27.1396   3
  -6  -1   1 838.895 21.9453   2
   5   1  -1 809.315 24.9575   1
   5   1  -1 816.399 24.0187   4
  -5  -1   1 867.418 26.0742   3
  -5  -1   1 816.730 21.4517   2
   4   1  -1 312.599 12.6462   4
   4   1  -1 312.072 12.9386   1
  -4  -1   1 332.228 13.7175   3
  -4  -1   1 312.897 9.81123   2
   3   1  -1 362.538 12.3715   4
   3   1  -1 343.621 11.8775   1
  -3  -1   1 365.506 12.9965   3
  -3  -1   1 361.306 10.4396   2
   2   1  -1 1404.12 29.7658   1
   2   1  -1 1349.09 30.0870   4
  -2  -1   1 1426.25 32.4621   3
  -2  -1   1 1408.31 33.5789   2
   1   1  -1 612.089 12.8001   1
   1   1  -1 609.910 14.3733   4
  -1  -1   1 624.049 16.0683   2
   0   1  -1 217.932 5.82410   4
   0  -1   1 225.091 6.54939   1
   0  -1   1 230.341 6.35773   4
  -1   1  -1 2211.57 41.8221   4
  -1   1  -1 2312.60 48.8500   3
   1  -1   1 2352.04 42.3393   4
   1  -1   1 2277.81 47.1434   1
   1  -1   1 2252.63 54.1788   2
  -2   1  -1 3623.09 64.1612   4
  -2   1  -1 3603.04 73.1512   3
   2  -1   1 3514.41 70.6022   1
   2  -1   1 2918.26 80.2691   2
  -3   1  -1 2047.64 41.0754   4
  -3   1  -1 2038.23 47.1012   3
   3  -1   1 2036.08 48.9122   2
   3  -1   1 1899.40 45.7407   1
  -4   1  -1 1070.60 29.7324   3
  -4   1  -1 1047.46 25.5823   4
   4  -1   1 1084.65 28.2506   2
   4  -1   1 995.995 29.8631   1
  -5   1  -1 173.524 11.6352   3
  -5   1  -1 185.292 8.02960   2
   5  -1   1 171.591 12.6429   1
  -6   1  -1 12.1834 6.57154   3
  -6   1  -1 27.1193 3.63781   2
   6  -1   1 22.7331 7.68639   1
   6  -1   1 23.5042 4.59465   4
  -7   1  -1 63.6001 5.84102   2
  -7   1  -1 64.5769 10.1844   3
   7  -1   1 65.2570 11.5728   1
   7  -1   1 51.8232 7.14350   4
  -8   1  -1 233.307 16.5403   3
   8  -1   1 236.427 13.2327   4
   8  -1   1 239.435 19.4546   1
  -9   1  -1 146.060 16.1311   3
   9  -1   1 102.112 15.4630   1
   9  -1   1 141.969 10.9353   4
 -10   1  -1 164.240 17.8088   3
  10  -1   1 219.611 22.6391   1
 -11   1  -1 102.489 14.9770   3
  11  -1   1 95.7402 18.1031   1
  11   0  -1 -3.3936 9.67358   1
 -11   0   1 6.47825 8.20586   3
  10   0  -1 16.0669 10.1417   1
  10   0  -1 5.63088 4.99048   4
 -10   0   1 2.75409 7.90481   3
   9   0  -1 34.8166 7.76540   4
   9   0  -1 34.0646 10.5570   1
  -9   0   1 42.3777 9.74963   3
   8   0  -1 401.967 21.6942   1
   8   0  -1 370.096 17.6053   4
  -8   0   1 373.664 19.9736   3
   7   0  -1 143.026 14.3799   1
   7   0  -1 118.350 9.78936   4
  -7   0   1 118.632 6.73567   2
  -7   0   1 124.446 12.6789   3
   6   0  -1 41.4153 6.34697   4
   6   0  -1 46.2166 8.50017   1
  -6   0   1 45.7404 4.46569   2
  -6   0   1 31.5585 6.60023   3
   5   0  -1 653.331 20.2810   4
   5   0  -1 640.898 22.5603   1
  -5   0   1 666.878 18.5614   2
  -5   0   1 651.087 22.3963   3
   4   0  -1 321.235 12.4491   4
   4   0  -1 338.471 14.4873   1
  -4   0   1 353.584 10.9674   2
  -4   0   1 327.797 14.2186   3
   3   0  -1 180.124 10.1547   1
   3   0  -1 188.451 8.55125   4
  -3   0   1 205.397 10.1922   3
  -3   0   1 183.312 7.14741   2
   2   0  -1 69.7730 7.80404   1
   2   0  -1 71.5697 5.71127   4
  -2   0   1 94.2303 6.28159   3
  -2   0   1 90.8780 4.37517   2
   1   0  -1 1263.96 26.2475   1
   1   0  -1 1216.55 25.6215   4
  -1   0   1 1270.82 27.5794   3
  -1   0   1 1274.32 29.8014   2
   0   0  -1 0.38386 0.49441   4
   0   0  -1 0.12460 0.17703   1
   0   0  -1 -0.0383 0.13834   3
   0   0  -1 0.19721 0.13482   2
   0   0   1 0.38655 0.29105   3
   0   0   1 0.33896 0.15408   1
   0   0   1 -0.2612 0.43364   2
   0   0   1 0.28290 0.10520   4
  -1   0  -1 160.706 5.09253   3
  -1   0  -1 160.070 4.57465   4
  -1   0  -1 160.953 4.86987   2
   1   0   1 155.877 5.34800   1
   1   0   1 162.529 4.84675   2
  -2   0  -1 3.22786 2.44132   4
  -2   0  -1 8.67173 3.45993   3
   2   0   1 4.85254 2.01129   2
  -3   0  -1 3758.66 71.9552   4
  -3   0  -1 3703.88 79.6745   3
   3   0   1 3578.60 76.4729   1
   3   0   1 3723.61 86.3597   2
  -4   0  -1 61.4700 6.36638   4
  -4   0  -1 63.4500 7.17229   3
  -4   0  -1 50.1204 3.30692   2
   4   0   1 52.4723 7.01840   1
  -5   0  -1 338.688 15.1694   3
  -5   0  -1 348.433 10.5842   2
  -5   0  -1 358.460 14.1903   4
   5   0   1 334.551 15.9221   1
  -6   0  -1 2054.01 46.9737   2
  -6   0  -1 1912.49 46.0393   4
  -6   0  -1 1854.16 49.2315   3
   6   0   1 1901.90 49.5077   1
  -7   0  -1 36.3444 8.25121   3
  -7   0  -1 60.9331 4.33051   2
   7   0   1 73.1655 8.60017   4
   7   0   1 55.9900 10.1845   1
  -8   0  -1 10.6093 6.82591   3
   8   0   1 -0.4398 6.89223   1
   8   0   1 6.47015 4.19220   4
  -9   0  -1 30.1901 7.98767   3
   9   0   1 19.0710 5.96492   4
   9   0   1 33.9444 10.8530   1
 -10   0  -1 24.9109 8.90614   3
  10   0   1 39.7781 11.7085   1
  10   0   1 27.5020 7.07584   4
 -11   0  -1 32.9522 10.2643   3
  11   0   1 66.6401 14.5350   1
  11  -1  -1 166.833 21.2041   1
 -11   1   1 148.899 18.0856   3
  10  -1  -1 11.0060 10.8224   1
 -10   1   1 1.51099 7.32539   3
   9  -1  -1 243.317 22.6026   1
   9  -1  -1 244.359 14.3899   4
  -9   1   1 202.228 17.1064   3
   8  -1  -1 34.6087 10.9197   1
   8  -1  -1 45.2514 7.33819   4
  -8   1   1 26.6977 7.94412   3
   7  -1  -1 172.857 17.2478   1
   7  -1  -1 149.541 10.8327   4
  -7   1   1 159.261 12.6147   3
  -7   1   1 159.453 8.54386   2
   6  -1  -1 117.874 8.74290   4
   6  -1  -1 140.594 14.3939   1
  -6   1   1 120.322 7.38033   2
  -6   1   1 135.455 11.0592   3
   5  -1  -1 2477.39 60.6865   1
   5  -1  -1 2460.41 54.3954   4
  -5   1   1 2512.49 61.4912   3
  -5   1   1 2686.84 62.4835   2
   4  -1  -1 1570.86 41.5208   1
   4  -1  -1 1622.52 37.0560   4
  -4   1   1 1706.03 41.8219   2
  -4   1   1 1692.87 42.0560   3
   3  -1  -1 1529.74 33.3599   4
   3  -1  -1 1521.82 37.7818   1
  -3   1   1 1529.39 37.4250   3
  -3   1   1 1550.23 38.3434   2
   2  -1  -1 1294.06 31.1051   1
   2  -1  -1 1312.36 27.2289   4
  -2   1   1 1232.39 31.5811   2
  -2   1   1 1209.74 30.0685   3
   1  -1  -1 113.108 7.23993   1
   1  -1  -1 112.107 4.56132   4
  -1   1   1 106.641 4.95056   2
  -1   1   1 104.173 5.40484   3
   0  -1  -1 336.960 7.43314   4
   0  -1  -1 327.884 7.77003   3
   0   1   1 323.059 7.72999   3
   0   1   1 326.097 9.23244   2
  -1  -1  -1 2353.28 49.8225   3
   1   1   1 2383.29 54.9151   2
  -2  -1  -1 620.593 15.8443   3
  -2  -1  -1 599.213 14.9951   4
   2   1   1 615.397 15.2759   1
  -3  -1  -1 84.4028 6.63694   4
  -3  -1  -1 88.0248 6.71112   3
   3   1   1 83.3480 6.32535   1
  -4  -1  -1 968.448 25.2410   4
  -4  -1  -1 990.315 26.7176   3
   4   1   1 966.753 26.3906   1
  -5  -1  -1 1846.53 45.2236   3
  -5  -1  -1 1797.76 42.4691   4
   5   1   1 1787.65 44.1807   1
  -6  -1  -1 196.099 12.7550   3
  -6  -1  -1 220.320 12.5518   4
   6   1   1 224.173 13.5641   1
  -7  -1  -1 560.851 21.9198   4
  -7  -1  -1 585.073 22.7587   3
   7   1   1 591.728 23.7238   1
  -8  -1  -1 53.0939 10.1703   3
   8   1   1 39.6688 7.16575   4
   8   1   1 53.5267 10.4401   1
  -9  -1  -1 498.947 23.0718   3
   9   1   1 536.571 25.4062   1
   9   1   1 552.982 22.2275   4
 -10  -1  -1 122.391 14.5423   3
  10   1   1 133.942 13.5623   4
  10   1   1 122.822 16.1572   1
 -11  -1  -1 102.735 14.1559   3
  11   1   1 85.7621 15.0843   1
  11   1   1 119.613 13.0662   4
 -12  -1  -1 -3.2740 7.52987   3
  12   1   1 0.81168 9.44415   1
  10  -2  -1 7.56187 10.8037   1
 -10   2   1 -5.6677 7.57178   3
   9  -2  -1 95.1011 15.7965   1
  -9   2   1 107.818 14.8511   3
   8  -2  -1 112.536 11.0643   4
   8  -2  -1 78.5015 13.7781   1
  -8   2   1 84.1085 12.0209   3
   7  -2  -1 95.0713 13.6008   1
   7  -2  -1 114.403 9.15632   4
  -7   2   1 116.953 8.19897   2
  -7   2   1 102.164 12.4290   3
   6  -2  -1 342.130 19.5897   1
   6  -2  -1 345.673 13.9605   4
  -6   2   1 325.875 17.3426   3
  -6   2   1 365.434 14.2778   2
   5  -2  -1 217.580 10.2029   4
   5  -2  -1 213.742 14.8988   1
  -5   2   1 219.404 10.3524   2
  -5   2   1 245.291 13.6950   3
   4  -2  -1 139.094 7.43297   4
   4  -2  -1 118.907 11.5319   1
  -4   2   1 153.130 8.14844   2
  -4   2   1 148.523 10.5052   3
   3  -2  -1 1256.57 27.9412   4
   3  -2  -1 1242.30 34.4835   1
  -3   2   1 1271.92 33.8085   2
  -3   2   1 1277.66 33.2374   3
   2  -2  -1 3.56169 1.99226   4
   2  -2  -1 6.26237 5.08241   1
  -2   2   1 3.39033 4.00229   3
  -2   2   1 6.70581 2.60435   2
   1  -2  -1 436.850 9.94718   4
   1  -2  -1 444.561 14.3522   2
   1  -2  -1 441.407 15.7394   1
  -1   2   1 425.239 12.7577   3
   0  -2  -1 407.915 9.35151   4
   0  -2  -1 390.616 13.3132   1
   0  -2  -1 413.280 13.1140   2
   0   2   1 423.933 11.0815   3
  -1  -2  -1 97.6399 4.86645   3
  -1  -2  -1 93.4791 5.41470   1
  -1  -2  -1 97.6954 4.66657   4
  -1  -2  -1 96.0981 5.38769   2
  -2  -2  -1 30.7345 3.43445   1
  -2  -2  -1 27.6995 3.77461   4
  -2  -2  -1 29.8559 3.44970   3
  -2  -2  -1 31.8706 3.01212   2
  -3  -2  -1 2676.80 55.3782   4
  -3  -2  -1 2720.49 62.0174   2
  -3  -2  -1 2704.39 59.3457   3
   3   2   1 2717.21 56.1867   1
  -4  -2  -1 1102.53 28.7417   4
  -4  -2  -1 1161.90 29.8589   3
   4   2   1 1130.12 28.4917   1
  -5  -2  -1 258.146 12.6731   3
  -5  -2  -1 239.206 12.4011   4
   5   2   1 232.961 11.7710   1
  -6  -2  -1 592.193 21.3297   3
  -6  -2  -1 594.656 21.3755   4
   6   2   1 617.021 21.3161   1
  -7  -2  -1 297.755 15.8150   3
  -7  -2  -1 326.068 16.5064   4
   7   2   1 305.424 16.0583   1
  -8  -2  -1 6.72567 5.89522   4
  -8  -2  -1 3.52111 6.00026   3
   8   2   1 10.8068 6.86827   1
  -9  -2  -1 40.5929 9.00967   3
   9   2   1 44.3265 10.5642   1
   9   2   1 36.5960 7.53838   4
 -10  -2  -1 17.9791 8.12459   3
  10   2   1 42.6681 8.65763   4
  10   2   1 22.0835 9.19709   1
 -11  -2  -1 3.39883 7.22833   3
  11   2   1 6.45313 5.72606   4
  11   2   1 20.5408 9.49732   1
 -12  -2  -1 6.71832 8.30164   3
  12   2   1 -7.6971 8.80280   1
  12   2   1 5.46440 5.68626   4
  10  -3  -1 65.2341 16.6952   1
 -10   3   1 77.5183 14.5181   3
   9  -3  -1 0.13312 10.9809   1
  -9   3   1 10.5934 8.71789   3
   8  -3  -1 207.345 21.5986   1
  -8   3   1 184.144 16.3354   3
   7  -3  -1 93.4490 13.8287   1
  -7   3   1 99.9682 8.48415   2
  -7   3   1 82.4560 11.6085   3
   6  -3  -1 808.169 32.1321   1
   6  -3  -1 860.865 23.1229   4
  -6   3   1 807.939 29.5597   3
  -6   3   1 887.286 27.3603   2
   5  -3  -1 195.880 8.96663   4
   5  -3  -1 173.398 15.1893   1
  -5   3   1 208.735 10.8782   2
  -5   3   1 194.939 13.5999   3
   4  -3  -1 4.81168 6.28418   1
   4  -3  -1 8.69214 2.73099   4
  -4   3   1 1.57407 4.38119   3
  -4   3   1 6.68571 3.24338   2
   3  -3  -1 214.504 14.2573   1
   3  -3  -1 208.901 7.40455   4
  -3   3   1 213.725 10.4772   2
  -3   3   1 213.641 11.6673   3
   2  -3  -1 1707.30 43.8315   1
   2  -3  -1 1700.55 45.0465   2
   2  -3  -1 1672.82 33.0101   4
  -2   3   1 1706.55 41.1507   3
   1  -3  -1 3552.08 87.8678   2
   1  -3  -1 3666.07 78.9379   1
   1  -3  -1 3697.28 66.8438   4
  -1   3   1 3642.06 78.1398   3
   0  -3  -1 161.051 10.1569   1
   0  -3  -1 155.878 5.28200   4
   0  -3  -1 142.400 8.53112   2
   0   3   1 152.260 6.95480   3
  -1  -3  -1 308.208 11.7085   2
  -1  -3  -1 310.477 10.4485   3
  -1  -3  -1 310.553 11.5595   1
  -1  -3  -1 313.718 9.29141   4
  -2  -3  -1 264.408 9.58399   4
  -2  -3  -1 273.252 9.74003   1
  -2  -3  -1 238.285 9.92242   2
  -2  -3  -1 270.698 9.55903   3
  -3  -3  -1 223.445 9.68455   3
  -3  -3  -1 226.678 10.2433   4
  -3  -3  -1 229.911 8.63135   2
   3   3   1 226.359 8.90947   1
  -4  -3  -1 1530.03 37.6027   3
  -4  -3  -1 1528.34 36.7771   4
  -4  -3  -1 1520.71 36.7639   2
   4   3   1 1541.27 35.6759   1
  -5  -3  -1 244.249 12.9466   4
  -5  -3  -1 239.818 11.9823   3
   5   3   1 241.690 11.4867   1
  -6  -3  -1 3712.37 84.5356   3
  -6  -3  -1 3665.37 80.0467   4
   6   3   1 3716.43 80.4838   1
  -7  -3  -1 78.2069 9.72310   3
  -7  -3  -1 70.0694 9.88643   4
   7   3   1 78.0826 9.79818   1
  -8  -3  -1 795.207 28.9250   4
  -8  -3  -1 779.094 28.2326   3
   8   3   1 826.879 27.9069   1
  -9  -3  -1 17.0358 6.54840   3
   9   3   1 7.16297 6.70190   1
 -10  -3  -1 42.3690 9.27299   3
  10   3   1 55.0836 9.14444   4
  10   3   1 36.9692 9.73071   1
 -11  -3  -1 134.844 15.7756   3
  11   3   1 170.440 18.1202   1
  11   3   1 161.375 15.8886   4
 -12  -3  -1 57.3459 12.0915   3
  12   3   1 61.4915 10.9801   4
  12   3   1 50.6774 12.0832   1
   9  -4  -1 -4.8107 11.2230   1
  -9   4   1 6.40707 8.75382   3
   8  -4  -1 150.384 19.9718   1
  -8   4   1 106.463 14.0283   3
   7  -4  -1 27.4863 10.9519   1
  -7   4   1 31.1947 6.05297   2
  -7   4   1 19.8200 8.55647   3
   6  -4  -1 63.8745 11.9037   1
  -6   4   1 83.6987 11.2045   3
  -6   4   1 77.7074 8.73585   2
   5  -4  -1 134.636 15.1417   1
  -5   4   1 121.799 9.76564   2
  -5   4   1 116.093 12.1094   3
   4  -4  -1 431.616 11.5651   4
   4  -4  -1 424.471 21.8403   1
  -4   4   1 448.880 17.8236   2
  -4   4   1 449.287 19.2221   3
   3  -4  -1 309.835 8.17499   4
   3  -4  -1 311.720 17.7572   1
  -3   4   1 298.363 14.5481   3
  -3   4   1 337.944 14.4603   2
   2  -4  -1 208.473 14.4764   1
   2  -4  -1 164.996 11.0822   2
  -2   4   1 185.020 10.4077   3
   1  -4  -1 279.864 13.2753   2
   1  -4  -1 295.833 15.6352   1
  -1   4   1 262.861 11.3295   3
   0  -4  -1 885.595 27.2482   1
   0  -4  -1 954.224 19.6627   4
   0  -4  -1 925.914 28.2321   2
   0   4   1 915.981 23.9966   3
  -1  -4  -1 305.428 9.78247   4
  -1  -4  -1 315.447 13.3012   1
  -1  -4  -1 293.986 12.9783   2
   1   4   1 291.762 10.3193   3
  -2  -4  -1 69.6624 6.73478   2
  -2  -4  -1 74.7826 6.20425   4
  -2  -4  -1 74.4445 6.47468   1
  -2  -4  -1 70.7214 6.28844   3
  -3  -4  -1 11.4661 4.20106   2
  -3  -4  -1 10.3814 4.29927   4
  -3  -4  -1 16.0565 3.87872   1
  -3  -4  -1 17.8817 4.13649   3
  -4  -4  -1 270.602 10.5430   2
  -4  -4  -1 266.566 11.7555   3
  -4  -4  -1 288.530 13.0042   4
   4   4   1 237.518 10.3852   1
  -5  -4  -1 48.1258 6.72283   3
  -5  -4  -1 35.8429 6.70528   4
  -5  -4  -1 46.1092 4.35254   2
   5   4   1 42.4073 5.75286   1
  -6  -4  -1 308.350 15.6483   4
  -6  -4  -1 288.387 13.9405   3
   6   4   1 306.339 13.3804   1
  -7  -4  -1 691.562 24.4279   3
  -7  -4  -1 628.218 24.6562   4
   7   4   1 624.344 21.9059   1
  -8  -4  -1 115.847 13.0846   4
  -8  -4  -1 111.107 12.1199   3
   8   4   1 104.731 11.2300   1
  -9  -4  -1 8.24501 6.47742   4
  -9  -4  -1 6.25978 6.46089   3
   9   4   1 7.37141 6.06827   1
 -10  -4  -1 409.501 22.0695   3
  10   4   1 464.739 21.9327   4
  10   4   1 455.323 21.9955   1
 -11  -4  -1 51.6707 10.7132   3
  11   4   1 47.7833 10.9433   1
  11   4   1 56.8410 10.1604   4
 -12  -4  -1 78.7838 13.3632   3
  12   4   1 73.2482 11.7364   4
  12   4   1 71.5557 13.0170   1
  -9   5   1 192.151 19.9733   3
   8  -5  -1 118.332 18.8732   1
  -8   5   1 116.499 15.1878   3
   7  -5  -1 19.9044 11.1136   1
  -7   5   1 18.1094 8.69203   3
  -7   5   1 10.0226 4.65262   2
   6  -5  -1 201.026 19.6978   1
  -6   5   1 173.956 15.4774   3
  -6   5   1 183.581 12.2560   2
   5  -5  -1 1.53828 7.34736   1
  -5   5   1 1.14675 3.73812   2
  -5   5   1 10.0851 6.98715   3
   4  -5  -1 835.958 32.7383   1
  -4   5   1 843.127 28.8404   2
  -4   5   1 865.450 29.1325   3
   3  -5  -1 18.8220 8.22324   1
  -3   5   1 13.4263 6.11077   3
  -3   5   1 17.7468 4.78877   2
   2  -5  -1 343.772 18.9068   1
   2  -5  -1 314.320 16.2350   2
  -2   5   1 320.628 14.4015   3
   1  -5  -1 119.791 10.1234   2
   1  -5  -1 140.905 14.1116   1
  -1   5   1 108.277 8.10765   3
   0  -5  -1 40.5741 7.80057   1
   0  -5  -1 33.4587 6.28254   2
   0  -5  -1 29.7788 3.38457   4
   0   5   1 20.6703 4.25002   3
  -1  -5  -1 2373.20 46.7065   4
  -1  -5  -1 2279.50 53.9409   1
  -1  -5  -1 2309.17 60.3453   2
   1   5   1 2245.90 52.0051   3
  -2  -5  -1 18.9252 4.84404   1
  -2  -5  -1 11.7376 4.16228   4
  -2  -5  -1 19.4088 4.54881   3
  -2  -5  -1 8.43405 5.15712   2
  -3  -5  -1 2716.59 58.3219   1
  -3  -5  -1 2759.34 67.5691   2
  -3  -5  -1 2577.42 56.3769   4
  -3  -5  -1 2584.81 60.9545   3
  -4  -5  -1 367.759 15.0248   3
  -4  -5  -1 380.231 14.8920   2
  -4  -5  -1 357.387 15.6689   4
  -4  -5  -1 379.896 14.1778   1
  -5  -5  -1 892.606 26.9759   3
  -5  -5  -1 904.897 25.6668   2
  -5  -5  -1 901.336 27.6081   4
   5   5   1 888.093 24.6809   1
  -6  -5  -1 92.7071 10.4382   4
  -6  -5  -1 100.608 6.30309   2
  -6  -5  -1 94.3815 9.58698   3
   6   5   1 89.5255 7.78990   1
  -7  -5  -1 223.126 13.9575   3
  -7  -5  -1 272.143 16.0321   4
   7   5   1 243.482 7.85849   2
   7   5   1 232.068 12.4112   1
  -8  -5  -1 102.466 12.7296   4
  -8  -5  -1 126.398 13.1150   3
   8   5   1 107.951 11.1993   1
  -9  -5  -1 406.041 21.9100   4
  -9  -5  -1 413.201 20.5113   3
   9   5   1 416.112 19.0633   1
 -10  -5  -1 706.318 28.4251   3
  10   5   1 695.285 27.4776   4
  10   5   1 685.695 26.8795   1
 -11  -5  -1 94.3342 13.1949   3
  11   5   1 109.390 13.2235   4
  11   5   1 116.361 13.7936   1
 -12  -5  -1 -0.8468 7.13519   3
  12   5   1 8.16137 6.31654   4
  12   5   1 9.70114 8.10847   1
   8  -6  -1 2.80250 11.1479   1
  -8   6   1 -1.8322 9.08031   3
   7  -6  -1 10.7573 11.0516   1
  -7   6   1 13.2811 5.68569   2
  -7   6   1 14.9812 9.02360   3
   6  -6  -1 41.9835 12.3569   1
  -6   6   1 38.6260 7.27978   2
  -6   6   1 47.7584 10.9202   3
   5  -6  -1 113.141 15.6487   1
  -5   6   1 147.736 11.7646   2
  -5   6   1 155.400 14.9784   3
   4  -6  -1 9.80515 8.68031   1
  -4   6   1 19.6859 5.57240   2
  -4   6   1 27.6378 8.08611   3
   3  -6  -1 241.444 18.4814   1
  -3   6   1 286.840 15.7355   3
  -3   6   1 289.533 15.4114   2
   2  -6  -1 35.3736 8.06376   2
   2  -6  -1 49.2207 10.3119   1
  -2   6   1 61.7587 8.19996   3
   1  -6  -1 656.264 26.2098   1
   1  -6  -1 622.337 24.5577   2
  -1   6   1 632.255 21.2587   3
   0  -6  -1 464.402 20.5732   2
   0  -6  -1 484.563 12.5085   4
   0  -6  -1 488.497 21.3785   1
   0   6   1 490.892 17.1220   3
  -1  -6  -1 10.8953 5.53369   1
  -1  -6  -1 4.72797 4.59548   2
  -1  -6  -1 0.65357 2.79617   4
   1   6   1 1.00505 2.99942   3
  -2  -6  -1 647.068 19.2238   4
  -2  -6  -1 671.577 22.3660   1
  -2  -6  -1 665.515 23.9587   2
   2   6   1 684.534 20.2956   3
  -3  -6  -1 603.390 22.0388   2
  -3  -6  -1 587.750 19.1815   4
  -3  -6  -1 618.956 20.7843   3
  -3  -6  -1 602.854 19.5784   1
  -4  -6  -1 227.975 12.4106   3
  -4  -6  -1 215.734 11.8262   2
  -4  -6  -1 228.710 12.3159   4
  -4  -6  -1 209.415 11.2419   1
  -5  -6  -1 563.591 19.4073   2
  -5  -6  -1 522.526 19.7425   3
  -5  -6  -1 543.224 20.9261   4
   5   6   1 524.054 17.8979   1
  -6  -6  -1 280.118 14.8691   3
  -6  -6  -1 300.036 16.2573   4
  -6  -6  -1 293.742 12.8116   2
   6   6   1 305.228 13.4035   1
  -7  -6  -1 657.958 24.4770   3
  -7  -6  -1 617.726 25.2320   4
  -7  -6  -1 645.423 19.5036   2
   7   6   1 628.255 21.6369   1
  -8  -6  -1 746.493 27.6780   3
  -8  -6  -1 779.641 30.1203   4
   8   6   1 767.442 25.6486   1
  -9  -6  -1 1.17170 6.12571   3
  -9  -6  -1 17.6198 7.75334   4
   9   6   1 4.54396 5.14623   1
 -10  -6  -1 41.1535 9.90008   3
  10   6   1 54.7185 9.37533   1
 -11  -6  -1 -3.4591 6.91650   3
  11   6   1 -5.3170 4.11979   4
  11   6   1 8.15383 6.39292   1
 -12  -6  -1 -1.2744 7.27087   3
  12   6   1 13.5383 6.75142   4
  12   6   1 -1.7476 6.44611   1
   7  -7  -1 102.338 18.8372   1
  -7   7   1 95.6572 14.6739   3
  -7   7   1 77.8917 10.4492   2
   6  -7  -1 6.93053 11.0393   1
  -6   7   1 14.0659 5.77591   2
  -6   7   1 10.3127 9.44163   3
   5  -7  -1 260.318 22.3575   1
  -5   7   1 246.007 17.8499   3
  -5   7   1 244.459 15.5723   2
   4  -7  -1 175.566 19.5212   1
  -4   7   1 221.307 16.3050   3
  -4   7   1 205.123 14.1718   2
   3  -7  -1 163.597 18.2060   1
  -3   7   1 125.617 13.1700   3
  -3   7   1 127.135 11.0903   2
   2  -7  -1 413.564 21.1577   2
   2  -7  -1 435.849 23.8148   1
  -2   7   1 451.109 19.3387   3
   1  -7  -1 87.6924 12.4488   1
   1  -7  -1 94.1172 11.2657   2
  -1   7   1 107.438 10.4035   3
   0  -7  -1 3.76700 6.51808   1
   0  -7  -1 13.1259 6.13387   2
   0   7   1 9.20648 4.44286   3
  -1  -7  -1 145.888 7.94947   4
  -1  -7  -1 143.643 12.2061   2
  -1  -7  -1 129.342 12.8817   1
   1   7   1 138.562 8.82877   3
  -2  -7  -1 260.540 15.1313   2
  -2  -7  -1 248.149 11.2289   4
  -2  -7  -1 224.171 14.0107   1
   2   7   1 241.217 11.5443   3
  -3  -7  -1 1080.59 28.6367   4
  -3  -7  -1 1067.04 31.0729   3
  -3  -7  -1 1018.58 30.0154   1
  -3  -7  -1 1015.62 33.5010   2
  -4  -7  -1 9.70243 4.93134   4
  -4  -7  -1 10.4927 4.65349   1
  -4  -7  -1 7.95107 4.85087   2
  -4  -7  -1 5.99090 4.95727   3
  -5  -7  -1 123.660 12.2490   4
  -5  -7  -1 126.681 10.5471   1
  -5  -7  -1 131.926 12.1223   3
  -5  -7  -1 123.496 11.1394   2
  -6  -7  -1 176.574 13.4650   4
  -6  -7  -1 186.569 11.5852   2
  -6  -7  -1 190.949 12.9842   3
   6   7   1 194.653 11.1793   1
  -7  -7  -1 1411.40 42.2389   4
  -7  -7  -1 1464.80 39.3691   2
  -7  -7  -1 1432.64 41.3950   3
   7   7   1 1340.25 37.0500   1
  -8  -7  -1 264.259 16.2598   3
  -8  -7  -1 285.444 18.8510   4
   8   7   1 290.974 14.9246   1
  -9  -7  -1 77.9966 11.0843   3
  -9  -7  -1 93.1791 13.2610   4
   9   7   1 74.6033 9.57152   1
 -10  -7  -1 88.9807 12.8721   3
 -10  -7  -1 82.1971 13.3960   4
  10   7   1 70.5848 10.0360   1
 -11  -7  -1 83.1810 13.3288   3
  11   7   1 99.4516 11.9577   1
  11   7   1 89.4675 12.5050   4
 -12  -7  -1 11.8358 8.93733   3
  12   7   1 13.4042 7.62002   1
  12   7   1 22.8212 7.88426   4
   6  -8  -1 -6.5227 11.3474   1
  -6   8   1 1.03663 8.27344   3
  -6   8   1 2.36421 4.95708   2
   5  -8  -1 137.756 19.7854   1
  -5   8   1 131.556 13.7835   2
  -5   8   1 113.357 14.7033   3
   4  -8  -1 46.4246 12.8830   1
  -4   8   1 36.4824 9.70424   3
  -4   8   1 34.5554 7.98347   2
   3  -8  -1 5.01821 9.20941   1
  -3   8   1 3.00487 4.69830   2
  -3   8   1 -0.1629 5.96143   3
   2  -8  -1 9.51123 6.57884   2
   2  -8  -1 22.2643 9.74012   1
  -2   8   1 21.1567 6.58618   3
   1  -8  -1 206.547 15.9184   2
   1  -8  -1 213.319 18.3559   1
  -1   8   1 231.490 13.5633   3
   0  -8  -1 436.786 23.4141   1
   0  -8  -1 432.710 22.1894   2
   0   8   1 447.268 18.0991   3
  -1  -8  -1 352.596 19.5365   1
  -1  -8  -1 306.196 18.3766   2
   1   8   1 333.714 14.9317   3
  -2  -8  -1 38.4274 9.31039   2
  -2  -8  -1 44.8795 8.34826   1
  -2  -8  -1 45.3348 7.06250   4
   2   8   1 52.7234 6.93060   3
  -3  -8  -1 885.928 32.2551   2
  -3  -8  -1 919.568 26.6834   4
  -3  -8  -1 930.146 28.7808   1
   3   8   1 915.466 27.1145   3
  -4  -8  -1 72.2195 10.1173   2
  -4  -8  -1 94.7131 10.1419   4
  -4  -8  -1 75.2675 9.04163   1
  -4  -8  -1 85.2346 10.0774   3
  -5  -8  -1 86.3324 10.5487   2
  -5  -8  -1 91.9606 10.8422   3
  -5  -8  -1 91.4197 9.93675   1
  -5  -8  -1 77.0644 10.2003   4
  -6  -8  -1 94.5298 11.3207   3
  -6  -8  -1 77.6918 9.97187   2
  -6  -8  -1 61.4368 10.2247   4
   6   8   1 84.3411 9.07245   1
  -7  -8  -1 237.260 15.6499   3
  -7  -8  -1 223.556 13.3235   2
  -7  -8  -1 226.365 16.8611   4
   7   8   1 225.645 12.9243   1
  -8  -8  -1 10.2242 7.58781   4
  -8  -8  -1 16.6732 7.23386   3
   8   8   1 20.1160 5.44632   1
  -9  -8  -1 40.0217 9.28855   3
  -9  -8  -1 58.1307 11.8247   4
   9   8   1 44.1908 7.68358   1
 -10  -8  -1 121.575 14.6796   3
  10   8   1 121.473 13.5142   4
  10   8   1 121.779 12.3605   1
 -11  -8  -1 45.0791 10.9762   3
  11   8   1 47.7656 9.96083   4
  11   8   1 37.5193 8.40075   1
 -12  -8  -1 3.44176 7.82850   3
  12   8   1 7.18892 6.60598   1
  12   8   1 13.3123 6.84356   4
   5  -9  -1 2.98268 11.3920   1
  -5   9   1 2.90898 7.79184   3
  -5   9   1 7.28480 5.98101   2
   4  -9  -1 35.5466 12.8686   1
  -4   9   1 33.4875 8.22160   2
  -4   9   1 53.1722 10.6760   3
   3  -9  -1 11.4456 10.4751   1
  -3   9   1 11.8247 6.21986   2
  -3   9   1 13.6644 7.12525   3
   2  -9  -1 89.6871 14.3018   1
  -2   9   1 88.9152 11.3642   2
  -2   9   1 62.4232 9.72814   3
   1  -9  -1 229.756 17.6527   2
   1  -9  -1 218.736 21.2343   1
  -1   9   1 229.353 14.3515   3
   0  -9  -1 835.730 32.9129   1
   0  -9  -1 818.981 33.3867   2
   0   9   1 855.428 28.0382   3
  -1  -9  -1 319.103 19.2858   1
  -1  -9  -1 283.289 18.6218   2
   1   9   1 306.168 15.3565   3
  -2  -9  -1 39.5547 9.25654   1
  -2  -9  -1 27.6205 8.19086   2
   2   9   1 28.9389 6.27367   3
  -3  -9  -1 24.4579 6.39986   4
  -3  -9  -1 27.2782 7.46040   1
  -3  -9  -1 23.2653 7.80367   2
   3   9   1 21.2146 5.40990   3
  -4  -9  -1 198.685 13.7771   4
  -4  -9  -1 243.090 14.6421   1
  -4  -9  -1 198.234 15.7688   2
   4   9   1 230.772 12.5553   3
  -5  -9  -1 1.97050 5.29156   1
  -5  -9  -1 10.5742 6.43651   2
  -5  -9  -1 4.05068 6.01545   3
  -5  -9  -1 0.14949 5.86569   4
  -6  -9  -1 953.146 33.2532   2
  -6  -9  -1 940.639 29.2908   1
  -6  -9  -1 966.088 32.4313   4
  -6  -9  -1 917.804 31.7913   3
  -7  -9  -1 78.9237 12.0157   4
  -7  -9  -1 78.1143 11.1749   3
  -7  -9  -1 95.6843 10.8815   2
   7   9   1 87.4437 9.76510   1
  -8  -9  -1 492.982 24.9037   4
  -8  -9  -1 424.170 21.9322   3
   8   9   1 483.404 19.6604   1
  -9  -9  -1 -4.5244 6.85916   4
  -9  -9  -1 10.0687 7.30407   3
   9   9   1 10.3573 5.41114   1
 -10  -9  -1 484.351 24.6834   3
  10   9   1 502.514 21.4468   1
  10   9   1 506.895 24.2220   4
 -11  -9  -1 123.042 16.0752   3
  11   9   1 161.195 16.5979   4
  11   9   1 130.718 13.1395   1
 -12  -9  -1 61.6030 12.6737   3
  12   9   1 36.9886 9.54213   4
   4 -10  -1 14.6195 11.5226   1
  -4  10   1 -1.7130 7.85956   3
  -4  10   1 14.4284 6.67129   2
  -3  10   1 16.8245 7.04423   2
  -3  10   1 28.2553 8.97538   3
   2 -10  -1 18.0409 10.6298   1
  -2  10   1 9.64017 6.19213   2
  -2  10   1 25.0033 8.03305   3
   1 -10  -1 52.4134 12.6689   1
  -1  10   1 56.2316 9.40620   3
  -1  10   1 67.3170 10.8397   2
   0 -10  -1 10.2918 8.39795   2
   0 -10  -1 7.15212 8.18680   1
   0  10   1 8.84968 5.61549   3
  -1 -10  -1 21.5374 8.38697   2
  -1 -10  -1 9.07491 7.85771   1
  -2 -10  -1 31.5374 9.04640   2
  -2 -10  -1 27.4387 8.66026   1
   2  10   1 33.5463 6.66693   3
  -3 -10  -1 12.0381 6.99531   1
  -3 -10  -1 10.9657 6.95931   2
   3  10   1 13.2001 5.46029   3
  -4 -10  -1 77.7859 11.8196   2
  -4 -10  -1 113.131 12.3332   1
  -4 -10  -1 112.139 11.4548   4
   4  10   1 113.715 9.82653   3
  -5 -10  -1 59.7991 10.5051   2
  -5 -10  -1 71.0163 11.0492   4
  -5 -10  -1 76.5217 10.1785   1
   5  10   1 82.1491 9.51606   3
  -6 -10  -1 15.3716 7.34135   2
  -6 -10  -1 19.8794 6.69017   1
  -6 -10  -1 10.0204 7.42921   4
  -6 -10  -1 29.0574 7.77993   3
  -7 -10  -1 67.8245 11.1961   3
  -7 -10  -1 63.9907 11.5226   4
  -7 -10  -1 75.8517 10.8374   2
   7  10   1 62.4304 8.47838   1
  -8 -10  -1 18.7629 8.52124   3
  -8 -10  -1 20.6052 8.94061   4
   8  10   1 16.7460 5.62331   1
  -9 -10  -1 -0.1031 6.91412   3
   9  10   1 15.3379 5.62377   1
   9  10   1 21.3468 6.96988   4
 -10 -10  -1 112.440 14.6335   3
  10  10   1 110.875 12.0893   1
  10  10   1 92.8397 12.8422   4
 -11 -10  -1 112.832 14.9988   3
  11  10   1 74.6149 12.2365   4
   2 -11  -1 102.887 17.2583   1
  -2  11   1 96.6906 12.7461   3
  -2  11   1 105.943 13.5109   2
   1 -11  -1 1.30251 9.56201   1
  -1  11   1 9.12408 6.53591   3
  -1  11   1 8.39538 5.61995   2
   0 -11  -1 13.5330 8.58633   1
   0  11   1 12.6476 6.32490   3
   0  11   1 8.26841 6.15655   2
  -1 -11  -1 43.1956 11.4292   1
  -1 -11  -1 35.8056 10.9749   2
   1  11   1 61.8538 9.26114   3
  -2 -11  -1 0.08114 7.37930   2
  -2 -11  -1 10.4708 7.58712   1
   2  11   1 8.65304 5.34282   3
  -3 -11  -1 1457.78 44.1764   1
  -3 -11  -1 1454.43 49.3708   2
   3  11   1 1433.25 41.0575   3
  -4 -11  -1 56.4745 11.3487   2
  -4 -11  -1 47.2285 9.52066   1
   4  11   1 68.1935 9.10317   3
  -5 -11  -1 379.958 22.5174   2
  -5 -11  -1 448.083 21.1068   1
   5  11   1 399.163 17.8430   4
   5  11   1 422.119 18.7529   3
  -6 -11  -1 28.1539 7.95639   1
  -6 -11  -1 17.3948 7.96978   2
   6  11   1 12.5889 5.16665   4
   6  11   1 19.8164 6.01339   3
  -7 -11  -1 54.3029 10.0663   3
  -7 -11  -1 53.8491 10.6678   2
   7  11   1 44.4115 7.94002   1
   7  11   1 51.2027 8.80846   4
  -8 -11  -1 135.409 15.1879   3
   8  11   1 115.854 13.2257   4
   8  11   1 114.485 11.7983   1
  -9 -11  -1 7.02395 7.54797   3
   9  11   1 3.70236 5.53577   4
   9  11   1 20.2135 6.29631   1
 -10 -11  -1 109.733 14.6083   3
  10  11   1 107.017 13.7586   4
 -11 -11  -1 48.6533 11.4865   3
  11  11   1 41.1195 9.67272   4
   1 -12  -1 1.43834 9.00973   1
  -1  12   1 16.6192 7.29420   2
  -1  12   1 5.43670 6.70179   3
   0 -12  -1 40.7241 12.1612   1
   0  12   1 25.1611 7.85573   3
   0  12   1 39.3962 9.70660   2
  -1 -12  -1 15.9135 9.51760   1
   1  12   1 21.5265 7.05729   3
   1  12   1 4.15106 5.38810   2
  -2 -12  -1 26.1190 9.83668   1
  -2 -12  -1 21.2743 9.65808   2
   2  12   1 30.1680 7.28357   3
  -3 -12  -1 82.1181 12.8553   1
  -3 -12  -1 70.9323 13.3226   2
   3  12   1 102.454 11.4696   3
  -4 -12  -1 51.1079 10.4569   1
  -4 -12  -1 27.4257 9.96104   2
   4  12   1 41.6099 7.80517   3
  -5 -12  -1 26.8644 9.05435   1
  -5 -12  -1 30.8859 10.1628   2
   5  12   1 39.8218 7.86535   3
  -6 -12  -1 129.096 13.9161   1
  -6 -12  -1 131.752 15.9212   2
   6  12   1 121.075 12.3270   3
  -7 -12  -1 20.3640 8.97885   2
   7  12   1 15.7078 6.17479   3
   7  12   1 16.9262 6.01512   4
   7  12   1 26.4579 6.97619   1
  -8 -12  -1 12.0756 8.49500   3
   8  12   1 8.20688 5.97576   4
  -9 -12  -1 102.935 14.0699   3
   9  12   1 114.402 13.7254   4
 -10 -12  -1 101.006 14.2538   3
  10  12   1 89.7064 12.8239   4
  -2 -13  -1 51.5333 12.3624   1
   2  13   1 74.0505 10.8270   3
   2  13   1 49.2555 10.2277   2
  -3 -13  -1 7.97465 8.12213   1
   3  13   1 7.23353 5.98620   2
   3  13   1 13.3620 6.45238   3
  -4 -13  -1 17.4598 8.89031   1
   4  13   1 5.82683 5.47536   3
  -5 -13  -1 239.160 20.2369   2
  -5 -13  -1 307.376 19.8511   1
   5  13   1 255.007 16.1050   3
  -6 -13  -1 29.6985 9.35318   1
   6  13   1 17.8716 6.50775   3
   7  13   1 303.865 18.1904   2
   7  13   1 321.963 17.9446   3
   8  13   1 78.3847 10.9508   4
   8  13   1 62.7034 10.2523   3
   7  13  -2 85.3489 12.2367   3
  -7 -13   2 83.0219 13.9394   2
   6  13  -2 26.9674 8.10393   3
  -6 -13   2 12.4740 9.26430   2
   5  13  -2 28.1784 7.83182   3
  -5 -13   2 16.1504 9.35549   2
   4  13  -2 19.7648 7.21580   3
  -4 -13   2 4.36036 9.59033   2
   3  13  -2 51.6565 9.68495   3
  -3 -13   2 53.0416 12.8672   2
   2  13  -2 18.9025 7.42132   3
   9  12  -2 29.0427 8.54274   4
  -9 -12   2 27.6524 10.6551   3
   8  12  -2 77.4986 11.6144   4
  -8 -12   2 46.6670 11.2978   3
   7  12  -2 292.408 17.5363   4
  -7 -12   2 252.739 20.0614   2
   6  12  -2 93.0215 11.9271   3
  -6 -12   2 120.103 15.1936   2
   5  12  -2 41.6907 8.85216   3
  -5 -12   2 35.8536 9.87336   2
   4  12  -2 23.5282 7.72479   3
  -4 -12   2 21.2013 9.30446   2
   3  12  -2 266.992 16.9367   3
  -3 -12   2 235.078 20.3175   2
   2  12  -2 67.8153 11.1661   3
  -2 -12   2 89.5655 14.6279   2
  -2 -12   2 77.5431 11.9318   1
   1  12  -2 90.2321 11.6534   3
  -1 -12   2 99.3454 13.8983   1
  -1 -12   2 81.7376 14.3025   2
   0  12  -2 1.49143 5.99063   3
   0 -12   2 -0.0190 8.84859   2
   0 -12   2 0.99043 8.12343   1
  10  11  -2 21.0041 7.75608   4
 -10 -11   2 -4.5180 8.79402   3
   9  11  -2 38.0418 9.21371   4
  -9 -11   2 45.1483 11.3227   3
   8  11  -2 199.302 15.9041   4
  -8 -11   2 196.451 18.9901   3
   7  11  -2 44.7045 8.63407   4
  -7 -11   2 33.8939 9.91982   3
  -7 -11   2 57.9934 10.5281   2
   6  11  -2 63.4575 9.57453   4
  -6 -11   2 83.8219 12.4082   2
  -6 -11   2 83.2220 12.7793   3
   5  11  -2 31.0616 6.63439   4
   5  11  -2 42.9869 8.44260   3
  -5 -11   2 36.7404 7.81155   1
  -5 -11   2 20.8940 8.73935   2
   4  11  -2 38.6567 8.05964   3
  -4 -11   2 24.7840 8.59013   2
  -4 -11   2 28.7452 7.67700   1
   3  11  -2 4.52674 5.70987   3
  -3 -11   2 13.3098 6.98195   1
  -3 -11   2 16.9824 8.41822   2
   2  11  -2 195.881 14.5153   3
  -2 -11   2 169.957 14.9848   1
  -2 -11   2 208.014 17.7112   2
   1  11  -2 49.5214 9.27152   3
  -1 -11   2 36.8606 11.0304   2
  -1 -11   2 22.9172 9.13104   1
   0  11  -2 21.6955 7.64931   3
   0 -11   2 29.2202 9.62873   1
   0 -11   2 16.7133 8.85210   2
  -1  11  -2 108.988 13.3054   3
   1 -11   2 82.7044 13.7304   1
   1 -11   2 110.807 15.9444   2
  -2  11  -2 26.2846 8.75999   3
   2 -11   2 25.3703 10.7106   2
   2 -11   2 16.1185 10.7328   1
  11  10  -2 88.8831 13.3708   4
 -11 -10   2 81.5356 14.5360   3
  10  10  -2 430.507 23.7420   4
 -10 -10   2 424.445 25.7737   3
   9  10  -2 215.925 16.4830   4
  -9 -10   2 217.204 18.9217   3
   8  10  -2 96.3792 12.5420   4
  -8 -10   2 106.831 14.4099   3
  -7 -10   2 43.2158 10.5098   3
  -7 -10   2 55.7654 10.0005   2
   6  10  -2 -3.5801 4.35795   4
   6  10  -2 0.57085 3.91107   1
  -6 -10   2 1.41742 7.33292   3
  -6 -10   2 8.17025 6.44032   2
   5  10  -2 82.0687 10.0039   4
  -5 -10   2 87.4187 12.3191   3
  -5 -10   2 95.2293 12.4139   2
  -5 -10   2 98.8110 9.91691   1
   4  10  -2 172.129 12.5447   3
   4  10  -2 217.793 12.3561   4
  -4 -10   2 175.149 12.8853   1
  -4 -10   2 185.368 16.0778   2
   3  10  -2 385.655 18.0590   3
  -3 -10   2 382.051 18.6727   1
  -3 -10   2 338.484 21.0393   2
   2  10  -2 60.9078 9.08399   3
  -2 -10   2 54.5899 11.3059   2
  -2 -10   2 47.7678 9.07350   1
   1  10  -2 92.0105 11.2527   3
  -1 -10   2 91.3394 13.1190   2
  -1 -10   2 89.6193 12.5388   1
   0  10  -2 219.746 14.8974   3
   0 -10   2 244.778 18.5676   1
   0 -10   2 209.917 18.2141   2
  -1  10  -2 24.6122 7.31017   3
   1 -10   2 9.90853 8.68668   1
   1 -10   2 6.64834 7.88499   2
  -2  10  -2 241.549 16.9806   3
   2 -10   2 240.579 20.1588   1
   2 -10   2 273.937 20.0797   2
  -3  10  -2 30.3812 9.02271   3
   3 -10   2 63.7154 13.5917   1
   3 -10   2 30.7092 10.2565   2
  -4  10  -2 162.415 16.7661   3
  -4  10  -2 162.949 14.3335   2
   4 -10   2 130.326 18.1460   1
  11   9  -2 86.8548 13.2881   4
 -11  -9   2 86.3413 14.6325   3
  10   9  -2 160.509 16.9296   4
 -10  -9   2 174.888 18.4656   3
   9   9  -2 30.6638 8.45386   4
  -9  -9   2 33.0608 9.89532   3
   8   9  -2 3.89616 5.41447   4
  -8  -9   2 9.55445 7.76837   3
   7   9  -2 26.1796 5.52696   1
   7   9  -2 24.8563 7.20453   4
  -7  -9   2 23.8905 8.45597   3
  -7  -9   2 19.1739 7.15003   2
   6   9  -2 112.933 8.66224   1
   6   9  -2 111.073 11.5160   4
  -6  -9   2 97.0243 12.5739   3
  -6  -9   2 108.023 12.1650   2
   5   9  -2 -3.7660 3.25096   4
  -5  -9   2 0.49207 5.54437   2
  -5  -9   2 1.50112 6.68674   3
  -5  -9   2 1.74566 4.32729   1
   4   9  -2 2.82558 4.14345   3
   4   9  -2 14.5050 4.88032   4
  -4  -9   2 9.54195 5.47222   1
  -4  -9   2 9.50671 6.34763   2
   3   9  -2 7.39082 3.95467   4
   3   9  -2 4.82893 4.58039   3
  -3  -9   2 6.27341 6.27222   2
  -3  -9   2 4.53040 5.03638   1
   2   9  -2 7.93940 5.17797   3
  -2  -9   2 7.26193 5.83290   1
  -2  -9   2 5.48915 6.49176   2
   1   9  -2 206.887 13.3674   3
  -1  -9   2 193.424 16.1376   2
  -1  -9   2 192.949 14.6265   1
   0   9  -2 206.389 13.8289   3
   0  -9   2 199.019 16.2130   2
   0  -9   2 202.811 16.5903   1
  -1   9  -2 56.6345 9.14519   3
   1  -9   2 61.5976 11.7073   1
   1  -9   2 65.2897 11.0723   2
  -2   9  -2 185.441 14.6036   3
   2  -9   2 202.065 19.0482   1
   2  -9   2 184.086 16.1618   2
  -3   9  -2 110.939 12.8405   3
   3  -9   2 93.5078 14.7392   1
   3  -9   2 92.4988 13.8271   2
  -4   9  -2 59.4665 11.2996   3
   4  -9   2 36.5875 10.2841   2
   4  -9   2 60.5200 13.8520   1
  -5   9  -2 47.2903 8.93080   2
  -5   9  -2 57.4558 12.1317   3
   5  -9   2 47.8128 13.7794   1
  12   8  -2 21.9361 8.85891   4
 -12  -8   2 17.4663 10.1973   3
  11   8  -2 82.7222 12.9252   4
 -11  -8   2 83.2944 14.1865   3
  10   8  -2 37.5151 9.42901   4
 -10  -8   2 49.4640 11.5622   3
   9   8  -2 10.0277 6.06509   4
  -9  -8   2 6.24445 7.64878   3
   8   8  -2 459.090 17.6529   1
   8   8  -2 439.987 21.5001   4
  -8  -8   2 428.929 22.0103   3
   7   8  -2 208.299 10.8768   1
   7   8  -2 217.799 14.3877   4
  -7  -8   2 185.601 13.0342   2
  -7  -8   2 174.315 15.0847   3
   6   8  -2 1761.66 42.7093   1
   6   8  -2 1816.13 47.4043   4
  -6  -8   2 1718.09 50.4324   3
  -6  -8   2 1882.00 53.0582   2
   5   8  -2 12.6612 5.13279   4
  -5  -8   2 27.2183 7.30135   2
  -5  -8   2 19.7328 5.79202   1
  -5  -8   2 3.82929 6.62460   3
   4   8  -2 10.6141 4.42217   4
  -4  -8   2 6.14621 5.07690   1
  -4  -8   2 15.7431 7.38645   3
  -4  -8   2 20.3541 6.96977   2
   3   8  -2 41.1610 6.16969   4
   3   8  -2 42.8487 7.29866   3
  -3  -8   2 32.5845 8.31187   2
  -3  -8   2 41.0169 7.27351   1
   2   8  -2 14.3293 5.06983   3
   2   8  -2 21.4395 4.68022   4
  -2  -8   2 16.9474 6.59721   1
  -2  -8   2 10.5990 6.95050   2
   1   8  -2 610.068 22.6004   3
  -1  -8   2 618.807 26.8009   2
  -1  -8   2 627.323 24.6254   1
   0   8  -2 9.56001 5.34723   3
   0  -8   2 1.23832 6.15555   2
   0  -8   2 -2.0874 5.94394   1
  -1   8  -2 940.038 31.0774   3
   1  -8   2 930.260 33.2246   1
   1  -8   2 964.322 35.7052   2
  -2   8  -2 334.887 18.0291   3
   2  -8   2 353.794 20.6156   2
   2  -8   2 354.439 21.7327   1
  -3   8  -2 81.9839 11.3391   3
   3  -8   2 103.921 15.3199   1
   3  -8   2 104.826 13.2912   2
  -4   8  -2 68.6425 11.3414   3
   4  -8   2 82.4706 12.4556   2
  -5   8  -2 41.5153 10.7706   3
  -5   8  -2 12.2361 5.72129   2
   5  -8   2 13.8839 10.7642   1
  -6   8  -2 166.236 13.6493   2
  -6   8  -2 149.820 18.0064   3
   6  -8   2 150.273 20.2686   1
  12   7  -2 26.9218 8.60580   4
 -12  -7   2 12.2486 9.94939   3
  11   7  -2 12.4052 7.35691   4
 -11  -7   2 -3.6683 6.90791   3
  10   7  -2 30.9164 8.34719   4
 -10  -7   2 34.9370 10.5433   3
   9   7  -2 39.9688 7.29800   1
   9   7  -2 38.8980 8.84030   4
  -9  -7   2 39.3898 9.87883   3
   8   7  -2 50.1012 9.21156   4
   8   7  -2 55.2180 7.52718   1
  -8  -7   2 43.0559 9.62919   3
   7   7  -2 96.1729 8.22106   1
   7   7  -2 92.0130 11.1784   4
  -7  -7   2 91.3146 9.55178   2
  -7  -7   2 85.7422 11.9700   3
   6   7  -2 163.625 12.2178   4
   6   7  -2 188.360 9.85006   1
  -6  -7   2 192.821 12.6909   2
  -6  -7   2 159.731 13.8884   3
   5   7  -2 428.574 14.6988   1
   5   7  -2 409.815 17.5360   4
  -5  -7   2 405.180 18.5549   2
  -5  -7   2 389.230 19.3519   3
   4   7  -2 393.193 16.3893   4
  -4  -7   2 432.516 15.2447   1
  -4  -7   2 409.264 18.8199   2
  -4  -7   2 387.287 18.7978   3
   3   7  -2 175.040 9.92272   4
  -3  -7   2 174.236 10.2064   1
  -3  -7   2 163.983 13.1694   3
  -3  -7   2 161.263 12.8383   2
   2   7  -2 31.5878 4.89787   4
   2   7  -2 31.3384 6.09151   3
  -2  -7   2 33.2835 6.38602   1
  -2  -7   2 16.8708 6.70254   2
   1   7  -2 211.605 8.74535   4
   1   7  -2 186.047 11.2075   3
  -1  -7   2 198.439 14.8560   2
  -1  -7   2 184.090 13.1437   1
   0   7  -2 1.67854 4.24278   3
   0  -7   2 -2.4293 5.11042   2
   0  -7   2 7.01971 6.38709   1
  -1   7  -2 2.99678 4.42942   3
   1  -7   2 0.22417 5.50317   2
   1  -7   2 1.44524 6.34116   1
  -2   7  -2 209.098 13.6807   3
   2  -7   2 204.426 16.2823   1
   2  -7   2 171.919 14.6396   2
  -3   7  -2 265.979 16.4459   3
   3  -7   2 253.555 18.2760   1
   3  -7   2 260.914 17.1329   2
  -4   7  -2 51.7484 9.35953   3
   4  -7   2 41.4430 11.0437   1
   4  -7   2 19.2461 7.42638   2
  -5   7  -2 248.819 17.7968   3
   5  -7   2 230.794 16.3885   2
   5  -7   2 197.518 19.9370   1
  -6   7  -2 48.3375 8.34645   2
  -6   7  -2 65.0341 12.5313   3
   6  -7   2 56.1588 14.3057   1
  -7   7  -2 -2.9741 8.51258   3
  -7   7  -2 4.68347 5.00665   2
   7  -7   2 -1.2412 11.1133   1
  12   6  -2 3.94965 6.52095   4
 -12  -6   2 5.22093 9.20507   3
  11   6  -2 87.3844 13.4718   4
 -11  -6   2 87.1709 14.0925   3
  10   6  -2 110.268 11.9042   1
  10   6  -2 142.947 15.8417   4
 -10  -6   2 120.736 14.9667   3
   9   6  -2 565.055 21.6499   1
   9   6  -2 568.072 25.3922   4
  -9  -6   2 566.167 26.1919   3
   8   6  -2 38.5713 8.52600   4
   8   6  -2 25.8111 6.32463   1
  -8  -6   2 23.2271 8.25264   3
   7   6  -2 121.452 9.10184   1
   7   6  -2 134.420 11.4884   4
  -7  -6   2 110.934 12.1854   3
  -7  -6   2 130.216 9.60262   2
   6   6  -2 248.295 11.3063   1
   6   6  -2 265.975 14.5109   4
  -6  -6   2 251.966 16.0584   3
  -6  -6   2 275.551 13.6038   2
   5   6  -2 320.224 11.9640   1
   5   6  -2 295.458 14.6885   4
  -5  -6   2 304.295 15.9101   3
  -5  -6   2 310.552 14.8264   2
   4   6  -2 1527.85 38.0472   4
  -4  -6   2 1553.31 35.4458   1
  -4  -6   2 1470.78 41.7561   3
  -4  -6   2 1498.27 43.2934   2
   3   6  -2 273.831 12.4271   4
  -3  -6   2 277.067 14.8612   3
  -3  -6   2 296.903 11.6643   1
  -3  -6   2 290.677 15.0280   2
   2   6  -2 482.052 15.6625   4
  -2  -6   2 472.328 16.5851   1
  -2  -6   2 498.668 20.3740   2
  -2  -6   2 493.236 19.5777   3
   1   6  -2 813.068 25.0478   3
   1   6  -2 818.879 20.8532   4
  -1  -6   2 816.269 28.6449   2
  -1  -6   2 815.675 25.4173   1
   0   6  -2 24.8556 3.15026   4
   0   6  -2 21.3342 5.11105   3
   0  -6   2 20.9068 6.37441   1
   0  -6   2 14.5413 6.25049   2
  -1   6  -2 226.421 12.8393   3
   1  -6   2 241.970 14.8600   2
   1  -6   2 238.283 15.2313   1
  -2   6  -2 401.436 17.6331   3
   2  -6   2 394.194 19.5554   2
   2  -6   2 368.206 19.5941   1
  -3   6  -2 470.447 20.6973   3
   3  -6   2 463.844 23.0084   1
   3  -6   2 467.922 21.4321   2
  -4   6  -2 265.947 16.2536   3
   4  -6   2 251.404 18.5244   1
   4  -6   2 264.873 15.9171   2
  -5   6  -2 891.608 32.2719   3
   5  -6   2 905.082 31.9617   2
   5  -6   2 788.069 33.6200   1
  -6   6  -2 119.894 12.2244   2
  -6   6  -2 145.533 16.2463   3
   6  -6   2 148.028 18.8861   1
  -7   6  -2 24.8165 6.27540   2
  -7   6  -2 17.3913 9.23383   3
   7  -6   2 26.8321 13.2248   1
  -8   6  -2 -4.1988 8.67038   3
   8  -6   2 15.7561 13.5693   1
  12   5  -2 29.3201 8.97088   4
 -12  -5   2 17.0199 9.85182   3
  11   5  -2 3.83386 5.65791   4
  11   5  -2 1.54997 7.08673   1
 -11  -5   2 7.79339 7.82524   3
  10   5  -2 3.96918 6.17881   1
  10   5  -2 6.98767 5.85630   4
 -10  -5   2 0.65878 7.27467   3
   9   5  -2 27.8506 8.05684   4
   9   5  -2 37.6435 7.79456   1
  -9  -5   2 42.2638 9.37202   3
   8   5  -2 11.3997 5.75961   4
   8   5  -2 14.3307 5.69557   1
  -8  -5   2 10.3562 6.57232   3
   7   5  -2 6.95188 4.81573   4
   7   5  -2 14.1914 4.87525   1
  -7  -5   2 7.10931 6.13638   3
  -7  -5   2 -1.5275 3.62881   2
   6   5  -2 1033.99 31.2193   4
   6   5  -2 1006.02 26.9541   1
  -6  -5   2 980.944 31.6827   3
  -6  -5   2 1013.87 29.4636   2
   5   5  -2 72.5229 8.48749   4
   5   5  -2 82.1488 6.09291   1
  -5  -5   2 83.1860 10.1083   3
  -5  -5   2 91.9867 7.92896   2
   4   5  -2 25.4582 5.16349   4
   4   5  -2 25.1634 3.82728   1
  -4  -5   2 20.9574 5.83414   3
  -4  -5   2 32.0037 5.93308   2
   3   5  -2 522.824 17.5358   4
  -3  -5   2 553.170 20.3798   2
  -3  -5   2 553.384 20.3784   3
  -3  -5   2 586.578 16.1454   1
   2   5  -2 931.261 23.8406   4
  -2  -5   2 923.711 23.6467   1
  -2  -5   2 965.051 28.3838   3
  -2  -5   2 841.155 28.6961   2
   1   5  -2 495.849 17.0168   3
   1   5  -2 495.403 14.4450   4
  -1  -5   2 496.629 17.2979   1
  -1  -5   2 481.499 19.7659   2
   0   5  -2 90.8025 5.05833   4
   0   5  -2 77.8796 7.71323   3
   0  -5   2 105.456 10.2216   1
   0  -5   2 81.5703 9.02570   2
  -1   5  -2 725.898 23.3901   3
   1  -5   2 752.635 26.9145   2
   1  -5   2 743.708 25.4222   1
  -2   5  -2 215.609 12.4046   3
   2  -5   2 223.297 15.1899   1
   2  -5   2 182.449 12.9886   2
  -3   5  -2 80.8630 10.0995   3
   3  -5   2 91.8376 12.4354   1
   3  -5   2 88.7433 10.5215   2
  -4   5  -2 18.5978 7.08939   3
   4  -5   2 27.1091 9.13855   1
   4  -5   2 19.4207 6.11592   2
  -5   5  -2 102.539 12.6958   3
   5  -5   2 82.2853 12.9796   1
   5  -5   2 60.4223 8.77801   2
  -6   5  -2 19.3146 8.66249   3
  -6   5  -2 25.8395 5.70240   2
   6  -5   2 31.5858 11.1261   1
  -7   5  -2 55.2219 11.2104   3
  -7   5  -2 62.3371 8.62987   2
   7  -5   2 71.7454 14.7685   1
  -8   5  -2 44.0819 11.1253   3
   8  -5   2 41.7040 14.2703   1
  -9   5  -2 -7.8543 8.36561   3
   9  -5   2 -11.793 11.0242   1
  12   4  -2 202.646 19.9123   4
  12   4  -2 200.231 19.2366   1
 -12  -4   2 184.823 19.2553   3
  11   4  -2 220.343 17.5595   4
  11   4  -2 192.001 17.6809   1
 -11  -4   2 146.198 16.3769   3
  10   4  -2 383.918 21.4091   4
  10   4  -2 331.308 19.4082   1
 -10  -4   2 347.428 21.1544   3
   9   4  -2 242.816 16.6080   4
   9   4  -2 228.761 15.2150   1
  -9  -4   2 245.410 17.5156   3
   8   4  -2 158.037 15.2544   4
   8   4  -2 143.100 11.7951   1
  -8  -4   2 125.632 13.1898   3
   7   4  -2 29.1424 7.24756   4
   7   4  -2 36.5765 6.84765   1
  -7  -4   2 40.3808 5.31850   2
  -7  -4   2 39.7683 8.67902   3
   6   4  -2 36.8276 6.83605   4
   6   4  -2 45.9683 6.33439   1
  -6  -4   2 47.9236 5.49595   2
  -6  -4   2 42.2588 7.92398   3
   5   4  -2 61.9531 7.94548   4
   5   4  -2 45.7705 5.60393   1
  -5  -4   2 41.4601 7.22390   3
  -5  -4   2 53.2755 5.92849   2
   4   4  -2 933.892 23.0991   1
   4   4  -2 930.897 26.6747   4
  -4  -4   2 967.068 28.6056   3
  -4  -4   2 993.649 27.9942   2
   3   4  -2 303.071 12.6742   4
  -3  -4   2 327.951 14.2996   3
  -3  -4   2 337.181 13.8493   2
   2   4  -2 3405.64 69.3993   4
  -2  -4   2 3497.51 69.5782   1
  -2  -4   2 3477.99 77.4551   3
  -2  -4   2 3404.00 84.7932   2
   1   4  -2 305.445 10.7408   4
  -1  -4   2 305.370 13.7873   2
  -1  -4   2 311.544 13.6371   3
  -1  -4   2 313.593 11.9514   1
   0   4  -2 491.383 16.4581   3
   0   4  -2 496.914 12.8334   4
   0  -4   2 479.406 18.5794   2
   0  -4   2 517.202 17.6395   1
  -1   4  -2 12.8779 4.23475   3
   1  -4   2 13.7618 5.12620   2
   1  -4   2 20.9345 6.01889   1
  -2   4  -2 1908.34 47.7684   3
   2  -4   2 1941.55 48.5033   1
   2  -4   2 1931.44 53.1901   2
  -3   4  -2 144.234 10.9700   3
   3  -4   2 169.212 11.2725   2
   3  -4   2 148.703 12.5646   1
  -4   4  -2 187.988 13.0380   3
   4  -4   2 153.544 10.9425   2
   4  -4   2 183.361 14.7623   1
  -5   4  -2 597.879 24.6275   3
   5  -4   2 636.732 22.9581   2
   5  -4   2 603.744 26.7420   1
  -6   4  -2 246.713 12.6555   2
  -6   4  -2 239.033 16.7032   3
   6  -4   2 204.649 18.0554   1
  -7   4  -2 142.655 10.1668   2
  -7   4  -2 113.900 14.1724   3
   7  -4   2 111.809 15.5606   1
  -8   4  -2 575.050 27.1656   3
   8  -4   2 575.568 30.9294   1
  -9   4  -2 65.9451 12.8380   3
   9  -4   2 101.880 18.4418   1
  12   3  -2 11.5547 6.39571   4
  12   3  -2 -1.8917 8.05756   1
 -12  -3   2 -1.9449 7.75027   3
  11   3  -2 51.2888 11.0485   4
  11   3  -2 43.8778 11.5770   1
 -11  -3   2 58.5600 12.2820   3
  10   3  -2 300.162 18.3613   4
  10   3  -2 298.699 19.0930   1
 -10  -3   2 286.424 19.5336   3
   9   3  -2 82.3955 11.4638   1
   9   3  -2 67.5437 10.6044   4
  -9  -3   2 80.5035 12.1241   3
   8   3  -2 70.4178 10.0092   4
   8   3  -2 57.7068 9.51804   1
  -8  -3   2 46.1892 9.67376   3
   7   3  -2 83.0811 10.4240   4
   7   3  -2 75.8950 9.18935   1
  -7  -3   2 71.8391 5.77408   2
  -7  -3   2 71.4276 10.5089   3
   6   3  -2 29.7905 6.02575   1
   6   3  -2 29.2434 6.23130   4
  -6  -3   2 23.0995 6.20748   3
  -6  -3   2 31.7935 4.40333   2
   5   3  -2 627.333 19.0410   1
   5   3  -2 651.813 21.7533   4
  -5  -3   2 596.395 21.4295   3
  -5  -3   2 643.451 19.0047   2
   4   3  -2 445.248 13.7943   1
   4   3  -2 434.002 16.1907   4
  -4  -3   2 449.125 16.8015   3
  -4  -3   2 431.101 14.8148   2
   3   3  -2 228.183 7.97509   1
   3   3  -2 210.723 10.2291   4
  -3  -3   2 226.108 11.0737   3
  -3  -3   2 222.715 10.2627   2
   2   3  -2 1330.16 30.9847   4
  -2  -3   2 1342.27 33.9059   3
  -2  -3   2 1366.23 28.3739   1
  -2  -3   2 1312.90 35.7795   2
   1   3  -2 4.92087 2.69220   4
  -1  -3   2 7.39159 4.26418   3
  -1  -3   2 3.91247 3.28013   2
  -1  -3   2 4.19121 2.65061   1
   0   3  -2 1108.10 27.9556   3
   0   3  -2 1139.00 24.0138   4
   0  -3   2 1063.34 31.6419   2
   0  -3   2 1183.94 28.0177   1
  -1   3  -2 378.770 13.5294   3
   1  -3   2 390.720 15.0477   1
   1  -3   2 387.570 15.2300   2
  -2   3  -2 1317.29 34.8196   3
   2  -3   2 1375.69 35.7511   1
   2  -3   2 1402.05 38.1861   2
  -3   3  -2 208.964 11.6377   3
   3  -3   2 173.817 12.6395   1
   3  -3   2 179.541 10.6048   2
  -4   3  -2 375.394 16.8927   3
   4  -3   2 368.968 10.1771   4
   4  -3   2 354.294 15.0560   2
   4  -3   2 363.710 18.6467   1
  -5   3  -2 654.917 25.1507   3
   5  -3   2 737.628 17.9220   4
   5  -3   2 669.095 27.6384   1
   5  -3   2 686.336 23.3654   2
  -6   3  -2 95.6443 12.1714   3
   6  -3   2 45.8704 10.6292   1
   6  -3   2 84.4858 6.45527   4
  -7   3  -2 2.34806 3.06685   2
  -7   3  -2 -5.5882 6.34814   3
   7  -3   2 7.34384 8.00577   1
  -8   3  -2 79.0029 12.2954   3
   8  -3   2 81.1371 14.4535   1
  -9   3  -2 18.9569 9.99924   3
   9  -3   2 31.6096 12.7407   1
 -10   3  -2 18.4979 9.66134   3
  10  -3   2 5.29239 11.6198   1
  12   2  -2 32.6856 12.1789   1
  12   2  -2 43.1467 9.85435   4
 -12  -2   2 33.9840 11.6574   3
  11   2  -2 30.4998 8.58663   4
  11   2  -2 15.2136 9.53285   1
 -11  -2   2 6.24070 7.87707   3
  10   2  -2 28.5092 9.65223   1
  10   2  -2 17.6375 7.21271   4
 -10  -2   2 21.5712 8.50532   3
   9   2  -2 184.675 15.9357   1
   9   2  -2 171.141 13.6807   4
  -9  -2   2 190.775 15.9073   3
   8   2  -2 113.443 12.8345   1
   8   2  -2 99.9587 11.6154   4
  -8  -2   2 111.119 12.8209   3
   7   2  -2 352.527 17.1045   4
   7   2  -2 367.118 17.7467   1
  -7  -2   2 384.554 12.4378   2
  -7  -2   2 319.936 17.0100   3
   6   2  -2 609.289 21.2108   1
   6   2  -2 617.320 22.0128   4
  -6  -2   2 595.752 22.8131   3
  -6  -2   2 608.475 17.8116   2
   5   2  -2 1028.87 27.5649   1
   5   2  -2 1055.17 29.5072   4
  -5  -2   2 1060.04 27.5675   2
  -5  -2   2 994.184 30.2462   3
   4   2  -2 1006.47 27.7673   4
   4   2  -2 1025.19 26.0398   1
  -4  -2   2 1051.99 27.4636   2
  -4  -2   2 1035.03 28.9669   3
   3   2  -2 7.88268 2.93746   1
   3   2  -2 10.2958 3.86886   4
  -3  -2   2 7.95932 3.39557   2
  -3  -2   2 8.85520 4.14252   3
   2   2  -2 1525.66 35.2493   4
   2   2  -2 1626.09 32.6867   1
  -2  -2   2 1615.33 37.8802   3
  -2  -2   2 1651.76 40.5980   2
   1   2  -2 749.408 19.1955   4
  -1  -2   2 805.249 16.9306   1
  -1  -2   2 817.293 22.5482   2
  -1  -2   2 804.150 21.1797   3
   0   2  -2 738.210 16.5482   4
   0   2  -2 717.791 18.8149   3
   0  -2   2 746.247 18.1348   1
   0  -2   2 705.021 20.9762   2
  -1   2  -2 9879.35 181.681   4
  -1   2  -2 9531.86 207.735   3
   1  -2   2 9999.99 190.802   1
   1  -2   2 9854.08 232.739   2
  -2   2  -2 3.09562 3.30666   3
  -2   2  -2 6.53641 1.79303   4
   2  -2   2 12.0980 4.91265   1
   2  -2   2 9.66877 3.61243   2
  -3   2  -2 1017.83 28.3119   3
  -3   2  -2 1011.07 22.0384   4
   3  -2   2 1018.09 29.1787   1
   3  -2   2 1060.89 29.8762   2
  -4   2  -2 177.322 11.0915   3
  -4   2  -2 166.358 7.75078   4
   4  -2   2 158.494 8.93271   2
   4  -2   2 164.510 12.5754   1
  -5   2  -2 500.224 20.0251   3
   5  -2   2 508.641 21.7936   1
   5  -2   2 530.256 17.8531   2
  -6   2  -2 480.903 16.4389   2
   6  -2   2 473.342 15.5398   4
   6  -2   2 423.435 21.9085   1
  -7   2  -2 9.74987 6.98283   3
  -7   2  -2 17.2468 3.99982   2
   7  -2   2 23.9489 9.48923   1
   7  -2   2 18.9551 4.64547   4
  -8   2  -2 110.240 13.8262   3
   8  -2   2 101.809 15.3234   1
  -9   2  -2 3.84199 7.13661   3
   9  -2   2 11.0490 10.4553   1
 -10   2  -2 50.5347 11.6397   3
  10  -2   2 37.2824 13.5728   1
 -11   2  -2 114.497 16.5394   3
  11  -2   2 97.4143 18.1328   1
  11   1  -2 -0.9567 9.80334   1
  11   1  -2 15.9255 6.84683   4
 -11  -1   2 -0.8509 7.60521   3
  10   1  -2 346.400 18.7968   4
  10   1  -2 286.097 21.4091   1
 -10  -1   2 311.477 20.5501   3
   9   1  -2 308.571 20.1643   1
   9   1  -2 323.094 18.0549   4
  -9  -1   2 262.737 17.8261   3
   8   1  -2 31.1755 7.27398   4
   8   1  -2 53.2810 10.5929   1
  -8  -1   2 42.0615 8.78234   3
   7   1  -2 33.0650 6.62087   4
   7   1  -2 34.1791 8.44905   1
  -7  -1   2 45.5216 5.04005   2
  -7  -1   2 31.1971 7.83999   3
   6   1  -2 78.7164 9.07998   4
   6   1  -2 78.5953 9.89516   1
  -6  -1   2 79.7757 9.63337   3
  -6  -1   2 63.8827 5.42519   2
   5   1  -2 12.3638 5.49317   1
   5   1  -2 14.8421 4.58151   4
  -5  -1   2 11.7366 3.01318   2
  -5  -1   2 11.6843 5.20222   3
   4   1  -2 48.4462 6.60087   1
   4   1  -2 48.8457 6.15132   4
  -4  -1   2 51.7148 4.62282   2
  -4  -1   2 58.2179 7.57069   3
   3   1  -2 1820.28 39.5010   1
   3   1  -2 1769.74 40.1804   4
  -3  -1   2 1789.13 43.7933   2
  -3  -1   2 1844.55 42.9095   3
   2   1  -2 1447.19 30.8521   1
   2   1  -2 1452.60 32.7466   4
  -2  -1   2 1503.28 34.3632   3
  -2  -1   2 1483.47 36.2341   2
   1   1  -2 393.519 11.6407   4
   1   1  -2 377.932 8.36721   1
  -1  -1   2 386.601 8.18442   1
  -1  -1   2 410.552 11.7615   3
  -1  -1   2 409.634 12.3461   2
   0   1  -2 1194.10 24.6337   4
   0   1  -2 1205.67 24.5184   1
   0  -1   2 1223.90 30.3684   2
   0  -1   2 1153.02 24.1720   1
   0  -1   2 1207.14 27.5767   3
  -1   1  -2 420.235 10.6235   4
  -1   1  -2 519.019 13.4381   3
   1  -1   2 501.791 14.4400   2
   1  -1   2 486.192 13.0786   1
  -2   1  -2 727.044 15.9396   4
  -2   1  -2 748.993 19.8117   3
   2  -1   2 730.976 19.8262   1
   2  -1   2 738.549 20.4795   2
  -3   1  -2 28.5969 5.38108   3
  -3   1  -2 36.9190 4.20411   4
   3  -1   2 34.5783 6.33012   1
   3  -1   2 34.0709 4.34167   2
  -4   1  -2 98.4913 8.35302   3
  -4   1  -2 83.8766 6.45415   4
   4  -1   2 90.3775 9.49476   1
   4  -1   2 83.8255 6.19098   2
  -5   1  -2 1063.93 26.8287   4
  -5   1  -2 1044.45 31.0498   3
   5  -1   2 1061.72 32.1322   1
   5  -1   2 1071.02 28.7002   2
  -6   1  -2 71.3659 5.15679   2
  -6   1  -2 77.5920 9.95526   3
  -6   1  -2 66.8979 7.67056   4
   6  -1   2 82.7391 11.3548   1
  -7   1  -2 214.875 14.9486   3
  -7   1  -2 212.811 9.31802   2
   7  -1   2 231.562 17.4333   1
   7  -1   2 222.656 11.5163   4
  -8   1  -2 507.969 22.8808   3
   8  -1   2 469.326 24.9087   1
   8  -1   2 472.137 18.4179   4
  -9   1  -2 90.7699 13.2683   3
   9  -1   2 117.440 11.5278   4
   9  -1   2 118.885 15.8168   1
 -10   1  -2 45.8092 11.4786   3
  10  -1   2 27.0947 12.0575   1
 -11   1  -2 4.64033 9.01430   3
  11  -1   2 25.2502 12.9340   1
  11   0  -2 211.924 22.1179   1
 -11   0   2 182.347 19.5450   3
  10   0  -2 6.16544 9.19646   1
  10   0  -2 4.58896 5.36067   4
 -10   0   2 5.50092 8.32102   3
   9   0  -2 59.8823 9.19013   4
   9   0  -2 87.1158 14.3139   1
  -9   0   2 56.3819 10.2655   3
   8   0  -2 -1.5257 7.33365   1
   8   0  -2 3.64171 4.54623   4
  -8   0   2 9.44590 6.84734   3
   7   0  -2 862.408 30.5587   1
   7   0  -2 904.272 28.2785   4
  -7   0   2 871.905 24.7170   2
  -7   0   2 844.266 29.5300   3
   6   0  -2 272.244 16.4587   1
   6   0  -2 270.521 13.6301   4
  -6   0   2 270.832 10.7408   2
  -6   0   2 261.652 15.0725   3
   5   0  -2 4.29207 3.38090   4
   5   0  -2 13.0746 5.79973   1
  -5   0   2 5.90728 4.78264   3
  -5   0   2 11.0143 2.89132   2
   4   0  -2 372.952 15.6117   1
   4   0  -2 384.158 14.2888   4
  -4   0   2 397.209 12.6807   2
  -4   0   2 378.311 15.0403   3
   3   0  -2 460.428 15.5651   1
   3   0  -2 430.887 14.5392   4
  -3   0   2 453.752 15.4831   3
  -3   0   2 443.788 13.5543   2
   2   0  -2 7859.81 164.898   1
   2   0  -2 7647.61 145.864   4
  -2   0   2 7874.65 170.410   3
  -2   0   2 7857.72 183.368   2
   1   0  -2 1031.20 23.2008   4
   1   0  -2 1073.50 23.1724   1
  -1   0   2 1044.12 23.8481   3
  -1   0   2 1016.43 25.8959   2
   0   0  -2 188.398 4.89183   1
   0   0  -2 186.867 6.07136   4
   0   0   2 187.720 6.44106   2
   0   0   2 187.276 5.63944   3
   0   0   2 201.404 4.96060   1
  -1   0  -2 87.2168 3.93596   3
  -1   0  -2 90.8073 4.15696   4
   1   0   2 101.399 5.28766   2
   1   0   2 80.8475 4.44997   1
  -2   0  -2 745.989 16.6904   4
  -2   0  -2 743.733 18.6496   3
   2   0   2 676.047 19.1502   1
   2   0   2 726.550 19.2106   2
  -3   0  -2 3985.26 77.6462   4
  -3   0  -2 4095.26 86.7963   3
   3   0   2 4079.95 95.3886   2
  -4   0  -2 80.0728 6.48360   4
  -4   0  -2 64.2143 7.15717   3
   4   0   2 67.3059 4.17420   2
   4   0   2 73.6919 7.89650   1
  -5   0  -2 1984.03 49.2964   3
  -5   0  -2 1997.81 44.6955   4
   5   0   2 2037.85 49.1299   1
  -6   0  -2 240.388 12.2355   4
  -6   0  -2 235.205 8.03676   2
  -6   0  -2 216.082 12.7097   3
   6   0   2 210.712 14.2527   1
  -7   0  -2 439.420 12.5819   2
  -7   0  -2 399.339 17.2731   4
  -7   0  -2 401.376 18.2563   3
   7   0   2 398.123 20.9640   1
  -8   0  -2 211.052 15.5769   3
   8   0   2 250.765 13.3108   4
   8   0   2 300.850 19.2698   1
  -9   0  -2 5.40612 6.71053   3
   9   0   2 15.8425 5.54393   4
   9   0   2 20.4419 9.26955   1
 -10   0  -2 26.0998 9.54427   3
  10   0   2 39.4154 11.8349   1
  10   0   2 43.6470 8.07373   4
 -11   0  -2 46.4749 11.7082   3
  11   0   2 50.1276 13.6480   1
  11  -1  -2 13.2941 11.3786   1
 -11   1   2 -3.8031 8.40108   3
  10  -1  -2 84.8502 15.6284   1
 -10   1   2 45.2107 11.2134   3
   9  -1  -2 34.8361 11.3128   1
   9  -1  -2 39.7359 8.18682   4
  -9   1   2 29.2992 9.34525   3
   8  -1  -2 3.40332 4.16706   4
   8  -1  -2 8.98116 8.41906   1
  -8   1   2 -7.6947 5.04492   3
   7  -1  -2 340.581 15.7464   4
   7  -1  -2 326.838 20.0050   1
  -7   1   2 327.373 13.2053   2
  -7   1   2 318.232 17.8865   3
   6  -1  -2 -0.3188 3.38351   4
   6  -1  -2 11.9553 7.52594   1
  -6   1   2 3.76932 2.79178   2
  -6   1   2 -1.5395 5.57163   3
   5  -1  -2 399.994 15.1937   4
   5  -1  -2 415.393 18.9509   1
  -5   1   2 397.618 17.3236   3
  -5   1   2 416.971 14.5359   2
   4  -1  -2 22.4455 4.44085   4
   4  -1  -2 17.0211 5.89993   1
  -4   1   2 17.0941 5.13059   3
  -4   1   2 22.8269 3.74964   2
   3  -1  -2 -6.2292 3.94840   1
   3  -1  -2 -0.8386 2.51595   4
  -3   1   2 -3.0136 3.83016   3
  -3   1   2 0.41463 2.12512   2
   2  -1  -2 2602.61 51.7204   4
   2  -1  -2 2606.61 56.2740   1
  -2   1   2 2559.28 56.4966   3
  -2   1   2 2506.33 61.5514   2
   1  -1  -2 262.625 10.7827   1
   1  -1  -2 240.586 8.05050   4
  -1   1   2 215.853 8.36929   2
  -1   1   2 180.337 8.68736   3
   0  -1  -2 350.457 8.30614   3
   0  -1  -2 367.893 10.4552   1
   0  -1  -2 357.608 9.21761   4
   0   1   2 356.502 8.37724   3
   0   1   2 352.858 10.5615   2
  -1  -1  -2 2690.45 51.2732   4
  -1  -1  -2 2668.50 55.8538   1
  -1  -1  -2 2745.27 55.1476   3
   1   1   2 2686.85 62.4644   2
   1   1   2 2706.84 54.7525   3
  -2  -1  -2 -0.8369 2.19334   4
  -2  -1  -2 3.86307 2.35955   3
   2   1   2 1.91439 2.23830   1
   2   1   2 9.87195 1.77755   2
  -3  -1  -2 1179.24 27.1343   4
  -3  -1  -2 1207.69 29.1806   3
   3   1   2 1223.61 28.8937   1
  -4  -1  -2 820.096 23.1724   3
  -4  -1  -2 788.276 21.5357   4
   4   1   2 796.837 23.0535   1
  -5  -1  -2 133.522 9.51148   3
  -5  -1  -2 123.424 9.03594   4
   5   1   2 119.639 9.68013   1
  -6  -1  -2 377.196 15.5997   4
  -6  -1  -2 378.692 16.5971   3
   6   1   2 379.491 17.2344   1
  -7  -1  -2 2.90481 4.88291   3
  -7  -1  -2 2.06021 4.87727   4
   7   1   2 12.1891 6.43721   1
  -8  -1  -2 43.4425 8.30729   4
  -8  -1  -2 54.8298 8.88266   3
   8   1   2 48.0275 9.77683   1
  -9  -1  -2 463.648 21.9845   3
   9   1   2 483.960 20.3554   4
   9   1   2 475.743 24.3049   1
 -10  -1  -2 1.74380 6.66307   3
  10   1   2 0.42993 7.56249   1
  10   1   2 4.16862 4.59846   4
 -11  -1  -2 103.729 14.3937   3
  11   1   2 114.052 16.4892   1
  11   1   2 108.090 12.1497   4
 -12  -1  -2 5.69700 8.76641   3
  12   1   2 14.2419 10.9252   1
  10  -2  -2 254.207 24.7093   1
 -10   2   2 199.884 19.4397   3
   9  -2  -2 309.329 23.1492   1
  -9   2   2 292.858 20.3261   3
   8  -2  -2 191.364 12.1555   4
   8  -2  -2 196.273 19.6439   1
  -8   2   2 185.508 17.3746   3
   7  -2  -2 132.647 15.9101   1
   7  -2  -2 123.948 9.58794   4
  -7   2   2 120.975 8.67074   2
  -7   2   2 126.998 13.7049   3
   6  -2  -2 29.7272 5.50738   4
   6  -2  -2 10.1910 7.85182   1
  -6   2   2 25.8972 7.39011   3
  -6   2   2 28.8911 4.88310   2
   5  -2  -2 172.422 14.1145   1
   5  -2  -2 177.373 9.79438   4
  -5   2   2 181.145 9.67308   2
  -5   2   2 167.037 12.0880   3
   4  -2  -2 970.349 24.7161   4
   4  -2  -2 959.659 30.7677   1
  -4   2   2 955.118 28.0257   2
  -4   2   2 1021.20 29.0487   3
   3  -2  -2 41.9392 7.36677   1
   3  -2  -2 46.6554 5.26856   4
  -3   2   2 38.0884 6.31972   3
  -3   2   2 35.2591 4.81394   2
   2  -2  -2 1395.66 30.2223   4
   2  -2  -2 1448.27 36.6412   1
  -2   2   2 1418.61 37.0894   2
  -2   2   2 1408.39 34.2743   3
   1  -2  -2 1067.25 28.0196   1
   1  -2  -2 1058.35 22.5115   4
  -1   2   2 1050.65 28.3015   2
  -1   2   2 1061.61 25.3571   3
   0  -2  -2 5604.11 105.083   4
   0  -2  -2 5455.18 110.278   1
   0   2   2 5436.21 114.692   3
   0   2   2 5681.40 131.190   2
  -1  -2  -2 261.695 7.37266   3
  -1  -2  -2 262.452 9.50771   1
  -1  -2  -2 275.457 8.24167   4
   1   2   2 259.712 8.91695   2
  -2  -2  -2 4120.08 78.0437   4
  -2  -2  -2 4082.78 84.3846   3
  -2  -2  -2 4038.46 81.0995   1
   2   2   2 4126.66 95.6556   2
  -3  -2  -2 4.49209 3.30106   4
  -3  -2  -2 9.13528 3.28366   3
   3   2   2 14.0223 1.75823   2
   3   2   2 12.0268 3.13364   1
  -4  -2  -2 668.103 19.7533   3
  -4  -2  -2 693.546 19.9164   4
   4   2   2 655.093 19.4680   1
  -5  -2  -2 181.730 10.8709   3
  -5  -2  -2 190.757 10.9347   4
   5   2   2 201.788 10.9979   1
  -6  -2  -2 109.318 10.4172   3
  -6  -2  -2 71.9775 8.53822   4
   6   2   2 73.5019 8.71976   1
  -7  -2  -2 7.34299 5.42819   3
  -7  -2  -2 7.95860 4.84856   4
   7   2   2 11.1509 5.91627   1
  -8  -2  -2 617.400 24.0478   4
  -8  -2  -2 559.949 22.9469   3
   8   2   2 606.163 24.6166   1
  -9  -2  -2 431.684 20.7778   4
  -9  -2  -2 424.819 20.6388   3
   9   2   2 402.898 21.4471   1
 -10  -2  -2 593.266 26.3675   3
  10   2   2 603.410 27.0361   1
  10   2   2 588.997 23.8398   4
 -11  -2  -2 6.73579 7.38245   3
  11   2   2 6.46742 5.55160   4
  11   2   2 11.3807 9.25709   1
 -12  -2  -2 8.86280 8.47963   3
  12   2   2 2.00205 9.02092   1
  12   2   2 3.53072 5.02152   4
  10  -3  -2 -2.3495 10.8744   1
 -10   3   2 2.94998 9.56185   3
   9  -3  -2 -4.4563 9.81303   1
  -9   3   2 2.13976 8.57799   3
   8  -3  -2 46.6929 12.6879   1
  -8   3   2 41.2856 10.1390   3
   7  -3  -2 12.9411 8.94013   1
  -7   3   2 -2.4092 6.20216   3
  -7   3   2 0.38494 3.03026   2
   6  -3  -2 13.7127 8.22664   1
   6  -3  -2 13.4885 4.13161   4
  -6   3   2 9.76022 4.03597   2
  -6   3   2 1.64015 5.74798   3
   5  -3  -2 8.42100 3.71246   4
   5  -3  -2 7.62624 7.01797   1
  -5   3   2 3.42200 3.30503   2
  -5   3   2 -7.1124 4.78357   3
   4  -3  -2 111.583 12.6346   1
   4  -3  -2 98.9587 6.45034   4
  -4   3   2 100.399 10.0889   3
  -4   3   2 108.525 7.62659   2
   3  -3  -2 232.455 15.1275   1
   3  -3  -2 186.879 7.87726   4
  -3   3   2 181.662 11.1758   3
  -3   3   2 195.807 10.1029   2
   2  -3  -2 1501.36 31.6322   4
   2  -3  -2 1530.19 41.2873   1
  -2   3   2 1607.83 41.6162   2
  -2   3   2 1543.90 38.0174   3
   1  -3  -2 161.527 11.9992   1
   1  -3  -2 150.977 5.81418   4
  -1   3   2 141.659 8.03288   2
  -1   3   2 137.232 7.58168   3
   0  -3  -2 546.859 13.0656   4
   0  -3  -2 562.668 18.5073   1
   0   3   2 542.007 14.6613   3
  -1  -3  -2 1870.04 41.4909   1
  -1  -3  -2 1870.56 46.4093   2
  -1  -3  -2 1837.00 37.0314   4
   1   3   2 1798.71 39.4957   3
  -2  -3  -2 4588.15 106.829   2
  -2  -3  -2 4575.42 87.3311   4
  -2  -3  -2 4530.36 95.0926   3
  -2  -3  -2 4626.17 91.8975   1
  -3  -3  -2 186.280 9.16240   4
  -3  -3  -2 201.295 8.59207   3
   3   3   2 192.336 7.23430   2
   3   3   2 186.030 8.41385   1
  -4  -3  -2 14.7227 4.34413   3
  -4  -3  -2 1.42680 4.04321   4
   4   3   2 8.10123 3.25009   1
   4   3   2 3.30928 1.66005   2
  -5  -3  -2 1912.11 45.1964   4
  -5  -3  -2 1953.31 47.0046   3
   5   3   2 1893.45 44.9386   1
  -6  -3  -2 98.3212 10.2050   4
  -6  -3  -2 120.974 9.87718   3
   6   3   2 126.680 9.55569   1
  -7  -3  -2 63.7929 8.99362   3
  -7  -3  -2 33.7750 7.00037   4
   7   3   2 60.0139 8.45817   1
  -8  -3  -2 50.2054 8.56509   3
  -8  -3  -2 53.7007 9.26545   4
   8   3   2 54.3149 9.11437   1
  -9  -3  -2 12.6000 7.00366   3
  -9  -3  -2 17.9005 7.13997   4
   9   3   2 60.0920 10.6105   1
 -10  -3  -2 43.7295 9.96791   3
  10   3   2 49.8841 10.2769   1
 -11  -3  -2 112.784 13.8513   3
  11   3   2 149.077 14.9605   4
  11   3   2 144.582 16.5897   1
 -12  -3  -2 -5.3512 7.58400   3
  12   3   2 1.11276 5.08358   4
  12   3   2 5.81548 9.01068   1
   9  -4  -2 9.54576 12.4839   1
  -9   4   2 -1.5948 8.72663   3
   8  -4  -2 19.4773 11.8111   1
  -8   4   2 13.4183 8.97864   3
   7  -4  -2 327.014 24.1110   1
  -7   4   2 318.977 19.2892   3
  -7   4   2 330.587 16.2599   2
   6  -4  -2 275.412 20.8009   1
  -6   4   2 296.866 18.0086   3
  -6   4   2 317.345 15.6507   2
   5  -4  -2 1446.86 33.1797   4
   5  -4  -2 1393.00 44.5265   1
  -5   4   2 1472.66 41.8886   3
  -5   4   2 1395.98 41.5105   2
   4  -4  -2 32.2517 3.96767   4
   4  -4  -2 40.2656 9.49230   1
  -4   4   2 37.2069 7.63581   3
  -4   4   2 28.2925 5.43864   2
   3  -4  -2 353.162 19.5614   1
   3  -4  -2 348.182 10.0723   4
  -3   4   2 347.097 15.3131   3
  -3   4   2 338.397 14.9356   2
   2  -4  -2 49.2323 9.45356   1
   2  -4  -2 44.1832 3.65976   4
  -2   4   2 33.2398 6.09491   3
  -2   4   2 36.7467 5.66299   2
   1  -4  -2 804.113 17.4813   4
   1  -4  -2 806.996 27.3653   1
  -1   4   2 794.886 22.5413   3
   0  -4  -2 32.4942 7.25258   1
   0  -4  -2 21.6691 5.18833   2
   0  -4  -2 26.3485 3.21828   4
   0   4   2 22.9918 3.97370   3
  -1  -4  -2 702.943 16.9255   4
  -1  -4  -2 682.186 21.3345   1
  -1  -4  -2 676.630 21.9073   2
   1   4   2 661.405 17.5855   3
  -2  -4  -2 545.784 17.9094   2
  -2  -4  -2 543.306 16.9445   1
  -2  -4  -2 534.370 15.7423   3
  -2  -4  -2 521.829 15.1453   4
  -3  -4  -2 2852.23 59.9390   1
  -3  -4  -2 2772.18 57.9803   4
  -3  -4  -2 2809.80 68.1359   2
  -3  -4  -2 2786.96 61.8376   3
  -4  -4  -2 2.71549 3.52460   3
  -4  -4  -2 8.37078 4.22089   4
  -4  -4  -2 5.88658 2.97796   2
   4   4   2 6.15603 3.20470   1
  -5  -4  -2 903.025 25.9326   3
  -5  -4  -2 898.160 26.5122   4
   5   4   2 896.397 23.0295   2
   5   4   2 866.799 24.7342   1
  -6  -4  -2 388.831 16.9677   4
  -6  -4  -2 355.706 15.5235   3
   6   4   2 353.000 14.9914   1
  -7  -4  -2 935.058 30.0718   4
  -7  -4  -2 922.533 29.4242   3
   7   4   2 955.245 28.6250   1
  -8  -4  -2 166.599 13.5531   4
  -8  -4  -2 151.952 12.6870   3
   8   4   2 152.604 12.2834   1
  -9  -4  -2 0.60059 5.79990   4
  -9  -4  -2 3.20444 5.96500   3
   9   4   2 2.30240 5.41865   1
 -10  -4  -2 5.62731 6.79011   3
 -10  -4  -2 -1.4892 5.83688   4
  10   4   2 -4.4298 5.49187   1
 -11  -4  -2 102.285 13.4111   3
  11   4   2 127.834 14.0417   4
  11   4   2 93.7894 13.0850   1
 -12  -4  -2 183.819 18.2545   3
  12   4   2 167.698 17.7682   1
  12   4   2 132.898 14.9570   4
   8  -5  -2 9.55552 11.8216   1
  -8   5   2 37.4522 10.9187   3
   7  -5  -2 41.0338 13.0201   1
  -7   5   2 36.4459 7.11744   2
  -7   5   2 31.6331 9.50217   3
   6  -5  -2 220.558 21.4088   1
  -6   5   2 230.151 13.8704   2
  -6   5   2 235.609 16.9072   3
   5  -5  -2 64.3781 12.4608   1
  -5   5   2 55.2454 10.1210   3
  -5   5   2 46.3482 7.26732   2
   4  -5  -2 12.9930 7.93032   1
  -4   5   2 12.0772 6.61710   3
  -4   5   2 11.2917 4.73895   2
   3  -5  -2 33.5015 9.52629   1
  -3   5   2 35.4388 6.28134   2
  -3   5   2 34.5717 7.19048   3
   2  -5  -2 344.946 19.5821   1
  -2   5   2 387.121 16.6421   2
  -2   5   2 371.189 15.6775   3
   1  -5  -2 1489.16 43.1970   2
   1  -5  -2 1445.52 42.3425   1
   1  -5  -2 1534.61 29.7389   4
  -1   5   2 1511.80 37.9767   3
   0  -5  -2 614.264 14.6327   4
   0  -5  -2 601.916 22.1364   2
   0  -5  -2 609.050 23.1351   1
   0   5   2 593.311 18.0957   3
  -1  -5  -2 183.000 12.0627   1
  -1  -5  -2 189.759 11.8675   2
  -1  -5  -2 186.798 7.94014   4
   1   5   2 202.646 8.76641   3
  -2  -5  -2 2374.30 49.1921   4
  -2  -5  -2 2448.60 61.6463   2
  -2  -5  -2 2325.05 53.9609   1
  -3  -5  -2 104.198 7.95928   2
  -3  -5  -2 118.710 8.60830   1
  -3  -5  -2 113.296 8.31811   4
  -3  -5  -2 109.349 8.02730   3
  -4  -5  -2 112.078 8.48967   3
  -4  -5  -2 108.974 7.74854   2
  -4  -5  -2 85.5606 8.50309   4
  -4  -5  -2 118.058 8.63260   1
  -5  -5  -2 477.903 15.9595   2
  -5  -5  -2 493.154 17.4952   3
  -5  -5  -2 479.912 18.7609   4
   5   5   2 478.728 16.8264   1
  -6  -5  -2 300.869 14.0725   3
  -6  -5  -2 299.193 15.6647   4
   6   5   2 299.912 10.2887   2
   6   5   2 295.270 13.4980   1
  -7  -5  -2 14.1457 6.09208   4
  -7  -5  -2 11.5720 5.40312   3
   7   5   2 13.9520 5.29179   1
  -8  -5  -2 10.9012 6.93292   4
  -8  -5  -2 20.3617 6.96784   3
   8   5   2 14.6319 5.70942   1
  -9  -5  -2 42.8147 8.48585   3
  -9  -5  -2 51.8929 10.2433   4
   9   5   2 36.2441 7.84898   1
 -10  -5  -2 135.869 14.0546   3
 -10  -5  -2 167.738 17.0380   4
  10   5   2 172.230 14.2045   1
 -11  -5  -2 13.3511 7.85267   3
  11   5   2 9.09418 5.88371   4
  11   5   2 7.22289 7.26999   1
 -12  -5  -2 4.05390 7.57862   3
  12   5   2 8.08566 6.18054   4
  12   5   2 -7.9569 6.66061   1
 -13  -5  -2 63.1376 12.3817   3
  13   5   2 64.2968 11.4555   4
  13   5   2 51.2854 11.7731   1
   8  -6  -2 111.184 19.4436   1
  -8   6   2 125.510 16.6346   3
   7  -6  -2 5.14487 10.4825   1
  -7   6   2 9.58212 5.26672   2
  -7   6   2 3.03854 8.39668   3
   6  -6  -2 1.84175 9.33098   1
  -6   6   2 2.51678 4.56684   2
  -6   6   2 -6.6637 6.25645   3
   5  -6  -2 11.0386 9.93511   1
  -5   6   2 6.63276 7.67928   3
  -5   6   2 14.2953 5.47697   2
   4  -6  -2 163.345 17.4517   1
  -4   6   2 177.118 14.6273   3
  -4   6   2 183.846 12.6177   2
   3  -6  -2 196.481 18.4996   1
  -3   6   2 154.119 11.6604   2
  -3   6   2 179.822 13.0784   3
   2  -6  -2 1007.91 36.5806   1
  -2   6   2 1113.60 32.0680   3
  -2   6   2 1106.45 35.0629   2
   1  -6  -2 325.047 16.7164   2
   1  -6  -2 344.680 19.3971   1
  -1   6   2 314.497 14.0029   3
   0  -6  -2 1703.85 34.0440   4
   0  -6  -2 1629.32 45.7692   1
   0  -6  -2 1670.11 48.4254   2
   0   6   2 1625.24 40.8976   3
  -1  -6  -2 21.7725 3.83809   4
  -1  -6  -2 30.2083 7.34030   1
  -1  -6  -2 24.6100 6.17615   2
   1   6   2 21.4532 4.40666   3
  -2  -6  -2 23.9221 5.90214   1
  -2  -6  -2 3.20286 4.74265   2
  -2  -6  -2 23.4809 4.67124   4
   2   6   2 18.0593 3.64625   3
  -3  -6  -2 48.9467 6.97523   1
  -3  -6  -2 46.6938 6.35175   4
  -3  -6  -2 70.5380 7.75288   3
  -3  -6  -2 41.3216 6.77505   2
  -4  -6  -2 6.77719 4.38383   4
  -4  -6  -2 11.9642 4.40723   1
  -4  -6  -2 13.4767 4.75377   2
  -4  -6  -2 12.4140 4.64068   3
  -5  -6  -2 2462.15 61.6458   2
  -5  -6  -2 2382.13 55.7863   4
  -5  -6  -2 2402.25 58.0022   3
   5   6   2 2412.99 55.1780   1
  -6  -6  -2 298.508 12.3028   2
  -6  -6  -2 319.599 16.4786   4
  -6  -6  -2 277.545 14.2029   3
   6   6   2 305.503 13.7670   1
  -7  -6  -2 308.461 17.2072   4
  -7  -6  -2 300.558 15.6817   3
   7   6   2 350.202 15.2597   1
   7   6   2 315.423 11.2673   2
  -8  -6  -2 77.8680 11.2199   4
  -8  -6  -2 77.5708 10.4836   3
   8   6   2 69.4186 8.91397   1
  -9  -6  -2 88.4421 12.1982   4
  -9  -6  -2 89.2948 11.2845   3
   9   6   2 102.163 11.3369   1
 -10  -6  -2 898.310 32.2591   3
 -10  -6  -2 833.130 33.3095   4
  10   6   2 831.007 30.0801   1
 -11  -6  -2 8.95023 7.29505   3
 -11  -6  -2 0.30029 7.02709   4
  11   6   2 -6.9574 5.42490   1
 -12  -6  -2 59.8308 11.7592   3
  12   6   2 62.5088 11.0069   4
  12   6   2 52.0428 10.3063   1
 -13  -6  -2 18.2835 9.41128   3
  13   6   2 32.2904 9.22214   4
  13   6   2 39.8473 10.6879   1
   7  -7  -2 5.32787 12.0434   1
  -7   7   2 10.9101 5.48086   2
  -7   7   2 -8.8793 8.03742   3
   6  -7  -2 -9.8655 9.89121   1
  -6   7   2 7.80075 5.16881   2
  -6   7   2 5.91175 7.75635   3
   5  -7  -2 372.750 25.0873   1
  -5   7   2 375.534 19.2841   2
  -5   7   2 365.796 20.7988   3
   4  -7  -2 80.5807 14.6623   1
  -4   7   2 109.430 11.9367   2
  -4   7   2 82.4917 11.4157   3
   3  -7  -2 43.8821 11.2868   1
  -3   7   2 38.2044 7.52585   2
  -3   7   2 49.3640 8.73574   3
   2  -7  -2 732.461 31.3719   1
  -2   7   2 740.196 25.4145   3
  -2   7   2 730.246 27.6949   2
   1  -7  -2 28.6502 9.45342   1
   1  -7  -2 49.3699 9.31772   2
  -1   7   2 44.1191 7.32962   3
   0  -7  -2 18.4957 8.31178   1
   0  -7  -2 14.4954 6.68580   2
   0  -7  -2 12.4358 3.11964   4
   0   7   2 16.2213 4.73491   3
  -1  -7  -2 72.4247 9.94591   2
  -1  -7  -2 98.3252 6.81704   4
  -1  -7  -2 65.7665 10.1270   1
   1   7   2 91.3891 7.56499   3
  -2  -7  -2 74.5312 9.40197   2
  -2  -7  -2 67.2266 6.87731   4
  -2  -7  -2 64.7129 9.47712   1
   2   7   2 69.4808 7.04521   3
  -3  -7  -2 3.36466 4.90270   2
  -3  -7  -2 16.9054 5.76924   1
  -3  -7  -2 6.72856 4.30793   4
   3   7   2 12.5284 3.58097   3
  -4  -7  -2 1.78786 4.13972   4
  -4  -7  -2 0.09043 3.87332   1
  -4  -7  -2 4.85820 4.30641   2
  -4  -7  -2 6.80429 4.62932   3
  -5  -7  -2 411.998 18.4154   4
  -5  -7  -2 385.485 16.8995   1
  -5  -7  -2 400.270 17.4214   2
  -5  -7  -2 382.719 17.3177   3
  -6  -7  -2 99.3033 11.3125   4
  -6  -7  -2 124.795 11.4020   3
  -6  -7  -2 106.978 9.17186   2
   6   7   2 102.342 9.10956   1
  -7  -7  -2 6.40456 6.12199   4
  -7  -7  -2 6.55352 5.95681   3
   7   7   2 10.7019 3.37672   2
   7   7   2 12.6982 5.06674   1
  -8  -7  -2 8.27731 6.01895   3
  -8  -7  -2 1.03145 6.29918   4
   8   7   2 2.51542 4.35432   1
  -9  -7  -2 -0.0011 6.16759   4
  -9  -7  -2 2.23974 5.76505   3
   9   7   2 0.96650 4.54488   1
 -10  -7  -2 97.2128 14.3667   4
 -10  -7  -2 85.8943 12.5705   3
  10   7   2 87.0777 11.1588   1
 -11  -7  -2 14.2292 7.87895   3
 -11  -7  -2 8.25923 8.22581   4
  11   7   2 17.4698 6.65932   1
 -12  -7  -2 13.4969 8.48471   3
  12   7   2 25.6477 7.62894   4
  12   7   2 32.5609 8.69072   1
   6  -8  -2 4.33250 12.1841   1
  -6   8   2 15.7760 6.79135   2
  -6   8   2 15.6049 9.38404   3
   5  -8  -2 59.0691 15.9130   1
  -5   8   2 100.074 11.8739   2
  -5   8   2 84.3159 13.3641   3
   4  -8  -2 -17.936 8.56826   1
  -4   8   2 14.0257 7.82427   3
  -4   8   2 1.67469 4.75224   2
   3  -8  -2 47.5902 12.1355   1
  -3   8   2 79.5102 10.4857   2
  -3   8   2 66.5138 10.4126   3
   2  -8  -2 162.016 17.9621   1
  -2   8   2 171.363 12.7514   3
   1  -8  -2 5.07113 7.89391   1
  -1   8   2 2.97112 5.30462   3
  -1   8   2 -3.5380 3.63844   2
   0  -8  -2 578.523 26.1514   2
   0  -8  -2 593.899 27.1532   1
   0   8   2 605.109 21.5857   3
  -1  -8  -2 44.9221 10.1743   1
  -1  -8  -2 34.1595 8.55952   2
  -1  -8  -2 37.6993 5.12403   4
   1   8   2 50.4026 7.11724   3
  -2  -8  -2 2394.40 61.5609   1
  -2  -8  -2 2522.17 52.8392   4
  -2  -8  -2 2496.51 69.0791   2
   2   8   2 2411.23 58.0219   3
  -3  -8  -2 502.001 22.2484   2
  -3  -8  -2 479.131 17.9642   4
  -3  -8  -2 535.928 21.0510   1
   3   8   2 506.421 17.7422   3
  -4  -8  -2 683.066 26.0478   2
  -4  -8  -2 654.813 23.7714   1
  -4  -8  -2 656.695 22.4781   4
  -4  -8  -2 683.022 23.7302   3
  -5  -8  -2 62.4852 9.58933   4
  -5  -8  -2 77.0724 9.76673   2
  -5  -8  -2 57.6840 8.83208   3
  -5  -8  -2 63.0527 8.74268   1
  -6  -8  -2 287.850 16.9458   4
  -6  -8  -2 280.934 15.6945   2
  -6  -8  -2 289.825 16.3998   3
   6   8   2 259.742 13.8964   1
  -7  -8  -2 354.973 17.8935   3
  -7  -8  -2 358.851 19.7804   4
   7   8   2 361.596 16.4228   1
  -8  -8  -2 151.596 13.0197   3
  -8  -8  -2 154.358 16.1393   4
   8   8   2 139.714 11.1263   1
  -9  -8  -2 336.040 21.2940   4
  -9  -8  -2 337.297 18.9537   3
   9   8   2 351.092 17.2488   1
 -10  -8  -2 157.704 15.1243   3
 -10  -8  -2 126.914 15.8487   4
  10   8   2 123.408 12.7631   1
 -11  -8  -2 78.1435 13.8605   4
 -11  -8  -2 107.006 14.4723   3
  11   8   2 67.8031 10.5157   1
 -12  -8  -2 237.151 18.9697   3
  12   8   2 211.938 17.0573   4
  12   8   2 251.702 17.1219   1
   5  -9  -2 86.7118 17.2481   1
  -5   9   2 76.6085 11.5704   2
  -5   9   2 80.6230 13.6182   3
   4  -9  -2 19.1420 12.0490   1
  -4   9   2 26.3987 9.35826   3
  -4   9   2 19.3112 7.10765   2
   3  -9  -2 24.2542 11.4833   1
  -3   9   2 1.36487 5.44086   2
  -3   9   2 10.7985 7.13413   3
   2  -9  -2 161.479 18.2340   1
  -2   9   2 144.057 14.6341   2
  -2   9   2 179.631 13.9079   3
   1  -9  -2 -1.5314 8.46250   1
  -1   9   2 5.43889 5.28279   2
  -1   9   2 3.80931 5.29940   3
   0  -9  -2 15.7173 7.90020   2
   0  -9  -2 10.9340 8.41897   1
   0   9   2 4.51238 4.83005   3
  -1  -9  -2 103.699 14.0415   1
  -1  -9  -2 99.7071 13.2081   2
   1   9   2 89.1205 9.42680   3
  -2  -9  -2 13.9481 7.62094   1
  -2  -9  -2 15.1877 7.57335   2
  -2  -9  -2 10.9532 4.77320   4
   2   9   2 15.8505 5.12810   3
  -3  -9  -2 68.0253 10.3698   2
  -3  -9  -2 75.8271 10.6683   1
  -3  -9  -2 72.5885 8.49657   4
   3   9   2 50.2870 7.14718   3
  -4  -9  -2 71.8034 9.83841   4
  -4  -9  -2 62.6987 9.30393   1
  -4  -9  -2 74.1757 11.1040   2
   4   9   2 68.1347 7.96938   3
  -5  -9  -2 58.5561 9.58946   4
  -5  -9  -2 74.8944 10.2208   3
  -5  -9  -2 69.4340 9.69966   1
  -5  -9  -2 76.6717 10.3992   2
  -6  -9  -2 45.6362 8.79631   3
  -6  -9  -2 20.6883 7.34706   2
  -6  -9  -2 56.9937 8.57020   1
  -6  -9  -2 21.1392 7.94569   4
  -7  -9  -2 98.6993 10.4717   2
  -7  -9  -2 67.1971 11.1746   4
  -7  -9  -2 90.0025 11.4232   3
   7   9   2 79.5063 9.49614   1
  -8  -9  -2 28.1701 9.42523   4
  -8  -9  -2 35.3916 8.55655   3
   8   9   2 45.4543 7.70564   1
  -9  -9  -2 44.8560 9.91296   3
  -9  -9  -2 46.7602 11.0387   4
   9   9   2 63.9395 9.13826   1
 -10  -9  -2 79.5326 13.7704   4
 -10  -9  -2 104.932 13.5287   3
  10   9   2 92.0298 11.2008   1
 -11  -9  -2 49.7352 11.1213   3
  11   9   2 42.8800 8.62880   1
 -12  -9  -2 69.6923 13.1482   3
  12   9   2 69.4196 11.2836   1
  12   9   2 62.9004 11.3494   4
   4 -10  -2 25.0887 13.1104   1
  -4  10   2 43.9562 10.8449   3
  -4  10   2 28.6219 8.05499   2
   3 -10  -2 274.535 24.1180   1
  -3  10   2 329.396 19.9191   3
  -3  10   2 312.895 19.4761   2
   2 -10  -2 219.318 22.3110   1
  -2  10   2 194.829 15.4905   2
  -2  10   2 193.128 15.1673   3
   1 -10  -2 101.879 16.1881   1
  -1  10   2 98.3991 11.2175   3
  -1  10   2 97.2324 12.5067   2
   0 -10  -2 11.4998 8.97413   1
   0  10   2 17.5729 5.85890   3
   0  10   2 1.00480 5.56438   2
  -1 -10  -2 295.700 20.1910   1
  -1 -10  -2 311.913 20.0856   2
   1  10   2 299.273 15.5079   3
  -2 -10  -2 85.2789 12.4200   1
  -2 -10  -2 97.2683 13.5026   2
   2  10   2 91.8497 9.81217   3
  -3 -10  -2 18.9976 7.88251   2
  -3 -10  -2 19.7441 7.62046   1
   3  10   2 19.1269 5.24788   3
  -4 -10  -2 246.921 14.3608   4
  -4 -10  -2 230.797 16.7227   2
  -4 -10  -2 241.582 16.5417   1
   4  10   2 226.210 12.7185   3
  -5 -10  -2 478.482 23.6837   2
  -5 -10  -2 517.589 21.7822   4
  -5 -10  -2 473.103 21.4693   1
   5  10   2 487.761 19.4077   3
  -6 -10  -2 394.101 19.3284   1
  -6 -10  -2 396.187 20.0720   4
  -6 -10  -2 379.288 20.6382   2
  -6 -10  -2 409.626 19.5309   3
  -7 -10  -2 415.704 20.6730   3
  -7 -10  -2 399.643 21.5280   4
   7  10   2 437.719 19.1620   1
  -8 -10  -2 9.92060 7.68172   4
  -8 -10  -2 1.28462 6.65489   3
   8  10   2 0.08044 4.27950   1
  -9 -10  -2 65.0477 11.1475   3
  -9 -10  -2 38.5696 10.4689   4
   9  10   2 43.6134 8.20683   1
 -10 -10  -2 5.67468 7.35642   3
 -10 -10  -2 5.67301 8.34375   4
  10  10   2 17.6771 6.22869   1
 -11 -10  -2 99.3052 14.1944   3
  11  10   2 76.1950 11.9563   4
  11  10   2 80.0522 10.7465   1
  12  10   2 27.2625 8.31084   4
   2 -11  -2 25.6340 11.7670   1
  -2  11   2 18.4009 7.98858   3
  -2  11   2 18.3534 7.71858   2
   1 -11  -2 19.5393 10.5320   1
  -1  11   2 12.8787 6.84425   3
  -1  11   2 13.1623 6.42237   2
   0 -11  -2 19.0551 10.1136   1
   0  11   2 13.8825 6.57538   3
   0  11   2 17.0067 7.25779   2
  -1 -11  -2 98.4897 15.0049   1
   1  11   2 106.990 13.6519   2
   1  11   2 117.906 11.7460   3
  -2 -11  -2 202.181 17.3160   1
   2  11   2 197.146 13.2042   3
  -3 -11  -2 13.9914 8.34197   2
  -3 -11  -2 33.6371 9.22736   1
   3  11   2 14.8835 5.54712   3
  -4 -11  -2 100.234 13.3791   1
  -4 -11  -2 119.394 14.7045   2
   4  11   2 118.387 11.3819   3
  -5 -11  -2 30.9153 8.47998   4
  -5 -11  -2 54.4209 10.4504   1
  -5 -11  -2 62.2120 11.5604   2
   5  11   2 47.9614 7.91455   3
  -6 -11  -2 167.542 15.9860   4
  -6 -11  -2 204.601 16.2190   2
  -6 -11  -2 172.546 14.6608   1
   6  11   2 186.800 12.1543   3
  -7 -11  -2 0.35298 6.78420   4
  -7 -11  -2 -1.1882 6.29457   3
   7  11   2 4.11913 4.27182   2
   7  11   2 -2.3441 4.28834   1
  -8 -11  -2 46.8410 10.8153   4
  -8 -11  -2 68.7260 11.3838   3
   8  11   2 60.6072 9.19910   1
  -9 -11  -2 213.948 20.0018   4
  -9 -11  -2 188.038 16.5875   3
   9  11   2 244.634 15.2881   1
 -10 -11  -2 -1.8297 7.43859   3
  10  11   2 0.40174 5.30456   4
  10  11   2 9.00837 5.44329   1
 -11 -11  -2 2.43377 8.10809   3
  11  11   2 7.34622 5.98993   4
  -1  12   2 188.300 18.6755   2
   0 -12  -2 125.720 17.5600   1
   0  12   2 154.681 13.4625   3
   0  12   2 111.322 14.6507   2
  -1 -12  -2 9.91727 9.18490   1
   1  12   2 19.2843 6.90213   3
   1  12   2 19.7605 7.24137   2
  -2 -12  -2 15.3050 8.94021   1
   2  12   2 24.3605 7.03833   3
   2  12   2 24.9635 8.01042   2
  -3 -12  -2 7.36822 8.21463   1
   3  12   2 9.20612 5.48493   3
   3  12   2 1.92706 5.09263   2
  -4 -12  -2 139.738 15.5708   1
   4  12   2 124.096 10.8766   3
   4  12   2 97.0132 12.8164   2
  -5 -12  -2 87.2399 12.5932   1
   5  12   2 63.8354 10.4549   2
   5  12   2 72.6686 9.40564   3
  -6 -12  -2 103.905 12.8645   1
   6  12   2 82.3249 11.0099   4
   6  12   2 95.9763 11.8021   2
   6  12   2 96.9379 10.8198   3
   7  12   2 142.120 11.8415   3
   7  12   2 134.094 13.5241   1
   7  12   2 138.095 12.0066   2
   7  12   2 141.203 12.2254   4
  -8 -12  -2 180.850 17.6862   3
   8  12   2 198.729 14.4257   1
   8  12   2 217.808 15.5560   4
  -9 -12  -2 78.0849 12.8644   3
   9  12   2 79.0266 10.7551   1
   9  12   2 65.8322 10.9990   4
 -10 -12  -2 126.578 15.4879   3
  10  12   2 120.973 14.4310   4
  -2 -13  -2 -2.6781 9.14112   1
   2  13   2 3.91889 6.25608   2
  -3 -13  -2 34.1267 10.4403   1
   3  13   2 39.6051 9.17974   2
  -4 -13  -2 16.0001 8.84241   1
   4  13   2 5.38280 5.84389   2
  -5 -13  -2 17.7428 9.20894   1
   5  13   2 38.4715 8.60665   2
  -6 -13  -2 64.0595 11.6972   1
   6  13   2 71.3697 10.9021   2
   7  13   2 91.1354 11.8054   2
   8  13   2 11.7814 6.07020   4
   6  13  -3 74.5297 11.5132   3
  -6 -13   3 54.4417 12.2733   2
   5  13  -3 90.9933 12.4922   3
  -5 -13   3 81.8163 14.1289   2
   4  13  -3 351.384 19.7590   3
  -4 -13   3 364.452 25.2247   2
   3  13  -3 99.1180 12.7821   3
  -3 -13   3 112.844 16.7261   2
   8  12  -3 12.4151 6.62836   4
  -8 -12   3 -8.2735 8.00660   3
   7  12  -3 55.4728 9.72171   4
  -7 -12   3 48.1859 10.8512   2
   6  12  -3 17.6327 6.83978   3
  -6 -12   3 29.3659 9.31002   2
   5  12  -3 13.2324 6.66725   3
  -5 -12   3 20.6557 9.19426   2
   4  12  -3 40.4126 8.59219   3
  -4 -12   3 29.2997 9.83801   2
   3  12  -3 17.1928 6.97671   3
  -3 -12   3 17.8040 9.39465   2
   2  12  -3 14.6679 7.39393   3
  -2 -12   3 22.3235 10.0880   2
  -2 -12   3 4.36986 8.49225   1
   1  12  -3 21.0858 7.93705   3
  -1 -12   3 26.0820 10.6499   2
  -1 -12   3 36.8820 9.71619   1
   0  12  -3 30.6759 8.82331   3
   0 -12   3 28.8838 9.85179   1
   0 -12   3 20.7013 10.4264   2
  10  11  -3 68.1790 12.0226   4
   9  11  -3 84.1788 12.7625   4
  -9 -11   3 70.0683 13.1819   3
   8  11  -3 72.5688 11.4860   4
  -8 -11   3 50.3517 11.7535   3
   7  11  -3 248.046 16.3231   4
  -7 -11   3 266.741 19.6055   3
  -7 -11   3 271.700 19.1698   2
   6  11  -3 315.096 17.4422   4
  -6 -11   3 306.733 20.2613   2
  -6 -11   3 280.488 20.1443   3
   5  11  -3 60.1739 9.88962   3
   5  11  -3 54.9254 8.68063   4
  -5 -11   3 60.4852 11.7127   2
   4  11  -3 74.2102 10.8982   3
  -4 -11   3 96.2456 13.6566   2
   3  11  -3 112.210 12.7608   3
  -3 -11   3 114.063 15.2508   2
  -3 -11   3 102.615 11.7454   1
   2  11  -3 793.576 29.8352   3
  -2 -11   3 824.443 29.2310   1
  -2 -11   3 776.628 34.3786   2
   1  11  -3 40.2122 9.02204   3
  -1 -11   3 11.7922 8.46438   2
  -1 -11   3 20.4959 8.73187   1
   0  11  -3 324.450 19.1156   3
   0 -11   3 360.195 21.6052   1
   0 -11   3 364.896 24.3769   2
  -1  11  -3 88.1957 12.1576   3
   1 -11   3 55.5263 11.9425   1
   1 -11   3 76.5366 13.9895   2
  -2  11  -3 37.1181 9.84580   3
   2 -11   3 15.0860 10.4080   2
   2 -11   3 34.5286 11.6484   1
  10  10  -3 -0.0237 5.82617   4
 -10 -10   3 -9.7404 7.94011   3
   9  10  -3 1.61044 5.23194   4
  -9 -10   3 -1.6952 7.75083   3
   8  10  -3 8.41342 6.00766   4
  -8 -10   3 16.3977 8.06125   3
   7  10  -3 10.0232 5.91449   4
  -7 -10   3 15.2927 8.80630   3
  -7 -10   3 24.2220 8.49463   2
   6  10  -3 35.5244 7.46333   4
  -6 -10   3 9.40696 7.69400   3
  -6 -10   3 9.77952 7.08403   2
   5  10  -3 5.37167 4.56378   4
  -5 -10   3 7.98094 6.90844   2
  -5 -10   3 7.84921 7.92619   3
   4  10  -3 266.654 16.0556   3
   4  10  -3 267.923 14.0190   4
  -4 -10   3 277.922 14.4602   1
  -4 -10   3 303.023 19.3297   2
   3  10  -3 36.2535 7.87961   3
  -3 -10   3 44.8577 7.98643   1
  -3 -10   3 43.9523 10.0178   2
   2  10  -3 6.03766 5.83858   3
  -2 -10   3 7.58832 7.71089   2
  -2 -10   3 5.49080 6.38115   1
   1  10  -3 42.6895 8.30925   3
  -1 -10   3 31.7515 9.50420   2
  -1 -10   3 36.8787 8.92395   1
   0  10  -3 97.6899 11.8087   3
   0 -10   3 90.7039 13.5198   2
   0 -10   3 67.0994 11.4760   1
  -1  10  -3 90.9667 12.0823   3
   1 -10   3 97.6721 14.0929   1
   1 -10   3 71.3633 12.6407   2
  -2  10  -3 29.8627 9.03192   3
   2 -10   3 30.5473 9.97625   2
   2 -10   3 45.2941 11.5095   1
  -3  10  -3 24.4846 8.71936   3
   3 -10   3 18.4754 9.92327   1
   3 -10   3 24.3424 9.56455   2
  -4  10  -3 58.5283 12.2097   3
   4 -10   3 43.7563 12.2861   2
   4 -10   3 50.7396 13.5311   1
  11   9  -3 31.2075 9.52260   4
 -11  -9   3 19.7827 10.3537   3
  10   9  -3 25.5642 8.32408   4
 -10  -9   3 11.2197 9.31278   3
   9   9  -3 507.635 24.2013   4
  -9  -9   3 445.455 25.3953   3
   8   9  -3 44.2229 9.46170   4
  -8  -9   3 44.9458 10.4347   3
   7   9  -3 728.382 28.1612   4
  -7  -9   3 701.531 29.9723   3
  -7  -9   3 792.145 29.8277   2
   6   9  -3 8.45779 5.14199   4
  -6  -9   3 15.8605 7.15450   2
  -6  -9   3 9.41043 7.71726   3
   5   9  -3 705.565 25.0856   4
  -5  -9   3 727.368 29.0452   2
  -5  -9   3 752.285 22.3534   1
  -5  -9   3 670.448 28.7940   3
   4   9  -3 34.9841 6.53498   4
  -4  -9   3 51.1010 7.40761   1
  -4  -9   3 21.4598 8.10758   3
  -4  -9   3 39.4289 9.08389   2
   3   9  -3 260.969 14.9809   3
   3   9  -3 269.891 12.9966   4
  -3  -9   3 276.011 14.0197   1
  -3  -9   3 307.107 19.0014   2
   2   9  -3 61.8677 9.38163   3
  -2  -9   3 58.8538 10.5288   2
   1   9  -3 24.5673 6.45891   3
  -1  -9   3 12.7339 7.55638   2
  -1  -9   3 26.8313 7.71969   1
   0   9  -3 28.9611 7.47258   3
   0  -9   3 31.4974 8.77795   2
   0  -9   3 22.1623 8.35900   1
  -1   9  -3 100.868 11.6778   3
   1  -9   3 95.1309 12.9134   1
   1  -9   3 116.463 13.6673   2
  -2   9  -3 60.2496 10.0418   3
   2  -9   3 60.5080 11.8091   1
   2  -9   3 74.7566 12.4040   2
  -3   9  -3 248.569 17.6667   3
   3  -9   3 292.985 21.2260   1
   3  -9   3 289.027 20.4051   2
  -4   9  -3 121.764 14.7067   3
   4  -9   3 128.378 17.4613   1
   4  -9   3 141.445 16.0194   2
  -5   9  -3 198.342 19.1143   3
   5  -9   3 206.763 22.5887   1
  11   8  -3 10.0307 7.58904   4
 -11  -8   3 13.0375 10.1241   3
  10   8  -3 25.4796 8.36386   4
 -10  -8   3 14.9254 9.11514   3
   9   8  -3 19.8083 7.35574   4
  -9  -8   3 17.0444 8.34083   3
   8   8  -3 -0.5805 4.95683   4
  -8  -8   3 6.06307 7.48649   3
   7   8  -3 90.3441 12.0385   1
   7   8  -3 78.8550 10.9166   4
  -7  -8   3 71.2966 9.39378   2
  -7  -8   3 83.3349 12.3307   3
   6   8  -3 112.942 7.84666   1
   6   8  -3 106.743 11.7244   4
  -6  -8   3 106.402 11.6452   2
  -6  -8   3 134.992 15.0352   3
   5   8  -3 93.2659 7.34224   1
   5   8  -3 85.6941 10.4302   4
  -5  -8   3 112.379 12.2380   2
  -5  -8   3 125.074 13.9430   3
   4   8  -3 3.49983 4.06158   4
  -4  -8   3 -3.2107 6.69634   3
  -4  -8   3 2.18996 5.68364   2
  -4  -8   3 1.21858 4.35410   1
   3   8  -3 1293.81 37.1599   3
   3   8  -3 1211.54 32.8470   4
  -3  -8   3 1243.83 41.3782   2
  -3  -8   3 1294.58 33.4198   1
   2   8  -3 336.749 13.2901   4
   2   8  -3 324.978 15.8614   3
  -2  -8   3 294.389 18.5137   2
  -2  -8   3 316.422 15.7577   1
   1   8  -3 36.2434 7.14674   3
  -1  -8   3 28.7154 8.68961   2
  -1  -8   3 44.2304 8.49631   1
   0   8  -3 968.990 31.5313   3
   0  -8   3 987.096 32.4805   1
   0  -8   3 992.878 36.2429   2
  -1   8  -3 27.3112 7.21798   3
   1  -8   3 28.8502 8.35466   2
   1  -8   3 48.6056 9.75165   1
  -2   8  -3 61.8199 9.83978   3
   2  -8   3 49.7004 9.94835   2
   2  -8   3 51.2784 11.0496   1
  -3   8  -3 11.0330 7.12375   3
   3  -8   3 25.7052 9.31187   1
   3  -8   3 1.66497 6.14003   2
  -4   8  -3 1.78042 6.94282   3
   4  -8   3 12.1636 9.17355   1
   4  -8   3 9.07123 7.29591   2
  -5   8  -3 6.34135 8.28489   3
   5  -8   3 2.49621 7.21365   2
   5  -8   3 2.28916 9.61509   1
  -6   8  -3 18.6910 10.0461   3
  -6   8  -3 3.63972 5.13677   2
   6  -8   3 18.7669 11.7742   1
  12   7  -3 175.570 18.8876   4
 -12  -7   3 170.211 19.3895   3
  11   7  -3 152.392 17.6146   4
 -11  -7   3 149.120 17.5348   3
  10   7  -3 269.836 18.8051   4
 -10  -7   3 287.524 20.8541   3
   9   7  -3 -1.9411 4.99383   4
  -9  -7   3 8.18155 7.81520   3
   8   7  -3 3.90230 4.04070   1
   8   7  -3 4.76662 5.46026   4
  -8  -7   3 11.8671 7.49394   3
   7   7  -3 18.7517 6.53288   4
   7   7  -3 28.9013 5.26458   1
  -7  -7   3 18.7950 6.22360   2
  -7  -7   3 19.2961 7.72446   3
   6   7  -3 209.717 13.8941   4
   6   7  -3 238.722 10.3856   1
  -6  -7   3 204.941 13.7573   2
  -6  -7   3 208.702 15.6799   3
   5   7  -3 421.196 14.1101   1
   5   7  -3 408.239 18.1047   4
  -5  -7   3 413.519 20.1187   3
  -5  -7   3 415.862 19.0339   2
   4   7  -3 612.294 21.5811   4
  -4  -7   3 638.901 18.9158   1
  -4  -7   3 628.825 25.1306   3
  -4  -7   3 621.157 24.6129   2
   3   7  -3 532.559 18.8943   4
  -3  -7   3 597.552 23.9823   3
  -3  -7   3 586.216 18.4568   1
  -3  -7   3 559.767 23.9919   2
   2   7  -3 819.421 26.7371   3
   2   7  -3 835.265 23.2825   4
  -2  -7   3 786.026 30.1837   2
  -2  -7   3 835.201 24.9438   1
   1   7  -3 181.101 8.70710   4
   1   7  -3 182.204 11.5351   3
  -1  -7   3 171.704 13.3228   2
  -1  -7   3 177.946 12.3272   1
   0   7  -3 5.48647 4.71447   3
   0  -7   3 6.06780 5.95718   1
   0  -7   3 3.17061 6.01646   2
  -1   7  -3 122.913 12.0575   3
   1  -7   3 113.588 13.0860   1
   1  -7   3 111.635 12.6019   2
  -2   7  -3 121.819 12.3682   3
   2  -7   3 110.791 12.8262   2
   2  -7   3 105.523 13.1280   1
  -3   7  -3 481.631 22.0324   3
   3  -7   3 463.279 24.3996   1
   3  -7   3 496.673 23.0303   2
  -4   7  -3 15.4967 7.53794   3
   4  -7   3 11.2258 8.58550   1
   4  -7   3 7.22081 6.07584   2
  -5   7  -3 19.6613 8.54444   3
   5  -7   3 7.10131 6.67751   2
   5  -7   3 21.5679 10.5539   1
  -6   7  -3 143.721 16.2642   3
   6  -7   3 154.076 19.7132   1
  -7   7  -3 164.248 13.0447   2
  -7   7  -3 143.597 17.3825   3
   7  -7   3 174.223 21.8952   1
  12   6  -3 9.05521 7.49124   4
 -12  -6   3 -1.3845 8.41905   3
  11   6  -3 59.4866 11.7253   4
 -11  -6   3 80.9670 14.2344   3
  10   6  -3 123.216 15.1623   4
 -10  -6   3 111.911 14.5345   3
   9   6  -3 10.1743 5.35205   1
   9   6  -3 14.5895 7.28491   4
  -9  -6   3 -6.4527 6.52430   3
   8   6  -3 5.28900 4.57398   1
   8   6  -3 5.33272 5.43475   4
  -8  -6   3 0.22917 5.46752   3
   7   6  -3 875.942 25.3808   1
   7   6  -3 945.283 31.5009   4
  -7  -6   3 866.239 31.7093   3
  -7  -6   3 908.638 28.7959   2
   6   6  -3 694.873 19.9435   1
   6   6  -3 670.200 25.0294   4
  -6  -6   3 672.127 23.7449   2
  -6  -6   3 652.338 25.8987   3
   5   6  -3 233.417 9.71335   1
   5   6  -3 223.965 13.3747   4
  -5  -6   3 226.835 14.1160   3
  -5  -6   3 222.831 13.3437   2
   4   6  -3 92.3264 9.42816   4
   4   6  -3 108.881 6.38552   1
  -4  -6   3 117.203 11.8115   3
  -4  -6   3 102.627 10.0484   2
   3   6  -3 914.066 26.6095   4
  -3  -6   3 957.736 30.5959   3
  -3  -6   3 996.729 24.4448   1
  -3  -6   3 938.436 31.3164   2
   2   6  -3 2.95909 3.17323   4
  -2  -6   3 2.63644 3.34807   1
  -2  -6   3 -1.7849 4.28753   2
  -2  -6   3 1.66426 4.88793   3
   1   6  -3 418.362 13.6539   4
   1   6  -3 392.747 16.3502   3
  -1  -6   3 413.775 16.4510   1
  -1  -6   3 393.989 18.8103   2
   0   6  -3 276.096 13.7513   3
   0   6  -3 288.905 9.36463   4
   0  -6   3 290.522 14.8673   1
   0  -6   3 263.859 15.6267   2
  -1   6  -3 42.4854 6.87385   3
   1  -6   3 35.4891 7.72078   2
   1  -6   3 41.0175 8.14006   1
  -2   6  -3 21.6566 6.56152   3
   2  -6   3 34.9809 7.70771   2
   2  -6   3 16.1071 7.48371   1
  -3   6  -3 136.315 13.4612   3
   3  -6   3 147.709 15.6988   1
   3  -6   3 156.241 13.5765   2
  -4   6  -3 10.9611 6.01323   3
   4  -6   3 3.34457 5.17610   2
   4  -6   3 -3.2478 6.90662   1
  -5   6  -3 179.315 14.4814   3
   5  -6   3 225.817 21.1410   1
   5  -6   3 179.468 13.8498   2
  -6   6  -3 25.3054 9.38256   3
   6  -6   3 23.1635 7.13594   2
   6  -6   3 22.9763 11.1868   1
  -7   6  -3 -3.2098 3.45310   2
  -7   6  -3 2.43151 8.18177   3
   7  -6   3 -9.8446 9.65919   1
  -8   6  -3 74.1804 14.0881   3
   8  -6   3 48.4959 16.1072   1
  12   5  -3 127.769 16.4481   4
 -12  -5   3 124.239 17.1214   3
  11   5  -3 3.81929 6.79547   4
 -11  -5   3 0.01555 7.48518   3
  10   5  -3 78.3735 11.3051   1
  10   5  -3 106.135 14.4388   4
 -10  -5   3 97.4533 14.5010   3
   9   5  -3 249.015 15.1630   1
   9   5  -3 226.024 16.5485   4
  -9  -5   3 256.116 17.8967   3
   8   5  -3 438.470 17.9271   1
   8   5  -3 429.518 21.3014   4
  -8  -5   3 440.299 22.1321   3
   7   5  -3 250.544 15.7698   4
   7   5  -3 247.380 12.4543   1
  -7  -5   3 223.799 16.0192   3
  -7  -5   3 263.069 12.4356   2
   6   5  -3 131.153 8.66194   1
   6   5  -3 144.343 11.8133   4
  -6  -5   3 136.500 13.3230   3
  -6  -5   3 121.099 9.39329   2
   5   5  -3 154.476 11.1203   4
   5   5  -3 151.707 7.85727   1
  -5  -5   3 140.279 11.0638   3
  -5  -5   3 148.968 10.1107   2
   4   5  -3 685.135 22.4978   4
   4   5  -3 695.832 17.9279   1
  -4  -5   3 704.665 23.9515   2
  -4  -5   3 670.249 24.0113   3
   3   5  -3 467.479 16.8063   4
  -3  -5   3 433.099 18.2819   3
  -3  -5   3 459.475 18.6429   2
  -3  -5   3 487.984 13.5826   1
   2   5  -3 1112.11 28.5244   4
  -2  -5   3 1108.82 34.2745   2
  -2  -5   3 1088.61 32.4082   3
  -2  -5   3 1137.25 26.8192   1
   1   5  -3 18.0835 4.00711   4
   1   5  -3 10.6450 4.32694   3
  -1  -5   3 16.7552 5.58906   2
  -1  -5   3 14.8297 4.42822   1
   0   5  -3 5839.48 108.066   4
   0   5  -3 5736.91 124.109   3
   0  -5   3 5618.15 139.444   2
   0  -5   3 5795.91 118.751   1
  -1   5  -3 267.058 12.8602   3
   1  -5   3 279.022 14.7469   1
   1  -5   3 251.088 14.5382   2
  -2   5  -3 170.179 11.0475   3
   2  -5   3 177.165 13.1462   1
   2  -5   3 203.499 13.0899   2
  -3   5  -3 17.5581 6.14627   3
   3  -5   3 19.1314 6.38535   2
   3  -5   3 15.4296 7.26804   1
  -4   5  -3 -5.4059 5.20940   3
   4  -5   3 -2.9541 6.23581   1
   4  -5   3 2.01206 4.77047   2
  -5   5  -3 390.591 20.0817   3
   5  -5   3 426.319 19.4409   2
   5  -5   3 382.664 22.1950   1
  -6   5  -3 30.2565 9.81033   3
   6  -5   3 42.6934 8.38254   2
   6  -5   3 31.8063 11.0521   1
  -7   5  -3 104.638 14.4445   3
  -7   5  -3 79.0026 9.35182   2
   7  -5   3 61.2082 14.7623   1
  -8   5  -3 51.5709 12.3733   3
   8  -5   3 31.5055 13.3365   1
  -9   5  -3 4.83236 9.22451   3
   9  -5   3 17.3778 14.2492   1
  12   4  -3 22.2793 8.36946   4
 -12  -4   3 0.56793 8.10740   3
  11   4  -3 9.50858 7.89699   4
  11   4  -3 3.74088 7.91639   1
 -11  -4   3 20.5831 9.29021   3
  10   4  -3 589.736 24.7421   1
  10   4  -3 652.778 27.7203   4
 -10  -4   3 536.213 26.7139   3
   9   4  -3 40.0812 8.71791   1
   9   4  -3 24.6208 7.62423   4
  -9  -4   3 29.6490 8.86137   3
   8   4  -3 92.5782 10.5088   1
   8   4  -3 96.4317 12.1424   4
  -8  -4   3 70.4303 10.6189   3
   7   4  -3 761.765 24.0453   1
   7   4  -3 770.612 27.9916   4
  -7  -4   3 781.340 23.6280   2
  -7  -4   3 808.420 28.9408   3
   6   4  -3 14.0647 4.45429   1
   6   4  -3 10.7426 5.15832   4
  -6  -4   3 15.2631 5.98096   3
  -6  -4   3 14.1710 4.29391   2
   5   4  -3 193.037 9.14835   1
   5   4  -3 201.402 12.2789   4
  -5  -4   3 186.648 11.8533   3
  -5  -4   3 214.038 10.6919   2
   4   4  -3 69.8256 7.95408   4
   4   4  -3 58.5366 4.86074   1
  -4  -4   3 60.6746 8.53659   3
  -4  -4   3 71.1506 7.28044   2
   3   4  -3 91.3981 4.79276   1
   3   4  -3 86.9737 7.46653   4
  -3  -4   3 96.8003 8.49116   2
  -3  -4   3 79.1822 8.75774   3
   2   4  -3 76.2141 6.73444   4
  -2  -4   3 93.1929 5.30832   1
  -2  -4   3 95.8971 8.34919   3
  -2  -4   3 85.3297 8.40117   2
   1   4  -3 18.1013 3.98610   4
  -1  -4   3 25.1078 5.89709   3
  -1  -4   3 24.5881 4.32794   1
  -1  -4   3 25.1404 5.58204   2
   0   4  -3 140.296 6.81846   4
   0   4  -3 132.891 8.41911   3
   0  -4   3 128.696 9.16665   1
   0  -4   3 123.723 9.69508   2
  -1   4  -3 51.2773 3.47492   4
  -1   4  -3 46.4343 6.03967   3
   1  -4   3 40.1963 6.72455   2
   1  -4   3 41.3487 7.24559   1
  -2   4  -3 7.54771 4.36660   3
   2  -4   3 11.4711 5.09933   2
   2  -4   3 7.84856 5.43098   1
  -3   4  -3 17.0554 5.23810   3
   3  -4   3 7.56195 6.41536   1
   3  -4   3 14.9687 5.39077   2
  -4   4  -3 67.1422 9.91248   3
   4  -4   3 63.4394 10.6925   1
   4  -4   3 64.3077 8.15643   2
  -5   4  -3 6.00556 6.19174   3
   5  -4   3 5.43762 4.65454   2
   5  -4   3 8.89682 7.36093   1
  -6   4  -3 19.8268 8.04675   3
   6  -4   3 4.87823 4.92299   2
   6  -4   3 5.58506 7.90841   1
  -7   4  -3 9.30655 4.04626   2
  -7   4  -3 -13.344 6.43368   3
   7  -4   3 5.35297 8.42706   1
  -8   4  -3 244.633 19.3846   3
   8  -4   3 271.246 24.6309   1
  -9   4  -3 1.46025 8.89029   3
   9  -4   3 2.84825 11.4999   1
  12   3  -3 50.6381 11.1982   4
  12   3  -3 23.8603 11.6275   1
 -12  -3   3 34.7454 11.5397   3
  11   3  -3 32.7710 9.01449   4
  11   3  -3 13.7932 9.44663   1
 -11  -3   3 21.8792 9.50032   3
  10   3  -3 25.3506 8.47044   4
  10   3  -3 33.8868 9.70246   1
 -10  -3   3 43.0144 10.9549   3
   9   3  -3 70.6661 11.1879   1
   9   3  -3 79.4717 11.7690   4
  -9  -3   3 77.8117 11.9747   3
   8   3  -3 43.7429 8.66229   1
   8   3  -3 27.6815 7.84113   4
  -8  -3   3 22.6031 7.77172   3
   7   3  -3 1438.49 39.0549   1
   7   3  -3 1527.05 42.7602   4
  -7  -3   3 1458.40 43.0617   3
  -7  -3   3 1515.74 38.8171   2
   6   3  -3 26.7361 6.33933   4
   6   3  -3 22.2807 5.55159   1
  -6  -3   3 30.1321 5.05799   2
  -6  -3   3 33.7318 7.72046   3
   5   3  -3 1966.09 44.7086   1
   5   3  -3 2026.97 48.6605   4
  -5  -3   3 1949.41 50.5967   3
  -5  -3   3 2004.34 50.6734   2
   4   3  -3 380.031 15.8694   4
   4   3  -3 405.297 12.8805   1
  -4  -3   3 400.998 16.5772   3
  -4  -3   3 409.220 14.9955   2
   3   3  -3 3456.92 67.6100   1
   3   3  -3 3350.59 71.1123   4
  -3  -3   3 3382.46 82.7483   2
  -3  -3   3 3412.82 76.7495   3
   2   3  -3 537.184 17.3107   4
  -2  -3   3 538.157 12.6984   1
  -2  -3   3 570.057 18.5845   3
  -2  -3   3 558.251 18.8248   2
   1   3  -3 610.301 17.5970   4
  -1  -3   3 635.222 15.5428   1
  -1  -3   3 630.308 20.1367   3
  -1  -3   3 652.155 21.1121   2
   0   3  -3 10.7015 3.49514   3
   0   3  -3 15.0539 3.58589   4
   0  -3   3 5.95648 3.95529   1
   0  -3   3 9.64642 4.17693   2
  -1   3  -3 301.608 8.24077   4
  -1   3  -3 278.771 11.9396   3
   1  -3   3 296.837 13.1091   1
   1  -3   3 292.816 13.3974   2
  -2   3  -3 1068.74 28.8962   3
  -2   3  -3 1013.21 20.5229   4
   2  -3   3 1029.72 29.0877   1
   2  -3   3 1067.14 31.2113   2
  -3   3  -3 2098.03 39.6449   4
  -3   3  -3 2080.62 51.1746   3
   3  -3   3 2065.21 54.2942   2
   3  -3   3 1989.67 50.4508   1
  -4   3  -3 955.078 29.6857   3
  -4   3  -3 978.247 21.5418   4
   4  -3   3 987.313 31.1248   1
   4  -3   3 951.699 29.6994   2
  -5   3  -3 680.771 25.6123   3
   5  -3   3 658.747 26.6681   1
   5  -3   3 718.997 17.5192   4
   5  -3   3 691.844 23.2389   2
  -6   3  -3 71.2374 10.8627   3
   6  -3   3 44.8994 10.4994   1
   6  -3   3 89.5426 8.79997   4
   6  -3   3 73.5901 8.25747   2
  -7   3  -3 433.206 16.9908   2
  -7   3  -3 461.801 22.6946   3
   7  -3   3 408.827 24.5564   1
  -8   3  -3 -0.9039 6.90834   3
   8  -3   3 -7.1195 7.90543   1
  -9   3  -3 132.240 16.0062   3
   9  -3   3 132.711 19.2485   1
 -10   3  -3 1.53716 8.60487   3
  10  -3   3 -8.9602 9.70278   1
  11   2  -3 1.28056 6.02794   4
  11   2  -3 15.1343 9.80748   1
 -11  -2   3 17.1879 9.34972   3
  10   2  -3 3.27877 5.70842   4
  10   2  -3 3.91729 7.88153   1
 -10  -2   3 1.18328 6.33376   3
   9   2  -3 -2.4860 6.69445   1
   9   2  -3 8.89014 6.12441   4
  -9  -2   3 -5.0192 5.24926   3
   8   2  -3 271.920 16.1053   4
   8   2  -3 248.059 16.1127   1
  -8  -2   3 239.210 15.9785   3
   7   2  -3 227.468 14.3009   1
   7   2  -3 229.786 14.5311   4
  -7  -2   3 210.155 10.1016   2
  -7  -2   3 218.455 14.9033   3
   6   2  -3 138.518 11.1051   4
   6   2  -3 148.989 11.1850   1
  -6  -2   3 138.251 8.17126   2
  -6  -2   3 167.373 12.3475   3
   5   2  -3 199.679 11.0830   1
   5   2  -3 235.842 12.8840   4
  -5  -2   3 201.770 12.5855   3
  -5  -2   3 224.190 9.93812   2
   4   2  -3 352.280 14.8801   4
   4   2  -3 339.331 12.2917   1
  -4  -2   3 343.939 12.8436   2
  -4  -2   3 345.565 14.4221   3
   3   2  -3 659.982 20.3693   4
   3   2  -3 676.439 16.7681   1
  -3  -2   3 678.540 20.4126   2
  -3  -2   3 670.587 20.6491   3
   2   2  -3 173.230 5.36538   1
   2   2  -3 159.648 9.01773   4
  -2  -2   3 169.642 9.43871   3
  -2  -2   3 163.345 9.12761   2
   1   2  -3 379.750 12.9424   4
   1   2  -3 424.525 9.59993   1
  -1  -2   3 421.270 14.1488   3
  -1  -2   3 410.701 8.96581   1
  -1  -2   3 404.106 14.5298   2
   0   2  -3 1549.87 32.4352   4
   0   2  -3 1502.05 35.4922   3
   0  -2   3 1521.92 40.1278   2
   0  -2   3 1565.56 32.6872   1
  -1   2  -3 122.915 5.36938   4
   1  -2   3 129.660 8.28160   2
   1  -2   3 133.632 7.71743   1
  -2   2  -3 1467.12 28.4475   4
  -2   2  -3 1415.49 35.2671   3
   2  -2   3 1379.78 34.4766   1
   2  -2   3 1444.60 38.2977   2
  -3   2  -3 180.113 10.7876   3
  -3   2  -3 193.863 6.85842   4
   3  -2   3 158.936 11.5172   1
   3  -2   3 194.057 10.0118   2
  -4   2  -3 1017.92 23.6554   4
  -4   2  -3 1038.48 30.1498   3
   4  -2   3 1051.44 30.5747   2
   4  -2   3 1037.01 30.9516   1
  -5   2  -3 27.0793 4.45801   4
  -5   2  -3 29.9697 6.60667   3
   5  -2   3 17.2685 6.51074   1
   5  -2   3 25.3733 4.79469   2
  -6   2  -3 9.43729 6.40546   3
  -6   2  -3 9.04049 4.05327   4
   6  -2   3 -0.1571 3.47984   2
   6  -2   3 17.2911 7.69571   1
  -7   2  -3 80.2098 6.73348   2
  -7   2  -3 64.9286 10.2326   3
   7  -2   3 69.5852 12.1979   1
   7  -2   3 88.3368 7.11954   4
  -8   2  -3 164.059 16.5456   3
   8  -2   3 149.398 17.0250   1
  -9   2  -3 35.8256 10.1660   3
   9  -2   3 46.5040 12.8199   1
 -10   2  -3 108.577 14.6491   3
  10  -2   3 134.936 19.3560   1
 -11   2  -3 11.6100 9.96033   3
  11  -2   3 11.0396 11.8517   1
  11   1  -3 17.6457 7.63679   4
  11   1  -3 22.8225 11.5004   1
 -11  -1   3 8.20967 9.02254   3
  10   1  -3 614.454 28.5751   1
  10   1  -3 594.302 25.6787   4
 -10  -1   3 582.700 28.1423   3
   9   1  -3 10.3161 5.81723   4
   9   1  -3 12.3393 8.42514   1
  -9  -1   3 4.52532 6.72590   3
   8   1  -3 492.743 23.4296   1
   8   1  -3 500.118 21.9787   4
  -8  -1   3 517.163 22.9361   3
   7   1  -3 194.560 13.4649   4
   7   1  -3 191.761 14.9024   1
  -7  -1   3 211.781 10.0979   2
  -7  -1   3 198.511 14.1389   3
   6   1  -3 19.7712 6.78061   1
   6   1  -3 11.9284 5.09873   4
  -6  -1   3 22.1563 4.17710   2
  -6  -1   3 21.7116 6.54268   3
   5   1  -3 292.415 13.9528   1
   5   1  -3 290.786 14.1590   4
  -5  -1   3 286.511 11.0793   2
  -5  -1   3 277.583 14.3509   3
   4   1  -3 1617.08 39.9882   4
   4   1  -3 1662.19 38.9204   1
  -4  -1   3 1689.74 41.9922   2
  -4  -1   3 1685.99 42.3098   3
   3   1  -3 2030.81 44.0016   1
   3   1  -3 2054.94 46.0800   4
  -3  -1   3 2083.09 48.3688   3
  -3  -1   3 2035.21 50.2664   2
   2   1  -3 5.85522 3.22518   4
   2   1  -3 10.7973 2.77849   1
  -2  -1   3 16.5089 3.79383   3
  -2  -1   3 6.07740 3.03829   2
  -1  -1   3 408.370 13.3938   2
  -1  -1   3 420.062 13.0425   3
   0   1  -3 2637.37 52.0539   4
   0  -1   3 2574.14 51.1829   1
   0  -1   3 2671.68 57.2667   3
   0  -1   3 2701.45 63.9671   2
  -1   1  -3 3005.45 62.7989   3
  -1   1  -3 2972.58 55.8988   4
   1  -1   3 2908.37 70.2325   2
   1  -1   3 2833.95 58.8086   1
  -2   1  -3 1597.96 31.7773   4
  -2   1  -3 1640.36 37.1293   3
   2  -1   3 1540.71 35.7991   1
   2  -1   3 1550.75 40.0895   2
  -3   1  -3 133.126 8.46352   3
  -3   1  -3 127.841 6.02032   4
   3  -1   3 119.984 9.20818   1
   3  -1   3 124.838 7.22441   2
  -4   1  -3 342.866 14.5720   3
  -4   1  -3 330.039 11.2363   4
   4  -1   3 359.057 15.8130   1
   4  -1   3 313.528 11.9876   2
  -5   1  -3 139.450 10.6533   3
  -5   1  -3 130.061 7.99840   4
   5  -1   3 131.660 11.5717   1
   5  -1   3 125.658 7.33576   2
  -6   1  -3 480.419 20.5690   3
  -6   1  -3 515.434 17.3775   4
   6  -1   3 515.040 16.4319   2
   6  -1   3 488.253 22.0713   1
  -7   1  -3 170.431 13.4017   3
  -7   1  -3 155.007 7.77970   2
  -7   1  -3 152.164 10.7356   4
   7  -1   3 157.059 15.2723   1
  -8   1  -3 637.889 26.0505   3
   8  -1   3 687.092 29.5025   1
   8  -1   3 653.894 21.9359   4
  -9   1  -3 81.0913 11.5618   3
   9  -1   3 91.4615 14.4981   1
   9  -1   3 109.480 10.5458   4
 -10   1  -3 207.480 18.2746   3
  10  -1   3 249.775 23.9907   1
 -11   1  -3 44.9354 11.8715   3
  11  -1   3 41.0035 13.1364   1
  11   0  -3 19.1897 11.2544   1
 -11   0   3 12.9207 9.44517   3
  10   0  -3 14.0078 6.65086   4
  10   0  -3 0.71611 9.15938   1
 -10   0   3 5.21439 8.27375   3
   9   0  -3 18.4310 6.42879   4
   9   0  -3 9.94241 8.84284   1
  -9   0   3 26.9629 8.69144   3
   8   0  -3 33.3706 7.37622   4
   8   0  -3 29.1296 9.21498   1
  -8   0   3 20.8222 7.18447   3
   7   0  -3 73.8979 9.24670   4
   7   0  -3 80.1798 11.3379   1
  -7   0   3 53.8194 9.06087   3
  -7   0   3 70.2807 6.71569   2
   6   0  -3 160.212 13.6014   1
   6   0  -3 196.587 11.9287   4
  -6   0   3 173.882 12.8544   3
  -6   0   3 171.953 9.04490   2
   5   0  -3 1832.92 43.6040   4
   5   0  -3 1723.04 45.0037   1
  -5   0   3 1826.01 45.8460   2
  -5   0   3 1796.52 46.4822   3
   4   0  -3 609.393 20.4300   1
   4   0  -3 589.830 19.3046   4
  -4   0   3 636.818 20.6362   3
  -4   0   3 602.946 18.4603   2
   3   0  -3 724.730 20.9889   4
   3   0  -3 735.475 21.5123   1
  -3   0   3 712.800 20.8550   2
  -3   0   3 768.002 22.0018   3
   2   0  -3 916.115 23.0558   1
   2   0  -3 909.906 23.5529   4
  -2   0   3 890.855 24.3877   2
  -2   0   3 928.908 23.5746   3
   1   0  -3 93.6713 7.34776   1
   1   0  -3 83.5189 8.16327   4
  -1   0   3 101.907 6.05834   3
  -1   0   3 107.146 6.42699   2
   0   0  -3 308.203 7.80942   1
   0   0   3 284.925 10.0487   2
   0   0   3 303.601 9.00699   3
  -1   0  -3 2445.46 47.2402   4
  -1   0  -3 2462.21 51.0718   3
   1   0   3 2443.05 57.8016   2
   1   0   3 2363.85 48.4906   1
  -2   0  -3 72.0246 5.38645   3
  -2   0  -3 74.0345 4.92624   4
   2   0   3 65.0350 5.90516   1
   2   0   3 70.7179 5.40494   2
  -3   0  -3 354.273 12.9406   3
  -3   0  -3 370.804 11.2873   4
   3   0   3 379.526 13.7708   1
   3   0   3 372.608 11.6804   2
  -4   0  -3 2174.20 45.8211   4
  -4   0  -3 2196.95 51.3761   3
   4   0   3 2221.59 50.9427   1
   4   0   3 2157.52 52.3448   2
  -5   0  -3 804.873 24.9177   3
  -5   0  -3 818.638 22.5583   4
   5   0   3 798.712 25.5796   1
   5   0   3 793.639 21.4536   2
  -6   0  -3 403.856 15.4304   4
  -6   0  -3 395.357 17.0742   3
   6   0   3 400.775 18.7523   1
  -7   0  -3 53.2396 7.65762   4
  -7   0  -3 45.5630 8.44770   3
  -7   0  -3 56.1193 3.90150   2
   7   0   3 50.7582 10.1798   1
  -8   0  -3 419.327 18.4846   4
  -8   0  -3 431.065 20.3835   3
   8   0   3 402.557 22.2984   1
  -9   0  -3 170.479 16.5887   3
   9   0   3 173.985 17.6721   1
   9   0   3 181.154 11.9754   4
 -10   0  -3 84.4488 12.0024   3
  10   0   3 92.4524 15.1234   1
  10   0   3 87.5411 10.4364   4
 -11   0  -3 17.2072 9.43964   3
  11   0   3 -0.3609 9.92260   1
 -12   0  -3 0.05605 8.63276   3
  12   0   3 -0.5894 10.7414   1
  10  -1  -3 38.1137 12.3052   1
 -10   1   3 25.0529 9.55427   3
   9  -1  -3 4.21724 5.03713   4
   9  -1  -3 -3.3691 8.03939   1
  -9   1   3 -0.3434 6.94174   3
   8  -1  -3 185.541 12.9785   4
  -8   1   3 145.922 15.0995   3
   7  -1  -3 649.145 27.4403   1
   7  -1  -3 658.902 23.3663   4
  -7   1   3 577.410 24.7880   3
  -7   1   3 658.134 21.2231   2
   6  -1  -3 1813.42 44.8443   4
   6  -1  -3 1828.10 49.6782   1
  -6   1   3 1841.62 49.4215   3
  -6   1   3 1882.63 48.2991   2
   5  -1  -3 233.246 11.7808   4
   5  -1  -3 220.293 14.7860   1
  -5   1   3 246.788 10.7378   2
  -5   1   3 227.828 13.3284   3
   4  -1  -3 45.1620 7.76986   1
   4  -1  -3 32.8008 5.36414   4
  -4   1   3 42.9342 7.05065   3
  -4   1   3 45.7278 5.24532   2
   3  -1  -3 16.1750 6.08958   1
   3  -1  -3 15.3991 4.03196   4
  -3   1   3 16.9949 3.76362   2
  -3   1   3 17.9282 4.97338   3
   2  -1  -3 504.064 17.1923   1
   2  -1  -3 470.210 14.7611   4
  -2   1   3 499.510 15.7686   2
  -2   1   3 508.580 15.4168   3
   1  -1  -3 406.737 12.1832   4
   1  -1  -3 391.673 13.4635   1
  -1   1   3 383.824 12.8179   2
  -1   1   3 399.015 11.6446   3
   0  -1  -3 2802.68 57.2371   1
   0  -1  -3 2851.40 54.8711   4
   0   1   3 2874.28 66.9643   2
   0   1   3 2774.23 57.7722   3
  -1  -1  -3 220.336 7.44862   1
  -1  -1  -3 215.177 5.57267   3
  -1  -1  -3 229.624 7.75638   4
   1   1   3 227.031 5.55542   3
   1   1   3 221.630 8.02686   2
  -2  -1  -3 2357.65 45.8517   4
  -2  -1  -3 2283.35 48.7380   3
   2   1   3 2282.59 53.9624   2
   2   1   3 2271.75 47.6197   1
  -3  -1  -3 570.653 15.7119   4
  -3  -1  -3 570.807 16.3345   3
   3   1   3 581.766 16.9182   1
   3   1   3 599.991 15.4204   2
  -4  -1  -3 395.653 13.6402   3
  -4  -1  -3 403.361 13.1895   4
   4   1   3 308.959 9.93686   2
   4   1   3 390.339 14.3800   1
  -5  -1  -3 771.403 21.8866   4
  -5  -1  -3 744.243 23.2999   3
   5   1   3 771.415 24.1329   1
  -6  -1  -3 4.99464 4.10769   4
  -6  -1  -3 7.98257 5.04418   3
   6   1   3 7.73354 5.15600   1
  -7  -1  -3 736.453 23.9104   4
  -7  -1  -3 709.429 24.9519   3
   7   1   3 716.200 26.5124   1
  -8  -1  -3 28.2164 7.50508   3
  -8  -1  -3 21.7803 6.64556   4
   8   1   3 24.5652 8.39485   1
  -9  -1  -3 102.348 12.9242   3
  -9  -1  -3 80.6164 10.9912   4
   9   1   3 90.2695 13.1314   1
 -10  -1  -3 25.7110 8.51524   3
  10   1   3 31.8317 7.08769   4
  10   1   3 36.4724 10.7323   1
 -11  -1  -3 87.6413 13.6137   3
  11   1   3 75.7203 10.3616   4
  11   1   3 96.8366 15.5058   1
 -12  -1  -3 398.038 24.6780   3
  12   1   3 446.161 27.5199   1
  10  -2  -3 71.6319 15.9122   1
 -10   2   3 42.7660 11.9202   3
   9  -2  -3 141.555 18.4181   1
  -9   2   3 126.621 15.8121   3
   8  -2  -3 152.869 11.6504   4
   8  -2  -3 159.385 17.7697   1
  -8   2   3 150.184 15.8177   3
   7  -2  -3 390.168 16.5613   4
   7  -2  -3 351.681 21.1284   1
  -7   2   3 392.446 20.0957   3
  -7   2   3 395.021 15.9117   2
   6  -2  -3 0.18157 3.74129   4
   6  -2  -3 -6.9395 6.20011   1
  -6   2   3 0.66414 6.04442   3
  -6   2   3 3.18354 3.41535   2
   5  -2  -3 146.859 9.27312   4
   5  -2  -3 152.405 13.4297   1
  -5   2   3 150.013 11.6869   3
  -5   2   3 143.391 8.97570   2
   4  -2  -3 113.060 7.88239   4
   4  -2  -3 129.713 12.4724   1
  -4   2   3 128.047 8.08195   2
  -4   2   3 98.6808 9.38783   3
   3  -2  -3 1034.13 31.5652   1
   3  -2  -3 1078.54 26.6953   4
  -3   2   3 1094.40 30.6297   2
  -3   2   3 1119.58 29.6266   3
   2  -2  -3 5.58093 5.41418   1
   2  -2  -3 3.23412 2.84516   4
  -2   2   3 10.2383 3.62541   3
  -2   2   3 2.68399 2.77059   2
   1  -2  -3 64.1989 5.02888   4
   1  -2  -3 55.5614 7.16270   1
  -1   2   3 69.4826 5.56505   2
  -1   2   3 63.4924 5.27178   3
   0  -2  -3 54.6851 6.07290   1
   0  -2  -3 54.3782 4.76307   4
   0   2   3 58.2898 4.77586   2
   0   2   3 55.2215 3.59021   3
  -1  -2  -3 15.9947 3.52715   1
  -1  -2  -3 13.7236 2.83811   4
   1   2   3 16.6576 1.45710   3
   1   2   3 11.9719 2.71691   2
   1   2   3 16.2189 1.21502   3
  -2  -2  -3 1702.37 35.4791   4
  -2  -2  -3 1680.55 36.6663   1
  -2  -2  -3 1699.09 36.1344   3
   2   2   3 1685.97 40.9699   2
  -3  -2  -3 1412.07 31.9301   4
  -3  -2  -3 1500.96 33.3915   3
   3   2   3 1407.28 32.9414   1
   3   2   3 1461.55 34.6998   2
  -4  -2  -3 36.8188 5.54414   3
  -4  -2  -3 32.4795 5.27219   4
   4   2   3 37.1017 2.86371   2
   4   2   3 34.8401 5.36593   1
  -5  -2  -3 1702.95 40.0596   4
  -5  -2  -3 1746.64 42.5835   3
   5   2   3 1655.85 41.2502   1
  -6  -2  -3 682.040 22.6139   3
  -6  -2  -3 679.760 22.2546   4
   6   2   3 662.410 22.8477   1
  -7  -2  -3 226.301 13.3665   4
  -7  -2  -3 204.608 13.1135   3
   7   2   3 234.243 14.2194   1
  -8  -2  -3 411.822 19.7133   3
  -8  -2  -3 431.466 19.5121   4
   8   2   3 464.815 20.9589   1
  -9  -2  -3 43.5464 8.93868   3
  -9  -2  -3 28.4054 7.51358   4
   9   2   3 53.3896 10.6722   1
 -10  -2  -3 16.4058 7.05894   4
 -10  -2  -3 25.5989 8.22066   3
  10   2   3 34.2551 9.88157   1
 -11  -2  -3 26.4620 9.48909   3
  11   2   3 25.4324 7.05235   4
  11   2   3 33.7615 10.7061   1
 -12  -2  -3 -1.0145 7.56045   3
  12   2   3 -1.2939 9.05894   1
  12   2   3 9.93839 5.66815   4
   9  -3  -3 102.900 17.5336   1
  -9   3   3 110.159 15.4557   3
   8  -3  -3 46.9654 12.7822   1
  -8   3   3 60.1757 11.3330   3
   7  -3  -3 85.6266 14.5646   1
  -7   3   3 85.5886 9.00879   2
  -7   3   3 48.9705 9.81525   3
   6  -3  -3 49.6273 10.8360   1
   6  -3  -3 41.8968 6.33269   4
  -6   3   3 43.3420 6.40435   2
  -6   3   3 27.4084 8.16211   3
   5  -3  -3 727.080 21.2415   4
   5  -3  -3 737.513 29.0003   1
  -5   3   3 742.898 24.6062   2
  -5   3   3 670.004 25.2486   3
   4  -3  -3 89.1995 6.95872   4
   4  -3  -3 87.9109 12.0875   1
  -4   3   3 91.5392 7.83224   2
  -4   3   3 108.663 10.4379   3
   3  -3  -3 3579.88 72.0162   4
   3  -3  -3 3622.60 83.4507   1
  -3   3   3 3670.54 89.8923   2
  -3   3   3 3772.60 82.3687   3
   2  -3  -3 20.2339 6.81373   1
   2  -3  -3 34.8909 4.32042   4
  -2   3   3 27.2955 4.73548   2
  -2   3   3 38.0287 5.66631   3
   1  -3  -3 1207.65 34.5381   1
   1  -3  -3 1246.66 26.7920   4
  -1   3   3 1264.63 34.4082   2
  -1   3   3 1240.79 30.0040   3
   0  -3  -3 8.59260 5.56226   1
   0  -3  -3 5.26938 2.84210   4
   0   3   3 7.37651 2.51312   3
   0   3   3 2.14493 2.57395   2
  -1  -3  -3 15.2495 4.36103   1
  -1  -3  -3 14.0550 3.21946   4
   1   3   3 19.5093 2.30802   3
   1   3   3 12.0853 2.94301   2
  -2  -3  -3 491.366 13.9390   4
  -2  -3  -3 489.963 15.1817   1
  -2  -3  -3 497.666 12.7357   3
   2   3   3 461.757 14.8743   2
  -3  -3  -3 16.2855 3.90525   4
  -3  -3  -3 26.0532 3.69534   3
  -3  -3  -3 28.0024 4.40188   1
   3   3   3 24.4157 3.33608   2
  -4  -3  -3 2741.94 60.9831   3
  -4  -3  -3 2778.31 58.1816   4
   4   3   3 2824.90 64.3177   2
   4   3   3 2647.25 59.0087   1
  -5  -3  -3 2348.21 55.0204   3
  -5  -3  -3 2349.64 52.6852   4
   5   3   3 2369.58 53.5167   1
  -6  -3  -3 738.545 23.9391   4
  -6  -3  -3 701.207 22.9613   3
   6   3   3 707.851 23.1083   1
  -7  -3  -3 492.046 19.7597   4
  -7  -3  -3 457.292 18.7707   3
   7   3   3 491.167 19.6644   1
  -8  -3  -3 308.718 16.5635   3
  -8  -3  -3 349.225 17.3585   4
   8   3   3 328.390 17.3569   1
  -9  -3  -3 921.207 31.9576   4
  -9  -3  -3 969.977 32.2833   3
   9   3   3 901.336 31.7719   1
 -10  -3  -3 30.6237 8.41462   4
 -10  -3  -3 34.2462 8.70002   3
  10   3   3 40.1198 9.89376   1
 -11  -3  -3 202.126 16.8001   3
  11   3   3 220.688 15.2253   4
  11   3   3 215.943 18.7158   1
 -12  -3  -3 11.6205 8.37520   3
  12   3   3 15.4750 6.58038   4
  12   3   3 1.03216 9.33759   1
   9  -4  -3 0.65399 11.4725   1
  -9   4   3 -7.6163 7.47629   3
   8  -4  -3 8.84993 10.9397   1
  -8   4   3 -6.4065 7.26803   3
   7  -4  -3 5.64231 8.79841   1
  -7   4   3 12.0642 7.98785   3
  -7   4   3 -0.4116 3.87783   2
   6  -4  -3 228.596 19.1475   1
  -6   4   3 232.273 16.0973   3
  -6   4   3 254.932 13.9536   2
   5  -4  -3 -2.1071 7.22755   1
   5  -4  -3 4.36096 3.14261   4
  -5   4   3 3.96106 4.02102   2
  -5   4   3 1.53469 6.31440   3
   4  -4  -3 1.89423 2.75626   4
   4  -4  -3 -1.7868 7.32997   1
  -4   4   3 6.98756 5.91038   3
  -4   4   3 0.54609 3.03067   2
   3  -4  -3 684.580 27.1857   1
   3  -4  -3 707.690 17.8964   4
  -3   4   3 722.266 24.4078   2
  -3   4   3 713.256 23.5000   3
   2  -4  -3 468.626 21.2987   1
   2  -4  -3 456.490 12.5483   4
  -2   4   3 459.495 17.7159   2
  -2   4   3 453.159 16.6969   3
   1  -4  -3 411.693 11.4988   4
   1  -4  -3 386.435 18.9083   1
  -1   4   3 414.802 14.1030   3
  -1   4   3 389.440 15.7633   2
   0  -4  -3 716.968 17.4427   4
   0  -4  -3 749.054 24.6887   1
   0   4   3 734.355 19.3998   3
   0   4   3 734.621 23.2515   2
  -1  -4  -3 173.705 11.5044   1
  -1  -4  -3 187.218 7.88034   4
   1   4   3 177.935 6.95968   3
   1   4   3 168.299 9.12724   2
  -2  -4  -3 259.802 11.9060   1
  -2  -4  -3 247.855 9.80820   4
  -2  -4  -3 251.438 9.43849   3
   2   4   3 254.177 10.8427   2
  -3  -4  -3 45.7757 5.72890   4
  -3  -4  -3 45.2899 5.71384   1
  -3  -4  -3 59.2130 5.20932   3
   3   4   3 40.9189 4.68596   2
  -4  -4  -3 74.9389 6.66702   3
  -4  -4  -3 86.6085 8.08150   4
   4   4   3 72.4369 6.95107   1
   4   4   3 69.2020 4.78660   2
  -5  -4  -3 83.6176 8.94321   4
  -5  -4  -3 90.3375 7.37634   3
   5   4   3 86.0741 7.33770   1
   5   4   3 86.8760 4.86129   2
  -6  -4  -3 351.630 16.3882   4
  -6  -4  -3 358.399 15.0072   3
   6   4   3 352.634 15.1938   1
  -7  -4  -3 1.57560 4.62067   3
  -7  -4  -3 -4.5029 4.71524   4
   7   4   3 -3.8053 3.79170   1
  -8  -4  -3 163.569 12.4284   3
  -8  -4  -3 149.375 12.7377   4
   8   4   3 157.761 12.1147   1
  -9  -4  -3 89.2942 11.7387   4
  -9  -4  -3 113.653 12.5974   3
   9   4   3 130.888 14.0501   1
 -10  -4  -3 11.1113 7.05358   4
 -10  -4  -3 9.08633 6.90573   3
  10   4   3 16.2321 7.11919   1
 -11  -4  -3 17.1147 8.37161   3
 -11  -4  -3 22.9691 8.32416   4
  11   4   3 29.8880 8.95519   1
 -12  -4  -3 82.9110 13.1096   3
  12   4   3 95.8381 14.4425   1
  12   4   3 110.696 13.1060   4
 -13  -4  -3 3.81418 8.70598   3
  13   4   3 13.9027 6.80196   4
  13   4   3 5.90640 9.09392   1
   8  -5  -3 115.431 18.3279   1
  -8   5   3 117.970 15.5433   3
   7  -5  -3 88.0692 15.9754   1
  -7   5   3 95.6805 13.2273   3
  -7   5   3 88.0763 10.4341   2
   6  -5  -3 344.358 22.9223   1
  -6   5   3 292.086 18.3295   3
  -6   5   3 339.001 17.1639   2
   5  -5  -3 15.6039 8.59262   1
  -5   5   3 4.44292 6.64874   3
  -5   5   3 16.1769 5.28510   2
   4  -5  -3 140.129 16.6758   1
  -4   5   3 109.080 10.7886   2
  -4   5   3 134.660 12.6882   3
   3  -5  -3 142.632 15.4721   1
   3  -5  -3 146.112 6.52732   4
  -3   5   3 123.026 9.92012   2
  -3   5   3 132.369 11.0186   3
   2  -5  -3 407.336 22.0243   1
   2  -5  -3 442.918 11.6628   4
  -2   5   3 423.426 16.8433   3
  -2   5   3 442.618 18.5715   2
   1  -5  -3 1651.62 33.4682   4
   1  -5  -3 1633.49 45.9140   1
  -1   5   3 1641.44 40.3389   3
  -1   5   3 1643.01 46.2240   2
   0  -5  -3 167.242 7.05970   4
   0  -5  -3 161.942 12.8774   1
   0   5   3 182.223 10.4982   2
   0   5   3 146.009 8.07314   3
  -1  -5  -3 611.107 16.2329   4
  -1  -5  -3 608.188 22.0499   1
   1   5   3 597.766 16.8991   3
   1   5   3 606.832 20.9961   2
  -2  -5  -3 1925.41 40.5659   4
  -2  -5  -3 1798.25 44.8169   1
   2   5   3 1932.15 49.6901   2
   2   5   3 1827.40 41.9671   3
  -3  -5  -3 93.9147 6.69607   3
  -3  -5  -3 92.3189 9.03938   1
  -3  -5  -3 76.6556 7.18380   4
   3   5   3 77.3294 6.56928   2
  -4  -5  -3 704.187 21.7694   4
  -4  -5  -3 701.504 20.9433   3
  -4  -5  -3 765.560 22.4852   1
   4   5   3 730.351 21.9492   2
  -5  -5  -3 1564.64 39.5754   4
  -5  -5  -3 1565.84 39.4068   3
   5   5   3 1562.41 38.9816   1
   5   5   3 1579.56 40.2129   2
  -6  -5  -3 753.985 25.4128   4
  -6  -5  -3 708.509 23.3018   3
   6   5   3 780.690 20.5212   2
   6   5   3 737.465 23.2985   1
  -7  -5  -3 184.893 13.1470   4
  -7  -5  -3 183.073 11.8543   3
   7   5   3 204.401 12.0267   1
  -8  -5  -3 2025.91 52.4224   3
  -8  -5  -3 2004.15 52.2448   4
   8   5   3 1975.41 50.6938   1
  -9  -5  -3 300.122 16.9911   3
  -9  -5  -3 309.625 18.3535   4
   9   5   3 317.780 17.0207   1
 -10  -5  -3 195.760 18.4736   4
 -10  -5  -3 180.611 14.6672   3
  10   5   3 162.764 14.0417   1
 -11  -5  -3 20.1020 8.79186   4
 -11  -5  -3 -1.2499 6.32573   3
  11   5   3 8.92013 6.98164   1
 -12  -5  -3 74.4020 12.6234   3
  12   5   3 65.4478 12.1806   1
  12   5   3 86.8035 12.3447   4
 -13  -5  -3 7.28624 8.68766   3
  13   5   3 11.4081 6.01156   4
  13   5   3 6.91100 8.28562   1
  -8   6   3 -4.8799 8.22855   3
   7  -6  -3 23.9983 12.6869   1
  -7   6   3 43.4972 8.28456   2
  -7   6   3 12.3933 8.84519   3
   6  -6  -3 21.8774 11.1802   1
  -6   6   3 33.9821 7.26711   2
  -6   6   3 18.7211 9.03312   3
   5  -6  -3 8.09889 9.55758   1
  -5   6   3 33.9108 7.27360   2
  -5   6   3 37.5518 9.20601   3
   4  -6  -3 54.3333 12.1656   1
  -4   6   3 65.5221 10.5720   3
  -4   6   3 58.5014 8.48581   2
   3  -6  -3 634.551 29.7568   1
  -3   6   3 679.366 25.6539   2
  -3   6   3 646.653 23.8309   3
   2  -6  -3 29.2742 9.50108   1
  -2   6   3 37.1489 6.84142   3
  -2   6   3 29.6529 6.45474   2
   1  -6  -3 11.8516 2.80508   4
   1  -6  -3 19.0568 7.97173   1
  -1   6   3 7.81414 4.09183   2
  -1   6   3 13.1674 4.61552   3
   0  -6  -3 783.527 28.9684   1
   0  -6  -3 776.123 18.4400   4
   0   6   3 708.876 25.9926   2
   0   6   3 761.833 22.1966   3
  -1  -6  -3 137.668 12.2302   1
  -1  -6  -3 152.476 7.45367   4
   1   6   3 145.485 10.0748   2
   1   6   3 134.588 7.67435   3
  -2  -6  -3 32.1961 6.94084   1
  -2  -6  -3 24.6947 6.21218   2
  -2  -6  -3 26.5682 4.70810   4
   2   6   3 31.1306 4.26411   3
  -3  -6  -3 23.7517 5.85097   1
  -3  -6  -3 34.5053 5.39777   3
  -3  -6  -3 26.2876 5.08204   4
  -3  -6  -3 29.2889 5.88022   2
  -4  -6  -3 288.514 12.5828   3
  -4  -6  -3 282.681 13.5415   1
  -4  -6  -3 274.904 13.1885   4
  -5  -6  -3 6.58948 4.21254   3
  -5  -6  -3 0.68547 4.69147   4
  -5  -6  -3 7.12112 4.60993   1
   5   6   3 1.85205 3.06726   2
  -6  -6  -3 53.0333 7.49408   3
  -6  -6  -3 42.7087 8.30945   4
   6   6   3 51.3069 5.40725   2
   6   6   3 41.8680 6.61618   1
  -7  -6  -3 23.7838 7.25631   4
  -7  -6  -3 31.4199 7.01804   3
   7   6   3 33.8139 3.91131   2
   7   6   3 34.2800 6.88099   1
  -8  -6  -3 342.213 18.8772   4
  -8  -6  -3 377.161 17.8539   3
   8   6   3 341.572 16.5832   1
  -9  -6  -3 122.929 12.5431   3
  -9  -6  -3 126.877 13.7588   4
   9   6   3 129.337 11.4151   1
 -10  -6  -3 177.774 17.5178   4
 -10  -6  -3 158.546 14.0941   3
  10   6   3 160.007 13.8341   1
 -11  -6  -3 236.691 16.7181   3
 -11  -6  -3 215.428 18.6842   4
  11   6   3 200.760 15.5556   1
 -12  -6  -3 17.5612 8.19051   3
  12   6   3 29.4722 8.87600   1
 -13  -6  -3 -7.1762 7.23772   3
  13   6   3 7.48458 6.23711   4
  13   6   3 7.76960 7.54813   1
   7  -7  -3 88.9231 17.6475   1
  -7   7   3 75.7022 10.9392   2
  -7   7   3 77.3266 13.4133   3
   6  -7  -3 202.762 22.1291   1
  -6   7   3 219.728 15.4823   2
  -6   7   3 199.349 17.7681   3
   5  -7  -3 30.5204 12.4210   1
  -5   7   3 30.2086 9.21770   3
  -5   7   3 38.8443 7.82049   2
   4  -7  -3 258.331 21.7461   1
  -4   7   3 225.617 16.2633   3
  -4   7   3 234.870 15.2592   2
   3  -7  -3 5.61080 8.99256   1
  -3   7   3 4.52039 5.99385   3
  -3   7   3 -0.8835 4.09516   2
   2  -7  -3 63.3415 12.7848   1
  -2   7   3 49.5723 8.04230   3
  -2   7   3 37.8094 7.83664   2
   1  -7  -3 169.730 17.5902   1
  -1   7   3 145.286 11.4719   2
  -1   7   3 141.146 10.4232   3
   0  -7  -3 254.697 17.7760   1
   0  -7  -3 218.671 8.23188   4
   0   7   3 209.279 13.5951   2
   0   7   3 195.752 10.9983   3
  -1  -7  -3 1858.44 38.9976   4
  -1  -7  -3 1796.90 49.5730   1
   1   7   3 1780.17 51.6448   2
   1   7   3 1786.46 43.8530   3
  -2  -7  -3 173.566 12.9789   1
  -2  -7  -3 181.736 9.33692   4
  -2  -7  -3 157.632 12.4059   2
   2   7   3 163.018 8.76719   3
  -3  -7  -3 512.778 20.3039   1
  -3  -7  -3 508.206 17.6319   4
  -3  -7  -3 530.966 21.5306   2
   3   7   3 519.562 16.6550   3
  -4  -7  -3 110.001 9.32216   4
  -4  -7  -3 101.625 9.00934   3
  -4  -7  -3 111.021 9.85622   2
  -4  -7  -3 121.919 10.4958   1
  -5  -7  -3 945.968 29.4096   4
  -5  -7  -3 980.558 29.0481   3
  -5  -7  -3 960.927 29.0200   1
   5   7   3 930.840 29.2191   2
  -6  -7  -3 244.624 14.9013   4
  -6  -7  -3 263.057 14.0322   3
   6   7   3 270.885 12.3589   2
   6   7   3 283.163 13.8407   1
  -7  -7  -3 71.2086 10.7194   4
  -7  -7  -3 82.4291 9.95236   3
   7   7   3 79.6994 6.34363   2
   7   7   3 82.8411 9.49166   1
  -8  -7  -3 147.041 12.3925   3
  -8  -7  -3 164.348 14.4451   4
   8   7   3 140.028 11.3467   1
  -9  -7  -3 67.4815 11.3171   4
  -9  -7  -3 64.4337 9.91486   3
   9   7   3 55.9819 8.87438   1
 -10  -7  -3 85.2999 11.3141   3
 -10  -7  -3 69.2970 12.1677   4
  10   7   3 73.1826 10.8401   1
 -11  -7  -3 473.612 23.5373   3
 -11  -7  -3 436.911 24.9907   4
  11   7   3 462.162 22.0513   1
 -12  -7  -3 142.993 17.7593   4
 -12  -7  -3 154.120 16.8627   3
  12   7   3 142.082 15.1890   1
  13   7   3 85.7735 12.7931   4
  13   7   3 77.0239 12.4983   1
   6  -8  -3 14.9434 12.6306   1
  -6   8   3 11.2436 9.73907   3
  -6   8   3 30.2193 7.92541   2
   5  -8  -3 40.6871 13.8266   1
  -5   8   3 43.7579 8.75353   2
  -5   8   3 24.6626 10.0851   3
   4  -8  -3 28.4982 12.2082   1
  -4   8   3 50.5798 10.6564   3
  -4   8   3 49.3194 8.95901   2
   3  -8  -3 50.7224 12.8443   1
  -3   8   3 40.5436 8.38308   2
  -3   8   3 33.9684 8.57731   3
   2  -8  -3 72.1474 14.1367   1
  -2   8   3 90.1554 11.3843   2
  -2   8   3 62.0329 9.39757   3
   1  -8  -3 46.9586 11.6660   1
  -1   8   3 36.5547 7.16745   3
  -1   8   3 43.8565 8.12096   2
   0  -8  -3 6.41759 7.74002   1
   0   8   3 15.6679 5.46158   3
   0   8   3 6.24407 4.88251   2
  -1  -8  -3 203.997 9.53847   4
  -1  -8  -3 215.682 16.7031   1
   1   8   3 197.163 10.8610   3
   1   8   3 195.183 13.4114   2
  -2  -8  -3 14.8674 6.97499   1
  -2  -8  -3 7.21408 6.49544   2
  -2  -8  -3 16.5762 4.90453   4
   2   8   3 16.8226 4.55268   3
  -3  -8  -3 89.9471 11.0367   2
  -3  -8  -3 103.582 11.3042   1
  -3  -8  -3 107.316 9.28401   4
   3   8   3 104.946 7.74240   3
  -4  -8  -3 249.951 14.9834   2
  -4  -8  -3 231.855 13.0596   4
  -4  -8  -3 210.201 14.6836   1
  -5  -8  -3 767.408 25.4044   3
  -5  -8  -3 761.577 25.9199   1
  -5  -8  -3 741.045 25.3648   4
  -6  -8  -3 123.005 12.6958   4
  -6  -8  -3 137.832 12.5311   3
   6   8   3 130.224 9.66597   2
   6   8   3 138.411 10.6291   1
  -7  -8  -3 463.467 19.9586   3
  -7  -8  -3 416.733 20.9124   4
   7   8   3 392.921 16.5616   2
   7   8   3 446.627 18.7536   1
  -8  -8  -3 650.012 24.5990   3
  -8  -8  -3 610.519 25.8843   4
   8   8   3 584.150 22.8510   1
  -9  -8  -3 44.0493 10.2064   4
  -9  -8  -3 32.5063 8.34815   3
   9   8   3 23.7179 6.73482   1
 -10  -8  -3 21.7389 8.05831   3
 -10  -8  -3 35.4597 10.0194   4
  10   8   3 39.8129 8.20807   1
 -11  -8  -3 88.0019 14.7565   4
 -11  -8  -3 84.6383 12.7599   3
  11   8   3 99.9267 12.5736   1
 -12  -8  -3 21.1397 10.0650   4
 -12  -8  -3 11.9563 8.49477   3
  12   8   3 39.9172 9.23441   1
   5  -9  -3 28.8211 13.8141   1
  -5   9   3 26.9181 7.64748   2
  -5   9   3 7.82068 9.01177   3
   4  -9  -3 69.0972 15.8432   1
  -4   9   3 55.0390 9.84393   2
  -4   9   3 57.2968 11.6648   3
   3  -9  -3 185.477 21.1189   1
  -3   9   3 198.524 15.6619   2
  -3   9   3 212.983 16.0395   3
   2  -9  -3 243.215 20.8547   1
  -2   9   3 213.859 14.3068   3
  -2   9   3 204.121 15.4592   2
   1  -9  -3 341.350 24.1076   1
  -1   9   3 344.655 16.7247   3
  -1   9   3 348.868 19.7434   2
   0  -9  -3 7.28232 8.32690   1
   0   9   3 3.23361 5.12134   2
   0   9   3 9.42416 5.58613   3
  -1  -9  -3 43.2244 10.4621   1
   1   9   3 30.5734 6.19098   3
   1   9   3 31.3516 7.59735   2
  -2  -9  -3 -4.0416 6.04623   1
  -2  -9  -3 14.4533 4.73765   4
   2   9   3 16.2771 4.90859   3
   2   9   3 1.70225 5.06237   2
  -3  -9  -3 274.187 13.4251   4
  -3  -9  -3 273.153 17.3034   1
  -3  -9  -3 247.262 16.6440   2
   3   9   3 256.890 12.6355   3
  -4  -9  -3 1156.69 38.2050   2
  -4  -9  -3 1102.92 34.9824   1
  -4  -9  -3 1114.70 31.7732   4
   4   9   3 1094.92 30.9574   3
  -5  -9  -3 146.021 12.1165   3
  -5  -9  -3 112.444 11.8547   1
  -5  -9  -3 115.263 11.9404   4
  -6  -9  -3 274.263 15.7585   1
  -6  -9  -3 240.120 15.1764   3
  -6  -9  -3 268.614 16.2685   4
   6   9   3 275.432 14.6146   2
  -7  -9  -3 255.658 16.7460   4
  -7  -9  -3 286.184 16.1418   3
   7   9   3 279.650 14.8597   1
   7   9   3 260.341 13.7641   2
  -8  -9  -3 200.737 16.2715   4
  -8  -9  -3 186.744 14.6396   3
   8   9   3 194.740 13.1182   1
  -9  -9  -3 273.447 19.4966   4
  -9  -9  -3 256.372 16.9038   3
   9   9   3 229.732 14.7400   1
 -10  -9  -3 36.5466 10.5290   4
 -10  -9  -3 41.2606 9.33915   3
  10   9   3 40.5177 8.47673   1
 -11  -9  -3 157.194 16.2162   3
 -11  -9  -3 148.960 18.1344   4
  11   9   3 119.615 13.1204   1
 -12  -9  -3 3.17029 7.60371   3
  12   9   3 10.2325 6.77461   1
   4 -10  -3 0.38734 11.0084   1
  -4  10   3 -2.1473 5.09045   2
  -4  10   3 12.9130 8.94103   3
   3 -10  -3 54.6479 14.9404   1
  -3  10   3 51.2837 9.89516   2
  -3  10   3 44.3396 10.1850   3
   2 -10  -3 5.15838 10.8744   1
  -2  10   3 -1.9994 6.29976   3
  -2  10   3 0.60368 5.29941   2
   1 -10  -3 -4.7856 8.52905   1
  -1  10   3 -2.2271 4.82513   2
  -1  10   3 4.06131 5.74159   3
   0 -10  -3 127.272 16.4472   1
   0  10   3 132.454 14.3460   2
   0  10   3 148.530 11.8052   3
  -1 -10  -3 165.927 17.8356   1
   1  10   3 166.597 11.3850   3
   1  10   3 149.263 15.3336   2
  -2 -10  -3 46.9437 10.8579   1
   2  10   3 67.3341 8.41234   3
   2  10   3 53.0864 9.20060   2
  -3 -10  -3 166.490 14.7803   1
  -3 -10  -3 203.950 13.2700   4
   3  10   3 149.051 13.1707   2
   3  10   3 171.158 10.7695   3
  -4 -10  -3 255.157 17.1325   1
  -4 -10  -3 271.560 14.8920   4
   4  10   3 226.191 15.0750   2
   4  10   3 234.139 12.3680   3
  -5 -10  -3 38.5851 8.08102   4
  -5 -10  -3 56.8585 9.62726   1
   5  10   3 35.3513 7.53443   2
   5  10   3 48.9074 7.24337   3
  -6 -10  -3 32.6712 8.24710   3
  -6 -10  -3 22.5738 7.59101   4
  -6 -10  -3 28.3047 8.33307   1
   6  10   3 23.2445 6.33666   2
  -7 -10  -3 42.5746 9.51840   4
  -7 -10  -3 22.1356 7.59150   3
   7  10   3 39.0380 7.72748   1
   7  10   3 35.8202 6.71663   2
  -8 -10  -3 78.4008 11.3813   3
  -8 -10  -3 121.732 14.6318   4
   8  10   3 81.8117 10.3123   1
  -9 -10  -3 96.7907 12.4459   3
  -9 -10  -3 92.6890 13.7824   4
   9  10   3 109.943 12.1940   1
 -10 -10  -3 48.1620 11.3592   4
 -10 -10  -3 55.1222 11.2513   3
  10  10   3 41.2613 8.50512   1
 -11 -10  -3 85.3394 14.6760   4
 -11 -10  -3 88.3288 13.7590   3
  11  10   3 93.0385 12.2507   1
 -12 -10  -3 30.8988 10.2240   3
  12  10   3 25.5750 7.69144   1
  12  10   3 31.8236 8.79521   4
   2 -11  -3 37.2089 13.0237   1
  -2  11   3 38.7681 9.45592   2
  -2  11   3 27.9157 11.1560   3
   1 -11  -3 4.48752 9.68977   1
  -1  11   3 17.0037 7.35872   3
  -1  11   3 14.9826 7.23116   2
   0 -11  -3 34.5818 11.7074   1
   0  11   3 59.0016 10.7114   2
   0  11   3 58.1280 9.16008   3
  -1 -11  -3 594.919 30.0762   1
   1  11   3 597.805 27.5029   2
   1  11   3 587.561 22.7932   3
  -2 -11  -3 214.412 19.7653   1
   2  11   3 168.873 15.1033   2
   2  11   3 188.461 12.4535   3
  -3 -11  -3 23.5015 8.93970   1
   3  11   3 40.1266 6.99663   3
   3  11   3 19.0707 6.91199   2
  -4 -11  -3 66.2292 11.6126   1
   4  11   3 43.8406 9.11940   2
   4  11   3 56.7746 7.78594   3
  -5 -11  -3 73.5885 11.9495   1
  -5 -11  -3 66.8473 10.0228   4
   5  11   3 68.5068 10.4883   2
   5  11   3 59.5554 8.24674   3
  -6 -11  -3 519.872 23.4476   4
  -6 -11  -3 528.854 23.4928   1
   6  11   3 500.001 20.1282   3
   6  11   3 509.104 23.1518   2
  -7 -11  -3 14.6628 7.99122   4
  -7 -11  -3 17.4785 7.83818   3
   7  11   3 22.7239 6.29467   2
   7  11   3 13.0998 5.84695   1
  -8 -11  -3 768.389 31.3707   4
  -8 -11  -3 790.333 30.1039   3
   8  11   3 742.809 28.0712   1
  -9 -11  -3 57.0619 12.4256   4
  -9 -11  -3 62.7519 11.5751   3
   9  11   3 68.9583 10.1474   1
 -10 -11  -3 311.185 22.9931   4
 -10 -11  -3 327.535 20.5677   3
  10  11   3 276.156 16.9564   1
 -11 -11  -3 29.6306 10.2390   3
 -11 -11  -3 45.6191 12.4020   4
  11  11   3 58.4553 9.83986   1
   0 -12  -3 -3.4215 10.0098   1
   0  12   3 4.89286 6.42056   2
  -1 -12  -3 65.6613 13.4118   1
   1  12   3 97.7830 13.5657   2
  -2 -12  -3 102.426 15.2757   1
   2  12   3 106.992 13.9871   2
  -3 -12  -3 7.61288 8.99556   1
   3  12   3 19.0526 7.30212   2
  -4 -12  -3 44.4957 11.1121   1
   4  12   3 33.2604 9.06646   3
   4  12   3 29.6651 7.99480   2
  -5 -12  -3 2.37677 7.62546   1
   5  12   3 13.7573 5.48238   3
   5  12   3 -0.4746 4.88343   2
  -6 -12  -3 5.50364 7.39298   4
  -6 -12  -3 26.0148 8.61206   1
   6  12   3 14.4039 5.52255   3
   6  12   3 16.9556 6.49644   2
  -7 -12  -3 7.17062 7.83616   1
  -7 -12  -3 5.42687 8.11565   4
   7  12   3 15.4945 5.60106   3
   7  12   3 21.9463 6.56996   2
  -8 -12  -3 3.68537 8.01785   4
  -8 -12  -3 0.29911 7.48335   3
   8  12   3 6.31927 5.44601   1
  -9 -12  -3 50.6890 12.2463   4
  -9 -12  -3 30.0370 9.98160   3
   9  12   3 52.3807 9.15274   1
 -10 -12  -3 -0.8397 8.67619   4
 -10 -12  -3 15.4946 8.94011   3
  10  12   3 12.4618 6.20053   1
  -2 -13  -3 4.94200 10.1631   1
   2  13   3 9.76284 6.69439   2
  -3 -13  -3 320.494 22.7512   1
   3  13   3 332.497 20.9239   2
  -4 -13  -3 -8.4343 7.16904   1
   4  13   3 1.72441 5.33956   2
  -5 -13  -3 291.868 21.3310   1
   5  13   3 272.098 18.6807   2
  -6 -13  -3 28.0748 9.44219   1
  -7 -13  -3 42.4545 10.0487   1
   7  13   3 66.8167 10.4427   2
   8  13   3 45.8361 9.22098   4
   8  13   3 52.1094 9.33644   1
   8  12  -4 341.763 19.8456   4
  -8 -12   4 312.373 22.8366   3
   7  12  -4 9.14564 6.09971   4
  -7 -12   4 23.3950 9.18868   2
   6  12  -4 31.0266 8.12545   3
  -6 -12   4 17.7222 9.35313   2
   5  12  -4 27.4918 7.82404   3
  -5 -12   4 18.0491 9.50599   2
   4  12  -4 75.8761 11.4246   3
  -4 -12   4 69.6076 13.4974   2
   3  12  -4 65.2663 10.7586   3
  -3 -12   4 63.1831 13.1215   2
   2  12  -4 32.2899 8.69631   3
  -2 -12   4 21.9565 10.8695   2
   1  12  -4 4.24721 6.42005   3
  -1 -12   4 10.7572 9.48800   2
   0  12  -4 86.2613 12.6578   3
   0 -12   4 64.2974 14.4892   2
   0 -12   4 73.7012 12.6692   1
   9  11  -4 25.3985 8.48775   4
  -9 -11   4 28.0984 11.4849   3
   8  11  -4 29.3652 8.37525   4
  -8 -11   4 24.7182 10.8619   3
   7  11  -4 0.95168 5.17277   4
  -7 -11   4 13.6627 8.91087   3
  -7 -11   4 0.11826 7.43703   2
   6  11  -4 15.0347 6.12103   4
  -6 -11   4 18.2976 9.46205   3
  -6 -11   4 49.7101 10.7366   2
   5  11  -4 21.2427 7.12094   3
  -5 -11   4 17.8994 8.05978   2
   4  11  -4 114.679 12.6842   3
  -4 -11   4 137.157 16.0938   2
   3  11  -4 4.78900 5.55396   3
  -3 -11   4 0.57653 7.11763   2
   2  11  -4 18.4830 7.08581   3
  -2 -11   4 25.8102 9.61019   2
  -2 -11   4 23.1921 8.82755   1
   1  11  -4 61.1925 10.2783   3
  -1 -11   4 76.7748 13.6964   2
  -1 -11   4 98.6491 12.8242   1
   0  11  -4 105.660 13.2193   3
   0 -11   4 159.799 18.0196   2
   0 -11   4 144.112 15.5204   1
  -1  11  -4 208.167 16.4408   3
   1 -11   4 186.710 20.0904   2
   1 -11   4 221.181 18.4988   1
  -2  11  -4 6.03147 7.24097   3
   2 -11   4 9.70274 9.77068   2
   2 -11   4 16.0011 9.78922   1
  10  10  -4 22.3190 8.88980   4
 -10 -10   4 5.99558 9.26732   3
   9  10  -4 13.2103 7.44651   4
  -9 -10   4 -0.3941 8.46546   3
   8  10  -4 30.8363 8.49331   4
  -8 -10   4 56.4399 12.2498   3
   7  10  -4 302.033 18.3233   4
  -7 -10   4 327.484 19.5155   2
  -7 -10   4 289.954 20.1592   3
   6  10  -4 207.346 14.6360   4
  -6 -10   4 217.112 18.0045   3
  -6 -10   4 194.541 16.7360   2
   5  10  -4 759.815 26.1074   4
  -5 -10   4 803.299 31.7565   3
  -5 -10   4 663.963 32.3361   2
   4  10  -4 1.06218 4.88210   3
   4  10  -4 10.1930 4.84561   4
  -4 -10   4 18.4821 8.10354   2
   3  10  -4 151.952 12.8808   3
  -3 -10   4 167.752 16.8719   2
  -3 -10   4 167.915 11.9404   1
   2  10  -4 24.6729 7.52375   3
  -2 -10   4 20.4394 8.75242   2
  -2 -10   4 30.6013 7.58765   1
   1  10  -4 21.4908 7.23888   3
  -1 -10   4 24.9539 7.69642   1
  -1 -10   4 23.1715 8.96363   2
   0  10  -4 37.8281 8.54913   3
   0 -10   4 23.7594 8.38258   1
   0 -10   4 24.5524 9.25828   2
  -1  10  -4 22.4224 7.91616   3
   1 -10   4 39.5663 10.3268   1
   1 -10   4 39.9353 10.4019   2
  -2  10  -4 177.246 15.7590   3
   2 -10   4 155.439 16.8920   1
   2 -10   4 174.590 18.8206   2
  -3  10  -4 88.9898 13.0717   3
   3 -10   4 122.916 15.9828   2
   3 -10   4 134.190 16.8545   1
  -4  10  -4 8.51316 8.47524   3
   4 -10   4 -5.1678 8.03082   2
   4 -10   4 19.6312 10.8124   1
  11   9  -4 9.99764 8.20902   4
 -11  -9   4 6.26211 9.81820   3
  10   9  -4 19.4904 7.93645   4
 -10  -9   4 -3.7355 8.33013   3
   9   9  -4 10.9829 6.70376   4
  -9  -9   4 25.4120 9.72234   3
   8   9  -4 464.074 23.0494   4
  -8  -9   4 435.870 24.3510   3
   7   9  -4 3.43854 5.14180   4
  -7  -9   4 0.71784 6.70954   3
  -7  -9   4 2.63109 5.94579   2
   6   9  -4 4.94749 4.86720   4
  -6  -9   4 -0.3716 7.13205   3
  -6  -9   4 -2.7603 5.77020   2
   5   9  -4 124.095 12.4311   4
  -5  -9   4 90.1767 11.7067   2
  -5  -9   4 115.000 14.2471   3
   4   9  -4 6.90754 4.37876   4
  -4  -9   4 8.01557 7.66338   3
  -4  -9   4 9.61144 6.25021   2
  -4  -9   4 9.35833 4.37104   1
   3   9  -4 133.255 9.97530   4
   3   9  -4 130.630 11.3363   3
  -3  -9   4 127.768 9.81313   1
  -3  -9   4 100.098 12.9725   2
   2   9  -4 87.3957 10.3444   3
  -2  -9   4 104.408 10.7435   1
  -2  -9   4 78.8500 11.8531   2
   1   9  -4 59.0736 9.37754   3
  -1  -9   4 59.6116 9.38865   1
  -1  -9   4 66.2820 11.1918   2
   0   9  -4 91.6802 11.2269   3
   0  -9   4 99.2933 12.8480   1
   0  -9   4 88.2698 12.9012   2
  -1   9  -4 23.6743 7.70720   3
   1  -9   4 25.4924 8.79682   2
   1  -9   4 22.1492 8.15678   1
  -2   9  -4 69.8670 10.6385   3
   2  -9   4 88.8767 13.2672   1
   2  -9   4 89.6040 13.0753   2
  -3   9  -4 10.2824 7.16975   3
   3  -9   4 33.5254 9.83814   2
   3  -9   4 26.0917 9.90759   1
  -4   9  -4 4.25546 7.62603   3
   4  -9   4 3.78826 7.66275   2
   4  -9   4 4.63804 9.49509   1
  -5   9  -4 8.24212 8.77374   3
   5  -9   4 6.16240 10.3446   1
   5  -9   4 1.41774 7.69433   2
  11   8  -4 16.3912 8.08595   4
 -11  -8   4 2.93396 9.43960   3
  10   8  -4 163.239 17.9477   4
 -10  -8   4 206.148 21.2491   3
   9   8  -4 20.5021 7.75654   4
  -9  -8   4 17.4976 8.47164   3
   8   8  -4 519.637 24.2485   4
  -8  -8   4 482.402 24.3137   3
   7   8  -4 8.02164 5.45000   4
  -7  -8   4 1.94957 6.95335   3
  -7  -8   4 3.12167 5.57228   2
   6   8  -4 50.2423 8.71162   4
  -6  -8   4 51.9736 9.47872   2
  -6  -8   4 49.3824 10.1082   3
   5   8  -4 138.120 11.3249   4
   5   8  -4 153.858 8.45135   1
  -5  -8   4 146.553 15.3732   3
  -5  -8   4 160.263 13.5867   2
   4   8  -4 20.3658 5.96115   4
  -4  -8   4 5.64259 7.10487   3
  -4  -8   4 19.7033 7.38882   2
  -4  -8   4 21.8047 4.86797   1
   3   8  -4 446.988 17.3755   4
   3   8  -4 438.094 19.5235   3
  -3  -8   4 435.204 22.0407   2
  -3  -8   4 474.260 16.7543   1
   2   8  -4 199.615 13.2546   3
   2   8  -4 198.096 10.9123   4
  -2  -8   4 185.070 15.5144   2
  -2  -8   4 219.045 12.6105   1
   1   8  -4 522.601 21.7075   3
  -1  -8   4 499.400 24.6830   2
  -1  -8   4 558.111 21.3394   1
   0   8  -4 779.727 27.9948   3
   0  -8   4 846.263 28.7197   1
   0  -8   4 780.846 33.2063   2
  -1   8  -4 21.2136 6.66345   3
   1  -8   4 20.5714 7.81629   2
   1  -8   4 20.0151 7.71234   1
  -2   8  -4 197.725 14.6649   3
   2  -8   4 198.944 16.0605   2
   2  -8   4 193.836 16.1029   1
  -3   8  -4 227.316 16.3779   3
   3  -8   4 222.998 17.1416   2
   3  -8   4 235.886 18.8899   1
  -4   8  -4 325.046 19.8858   3
   4  -8   4 337.381 20.7803   2
   4  -8   4 324.594 22.7727   1
  -5   8  -4 45.3880 11.1784   3
   5  -8   4 28.8644 11.2630   1
   5  -8   4 35.8975 9.98393   2
  -6   8  -4 203.590 20.0527   3
   6  -8   4 205.397 21.9021   1
   6  -8   4 198.032 16.9885   2
  11   7  -4 138.931 17.0557   4
 -11  -7   4 97.5396 15.7946   3
  10   7  -4 17.4380 8.20966   4
 -10  -7   4 16.3850 9.30761   3
   9   7  -4 8.44265 6.65806   4
  -9  -7   4 20.4936 8.77475   3
   8   7  -4 463.903 22.5833   4
  -8  -7   4 464.955 23.4201   3
   7   7  -4 18.7150 6.58752   4
  -7  -7   4 18.2490 7.26493   3
  -7  -7   4 7.45136 5.43720   2
   6   7  -4 44.5403 8.66636   4
   6   7  -4 46.1586 5.67255   1
  -6  -7   4 33.1271 8.92338   3
  -6  -7   4 44.1056 8.38147   2
   5   7  -4 606.037 22.4947   4
   5   7  -4 554.668 16.4124   1
  -5  -7   4 546.169 23.2223   2
  -5  -7   4 543.815 24.2137   3
   4   7  -4 40.6305 7.22920   4
  -4  -7   4 47.1851 8.55991   2
  -4  -7   4 46.5836 9.56695   3
  -4  -7   4 36.1376 4.99385   1
   3   7  -4 49.0657 7.13259   4
  -3  -7   4 44.2237 8.75800   2
  -3  -7   4 28.2518 7.41966   3
  -3  -7   4 53.2116 6.41338   1
   2   7  -4 280.111 14.3009   3
   2   7  -4 283.884 12.6275   4
  -2  -7   4 287.352 17.4277   2
  -2  -7   4 271.009 12.6577   1
   1   7  -4 6.29009 3.41572   4
   1   7  -4 6.32001 4.39292   3
  -1  -7   4 3.57801 5.78157   2
  -1  -7   4 5.67817 5.32401   1
   0   7  -4 -1.7753 3.50856   4
   0   7  -4 1.23008 4.32446   3
   0  -7   4 -10.421 4.80645   2
   0  -7   4 -0.5096 5.05059   1
  -1   7  -4 24.8346 6.83588   3
   1  -7   4 34.7107 8.69477   1
   1  -7   4 22.8264 7.88952   2
  -2   7  -4 28.5334 7.18843   3
   2  -7   4 21.4727 8.21936   1
   2  -7   4 13.8806 7.03826   2
  -3   7  -4 13.2844 6.91483   3
   3  -7   4 34.8605 9.45867   1
   3  -7   4 28.1779 8.02740   2
  -4   7  -4 -2.2395 5.21061   3
   4  -7   4 4.77481 5.52104   2
   4  -7   4 -1.5695 7.53246   1
  -5   7  -4 102.670 13.8186   3
   5  -7   4 85.3485 11.9972   2
   5  -7   4 76.8322 14.3825   1
  -6   7  -4 42.4778 10.8897   3
   6  -7   4 24.2056 8.26031   2
   6  -7   4 60.8478 14.2401   1
  -7   7  -4 89.8651 10.6632   2
  -7   7  -4 64.6575 12.9526   3
   7  -7   4 97.7785 17.9398   1
  11   6  -4 74.7912 13.1813   4
 -11  -6   4 91.4406 14.7017   3
  10   6  -4 121.326 15.5195   4
 -10  -6   4 140.090 16.6472   3
   9   6  -4 54.6874 10.5902   4
  -9  -6   4 49.9688 11.3989   3
   8   6  -4 620.376 26.2891   4
  -8  -6   4 608.056 27.2873   3
   7   6  -4 23.5195 7.08992   4
   7   6  -4 35.2966 5.77193   1
  -7  -6   4 42.1505 7.50755   2
  -7  -6   4 21.2106 7.75409   3
   6   6  -4 532.493 21.8030   4
   6   6  -4 509.130 16.0574   1
  -6  -6   4 513.985 20.8101   2
  -6  -6   4 489.297 22.7413   3
   5   6  -4 35.4766 4.38240   1
   5   6  -4 45.8139 8.03916   4
  -5  -6   4 39.5798 8.33710   3
  -5  -6   4 30.9265 6.77423   2
   4   6  -4 89.9774 10.0579   4
   4   6  -4 66.2974 5.04520   1
  -4  -6   4 75.8989 10.9189   3
  -4  -6   4 69.4088 9.43449   2
   3   6  -4 619.651 21.5085   4
  -3  -6   4 654.807 24.8391   2
  -3  -6   4 638.606 24.1697   3
  -3  -6   4 674.424 17.8140   1
   2   6  -4 25.5868 5.17081   4
  -2  -6   4 34.1132 7.50781   2
  -2  -6   4 36.2168 7.75815   3
  -2  -6   4 31.0057 4.74894   1
   1   6  -4 1083.65 32.1509   3
   1   6  -4 1130.16 27.7388   4
  -1  -6   4 1137.90 30.1064   1
  -1  -6   4 1058.16 36.0625   2
   0   6  -4 128.885 7.16761   4
   0   6  -4 129.119 10.4532   3
   0  -6   4 141.206 13.3760   2
   0  -6   4 124.315 10.6555   1
  -1   6  -4 230.653 13.4846   3
   1  -6   4 243.286 14.7553   1
   1  -6   4 235.739 15.4296   2
  -2   6  -4 440.342 18.9809   3
   2  -6   4 435.448 20.5174   1
   2  -6   4 441.056 21.0526   2
  -3   6  -4 929.229 31.2572   3
   3  -6   4 933.529 33.5006   2
   3  -6   4 954.395 33.0434   1
  -4   6  -4 382.602 20.0477   3
   4  -6   4 372.707 21.7852   1
   4  -6   4 418.205 20.5257   2
  -5   6  -4 27.1477 8.94640   3
   5  -6   4 11.6648 6.52450   2
   5  -6   4 33.5919 10.6329   1
  -6   6  -4 15.0789 8.70357   3
   6  -6   4 16.7729 10.4955   1
   6  -6   4 8.69175 6.06686   2
  -7   6  -4 33.3133 6.86026   2
  -7   6  -4 40.5913 10.7530   3
   7  -6   4 29.5610 12.5699   1
  -8   6  -4 48.7196 12.3960   3
   8  -6   4 48.8590 15.6994   1
  12   5  -4 86.5679 13.6362   4
  11   5  -4 5.14634 7.01044   4
 -11  -5   4 -5.8122 7.57578   3
  10   5  -4 51.3199 11.1233   4
 -10  -5   4 43.5331 10.7801   3
   9   5  -4 51.9720 10.4219   4
   9   5  -4 44.0343 8.53677   1
  -9  -5   4 87.9902 13.1917   3
   8   5  -4 305.451 18.7670   4
   8   5  -4 292.500 14.7542   1
  -8  -5   4 283.006 18.7297   3
   7   5  -4 1.82135 5.41596   4
   7   5  -4 3.96967 4.57152   1
  -7  -5   4 2.40464 4.57153   2
  -7  -5   4 6.46415 5.97532   3
   6   5  -4 4.83227 4.73588   4
   6   5  -4 -4.3754 3.23627   1
  -6  -5   4 -8.7708 5.21804   3
  -6  -5   4 6.93694 4.66885   2
   5   5  -4 868.105 22.2379   1
   5   5  -4 880.854 28.4058   4
  -5  -5   4 899.814 28.4719   2
   4   5  -4 468.004 18.4849   4
   4   5  -4 489.495 13.2702   1
  -4  -5   4 469.193 19.8914   3
  -4  -5   4 498.781 19.4694   2
   3   5  -4 224.166 12.0163   4
  -3  -5   4 215.269 7.83795   1
  -3  -5   4 200.954 12.7215   2
  -3  -5   4 200.663 13.3271   3
   2   5  -4 403.628 14.9596   4
  -2  -5   4 394.788 12.1119   1
  -2  -5   4 388.440 17.7144   2
  -2  -5   4 382.452 17.2915   3
   1   5  -4 229.663 12.3649   3
   1   5  -4 275.605 11.4394   4
  -1  -5   4 253.793 14.5116   2
  -1  -5   4 276.392 11.5388   1
   0   5  -4 127.153 7.17078   4
   0   5  -4 117.729 8.66196   3
   0  -5   4 116.271 10.0158   1
   0  -5   4 121.313 10.6622   2
  -1   5  -4 106.587 5.01513   4
  -1   5  -4 105.726 9.11342   3
   1  -5   4 94.8505 9.92069   1
   1  -5   4 101.727 10.8349   2
  -2   5  -4 328.487 15.5635   3
   2  -5   4 327.151 17.2209   2
   2  -5   4 337.689 16.9138   1
  -3   5  -4 1351.33 39.7105   3
   3  -5   4 1355.20 40.3729   1
   3  -5   4 1462.25 43.5593   2
  -4   5  -4 82.9429 10.3733   3
   4  -5   4 74.7481 11.0014   1
   4  -5   4 71.1929 9.61711   2
  -5   5  -4 266.940 17.1437   3
   5  -5   4 256.208 18.1250   1
   5  -5   4 251.745 14.9761   2
  -6   5  -4 331.795 19.5655   3
   6  -5   4 334.494 17.5837   2
   6  -5   4 326.148 21.7285   1
  -7   5  -4 8.72301 8.31868   3
   7  -5   4 5.33214 5.25909   2
   7  -5   4 4.09996 9.31220   1
  -8   5  -4 -4.9708 8.00575   3
   8  -5   4 13.8086 11.4953   1
  -9   5  -4 -5.7599 8.41861   3
   9  -5   4 -3.2901 11.5623   1
  11   4  -4 259.447 19.1963   4
 -11  -4   4 256.305 20.1915   3
  10   4  -4 -1.7367 6.70481   1
  10   4  -4 16.6889 8.05589   4
 -10  -4   4 2.27283 6.92684   3
   9   4  -4 218.870 15.0414   1
   9   4  -4 206.452 16.4090   4
  -9  -4   4 207.777 16.8542   3
   8   4  -4 10.9912 6.07174   1
   8   4  -4 11.5151 6.38222   4
  -8  -4   4 0.67632 5.72758   3
   7   4  -4 9.58211 5.86275   4
   7   4  -4 8.89002 5.32815   1
  -7  -4   4 8.60368 6.37335   3
  -7  -4   4 8.32942 4.70471   2
   6   4  -4 72.8162 9.75069   4
   6   4  -4 81.0711 7.94221   1
  -6  -4   4 78.7912 8.11948   2
  -6  -4   4 77.8883 9.89048   3
   5   4  -4 678.322 23.8680   4
   5   4  -4 640.509 18.2706   1
  -5  -4   4 648.763 23.7807   3
  -5  -4   4 700.067 22.6571   2
   4   4  -4 2204.80 45.8399   1
   4   4  -4 2262.23 52.3940   4
  -4  -4   4 2090.33 54.8986   3
  -4  -4   4 2228.41 57.8240   2
   3   4  -4 659.329 15.2574   1
   3   4  -4 642.761 21.3244   4
  -3  -4   4 651.891 22.6173   2
  -3  -4   4 599.121 22.1281   3
   2   4  -4 46.2083 6.23846   4
  -2  -4   4 73.2743 4.33561   1
  -2  -4   4 65.3782 8.07106   2
  -2  -4   4 62.2152 8.18826   3
   1   4  -4 100.479 7.52337   4
  -1  -4   4 111.021 9.86483   3
  -1  -4   4 100.627 9.48786   2
  -1  -4   4 98.4137 6.48739   1
   0   4  -4 471.463 14.1815   4
   0   4  -4 447.993 16.4058   3
   0  -4   4 465.822 16.0935   1
   0  -4   4 480.229 19.5812   2
  -1   4  -4 1059.76 29.9814   3
  -1   4  -4 1122.10 23.4392   4
   1  -4   4 1060.72 29.5929   1
   1  -4   4 1090.54 33.8702   2
  -2   4  -4 68.5528 8.24157   3
   2  -4   4 76.2584 9.09051   1
   2  -4   4 75.2237 8.97300   2
  -3   4  -4 15.4864 5.90998   3
   3  -4   4 25.1117 5.87881   2
   3  -4   4 12.5936 6.22227   1
  -4   4  -4 19.4733 7.03617   3
   4  -4   4 31.9740 8.26829   1
   4  -4   4 30.6606 6.44233   2
  -5   4  -4 523.493 22.3957   3
   5  -4   4 515.398 21.0628   2
   5  -4   4 526.853 24.4373   1
  -6   4  -4 206.863 15.9032   3
   6  -4   4 183.404 17.4672   1
   6  -4   4 188.144 12.7688   2
  -7   4  -4 473.147 23.9268   3
   7  -4   4 459.712 19.8550   2
   7  -4   4 442.765 25.7938   1
  -8   4  -4 15.1871 9.05230   3
   8  -4   4 3.23646 9.15225   1
  -9   4  -4 112.405 15.8085   3
   9  -4   4 120.613 18.0291   1
  11   3  -4 -1.6429 8.22022   1
  11   3  -4 8.90218 6.43733   4
 -11  -3   4 11.5060 8.71842   3
  10   3  -4 4.77056 7.71337   1
  10   3  -4 10.7538 6.97140   4
 -10  -3   4 10.1669 8.06047   3
   9   3  -4 150.067 16.0389   4
   9   3  -4 172.747 15.7002   1
  -9  -3   4 156.139 15.8928   3
   8   3  -4 152.943 15.5922   4
   8   3  -4 123.976 12.6584   1
  -8  -3   4 190.264 17.6256   3
   7   3  -4 180.784 12.4042   1
   7   3  -4 189.506 14.1949   4
  -7  -3   4 211.486 14.3874   3
  -7  -3   4 204.574 10.7977   2
   6   3  -4 269.793 15.4274   4
   6   3  -4 265.362 12.7520   1
  -6  -3   4 253.925 15.4474   3
  -6  -3   4 304.196 12.7906   2
   5   3  -4 10.1518 4.62072   4
   5   3  -4 9.00823 3.96847   1
  -5  -3   4 6.38440 3.92640   2
  -5  -3   4 9.73233 5.64510   3
   4   3  -4 5.75099 4.28790   4
   4   3  -4 0.31874 2.68403   1
  -4  -3   4 2.45997 4.20733   3
  -4  -3   4 7.56020 4.22512   2
   3   3  -4 43.6418 3.90880   1
   3   3  -4 48.3094 7.08791   4
  -3  -3   4 55.2618 7.86071   3
  -3  -3   4 44.2739 6.41580   2
   2   3  -4 1104.06 22.0077   1
   2   3  -4 1049.51 28.2159   4
  -2  -3   4 1086.19 30.2588   3
  -2  -3   4 1091.28 31.8705   2
   1   3  -4 687.313 20.0955   4
  -1  -3   4 720.277 22.2682   3
  -1  -3   4 733.778 16.3789   1
  -1  -3   4 672.483 23.1125   2
   0   3  -4 1703.17 36.4883   4
   0   3  -4 1637.31 40.4290   3
   0  -3   4 1707.04 37.3403   1
   0  -3   4 1658.36 45.6710   2
  -1   3  -4 524.630 17.0952   3
  -1   3  -4 512.285 13.3697   4
   1  -3   4 506.021 16.9853   1
   1  -3   4 494.932 19.0494   2
  -2   3  -4 10.8670 2.35903   4
  -2   3  -4 16.3533 4.85137   3
   2  -3   4 16.1044 4.99997   2
   2  -3   4 12.9207 5.40509   1
  -3   3  -4 1019.30 30.2553   3
  -3   3  -4 1038.47 21.8966   4
   3  -3   4 1042.86 30.6740   1
   3  -3   4 1063.02 31.8009   2
  -4   3  -4 166.667 6.63072   4
  -4   3  -4 168.325 11.7903   3
   4  -3   4 164.800 10.4932   2
   4  -3   4 170.611 13.7602   1
  -5   3  -4 75.2811 5.89093   4
  -5   3  -4 70.6820 9.37079   3
   5  -3   4 76.3189 8.24546   2
   5  -3   4 88.5577 11.8335   1
  -6   3  -4 209.004 15.5263   3
   6  -3   4 201.771 17.0426   1
   6  -3   4 245.088 12.6886   2
  -7   3  -4 278.753 18.0963   3
   7  -3   4 283.973 20.0643   1
   7  -3   4 269.575 13.8841   2
  -8   3  -4 14.2717 8.34041   3
   8  -3   4 10.5752 9.26204   1
  -9   3  -4 67.9752 12.9325   3
   9  -3   4 63.0745 14.2980   1
 -10   3  -4 0.49843 8.29885   3
  10  -3   4 -5.7102 10.7320   1
  11   2  -4 69.5748 13.0652   1
  11   2  -4 52.8378 10.5222   4
 -11  -2   4 49.4515 12.3213   3
  10   2  -4 209.183 19.2828   1
  10   2  -4 181.882 15.5762   4
 -10  -2   4 156.753 16.7043   3
   9   2  -4 7.11303 7.33731   1
   9   2  -4 4.68164 5.70054   4
  -9  -2   4 27.1501 8.86152   3
   8   2  -4 432.385 20.9610   4
   8   2  -4 441.722 20.5785   1
  -8  -2   4 379.947 20.8415   3
   7   2  -4 300.000 17.0535   4
   7   2  -4 283.379 15.9009   1
  -7  -2   4 282.055 12.5569   2
  -7  -2   4 296.941 17.5026   3
   6   2  -4 1061.81 29.8397   1
   6   2  -4 1059.51 32.6540   4
  -6  -2   4 1011.99 32.2254   3
  -6  -2   4 1002.81 29.4444   2
   5   2  -4 136.634 10.7697   4
   5   2  -4 166.726 9.81778   1
  -5  -2   4 167.421 9.45315   2
  -5  -2   4 135.292 10.4510   3
   4   2  -4 59.7663 7.99523   4
   4   2  -4 59.3710 6.05410   1
  -4  -2   4 55.5038 7.18899   3
  -4  -2   4 58.6317 6.22133   2
   3   2  -4 22.8538 3.65981   1
   3   2  -4 22.6063 5.52539   4
  -3  -2   4 14.4407 4.49304   2
  -3  -2   4 24.3810 5.71017   3
   2   2  -4 1254.75 32.0679   4
  -2  -2   4 1292.73 33.4326   3
  -2  -2   4 1327.26 35.6096   2
   1   2  -4 2532.81 54.6748   4
  -1  -2   4 2638.78 65.4396   2
  -1  -2   4 2692.05 59.8104   3
   0   2  -4 2282.48 47.0094   4
   0   2  -4 2177.95 50.7154   3
   0  -2   4 2320.56 57.8277   2
   0  -2   4 2317.40 46.2508   1
  -1   2  -4 81.4568 6.11519   3
  -1   2  -4 83.8354 5.47478   4
   1  -2   4 82.6483 6.43749   1
   1  -2   4 67.8893 6.85800   2
  -2   2  -4 1298.45 26.8001   4
  -2   2  -4 1307.21 32.7516   3
   2  -2   4 1241.68 35.3189   2
   2  -2   4 1262.77 31.6198   1
  -3   2  -4 91.6429 5.08332   4
  -3   2  -4 91.4028 8.91890   3
   3  -2   4 85.7108 7.88758   2
   3  -2   4 76.3283 8.59564   1
  -4   2  -4 2429.58 48.1596   4
  -4   2  -4 2372.15 57.9411   3
   4  -2   4 2428.47 57.3161   1
   4  -2   4 2347.54 60.7661   2
  -5   2  -4 191.710 8.81252   4
  -5   2  -4 213.595 13.2436   3
   5  -2   4 171.407 13.6354   1
   5  -2   4 201.871 10.4995   2
  -6   2  -4 649.057 19.3530   4
  -6   2  -4 658.288 25.3168   3
   6  -2   4 634.320 26.7423   1
   6  -2   4 657.022 21.3410   2
  -7   2  -4 9.98791 4.76438   4
  -7   2  -4 10.2381 6.63820   3
   7  -2   4 7.55365 8.14578   1
   7  -2   4 6.39812 4.26806   2
  -8   2  -4 316.819 19.2500   3
   8  -2   4 315.214 21.5402   1
  -9   2  -4 80.1620 12.9965   3
   9  -2   4 99.3611 16.1473   1
 -10   2  -4 29.0520 10.1334   3
  10  -2   4 14.5433 11.5239   1
 -11   2  -4 93.3158 15.4113   3
  11  -2   4 106.003 18.7237   1
  11   1  -4 126.145 17.3735   1
  11   1  -4 173.427 17.2293   4
 -11  -1   4 120.904 16.0140   3
  10   1  -4 118.324 14.0998   4
  10   1  -4 101.892 15.0556   1
 -10  -1   4 107.880 15.4492   3
   9   1  -4 -2.8758 6.91459   1
   9   1  -4 -3.5672 4.41521   4
  -9  -1   4 9.47514 6.97022   3
   8   1  -4 170.541 16.5098   1
   8   1  -4 209.731 14.5892   4
  -8  -1   4 206.016 15.1236   3
   7   1  -4 -0.6311 4.33638   4
   7   1  -4 2.08439 6.45291   1
  -7  -1   4 2.66660 6.11615   3
  -7  -1   4 5.28618 3.83373   2
   6   1  -4 102.108 10.9702   4
   6   1  -4 70.3649 9.67396   1
  -6  -1   4 93.6090 11.7658   3
  -6  -1   4 73.6911 7.03486   2
   5   1  -4 3.10404 4.70256   1
   5   1  -4 1.61438 3.52065   4
  -5  -1   4 1.75795 4.23037   3
  -5  -1   4 2.14381 3.04904   2
   4   1  -4 855.854 23.8138   1
   4   1  -4 817.845 25.1352   4
  -4  -1   4 827.969 24.3659   2
  -4  -1   4 873.571 26.0468   3
   3   1  -4 -1.5331 3.26457   4
   3   1  -4 4.89042 3.67603   1
  -3  -1   4 2.22963 3.43162   2
  -3  -1   4 -2.6426 3.85099   3
   2   1  -4 2.86462 3.82616   4
   2   1  -4 2.74246 2.84642   1
  -2  -1   4 6.79608 3.52352   2
  -2  -1   4 6.26035 3.78474   3
   1   1  -4 454.463 15.2176   4
  -1  -1   4 484.723 14.9348   3
  -1  -1   4 468.809 15.5833   2
   0   1  -4 1862.34 39.7560   4
   0  -1   4 1863.28 42.9585   3
   0  -1   4 1951.66 47.8734   2
   0  -1   4 1860.09 37.1731   1
  -1   1  -4 90.6679 5.70315   3
  -1   1  -4 99.0348 5.85998   4
   1  -1   4 87.1615 6.80120   2
   1  -1   4 92.2997 5.25909   1
  -2   1  -4 0.82479 2.66129   3
  -2   1  -4 3.71441 2.49967   4
   2  -1   4 1.31034 3.67097   1
   2  -1   4 6.01900 3.49268   2
  -3   1  -4 9.60083 4.41571   3
  -3   1  -4 12.2547 3.04626   4
   3  -1   4 5.89702 3.24427   2
   3  -1   4 9.85464 4.58882   1
  -4   1  -4 459.731 16.9454   3
  -4   1  -4 455.442 13.5716   4
   4  -1   4 455.639 17.9234   1
   4  -1   4 452.297 15.4456   2
  -5   1  -4 0.04170 2.69498   4
  -5   1  -4 1.26252 4.96412   3
   5  -1   4 4.31365 2.88557   2
   5  -1   4 1.07716 5.51838   1
  -6   1  -4 389.847 14.6477   4
  -6   1  -4 371.560 17.9776   3
   6  -1   4 441.458 20.1988   1
   6  -1   4 394.711 14.0260   2
  -7   1  -4 610.641 20.4643   4
  -7   1  -4 595.148 24.5542   3
   7  -1   4 630.421 26.4118   1
   7  -1   4 620.739 19.5836   2
  -8   1  -4 9.74778 5.19137   4
  -8   1  -4 25.2323 8.28895   3
   8  -1   4 20.6003 9.07830   1
  -9   1  -4 59.0528 11.5498   3
   9  -1   4 54.4490 7.51521   4
   9  -1   4 65.3355 13.1910   1
 -10   1  -4 170.144 18.2433   3
  10  -1   4 145.456 18.6950   1
 -11   1  -4 3.45773 8.40694   3
  11  -1   4 9.75549 11.1681   1
  11   0  -4 -6.6540 9.28160   1
 -11   0   4 15.2039 9.71469   3
  10   0  -4 3.81198 5.68354   4
  10   0  -4 -1.6462 8.84738   1
 -10   0   4 7.58476 8.41329   3
   9   0  -4 234.645 15.7695   4
   9   0  -4 212.412 18.1191   1
  -9   0   4 236.882 18.0904   3
   8   0  -4 269.744 16.4013   4
   8   0  -4 296.183 19.4702   1
  -8   0   4 290.310 18.0188   3
   7   0  -4 115.309 11.8998   4
   7   0  -4 128.381 13.7511   1
  -7   0   4 99.7401 8.36074   2
  -7   0   4 128.300 13.1877   3
   6   0  -4 282.486 14.8145   4
   6   0  -4 307.517 16.9119   1
  -6   0   4 276.991 12.1274   2
  -6   0   4 275.072 15.6698   3
   5   0  -4 195.988 11.6859   4
   5   0  -4 183.863 12.5149   1
  -5   0   4 165.619 9.14655   2
  -5   0   4 187.080 12.2904   3
   4   0  -4 1703.39 41.4592   1
   4   0  -4 1670.59 40.6448   4
  -4   0   4 1633.40 43.2125   2
  -4   0   4 1668.48 42.7334   3
   3   0  -4 2135.58 47.7186   1
   3   0  -4 2119.71 47.6503   4
  -3   0   4 2035.71 49.4932   3
  -3   0   4 2076.54 52.3496   2
   2   0  -4 143.572 8.73123   4
   2   0  -4 148.056 8.90312   1
  -2   0   4 115.199 7.48602   2
  -2   0   4 136.407 8.01017   3
   1   0  -4 189.392 7.14675   1
   1   0  -4 188.729 9.16659   4
  -1   0   4 188.736 8.41998   2
  -1   0   4 181.606 7.67754   3
   0   0  -4 2971.26 59.7518   4
   0   0  -4 3007.09 58.7520   1
   0   0   4 2962.80 71.4914   2
   0   0   4 3049.31 63.6297   3
  -1   0  -4 8149.59 160.299   4
  -1   0  -4 8228.15 175.869   3
   1   0   4 8096.39 160.481   1
   1   0   4 8030.12 188.923   2
  -2   0  -4 13.7321 3.19043   4
  -2   0  -4 13.2107 3.02601   3
   2   0   4 15.6973 3.55253   1
   2   0   4 16.1832 3.46987   2
  -3   0  -4 2542.04 49.6784   4
  -3   0  -4 2445.90 54.9960   3
   3   0   4 2385.43 53.5336   1
   3   0   4 2454.60 59.3904   2
  -4   0  -4 646.397 20.1439   3
  -4   0  -4 641.072 17.5366   4
   4   0   4 643.512 20.8545   1
   4   0   4 624.198 18.4071   2
  -5   0  -4 1024.42 29.4815   3
  -5   0  -4 988.063 25.6734   4
   5   0   4 1039.67 27.0487   2
   5   0   4 1042.53 30.3202   1
  -6   0  -4 411.116 17.7051   3
  -6   0  -4 391.472 15.2991   4
   6   0   4 412.339 12.7251   2
   6   0   4 369.078 18.0262   1
  -7   0  -4 140.267 10.0468   4
  -7   0  -4 155.349 12.6373   3
   7   0   4 158.937 14.1462   1
  -8   0  -4 18.8632 7.50561   3
  -8   0  -4 27.4832 6.52929   4
   8   0   4 12.4924 7.84006   1
  -9   0  -4 200.374 13.7792   4
  -9   0  -4 184.153 15.4441   3
   9   0   4 228.640 18.8443   1
 -10   0  -4 102.408 13.1347   3
  10   0   4 133.205 10.8295   4
  10   0   4 114.866 15.8713   1
 -11   0  -4 129.846 16.0990   3
  11   0   4 150.394 19.7490   1
 -12   0  -4 5.29765 8.81009   3
  12   0   4 6.86292 10.6395   1
  10  -1  -4 2.46056 10.6610   1
 -10   1   4 5.75592 8.52616   3
   9  -1  -4 24.8766 9.95752   1
   9  -1  -4 24.3632 6.84510   4
  -9   1   4 10.7861 7.91608   3
   8  -1  -4 16.9462 6.42459   4
   8  -1  -4 35.4111 10.3386   1
  -8   1   4 19.0827 8.26908   3
   7  -1  -4 21.1666 6.39406   4
   7  -1  -4 21.5557 8.90522   1
  -7   1   4 13.8681 6.74814   3
  -7   1   4 29.9471 5.37653   2
   6  -1  -4 13.0894 7.58065   1
   6  -1  -4 4.36343 4.38189   4
  -6   1   4 5.04644 3.61859   2
  -6   1   4 1.68537 5.83432   3
   5  -1  -4 88.0257 9.29967   4
   5  -1  -4 105.934 12.0628   1
  -5   1   4 81.8510 7.11192   2
  -5   1   4 84.1242 9.44477   3
   4  -1  -4 8.42976 4.06132   4
   4  -1  -4 5.71372 5.13099   1
  -4   1   4 6.53048 3.34155   2
  -4   1   4 7.22694 4.83123   3
   3  -1  -4 954.035 26.0211   4
   3  -1  -4 984.676 28.6508   1
  -3   1   4 982.230 28.0748   2
  -3   1   4 1003.89 27.3057   3
   2  -1  -4 11.6429 5.61121   1
   2  -1  -4 19.8534 4.56979   4
  -2   1   4 31.7062 5.04045   3
  -2   1   4 18.8231 3.97321   2
   1  -1  -4 1153.94 28.2286   1
   1  -1  -4 1173.60 27.3840   4
  -1   1   4 1167.84 31.1555   2
  -1   1   4 1151.34 27.1549   3
   0  -1  -4 2835.77 59.6561   4
   0  -1  -4 3029.82 61.8447   1
   0   1   4 2996.39 72.5621   2
   0   1   4 3266.38 62.8622   3
  -1  -1  -4 220.364 5.85621   3
  -1  -1  -4 223.612 8.78198   4
  -1  -1  -4 203.762 7.61588   1
   1   1   4 182.247 8.80505   2
  -2  -1  -4 896.068 20.9019   3
  -2  -1  -4 899.962 21.4029   4
   2   1   4 928.421 23.8931   2
   2   1   4 890.221 21.5501   1
  -3  -1  -4 1372.51 32.0492   3
  -3  -1  -4 1351.83 30.3424   4
   3   1   4 1368.07 32.0900   1
   3   1   4 1362.92 33.9892   2
  -4  -1  -4 1000.16 24.9224   4
  -4  -1  -4 989.586 26.4232   3
   4   1   4 951.783 26.6225   1
   4   1   4 1019.50 25.4007   2
  -5  -1  -4 461.759 16.7163   3
  -5  -1  -4 471.036 15.6456   4
   5   1   4 455.799 12.8008   2
   5   1   4 452.729 17.2538   1
  -6  -1  -4 351.722 15.9265   3
  -6  -1  -4 389.040 15.3019   4
   6   1   4 389.178 10.6176   2
   6   1   4 380.540 17.1800   1
  -7  -1  -4 502.642 20.0152   3
  -7  -1  -4 477.358 18.5547   4
   7   1   4 462.662 20.7544   1
  -8  -1  -4 180.298 12.5151   4
  -8  -1  -4 216.154 14.4082   3
   8   1   4 185.629 15.3930   1
  -9  -1  -4 3.00084 6.46777   3
  -9  -1  -4 6.45362 5.38005   4
   9   1   4 18.7781 8.19554   1
 -10  -1  -4 33.0396 9.00273   3
 -10  -1  -4 21.8099 7.26002   4
  10   1   4 23.7193 9.62432   1
 -11  -1  -4 25.6654 9.39394   3
  11   1   4 18.4530 9.70074   1
  11   1   4 29.0251 7.07013   4
 -12  -1  -4 -0.2642 8.04505   3
  12   1   4 -1.4278 9.63330   1
  10  -2  -4 33.9134 13.7150   1
 -10   2   4 30.3012 10.4913   3
   9  -2  -4 66.6009 14.4219   1
  -9   2   4 35.7776 10.3526   3
   8  -2  -4 187.060 19.1187   1
   8  -2  -4 178.910 13.1819   4
  -8   2   4 183.303 17.1845   3
   7  -2  -4 25.7720 6.10707   4
   7  -2  -4 14.7303 8.62085   1
  -7   2   4 15.6386 7.28865   3
  -7   2   4 21.7974 5.04010   2
   6  -2  -4 378.857 20.9275   1
   6  -2  -4 386.003 16.4478   4
  -6   2   4 407.183 19.2197   3
  -6   2   4 368.621 15.8225   2
   5  -2  -4 172.898 10.8639   4
   5  -2  -4 155.972 14.7502   1
  -5   2   4 165.669 12.4259   3
  -5   2   4 144.940 9.64776   2
   4  -2  -4 1134.61 34.4913   1
   4  -2  -4 1109.48 29.2959   4
  -4   2   4 1099.93 32.2426   2
  -4   2   4 1102.35 31.6976   3
   3  -2  -4 8.05012 3.69037   4
   3  -2  -4 8.32208 5.96093   1
  -3   2   4 7.63283 3.26819   2
  -3   2   4 7.38040 4.20887   3
   2  -2  -4 2558.75 59.1878   1
   2  -2  -4 2502.60 53.0894   4
  -2   2   4 2632.76 57.7076   3
  -2   2   4 2554.77 63.9749   2
   1  -2  -4 582.550 19.2689   1
   1  -2  -4 587.356 16.2364   4
  -1   2   4 570.508 15.9454   3
  -1   2   4 568.315 18.4535   2
   0  -2  -4 337.886 12.7028   1
   0  -2  -4 320.917 10.5248   4
   0   2   4 323.081 12.0357   2
   0   2   4 339.106 9.03086   3
  -1  -2  -4 205.308 8.31208   4
  -1  -2  -4 213.964 9.24229   1
   1   2   4 208.725 8.80264   2
  -2  -2  -4 7.76838 3.08748   1
  -2  -2  -4 12.0027 3.48366   4
  -2  -2  -4 15.6225 2.17675   3
   2   2   4 8.36009 2.58242   2
  -3  -2  -4 884.549 22.7764   4
  -3  -2  -4 937.062 22.5360   3
   3   2   4 936.468 23.6113   1
   3   2   4 929.912 23.9556   2
  -4  -2  -4 110.835 7.78453   3
  -4  -2  -4 98.7462 7.63994   4
   4   2   4 91.9242 7.17526   1
   4   2   4 107.496 5.34764   2
  -5  -2  -4 243.498 11.7888   4
  -5  -2  -4 280.456 12.2453   3
   5   2   4 284.757 13.0632   1
  -6  -2  -4 769.158 23.5028   4
  -6  -2  -4 750.183 24.0445   3
   6   2   4 745.028 24.7082   1
  -7  -2  -4 1365.08 38.3743   3
  -7  -2  -4 1324.24 36.2638   4
   7   2   4 1349.31 38.4122   1
  -8  -2  -4 1129.79 33.0469   4
  -8  -2  -4 1071.42 34.1307   3
   8   2   4 1095.16 35.0677   1
  -9  -2  -4 51.7249 9.92969   3
  -9  -2  -4 60.7252 9.72826   4
   9   2   4 65.1211 11.0161   1
 -10  -2  -4 -1.6973 4.96634   4
 -10  -2  -4 -6.2484 5.41928   3
  10   2   4 0.59997 6.94334   1
 -11  -2  -4 -3.6905 6.09639   3
  11   2   4 2.56199 8.71198   1
 -12  -2  -4 30.4027 9.85008   3
  12   2   4 27.5908 12.0985   1
  12   2   4 41.8870 8.55788   4
   9  -3  -4 6.70912 10.8990   1
  -9   3   4 3.18738 8.47675   3
   8  -3  -4 15.3327 9.92330   1
  -8   3   4 -3.2054 7.22596   3
   7  -3  -4 106.087 12.9791   4
   7  -3  -4 117.654 15.6251   1
  -7   3   4 99.2250 9.88827   2
   6  -3  -4 10.0220 4.64716   4
   6  -3  -4 15.3085 8.65138   1
  -6   3   4 10.0547 4.39983   2
  -6   3   4 10.0229 6.81506   3
   5  -3  -4 80.1917 11.9930   1
   5  -3  -4 88.0999 8.90211   4
  -5   3   4 72.8978 9.66653   3
  -5   3   4 66.8458 8.11954   2
   4  -3  -4 29.8421 8.41436   1
  -4   3   4 23.3021 6.36555   3
  -4   3   4 22.6568 5.22916   2
   3  -3  -4 367.273 13.0023   4
   3  -3  -4 361.462 18.4434   1
  -3   3   4 374.401 15.2602   2
  -3   3   4 344.612 14.7476   3
   2  -3  -4 59.3117 5.77465   4
   2  -3  -4 44.8643 8.12118   1
  -2   3   4 56.5514 6.32795   3
  -2   3   4 43.0319 5.93196   2
   1  -3  -4 -4.1500 5.20637   1
   1  -3  -4 -3.2287 2.70626   4
  -1   3   4 4.66898 3.26452   3
  -1   3   4 1.34816 2.75479   2
   0  -3  -4 3190.96 71.3927   1
   0  -3  -4 3280.77 64.3288   4
   0   3   4 3266.07 79.9537   2
   0   3   4 3400.62 68.8463   3
  -1  -3  -4 1002.11 26.5952   1
  -1  -3  -4 984.137 23.3487   4
   1   3   4 1030.53 21.5688   3
   1   3   4 968.503 27.6812   2
  -2  -3  -4 494.165 16.2647   1
  -2  -3  -4 504.328 14.9794   4
  -2  -3  -4 536.200 12.7017   3
   2   3   4 534.078 16.5088   2
  -3  -3  -4 2966.24 60.2984   4
  -3  -3  -4 2862.95 62.3042   1
  -3  -3  -4 2958.83 62.4564   3
   3   3   4 3011.53 70.4270   2
  -4  -3  -4 78.5985 7.45788   4
  -4  -3  -4 79.5399 6.27153   3
   4   3   4 76.7153 7.03639   1
   4   3   4 70.0135 4.81036   2
  -5  -3  -4 4.48145 4.29918   4
  -5  -3  -4 8.93521 4.14499   3
   5   3   4 8.56082 4.02695   1
   5   3   4 17.9994 2.56775   2
  -6  -3  -4 79.1574 8.82765   4
  -6  -3  -4 93.1726 8.81072   3
   6   3   4 82.7995 8.88887   1
  -7  -3  -4 89.2535 10.1815   4
  -7  -3  -4 120.262 11.3651   3
   7   3   4 89.3431 9.79863   1
  -8  -3  -4 13.7930 5.77797   4
  -8  -3  -4 13.8905 6.10325   3
  -9  -3  -4 73.5630 10.3376   3
  -9  -3  -4 66.9112 10.2194   4
   9   3   4 60.3228 9.80879   1
 -10  -3  -4 -1.3233 5.23634   3
 -10  -3  -4 7.74248 6.02311   4
  10   3   4 1.76387 6.99548   1
 -11  -3  -4 124.235 14.8493   4
 -11  -3  -4 133.887 15.2868   3
  11   3   4 137.719 16.0367   1
 -12  -3  -4 11.2131 8.11943   3
  12   3   4 16.4041 6.57473   4
  12   3   4 0.27166 8.58667   1
   9  -4  -4 135.160 19.5735   1
  -9   4   4 120.515 16.0154   3
   8  -4  -4 180.304 20.5437   1
  -8   4   4 136.561 16.0396   3
   7  -4  -4 281.416 22.0422   1
  -7   4   4 249.184 14.7388   2
  -7   4   4 268.639 18.5801   3
   6  -4  -4 17.2675 9.29993   1
  -6   4   4 25.6470 7.86798   3
  -6   4   4 15.1772 5.27476   2
   5  -4  -4 5.93430 7.67490   1
   5  -4  -4 4.43248 3.65472   4
  -5   4   4 -0.2551 3.43884   2
  -5   4   4 -1.0754 5.93803   3
   4  -4  -4 42.5828 5.63215   4
   4  -4  -4 30.8940 9.33885   1
  -4   4   4 21.1455 6.95478   3
  -4   4   4 33.7640 6.50045   2
   3  -4  -4 41.2047 9.74632   1
   3  -4  -4 40.1942 5.03386   4
  -3   4   4 32.0364 6.48509   3
  -3   4   4 35.6636 6.22711   2
   2  -4  -4 618.952 16.8731   4
   2  -4  -4 622.971 25.4574   1
  -2   4   4 634.797 20.2922   3
  -2   4   4 652.125 22.2865   2
   1  -4  -4 328.554 10.6494   4
   1  -4  -4 318.390 17.0591   1
  -1   4   4 313.499 13.6888   2
  -1   4   4 313.672 12.1118   3
   0  -4  -4 3058.76 60.7188   4
   0   4   4 3127.80 77.1399   2
   0   4   4 3076.89 66.0299   3
  -1  -4  -4 913.402 22.2520   4
  -1  -4  -4 920.019 26.7853   1
   1   4   4 904.795 27.2680   2
   1   4   4 926.681 21.4594   3
  -2  -4  -4 1343.08 33.8328   1
  -2  -4  -4 1319.65 30.3079   4
   2   4   4 1300.57 35.6875   2
  -3  -4  -4 89.1566 5.65665   3
  -3  -4  -4 96.5663 8.76659   1
  -3  -4  -4 95.0821 7.44278   4
   3   4   4 86.1721 6.17105   2
  -4  -4  -4 327.690 11.6713   3
  -4  -4  -4 322.783 13.3208   4
   4   4   4 326.024 12.9983   1
   4   4   4 340.468 11.7442   2
  -5  -4  -4 18.8849 5.22221   4
  -5  -4  -4 39.9206 5.66412   3
   5   4   4 28.6047 3.55415   2
   5   4   4 23.4144 5.05067   1
  -6  -4  -4 1586.39 41.0410   4
  -6  -4  -4 1628.99 41.3575   3
   6   4   4 1670.37 38.7450   2
   6   4   4 1613.93 40.7738   1
  -7  -4  -4 80.2660 9.87111   4
  -7  -4  -4 75.5198 8.85846   3
   7   4   4 81.5750 9.63970   1
  -8  -4  -4 66.9626 9.71320   4
  -8  -4  -4 74.4318 9.83974   3
   8   4   4 73.4484 9.90920   1
  -9  -4  -4 111.273 12.5102   4
  -9  -4  -4 128.383 13.5144   3
   9   4   4 104.634 12.3977   1
 -10  -4  -4 802.042 30.1919   4
 -10  -4  -4 776.226 29.3194   3
  10   4   4 776.658 29.3094   1
 -11  -4  -4 470.646 24.0977   4
 -11  -4  -4 555.455 25.0118   3
  11   4   4 488.403 24.7587   1
 -12  -4  -4 22.2428 8.90879   3
 -12  -4  -4 32.0654 9.70742   4
  12   4   4 28.4936 10.0435   1
 -13  -4  -4 18.0196 9.50942   3
  13   4   4 7.47074 9.65363   1
  13   4   4 23.3016 7.34408   4
   8  -5  -4 89.0794 16.6635   1
  -8   5   4 117.439 15.4278   3
   7  -5  -4 39.3180 12.2245   1
  -7   5   4 37.1557 7.30873   2
  -7   5   4 43.7453 10.3073   3
   6  -5  -4 12.8180 9.87858   1
  -6   5   4 -1.7901 6.53560   3
  -6   5   4 10.9029 5.34427   2
   5  -5  -4 -4.3259 8.00691   1
  -5   5   4 4.66927 6.55686   3
  -5   5   4 1.57362 4.27824   2
   4  -5  -4 363.397 22.5377   1
  -4   5   4 412.310 18.4719   2
  -4   5   4 374.824 18.3438   3
   3  -5  -4 462.472 13.7228   4
   3  -5  -4 391.769 22.6507   1
  -3   5   4 456.710 18.9992   3
  -3   5   4 473.190 19.6201   2
   2  -5  -4 152.131 15.4939   1
   2  -5  -4 159.516 7.41747   4
  -2   5   4 146.176 10.7299   2
  -2   5   4 163.831 10.6954   3
   1  -5  -4 296.374 17.8328   1
   1  -5  -4 309.454 10.3997   4
  -1   5   4 304.041 12.5331   3
  -1   5   4 309.891 14.7455   2
   0  -5  -4 446.892 20.9475   1
   0  -5  -4 516.702 14.3733   4
   0   5   4 504.046 19.2721   2
   0   5   4 526.846 15.8053   3
  -1  -5  -4 52.0504 8.12617   1
  -1  -5  -4 49.0847 5.13102   4
   1   5   4 67.1499 7.53491   2
   1   5   4 54.2084 4.63582   3
  -2  -5  -4 487.025 18.7104   1
  -2  -5  -4 504.298 15.5223   4
   2   5   4 508.150 13.7176   3
   2   5   4 462.644 17.7179   2
  -3  -5  -4 59.9567 7.49112   1
  -3  -5  -4 69.4165 6.90447   4
  -3  -5  -4 66.6967 5.73331   3
   3   5   4 69.0553 6.82773   2
  -4  -5  -4 370.202 15.2124   1
  -4  -5  -4 350.086 14.2465   4
  -4  -5  -4 365.742 12.9444   3
   4   5   4 367.547 13.7497   2
  -5  -5  -4 207.350 10.3524   3
  -5  -5  -4 187.793 11.6286   4
   5   5   4 197.902 10.8111   1
   5   5   4 198.169 8.75475   2
  -6  -5  -4 3.35025 4.73070   4
  -6  -5  -4 8.38199 4.29734   3
   6   5   4 2.53351 3.47976   1
   6   5   4 4.90713 2.24321   2
  -7  -5  -4 7.14977 5.25852   4
  -7  -5  -4 11.3811 5.34053   3
   7   5   4 9.81146 4.61359   1
  -8  -5  -4 274.527 16.5861   4
  -8  -5  -4 272.412 15.0448   3
   8   5   4 254.717 14.6983   1
  -9  -5  -4 7.49085 6.03637   4
  -9  -5  -4 1.88997 5.43743   3
   9   5   4 2.09926 5.21357   1
 -10  -5  -4 2.36393 5.78167   3
 -10  -5  -4 5.72936 6.14797   4
  10   5   4 1.30378 5.66969   1
 -11  -5  -4 220.619 16.9751   3
 -11  -5  -4 209.111 17.6020   4
  11   5   4 178.471 15.4893   1
 -12  -5  -4 -3.8590 6.80319   3
 -12  -5  -4 2.73648 6.93512   4
  12   5   4 0.23252 7.13576   1
 -13  -5  -4 10.6048 8.67513   3
  13   5   4 30.8062 10.4702   1
  13   5   4 28.4136 8.04107   4
   7  -6  -4 112.652 18.3714   1
  -7   6   4 90.2342 11.2920   2
  -7   6   4 107.535 14.7369   3
   6  -6  -4 51.7882 13.2268   1
  -6   6   4 51.4720 10.8479   3
  -6   6   4 41.9259 8.25652   2
   5  -6  -4 297.358 22.4553   1
  -5   6   4 309.924 17.4426   2
  -5   6   4 300.536 18.0939   3
   4  -6  -4 63.9950 13.8068   1
  -4   6   4 73.1862 10.6224   3
  -4   6   4 87.3219 10.2808   2
   3  -6  -4 108.018 14.6955   1
  -3   6   4 150.988 11.8441   2
  -3   6   4 157.198 12.6302   3
   2  -6  -4 149.375 16.3756   1
   2  -6  -4 130.521 6.55541   4
  -2   6   4 142.382 11.1300   2
  -2   6   4 133.489 10.9525   3
   1  -6  -4 398.653 11.6847   4
   1  -6  -4 374.293 21.6421   1
  -1   6   4 395.287 15.3676   3
  -1   6   4 353.466 17.3097   2
   0  -6  -4 392.878 12.2125   4
   0  -6  -4 391.145 20.4761   1
   0   6   4 371.347 17.3895   2
   0   6   4 405.963 14.4316   3
  -1  -6  -4 261.477 10.2031   4
  -1  -6  -4 250.443 15.3918   1
   1   6   4 251.751 10.1843   3
   1   6   4 261.159 13.5554   2
  -2  -6  -4 44.1960 5.49085   4
  -2  -6  -4 35.5245 7.63767   1
   2   6   4 50.5077 5.00695   3
   2   6   4 38.1130 6.26528   2
  -3  -6  -4 6491.67 125.425   4
   3   6   4 6494.72 154.576   2
  -4  -6  -4 609.715 20.0029   4
  -4  -6  -4 601.932 21.1294   1
  -4  -6  -4 620.059 19.2160   3
   4   6   4 608.658 20.8440   2
  -5  -6  -4 658.274 22.4080   4
  -5  -6  -4 691.865 22.6942   1
  -5  -6  -4 706.417 21.6150   3
   5   6   4 702.714 22.0449   2
  -6  -6  -4 13.6425 4.93789   3
  -6  -6  -4 7.08329 5.07343   4
   6   6   4 9.10572 3.17639   2
   6   6   4 16.1597 4.79034   1
  -7  -6  -4 10.1287 5.94851   4
  -7  -6  -4 9.56135 5.13643   3
   7   6   4 23.3103 3.53991   2
   7   6   4 23.8559 6.15855   1
  -8  -6  -4 289.546 17.6332   4
  -8  -6  -4 302.746 16.0410   3
   8   6   4 275.011 15.1878   1
  -9  -6  -4 2.51823 5.14058   3
  -9  -6  -4 28.1229 7.79608   4
   9   6   4 1.68855 5.05282   1
 -10  -6  -4 36.0750 9.27291   4
 -10  -6  -4 64.1559 10.5960   3
  10   6   4 48.7138 9.26492   1
 -11  -6  -4 89.5819 12.5789   3
 -11  -6  -4 100.930 13.8942   4
  11   6   4 109.570 13.3193   1
 -12  -6  -4 17.9654 8.72061   3
 -12  -6  -4 4.74797 8.09657   4
  12   6   4 28.8282 8.70662   1
 -13  -6  -4 256.853 19.1992   3
  13   6   4 305.865 20.4115   1
  13   6   4 289.871 19.1432   4
  -7   7   4 137.577 16.4405   3
   6  -7  -4 -12.991 9.65347   1
  -6   7   4 1.00852 8.40424   3
  -6   7   4 3.35006 5.21361   2
   5  -7  -4 23.2260 11.8877   1
  -5   7   4 25.6006 7.50033   2
  -5   7   4 28.1454 9.09326   3
   4  -7  -4 239.753 22.8233   1
  -4   7   4 252.259 15.8298   2
  -4   7   4 211.252 15.8460   3
   3  -7  -4 62.2967 13.4048   1
  -3   7   4 63.9843 9.15495   2
  -3   7   4 74.9238 10.3633   3
   2  -7  -4 109.355 15.3553   1
  -2   7   4 123.105 12.6181   2
  -2   7   4 135.259 12.1890   3
   1  -7  -4 107.541 14.2268   1
  -1   7   4 114.682 9.77262   3
  -1   7   4 105.808 11.3352   2
   0  -7  -4 141.519 7.35972   4
   0  -7  -4 148.779 15.6423   1
   0   7   4 141.438 11.2886   2
   0   7   4 147.293 9.81230   3
  -1  -7  -4 68.4283 6.24582   4
  -1  -7  -4 66.6632 10.7919   1
   1   7   4 83.3882 9.67189   2
   1   7   4 68.0612 6.99704   3
  -2  -7  -4 285.147 16.2675   1
  -2  -7  -4 256.426 11.3200   4
   2   7   4 243.700 10.4482   3
   2   7   4 281.852 14.5144   2
  -3  -7  -4 17.2992 4.47067   4
  -3  -7  -4 14.9370 6.02442   1
   3   7   4 15.7880 3.70628   3
   3   7   4 8.26536 4.34373   2
  -4  -7  -4 38.4556 7.48932   1
  -4  -7  -4 37.7191 6.47370   4
  -4  -7  -4 31.2101 5.89575   3
   4   7   4 33.6841 6.04407   2
  -5  -7  -4 9.29065 6.01543   1
  -5  -7  -4 3.74114 5.09611   3
  -5  -7  -4 1.66525 5.23269   4
   5   7   4 6.02091 3.60633   2
  -6  -7  -4 42.6686 8.06845   4
  -6  -7  -4 34.7821 6.49960   3
   6   7   4 47.2049 7.49034   1
   6   7   4 42.0832 5.84959   2
  -7  -7  -4 16.5661 6.95055   4
  -7  -7  -4 46.2669 7.82430   3
   7   7   4 62.0653 8.91611   1
   7   7   4 43.9927 5.28131   2
  -8  -7  -4 18.3567 6.30725   3
  -8  -7  -4 13.0463 7.06284   4
   8   7   4 15.1290 5.71113   1
  -9  -7  -4 74.7618 11.4108   4
  -9  -7  -4 108.542 12.2809   3
   9   7   4 84.3782 10.5080   1
 -10  -7  -4 26.7036 8.67845   4
 -10  -7  -4 36.3258 8.60377   3
  10   7   4 30.2845 7.54613   1
 -11  -7  -4 79.7979 11.7952   3
 -11  -7  -4 98.5216 14.4834   4
  11   7   4 94.6997 12.3103   1
 -12  -7  -4 26.6976 9.11903   3
 -12  -7  -4 22.3390 9.83867   4
  12   7   4 27.3837 8.65283   1
 -13  -7  -4 -4.2278 7.37557   3
  13   7   4 1.39415 5.74952   4
  13   7   4 2.08995 7.46043   1
   6  -8  -4 0.76297 12.7115   1
  -6   8   4 -6.5830 7.80294   3
  -6   8   4 9.12736 6.20469   2
   5  -8  -4 14.4052 12.2217   1
  -5   8   4 25.1376 7.91279   2
  -5   8   4 16.1061 8.82064   3
   4  -8  -4 485.277 29.8112   1
  -4   8   4 459.561 22.6488   2
  -4   8   4 421.908 21.4700   3
   3  -8  -4 46.0225 11.8106   1
  -3   8   4 44.9163 9.48870   3
  -3   8   4 16.4488 6.44715   2
   2  -8  -4 385.596 24.6463   1
  -2   8   4 384.500 20.4113   2
  -2   8   4 403.966 18.3686   3
   1  -8  -4 121.861 16.4094   1
  -1   8   4 118.087 10.3284   3
  -1   8   4 110.924 12.2636   2
   0  -8  -4 851.353 34.1879   1
   0   8   4 891.765 27.0996   3
   0   8   4 921.293 32.9882   2
  -1  -8  -4 157.812 15.9225   1
  -1  -8  -4 186.649 9.22908   4
   1   8   4 174.030 10.1714   3
   1   8   4 172.469 12.9504   2
  -2  -8  -4 126.743 14.4285   1
  -2  -8  -4 147.336 9.05351   4
   2   8   4 129.620 8.47197   3
   2   8   4 120.282 12.2470   2
  -3  -8  -4 8.86247 4.77691   4
  -3  -8  -4 11.1259 6.29627   1
   3   8   4 9.76678 3.67106   3
   3   8   4 7.45149 4.85284   2
  -4  -8  -4 158.406 11.3263   4
  -4  -8  -4 136.354 12.8636   1
   4   8   4 138.526 8.58171   3
   4   8   4 151.552 10.9241   2
  -5  -8  -4 646.820 22.3403   3
  -5  -8  -4 653.262 23.0981   4
  -5  -8  -4 602.961 23.9452   1
   5   8   4 634.814 23.5361   2
  -6  -8  -4 257.331 15.0038   3
  -6  -8  -4 273.228 15.7259   1
  -6  -8  -4 238.010 15.2623   4
   6   8   4 265.368 13.6069   2
  -7  -8  -4 897.628 28.3296   3
  -7  -8  -4 774.536 28.6299   4
   7   8   4 799.938 27.3578   1
   7   8   4 850.940 26.7790   2
  -8  -8  -4 543.754 22.3142   3
  -8  -8  -4 543.109 24.0635   4
   8   8   4 538.177 21.8465   1
  -9  -8  -4 21.1222 7.42120   3
  -9  -8  -4 -1.7742 5.95417   4
   9   8   4 11.0905 5.67403   1
 -10  -8  -4 282.009 17.0841   3
 -10  -8  -4 198.889 17.4482   4
  10   8   4 269.286 16.3426   1
 -11  -8  -4 7.56572 8.18042   4
 -11  -8  -4 23.7692 8.50468   3
  11   8   4 24.2346 7.57632   1
 -12  -8  -4 72.0573 13.7631   4
 -12  -8  -4 114.194 14.4746   3
  12   8   4 96.0701 13.1472   1
   5  -9  -4 62.4275 16.5918   1
  -5   9   4 59.2249 10.7822   2
  -5   9   4 78.3595 12.6917   3
   4  -9  -4 14.3796 12.1740   1
  -4   9   4 2.77646 5.38697   2
  -4   9   4 -6.9326 7.45432   3
   3  -9  -4 66.9805 14.9788   1
  -3   9   4 61.4712 10.6825   2
  -3   9   4 54.3232 10.5300   3
   2  -9  -4 38.0022 12.7060   1
  -2   9   4 31.4184 8.09354   3
  -2   9   4 22.1695 7.33771   2
   1  -9  -4 0.12633 8.98149   1
  -1   9   4 10.2510 5.53027   3
  -1   9   4 5.89837 5.57408   2
   0  -9  -4 224.637 21.2033   1
   0   9   4 211.583 12.6017   3
   0   9   4 209.606 15.3311   2
  -1  -9  -4 14.0079 8.83033   1
   1   9   4 -2.3546 3.83875   3
   1   9   4 -0.0609 4.52071   2
  -2  -9  -4 274.434 12.3357   4
  -2  -9  -4 234.096 17.7564   1
   2   9   4 250.396 12.4314   3
   2   9   4 261.387 16.3020   2
  -3  -9  -4 321.537 18.6384   1
  -3  -9  -4 348.118 15.0788   4
   3   9   4 324.388 13.6033   3
   3   9   4 330.428 18.1245   2
  -4  -9  -4 2.99889 5.07236   4
  -4  -9  -4 1.54708 5.97814   1
   4   9   4 7.42487 3.48589   3
   4   9   4 4.14285 4.71761   2
  -5  -9  -4 407.700 18.6499   4
  -5  -9  -4 404.265 19.7425   1
   5   9   4 367.061 18.3136   2
  -6  -9  -4 76.1638 10.3379   4
  -6  -9  -4 102.586 10.9303   3
  -6  -9  -4 62.9372 10.0295   1
   6   9   4 81.4368 9.30140   2
  -7  -9  -4 43.5905 9.01162   4
  -7  -9  -4 71.5769 9.81471   3
   7   9   4 70.0121 8.48412   2
   7   9   4 52.0814 8.38937   1
  -8  -9  -4 0.37372 6.00539   4
  -8  -9  -4 10.1345 6.11277   3
   8   9   4 18.1695 6.37148   1
  -9  -9  -4 -2.5219 6.88467   4
  -9  -9  -4 7.54429 6.30409   3
   9   9   4 0.65484 4.76036   1
 -10  -9  -4 17.0910 7.93402   3
 -10  -9  -4 20.8473 8.76383   4
  10   9   4 14.6857 7.09786   1
 -11  -9  -4 58.8309 12.4984   4
 -11  -9  -4 64.9387 11.4123   3
  11   9   4 76.8187 11.4320   1
 -12  -9  -4 72.8135 12.7331   3
 -12  -9  -4 46.6854 12.4846   4
  12   9   4 78.9080 11.7953   1
   3 -10  -4 -2.4924 10.3670   1
  -3  10   4 9.80338 8.50065   3
  -3  10   4 4.21054 5.88647   2
   2 -10  -4 65.2791 15.3645   1
  -2  10   4 58.3745 10.3440   3
  -2  10   4 28.6213 8.58708   2
   1 -10  -4 67.2162 13.8384   1
  -1  10   4 60.1642 9.37338   3
  -1  10   4 77.8285 11.8313   2
   0 -10  -4 514.983 28.3919   1
   0  10   4 531.078 25.6069   2
   0  10   4 532.290 20.6799   3
  -1 -10  -4 4.65866 8.34284   1
   1  10   4 7.10104 4.99851   3
   1  10   4 -3.2428 4.38763   2
  -2 -10  -4 213.784 18.4793   1
   2  10   4 258.540 12.9234   3
   2  10   4 233.668 16.1510   2
  -3 -10  -4 49.7646 10.3347   1
  -3 -10  -4 83.6619 8.90768   4
   3  10   4 62.2235 7.73343   3
   3  10   4 70.4221 10.1513   2
  -4 -10  -4 303.117 18.9994   1
  -4 -10  -4 337.995 16.1574   4
   4  10   4 335.777 18.1824   2
   4  10   4 324.048 14.3205   3
  -5 -10  -4 138.120 14.3468   1
  -5 -10  -4 141.599 12.2231   4
   5  10   4 154.801 9.74519   3
   5  10   4 133.592 11.6020   2
  -6 -10  -4 3.11248 5.74439   4
  -6 -10  -4 0.12295 5.76954   3
  -6 -10  -4 4.88953 6.22852   1
   6  10   4 3.97395 4.10496   2
  -7 -10  -4 100.524 11.4115   3
  -7 -10  -4 89.9602 12.0433   4
   7  10   4 101.770 10.8393   2
   7  10   4 81.9771 10.7171   1
  -8 -10  -4 111.790 12.7322   3
  -8 -10  -4 114.286 13.5772   4
   8  10   4 100.587 11.5175   1
  -9 -10  -4 129.916 15.5712   4
  -9 -10  -4 130.652 13.9776   3
   9  10   4 142.308 14.1363   1
 -10 -10  -4 65.6191 12.8345   4
 -10 -10  -4 92.8947 12.8695   3
  10  10   4 114.789 13.0682   1
 -11 -10  -4 132.000 15.3089   3
 -11 -10  -4 152.950 17.9361   4
  11  10   4 131.445 13.9760   1
 -12 -10  -4 185.759 18.4511   3
 -12 -10  -4 182.362 21.0293   4
  12  10   4 172.573 15.2492   1
   2 -11  -4 43.3872 13.3798   1
  -2  11   4 64.2163 11.1142   2
   1 -11  -4 69.9436 14.2401   1
  -1  11   4 70.4570 12.1767   2
   0 -11  -4 70.7778 14.0872   1
   0  11   4 57.3392 10.5808   2
  -1 -11  -4 32.1737 10.8804   1
   1  11   4 63.0049 11.0282   2
  -2 -11  -4 38.2626 10.9139   1
   2  11   4 25.4012 7.52923   2
   2  11   4 43.2780 8.98280   3
  -3 -11  -4 18.5815 8.45061   1
   3  11   4 9.84408 6.17028   2
   3  11   4 6.57266 4.48422   3
  -4 -11  -4 367.623 21.6548   1
   4  11   4 391.444 16.2817   3
   4  11   4 362.755 20.4519   2
  -5 -11  -4 47.7136 8.91237   4
  -5 -11  -4 63.9870 11.3501   1
   5  11   4 64.7584 10.2125   2
   5  11   4 67.1747 8.05231   3
  -6 -11  -4 7.70826 7.06407   4
  -6 -11  -4 13.8142 7.43725   1
   6  11   4 18.6937 5.43849   3
   6  11   4 29.5364 7.21789   2
  -7 -11  -4 288.213 17.6452   3
  -7 -11  -4 320.832 19.2417   4
  -7 -11  -4 325.633 18.9890   1
   7  11   4 309.804 17.0620   2
  -8 -11  -4 91.4871 13.1836   4
  -8 -11  -4 124.855 13.2696   3
   8  11   4 105.121 12.4972   1
  -9 -11  -4 64.6009 11.2489   3
  -9 -11  -4 43.8025 10.6290   4
   9  11   4 51.3160 9.52070   1
 -10 -11  -4 39.1001 11.6912   4
 -10 -11  -4 34.7464 9.74782   3
  10  11   4 31.9640 7.91682   1
 -11 -11  -4 65.4601 12.1687   3
 -11 -11  -4 71.5810 13.9832   4
  11  11   4 92.7764 12.5380   1
   0 -12  -4 16.4940 11.0986   1
   0  12   4 17.1642 8.14443   2
  -1 -12  -4 55.1136 13.4662   1
   1  12   4 72.1401 11.8691   2
  -2 -12  -4 43.4395 11.7603   1
   2  12   4 39.9276 9.42457   2
  -3 -12  -4 178.253 18.4107   1
   3  12   4 164.176 16.8721   2
  -4 -12  -4 23.2897 9.60522   1
   4  12   4 35.6936 8.43025   2
  -5 -12  -4 366.622 22.1189   1
   5  12   4 315.847 19.3861   2
  -6 -12  -4 59.0283 10.3977   4
  -6 -12  -4 39.9056 10.0951   1
   6  12   4 50.6995 9.37989   2
  -7 -12  -4 54.7045 10.7826   1
  -7 -12  -4 59.0565 10.9047   4
   7  12   4 49.4489 8.76358   2
  -8 -12  -4 11.5281 8.18341   4
   8  12   4 8.53404 5.68218   1
  -9 -12  -4 45.1890 11.5229   4
   9  12   4 38.0338 8.99746   1
 -10 -12  -4 135.421 16.9894   4
  10  12   4 142.730 15.0808   1
  -2 -13  -4 10.2417 10.5305   1
   2  13   4 29.4034 9.07491   2
  -3 -13  -4 65.8343 13.4443   1
   3  13   4 76.8195 12.8242   2
  -4 -13  -4 -0.4703 8.52223   1
   4  13   4 34.7218 9.29090   2
  -5 -13  -4 20.8298 10.0903   1
   5  13   4 17.8027 6.96268   2
  -6 -13  -4 71.1570 12.2111   1
   6  13   4 51.7250 9.84157   2
  -7 -13  -4 -3.5840 7.40227   1
   7  13   4 19.2528 6.68078   2
  -8 -13  -4 146.182 16.9267   4
   8  13   4 111.483 13.2096   1
   9  13   4 10.1605 6.24345   1
   7  12  -5 26.3702 8.12756   3
   7  12  -5 37.3722 8.51318   4
  -7 -12   5 45.0984 11.2775   2
   6  12  -5 17.2649 7.30792   3
  -6 -12   5 -1.5996 7.74876   2
   5  12  -5 137.474 14.3187   3
  -5 -12   5 150.840 17.3066   2
   4  12  -5 88.4783 12.2594   3
  -4 -12   5 55.3907 12.8710   2
   3  12  -5 13.4390 6.46444   3
  -3 -12   5 -6.9300 7.25430   2
   2  12  -5 25.8360 8.02856   3
  -2 -12   5 32.3464 11.5401   2
   1  12  -5 12.3925 7.70790   3
  -1 -12   5 26.7045 10.7817   2
   9  11  -5 115.603 14.8235   4
  -9 -11   5 116.015 16.5928   3
   8  11  -5 141.429 15.3354   4
  -8 -11   5 123.672 16.7968   3
   7  11  -5 -0.9860 4.90088   4
  -7 -11   5 -6.1441 7.33096   3
  -7 -11   5 6.40073 7.45558   2
   6  11  -5 171.380 13.6287   4
  -6 -11   5 178.511 17.8886   2
  -6 -11   5 136.057 16.3040   3
   5  11  -5 7.02179 5.76210   3
  -5 -11   5 1.67209 7.04438   2
   4  11  -5 313.848 18.4645   3
  -4 -11   5 293.908 20.7740   2
   3  11  -5 110.533 12.9097   3
  -3 -11   5 100.444 14.6949   2
   2  11  -5 100.958 12.3889   3
  -2 -11   5 113.427 15.7075   2
   1  11  -5 209.471 16.2208   3
  -1 -11   5 196.458 20.3195   2
   0  11  -5 6.15725 6.66413   3
   0 -11   5 23.8025 8.43122   1
   0 -11   5 9.28027 9.74549   2
  -1  11  -5 102.521 13.7585   3
   1 -11   5 111.998 15.9916   2
   1 -11   5 94.9113 13.5337   1
  -2  11  -5 12.4818 7.84974   3
   2 -11   5 4.19829 8.71419   2
   2 -11   5 9.26530 8.97767   1
  10  10  -5 24.4310 8.92428   4
 -10 -10   5 7.86929 9.23986   3
   9  10  -5 1.79905 5.70836   4
  -9 -10   5 -4.2671 8.05033   3
   8  10  -5 17.3222 7.55812   4
  -8 -10   5 25.4709 9.91858   3
   7  10  -5 86.3150 11.6281   4
  -7 -10   5 57.3859 12.2625   3
  -7 -10   5 80.1982 12.5642   2
   6  10  -5 123.920 13.0418   4
  -6 -10   5 100.059 14.0612   3
  -6 -10   5 119.740 14.1288   2
   5  10  -5 223.659 14.4323   4
  -5 -10   5 226.127 17.8913   2
  -5 -10   5 200.400 17.7166   3
   4  10  -5 51.7639 7.92382   4
   4  10  -5 41.2353 7.98773   3
  -4 -10   5 29.5799 9.63169   2
   3  10  -5 29.4586 7.62365   3
  -3 -10   5 9.89517 7.69745   2
   2  10  -5 454.021 21.5530   3
  -2 -10   5 426.101 24.9918   2
   1  10  -5 89.6519 11.6986   3
  -1 -10   5 84.2805 13.6280   2
  -1 -10   5 78.5929 11.0859   1
   0  10  -5 14.0853 6.88953   3
   0 -10   5 19.2150 9.01178   2
   0 -10   5 2.53180 6.93499   1
  -1  10  -5 74.7281 11.4103   3
   1 -10   5 81.1399 13.9003   2
   1 -10   5 97.2362 13.4000   1
  -2  10  -5 44.5043 9.54729   3
   2 -10   5 32.0306 10.2350   1
   2 -10   5 51.2322 11.4650   2
  -3  10  -5 15.1899 8.16555   3
   3 -10   5 9.02863 8.56701   2
   3 -10   5 -1.7023 8.57271   1
  10   9  -5 137.856 16.5989   4
 -10  -9   5 97.3023 15.7014   3
   9   9  -5 205.947 17.2824   4
  -9  -9   5 202.440 20.2972   3
   8   9  -5 35.4472 9.23844   4
  -8  -9   5 23.4080 8.98831   3
   7   9  -5 23.7815 7.51939   4
  -7  -9   5 36.5622 10.4109   3
  -7  -9   5 21.0165 7.83499   2
   6   9  -5 168.191 13.3646   4
  -6  -9   5 173.518 14.8562   2
  -6  -9   5 212.189 17.1625   3
   5   9  -5 4.36329 4.86083   4
  -5  -9   5 4.05049 6.18411   2
  -5  -9   5 3.12681 7.34105   3
   4   9  -5 395.412 17.6956   4
  -4  -9   5 372.386 21.1520   2
  -4  -9   5 382.971 21.6980   3
   3   9  -5 2.75635 4.04875   4
   3   9  -5 15.1467 5.87426   3
  -3  -9   5 4.67973 7.12889   2
  -3  -9   5 17.5839 8.68760   1
   2   9  -5 705.562 26.5275   3
  -2  -9   5 668.213 29.9853   2
  -2  -9   5 734.846 23.7503   1
   1   9  -5 44.3998 8.31863   3
  -1  -9   5 55.5863 8.96280   1
  -1  -9   5 35.4623 9.61027   2
   0   9  -5 161.630 13.4364   3
   0  -9   5 134.249 15.7744   2
   0  -9   5 158.138 14.5362   1
  -1   9  -5 39.7184 8.66798   3
   1  -9   5 53.2102 10.2453   1
   1  -9   5 23.3125 8.85564   2
  -2   9  -5 294.018 18.3333   3
   2  -9   5 329.402 20.4787   1
   2  -9   5 314.584 21.6209   2
  -3   9  -5 89.7604 12.2953   3
   3  -9   5 107.084 14.0292   2
   3  -9   5 113.313 15.3615   1
  -4   9  -5 44.0228 10.3206   3
   4  -9   5 34.8621 10.2169   2
   4  -9   5 40.6046 12.0591   1
  -5   9  -5 41.6773 11.2027   3
   5  -9   5 23.8262 11.4573   1
   5  -9   5 15.4748 9.07693   2
  11   8  -5 32.9572 9.98709   4
 -11  -8   5 42.5450 13.0229   3
  10   8  -5 37.4372 10.2421   4
 -10  -8   5 50.2675 12.5028   3
   9   8  -5 15.7864 7.25214   4
  -9  -8   5 23.2033 9.48992   3
   8   8  -5 6.46833 6.27451   4
  -8  -8   5 16.4194 8.28273   3
   7   8  -5 18.1525 6.99696   4
  -7  -8   5 4.43552 5.85657   2
  -7  -8   5 12.3674 7.79842   3
   6   8  -5 15.9420 6.17405   4
  -6  -8   5 19.1663 8.24594   3
  -6  -8   5 18.1320 7.07770   2
   5   8  -5 594.724 23.1295   4
  -5  -8   5 604.806 25.8920   2
  -5  -8   5 568.895 25.5368   3
   4   8  -5 108.092 11.0345   4
  -4  -8   5 125.814 13.9348   2
  -4  -8   5 148.049 15.2561   3
   3   8  -5 125.717 10.4753   4
   3   8  -5 136.328 13.0384   3
  -3  -8   5 135.827 9.22757   1
  -3  -8   5 116.796 13.3980   2
   2   8  -5 415.751 19.3076   3
   2   8  -5 415.486 16.0927   4
  -2  -8   5 455.570 16.7157   1
  -2  -8   5 397.558 21.9551   2
   1   8  -5 33.5548 7.59448   3
  -1  -8   5 23.9193 8.72131   2
  -1  -8   5 26.4977 7.16025   1
   0   8  -5 374.981 18.7227   3
   0  -8   5 388.376 21.6025   2
   0  -8   5 386.728 18.2963   1
  -1   8  -5 0.89360 5.66036   3
   1  -8   5 0.65570 6.14051   1
   1  -8   5 4.14267 6.33614   2
  -2   8  -5 250.778 16.5399   3
   2  -8   5 298.841 19.5152   2
   2  -8   5 287.579 18.0229   1
  -3   8  -5 -1.2530 5.48295   3
   3  -8   5 -3.4833 6.18055   2
   3  -8   5 5.56369 7.85991   1
  -4   8  -5 -1.5571 6.34775   3
   4  -8   5 7.50507 6.84935   2
   4  -8   5 1.36785 8.05368   1
  -5   8  -5 10.6868 7.73791   3
   5  -8   5 16.1588 10.1540   1
   5  -8   5 26.0361 9.08197   2
  -6   8  -5 85.0506 14.3238   3
   6  -8   5 73.1213 12.4702   2
   6  -8   5 76.9710 15.1662   1
 -11  -7   5 28.9932 11.3772   3
  10   7  -5 11.0353 7.13455   4
 -10  -7   5 17.6685 9.89262   3
   9   7  -5 141.337 15.7880   4
  -9  -7   5 126.812 16.0585   3
   8   7  -5 18.7578 7.64944   4
  -8  -7   5 20.5666 9.06132   3
   7   7  -5 531.202 24.4778   4
  -7  -7   5 513.548 25.0364   3
  -7  -7   5 585.369 23.2968   2
   6   7  -5 70.9567 11.1504   4
  -6  -7   5 97.0713 11.1189   2
  -6  -7   5 72.1007 11.2042   3
   5   7  -5 947.712 30.6599   4
  -5  -7   5 920.024 32.7998   2
  -5  -7   5 912.287 33.3165   3
   4   7  -5 226.285 13.4561   4
   4   7  -5 229.369 8.80272   1
  -4  -7   5 231.451 15.9843   2
  -4  -7   5 212.791 16.1500   3
   3   7  -5 301.652 14.6031   4
  -3  -7   5 320.544 11.5008   1
  -3  -7   5 307.633 18.0655   2
  -3  -7   5 281.123 18.0089   3
   2   7  -5 216.355 13.2491   3
   2   7  -5 186.845 11.1595   4
  -2  -7   5 223.438 16.2701   2
  -2  -7   5 215.761 10.6638   1
   1   7  -5 381.461 14.4684   4
   1   7  -5 394.464 17.9687   3
  -1  -7   5 380.423 16.1566   1
  -1  -7   5 364.975 20.2521   2
   0   7  -5 102.568 7.38115   4
   0   7  -5 67.5859 9.18432   3
   0  -7   5 63.8566 10.0677   2
   0  -7   5 89.1877 10.0070   1
  -1   7  -5 1142.07 35.3747   3
   1  -7   5 1148.21 34.9867   1
   1  -7   5 1116.57 39.0519   2
  -2   7  -5 -3.9387 4.89718   3
   2  -7   5 0.70816 6.00208   2
   2  -7   5 -0.8103 6.24413   1
  -3   7  -5 109.912 12.3304   3
   3  -7   5 144.608 15.0470   1
   3  -7   5 91.8879 12.1111   2
  -4   7  -5 88.8975 12.7118   3
   4  -7   5 58.7056 11.6572   1
   4  -7   5 68.7076 10.9618   2
  -5   7  -5 148.977 15.3610   3
   5  -7   5 163.872 14.6428   2
   5  -7   5 149.262 17.8497   1
  -6   7  -5 169.968 18.0526   3
   6  -7   5 199.416 20.8610   1
   6  -7   5 198.341 15.8193   2
  -7   7  -5 49.0049 12.2007   3
   7  -7   5 -4.4453 11.4586   1
   7  -7   5 11.6263 7.49111   2
  11   6  -5 15.3680 8.15011   4
 -11  -6   5 -2.4154 8.21776   3
  10   6  -5 115.288 15.5159   4
 -10  -6   5 94.2954 14.5318   3
   9   6  -5 398.913 22.3651   4
  -9  -6   5 383.971 23.2343   3
   8   6  -5 61.3350 11.1589   4
  -8  -6   5 39.4487 10.1597   3
   7   6  -5 34.6507 8.50427   4
  -7  -6   5 32.1747 9.03833   3
  -7  -6   5 24.1988 6.43403   2
   6   6  -5 25.4899 7.08590   4
  -6  -6   5 27.7801 7.25316   2
  -6  -6   5 28.8254 7.70287   3
   5   6  -5 104.747 6.12409   1
   5   6  -5 84.3968 10.6481   4
  -5  -6   5 104.770 12.6111   3
  -5  -6   5 90.2058 10.6963   2
   4   6  -5 235.583 8.11859   1
   4   6  -5 225.836 13.5280   4
  -4  -6   5 224.255 14.6303   2
  -4  -6   5 211.317 15.2822   3
   3   6  -5 794.161 25.3120   4
  -3  -6   5 835.606 20.0771   1
  -3  -6   5 830.998 28.9535   3
  -3  -6   5 852.747 30.7511   2
   2   6  -5 307.173 13.9138   4
  -2  -6   5 319.924 17.5587   3
  -2  -6   5 294.342 17.0566   2
  -2  -6   5 336.932 11.7085   1
   1   6  -5 199.928 10.3999   4
  -1  -6   5 178.462 10.4471   1
  -1  -6   5 186.834 13.8837   2
   0   6  -5 381.571 17.0344   3
   0   6  -5 404.190 13.5625   4
   0  -6   5 399.458 20.0462   2
   0  -6   5 379.807 16.7375   1
  -1   6  -5 15.8825 5.69095   3
  -1   6  -5 22.5227 3.34373   4
   1  -6   5 32.1554 7.38486   1
   1  -6   5 30.6680 7.71292   2
  -2   6  -5 55.7671 8.69391   3
   2  -6   5 82.1554 10.9332   2
   2  -6   5 40.7149 8.79529   1
  -3   6  -5 5.69352 5.96875   3
   3  -6   5 9.69428 7.32878   1
   3  -6   5 6.72894 6.09021   2
  -4   6  -5 8.41232 7.21269   3
   4  -6   5 16.1871 6.36494   2
   4  -6   5 20.1894 8.68731   1
  -5   6  -5 69.9441 11.3943   3
   5  -6   5 70.3477 10.1627   2
   5  -6   5 58.3104 12.0909   1
  -6   6  -5 66.9316 12.3536   3
   6  -6   5 74.3214 10.7561   2
   6  -6   5 66.6942 14.0919   1
  -7   6  -5 39.2084 10.5357   3
   7  -6   5 37.2023 8.43084   2
   7  -6   5 31.0958 12.5170   1
  -8   6  -5 68.3105 14.5645   3
   8  -6   5 50.7679 15.9556   1
  11   5  -5 135.021 16.4874   4
 -11  -5   5 121.043 16.7873   3
  10   5  -5 107.372 14.8466   4
 -10  -5   5 88.0556 13.6562   3
   9   5  -5 50.9666 10.1729   4
  -9  -5   5 42.9816 10.3612   3
   8   5  -5 120.721 14.3990   4
  -8  -5   5 125.485 14.8328   3
   7   5  -5 73.8891 10.9061   4
   7   5  -5 101.083 9.02985   1
  -7  -5   5 96.5766 9.68945   2
  -7  -5   5 86.5110 11.9424   3
   6   5  -5 266.043 11.0588   1
   6   5  -5 251.278 15.8819   4
  -6  -5   5 242.761 15.9972   3
  -6  -5   5 257.474 14.1337   2
   5   5  -5 124.436 6.78125   1
   5   5  -5 99.6181 11.2540   4
  -5  -5   5 134.357 10.8065   2
  -5  -5   5 106.040 12.1846   3
   4   5  -5 527.372 20.5760   4
   4   5  -5 534.164 13.7294   1
  -4  -5   5 493.177 20.8952   2
  -4  -5   5 569.666 22.3382   3
   3   5  -5 46.5293 3.35588   1
   3   5  -5 50.1121 7.49399   4
  -3  -5   5 29.7370 7.65026   3
  -3  -5   5 46.6323 7.85564   2
   2   5  -5 3038.75 66.2195   4
  -2  -5   5 3128.18 61.5478   1
  -2  -5   5 3017.46 73.7377   3
  -2  -5   5 3021.12 79.6023   2
   1   5  -5 1126.26 29.1375   4
   1   5  -5 1116.90 32.7050   3
  -1  -5   5 1147.77 36.6971   2
  -1  -5   5 1152.70 28.0629   1
   0   5  -5 140.975 8.29497   4
   0   5  -5 126.809 9.44114   3
   0  -5   5 145.838 9.85968   1
   0  -5   5 121.525 11.9135   2
  -1   5  -5 21.1646 5.36609   3
  -1   5  -5 24.5740 3.68453   4
   1  -5   5 33.6638 6.87223   1
   1  -5   5 11.3157 5.82106   2
  -2   5  -5 195.452 12.2606   3
   2  -5   5 228.129 14.2238   2
   2  -5   5 199.911 13.8342   1
  -3   5  -5 711.856 26.0731   3
   3  -5   5 746.714 27.0240   1
   3  -5   5 740.675 27.6622   2
  -4   5  -5 245.578 15.8170   3
   4  -5   5 219.767 14.3116   2
   4  -5   5 207.643 15.7726   1
  -5   5  -5 107.167 12.9442   3
   5  -5   5 106.680 11.6159   2
   5  -5   5 95.5583 13.2693   1
  -6   5  -5 144.474 15.2578   3
   6  -5   5 145.539 12.1600   2
   6  -5   5 178.205 18.2161   1
  -7   5  -5 8.90054 8.54531   3
   7  -5   5 12.7376 6.08125   2
   7  -5   5 2.13324 9.41927   1
  -8   5  -5 359.144 23.5863   3
   8  -5   5 332.726 25.4065   1
  -9   5  -5 -2.4132 8.92042   3
   9  -5   5 1.30565 11.9533   1
  11   4  -5 1.03569 7.05565   4
 -11  -4   5 -3.6765 7.46793   3
  10   4  -5 99.3878 13.9665   4
 -10  -4   5 64.9323 12.1425   3
   9   4  -5 3.87626 9.62409   1
   9   4  -5 5.82675 6.42396   4
  -9  -4   5 9.51223 7.85806   3
   8   4  -5 120.432 11.4918   1
   8   4  -5 97.0862 12.5092   4
  -8  -4   5 119.756 13.3926   3
   7   4  -5 750.014 28.7797   4
   7   4  -5 790.819 24.0374   1
  -7  -4   5 706.246 28.4467   3
  -7  -4   5 786.096 25.2855   2
   6   4  -5 4.26684 4.21663   1
   6   4  -5 5.16772 5.06284   4
  -6  -4   5 8.42252 4.86868   2
  -6  -4   5 -5.8011 4.49919   3
   5   4  -5 715.404 18.7159   1
   5   4  -5 656.483 24.6724   4
  -5  -4   5 681.825 25.3965   3
  -5  -4   5 714.317 24.2633   2
   4   4  -5 295.833 15.1796   4
   4   4  -5 304.708 9.30337   1
  -4  -4   5 295.971 14.3820   2
  -4  -4   5 269.600 15.1200   3
   3   4  -5 22.6877 2.43196   1
   3   4  -5 30.3304 6.17992   4
  -3  -4   5 31.8495 6.33669   2
  -3  -4   5 23.3132 6.42755   3
   2   4  -5 315.559 14.3168   4
  -2  -4   5 310.630 8.00952   1
  -2  -4   5 303.794 15.2477   3
  -2  -4   5 292.700 14.9316   2
   1   4  -5 3.04275 3.75499   4
  -1  -4   5 15.1583 5.72916   2
  -1  -4   5 1.78577 4.52356   3
  -1  -4   5 10.0289 3.05671   1
   0   4  -5 324.925 13.9449   3
   0   4  -5 329.110 12.2829   4
   0  -4   5 307.310 12.1444   1
   0  -4   5 303.401 15.7141   2
  -1   4  -5 280.418 9.84604   4
  -1   4  -5 245.517 12.3164   3
   1  -4   5 304.751 13.4093   1
   1  -4   5 268.650 14.7412   2
  -2   4  -5 32.1779 3.55180   4
  -2   4  -5 18.4353 5.51846   3
   2  -4   5 25.9668 6.53446   1
   2  -4   5 21.4765 5.81934   2
  -3   4  -5 342.547 16.1212   3
  -3   4  -5 331.197 8.80939   4
   3  -4   5 331.132 16.7221   1
   3  -4   5 318.649 15.8944   2
  -4   4  -5 203.180 13.3056   3
   4  -4   5 183.963 14.9080   1
   4  -4   5 186.326 12.3894   2
  -5   4  -5 17.0754 7.29296   3
   5  -4   5 9.78819 5.05004   2
   5  -4   5 5.55461 7.52810   1
  -6   4  -5 54.7641 10.1765   3
   6  -4   5 77.7230 12.7494   1
   6  -4   5 74.3684 9.15876   2
  -7   4  -5 17.1545 8.62298   3
   7  -4   5 18.6337 5.98812   2
   7  -4   5 21.3484 9.82704   1
  -8   4  -5 75.2015 13.1140   3
   8  -4   5 51.0043 13.0924   1
  -9   4  -5 57.4769 11.8915   3
   9  -4   5 96.3298 17.8226   1
  11   3  -5 13.6868 8.20981   4
 -11  -3   5 13.8580 9.35493   3
  10   3  -5 89.5405 13.2733   1
  10   3  -5 88.7475 13.4114   4
 -10  -3   5 92.0352 14.1649   3
   9   3  -5 590.430 24.3042   1
   9   3  -5 533.299 25.3505   4
  -9  -3   5 511.120 24.9285   3
   8   3  -5 264.611 15.8211   1
   8   3  -5 249.065 16.6181   4
  -8  -3   5 245.904 16.5140   3
   7   3  -5 432.618 20.8078   4
   7   3  -5 463.877 18.5634   1
  -7  -3   5 431.971 21.4699   3
  -7  -3   5 430.827 17.1619   2
   6   3  -5 11.0170 5.56679   4
   6   3  -5 4.47730 4.78672   1
  -6  -3   5 12.9363 4.83142   2
  -6  -3   5 15.8738 7.17809   3
   5   3  -5 42.4334 7.42006   4
   5   3  -5 46.5615 5.85084   1
  -5  -3   5 34.0842 7.45288   3
  -5  -3   5 46.2523 6.59658   2
   4   3  -5 1454.55 38.8071   4
   4   3  -5 1483.50 32.3376   1
  -4  -3   5 1489.86 41.1168   2
  -4  -3   5 1444.76 40.1173   3
   3   3  -5 5.62239 4.29122   4
  -3  -3   5 8.38418 4.71073   2
  -3  -3   5 9.41939 5.18280   3
   2   3  -5 696.058 22.4490   4
  -2  -3   5 741.972 23.7501   3
  -2  -3   5 720.665 24.2796   2
   1   3  -5 1439.30 35.4885   4
  -1  -3   5 1425.00 41.4950   2
  -1  -3   5 1512.37 30.0001   1
  -1  -3   5 1527.88 39.3116   3
   0   3  -5 2178.08 46.8482   4
   0   3  -5 2203.78 51.6436   3
   0  -3   5 2122.69 57.8423   2
   0  -3   5 2226.07 46.4692   1
  -1   3  -5 1617.79 35.0013   4
  -1   3  -5 1686.16 41.1645   3
   1  -3   5 1634.17 45.6367   2
   1  -3   5 1596.45 37.8685   1
  -2   3  -5 2094.07 51.5594   3
  -2   3  -5 2208.12 42.8300   4
   2  -3   5 2073.64 49.1869   1
   2  -3   5 2125.00 56.9342   2
  -3   3  -5 769.060 17.7020   4
  -3   3  -5 769.442 24.6450   3
   3  -3   5 777.142 25.7616   2
   3  -3   5 741.957 24.7608   1
  -4   3  -5 6.35624 2.55032   4
  -4   3  -5 1.60782 5.09458   3
   4  -3   5 12.5884 6.20825   1
   4  -3   5 2.15247 4.11373   2
  -5   3  -5 314.194 10.8012   4
  -5   3  -5 309.820 16.8553   3
   5  -3   5 314.775 14.9192   2
   5  -3   5 312.812 18.1410   1
  -6   3  -5 8.33593 6.79098   3
   6  -3   5 5.20531 4.11980   2
   6  -3   5 1.01754 7.25700   1
  -7   3  -5 17.4978 8.35737   3
   7  -3   5 28.2043 10.5345   1
   7  -3   5 22.8675 5.87601   2
  -8   3  -5 162.626 17.2614   3
   8  -3   5 161.543 18.4418   1
  -9   3  -5 91.1819 14.0794   3
   9  -3   5 86.2189 16.2261   1
 -10   3  -5 199.003 20.0671   3
  10  -3   5 194.900 22.9024   1
  11   2  -5 43.7790 9.94986   4
 -11  -2   5 15.9294 9.42525   3
  10   2  -5 23.9574 8.49833   4
  10   2  -5 40.0138 10.7351   1
 -10  -2   5 36.1158 10.6656   3
   9   2  -5 9.11028 7.67931   1
   9   2  -5 27.9156 8.24021   4
  -9  -2   5 6.03732 6.93561   3
   8   2  -5 38.0195 8.54363   4
   8   2  -5 44.6266 9.64567   1
  -8  -2   5 40.7194 9.40067   3
   7   2  -5 268.597 15.5095   1
   7   2  -5 219.926 14.9270   4
  -7  -2   5 266.576 16.7007   3
  -7  -2   5 252.510 12.5238   2
   6   2  -5 -6.3197 3.75355   4
   6   2  -5 11.7310 5.41323   1
  -6  -2   5 2.89003 5.79663   3
  -6  -2   5 3.45749 4.21745   2
   5   2  -5 80.1633 9.74005   4
   5   2  -5 73.8585 8.05502   1
  -5  -2   5 72.4175 7.44802   2
  -5  -2   5 73.6693 9.65252   3
   4   2  -5 371.945 12.9723   1
   4   2  -5 328.560 15.7933   4
  -4  -2   5 363.022 16.0283   3
  -4  -2   5 353.177 14.6770   2
   3   2  -5 313.177 14.4975   4
   3   2  -5 320.479 10.1291   1
  -3  -2   5 295.490 13.8794   3
  -3  -2   5 310.066 13.6698   2
   2   2  -5 927.522 26.2515   4
  -2  -2   5 868.804 27.1851   2
  -2  -2   5 919.402 26.4848   3
   1   2  -5 98.3116 8.55392   4
  -1  -2   5 101.186 8.50868   3
  -1  -2   5 96.4027 8.55434   2
   0   2  -5 191.815 9.88252   4
   0  -2   5 201.220 11.3092   2
   0  -2   5 198.379 10.6377   3
   0  -2   5 205.463 7.11691   1
  -1   2  -5 674.245 19.9257   3
  -1   2  -5 691.495 17.9300   4
   1  -2   5 714.204 22.7574   2
   1  -2   5 656.746 17.9411   1
  -2   2  -5 1920.58 45.6721   3
  -2   2  -5 1920.70 38.9952   4
   2  -2   5 1846.75 43.1180   1
   2  -2   5 1871.53 49.9986   2
  -3   2  -5 8.74329 3.98458   3
  -3   2  -5 3.37189 2.48024   4
   3  -2   5 4.21670 3.61442   2
   3  -2   5 2.90627 4.73695   1
  -4   2  -5 18.0205 3.49013   4
  -4   2  -5 15.3449 5.63764   3
   4  -2   5 16.5722 6.46374   1
   4  -2   5 20.2185 4.58599   2
  -5   2  -5 286.974 10.9547   4
  -5   2  -5 299.567 15.2148   3
   5  -2   5 301.777 16.8869   1
   5  -2   5 295.287 13.4773   2
  -6   2  -5 36.3672 5.52488   4
  -6   2  -5 29.7007 7.55221   3
   6  -2   5 39.1652 6.08592   2
   6  -2   5 45.3556 9.73291   1
  -7   2  -5 133.983 9.28008   4
  -7   2  -5 121.083 13.7178   3
   7  -2   5 136.566 15.5032   1
   7  -2   5 136.936 9.32949   2
  -8   2  -5 159.735 16.4162   3
   8  -2   5 173.475 18.6328   1
  -9   2  -5 34.6668 10.2845   3
   9  -2   5 32.5628 11.3088   1
 -10   2  -5 151.249 18.1426   3
  10  -2   5 209.774 22.5282   1
 -11   2  -5 78.5751 14.6052   3
  11  -2   5 77.9229 17.6090   1
  11   1  -5 27.4119 11.7482   1
  11   1  -5 45.4584 10.0084   4
 -11  -1   5 30.7554 10.7850   3
  10   1  -5 48.8361 10.0396   4
  10   1  -5 42.1906 11.4402   1
 -10  -1   5 35.8679 10.4303   3
   9   1  -5 4.40500 7.78388   1
   9   1  -5 11.7089 6.33798   4
  -9  -1   5 6.81884 7.47105   3
   8   1  -5 254.882 17.0345   1
   8   1  -5 234.176 16.0536   4
  -8  -1   5 210.069 16.3846   3
   7   1  -5 884.151 30.2934   1
   7   1  -5 854.943 29.7600   4
  -7  -1   5 857.798 30.8941   3
  -7  -1   5 923.096 27.5038   2
   6   1  -5 418.684 18.7898   4
   6   1  -5 439.967 18.4750   1
  -6  -1   5 411.872 16.0457   2
  -6  -1   5 374.351 18.1494   3
   5   1  -5 3408.63 75.1603   4
   5   1  -5 3405.94 74.3210   1
  -5  -1   5 3456.65 80.2836   3
  -5  -1   5 3347.03 83.1136   2
   4   1  -5 11.0592 4.64171   1
   4   1  -5 16.5575 5.44146   4
  -4  -1   5 10.3229 4.11686   2
  -4  -1   5 21.9503 6.04633   3
   3   1  -5 851.046 25.6074   4
   3   1  -5 850.640 22.1492   1
  -3  -1   5 835.453 24.9532   3
  -3  -1   5 868.467 25.5305   2
   2   1  -5 154.097 6.57091   1
   2   1  -5 132.737 9.71098   4
  -2  -1   5 139.756 8.54202   3
  -2  -1   5 126.136 8.50219   2
   1   1  -5 943.597 25.5546   4
   1   1  -5 956.253 19.1430   1
  -1  -1   5 914.170 25.1844   3
  -1  -1   5 993.655 19.7840   1
  -1  -1   5 942.568 27.4251   2
   0   1  -5 81.1274 7.28299   4
   0  -1   5 87.4098 7.64894   2
   0  -1   5 72.7431 3.62788   1
   0  -1   5 79.6241 6.91733   3
  -1   1  -5 250.414 9.92761   3
  -1   1  -5 266.020 10.3247   4
   1  -1   5 277.722 9.14198   1
   1  -1   5 255.224 11.7259   2
  -2   1  -5 225.561 9.92921   3
  -2   1  -5 219.063 8.93129   4
   2  -1   5 214.783 10.8539   2
   2  -1   5 223.079 9.78210   1
  -3   1  -5 1105.02 25.1460   4
  -3   1  -5 1103.05 29.2510   3
   3  -1   5 1084.57 28.5633   1
   3  -1   5 1072.97 30.8495   2
  -4   1  -5 151.400 7.51781   4
  -4   1  -5 148.574 9.97361   3
   4  -1   5 162.514 10.8542   1
   4  -1   5 161.503 8.87987   2
  -5   1  -5 1374.97 38.0128   3
  -5   1  -5 1428.61 32.3620   4
   5  -1   5 1367.72 37.9914   1
   5  -1   5 1371.04 37.2390   2
  -6   1  -5 215.543 14.1035   3
  -6   1  -5 220.679 10.7462   4
   6  -1   5 214.818 15.4442   1
   6  -1   5 231.005 10.4470   2
  -7   1  -5 679.136 25.9847   3
  -7   1  -5 649.195 20.8725   4
   7  -1   5 648.194 20.5203   2
   7  -1   5 662.682 27.6552   1
  -8   1  -5 79.4515 11.1889   3
  -8   1  -5 69.5021 8.65653   4
   8  -1   5 64.7846 12.1295   1
  -9   1  -5 25.0324 9.14142   3
   9  -1   5 12.2239 9.54054   1
 -10   1  -5 57.3427 11.6276   3
  10  -1   5 31.0238 12.1261   1
 -11   1  -5 32.2649 11.1510   3
  11  -1   5 33.8279 13.4149   1
  10   0  -5 -4.5324 8.82871   1
  10   0  -5 5.19984 5.89247   4
 -10   0   5 2.89047 7.83850   3
   9   0  -5 29.6427 10.1450   1
   9   0  -5 21.0242 6.97084   4
  -9   0   5 0.46966 7.65472   3
   8   0  -5 -5.4735 6.63114   1
   8   0  -5 6.06721 5.13568   4
  -8   0   5 -2.6965 6.28143   3
   7   0  -5 192.570 15.8139   1
   7   0  -5 212.888 13.8734   4
  -7   0   5 186.748 14.3082   3
  -7   0   5 189.047 11.0667   2
   6   0  -5 189.815 12.8527   4
   6   0  -5 171.210 13.9341   1
  -6   0   5 167.959 13.0695   3
  -6   0   5 185.391 10.4502   2
   5   0  -5 19.8907 6.75999   1
   5   0  -5 11.6622 4.89738   4
  -5   0   5 10.0578 4.14902   2
  -5   0   5 7.61929 5.16129   3
   4   0  -5 24.5825 6.00516   1
   4   0  -5 17.8058 5.18784   4
  -4   0   5 17.7690 5.75317   3
  -4   0   5 13.2787 3.99933   2
   3   0  -5 63.4608 7.58524   1
   3   0  -5 54.2061 7.29718   4
  -3   0   5 74.6266 7.82735   3
  -3   0   5 70.3868 6.92947   2
   2   0  -5 417.947 16.3613   4
   2   0  -5 487.755 14.8467   1
  -2   0   5 459.665 16.1381   2
  -2   0   5 449.397 15.1771   3
   1   0  -5 2139.30 44.4804   1
   1   0  -5 2137.07 47.1034   4
  -1   0   5 2135.66 53.9789   2
  -1   0   5 2203.94 48.3623   3
   0   0  -5 300.160 8.50492   1
   0   0  -5 302.253 11.6100   4
   0   0   5 287.046 11.5942   2
   0   0   5 312.353 10.6326   3
  -1   0  -5 4.97745 2.99597   4
  -1   0  -5 6.01722 2.14419   3
   1   0   5 7.97811 3.30060   2
   1   0   5 4.75612 2.07973   1
  -2   0  -5 1670.82 35.7912   4
  -2   0  -5 1702.04 38.0701   3
   2   0   5 1660.87 36.8278   1
   2   0   5 1644.72 42.6787   2
  -3   0  -5 925.670 22.4593   4
  -3   0  -5 921.907 24.2584   3
   3   0   5 898.870 24.3245   1
   3   0   5 900.920 25.7293   2
  -4   0  -5 671.331 20.8764   3
  -4   0  -5 673.635 18.6371   4
   4   0   5 677.727 21.6232   1
   4   0   5 668.308 20.1041   2
  -5   0  -5 66.7981 6.92962   4
  -5   0  -5 86.4293 9.24096   3
   5   0   5 69.8627 5.59312   2
   5   0   5 65.4008 8.42070   1
  -6   0  -5 747.050 22.0040   4
  -6   0  -5 748.071 25.2216   3
   6   0   5 723.599 25.8715   1
   6   0   5 712.848 20.7912   2
  -7   0  -5 311.038 14.0619   4
  -7   0  -5 304.629 16.3235   3
   7   0   5 307.294 17.9102   1
   7   0   5 319.362 11.2601   2
  -8   0  -5 0.66958 5.95311   3
  -8   0  -5 14.0832 5.60092   4
   8   0   5 21.9675 8.43314   1
  -9   0  -5 -2.0712 4.13326   4
  -9   0  -5 2.03067 6.38501   3
   9   0   5 -4.4224 7.34615   1
 -10   0  -5 36.1928 9.45733   3
 -10   0  -5 20.4998 7.05922   4
  10   0   5 29.0900 10.7018   1
 -11   0  -5 -11.192 7.25472   3
  11   0   5 3.34826 9.96719   1
 -12   0  -5 22.8565 10.6797   3
  12   0   5 10.3896 11.6186   1
  10  -1  -5 144.086 18.5005   1
 -10   1   5 138.618 16.8973   3
   9  -1  -5 31.0873 7.77346   4
   9  -1  -5 3.58365 9.49224   1
  -9   1   5 19.7793 8.77281   3
   8  -1  -5 463.835 24.9504   1
   8  -1  -5 505.367 21.7174   4
  -8   1   5 463.206 23.3119   3
   7  -1  -5 12.1734 5.45720   4
   7  -1  -5 -1.9594 6.72757   1
  -7   1   5 2.72597 4.01131   2
  -7   1   5 -0.6843 5.71199   3
   6  -1  -5 10.8272 5.21085   4
   6  -1  -5 18.4990 7.97659   1
  -6   1   5 18.8509 5.12454   2
  -6   1   5 9.53854 6.29138   3
   5  -1  -5 69.0267 8.50169   4
   5  -1  -5 50.9664 9.37322   1
  -5   1   5 70.7481 9.29413   3
  -5   1   5 71.0202 7.60320   2
   4  -1  -5 338.009 16.9890   1
   4  -1  -5 357.680 15.1507   4
  -4   1   5 356.017 15.4893   3
  -4   1   5 361.323 14.7076   2
   3  -1  -5 730.170 22.3835   4
   3  -1  -5 757.140 23.8875   1
  -3   1   5 696.487 22.6021   2
  -3   1   5 705.037 22.0614   3
   2  -1  -5 3139.68 65.6422   4
   2  -1  -5 3051.37 67.7187   1
  -2   1   5 3166.68 77.0132   2
  -2   1   5 3191.38 69.1952   3
   1  -1  -5 381.821 13.4635   1
   1  -1  -5 373.251 13.8526   4
  -1   1   5 372.444 11.8106   3
  -1   1   5 376.717 14.0119   2
   0  -1  -5 2244.74 47.4128   4
   0  -1  -5 2296.42 47.6814   1
   0   1   5 2272.96 48.2161   3
   0   1   5 2225.88 56.1382   2
  -1  -1  -5 296.358 7.94361   3
  -1  -1  -5 280.895 10.8079   4
  -1  -1  -5 294.941 9.54052   1
   1   1   5 271.044 10.9987   2
  -2  -1  -5 67.1694 6.12006   4
  -2  -1  -5 50.8630 3.94418   3
   2   1   5 55.2485 5.10264   1
   2   1   5 63.7773 5.59296   2
  -3  -1  -5 29.7010 4.52950   4
  -3  -1  -5 28.1199 4.17379   3
   3   1   5 29.9405 4.86533   1
   3   1   5 39.2863 4.67785   2
  -4  -1  -5 19.5321 4.35721   4
  -4  -1  -5 9.41204 4.05633   3
   4   1   5 13.4534 3.44849   2
   4   1   5 15.3755 4.79639   1
  -5  -1  -5 962.612 25.5066   4
  -5  -1  -5 996.774 27.4928   3
   5   1   5 954.897 25.2167   2
   5   1   5 940.377 27.9520   1
  -6  -1  -5 1216.85 34.5839   3
  -6  -1  -5 1265.89 32.3824   4
   6   1   5 1326.59 31.8458   2
   6   1   5 1289.10 36.3339   1
  -7  -1  -5 55.5694 8.63973   3
  -7  -1  -5 48.3359 7.20019   4
   7   1   5 55.6269 3.71221   2
   7   1   5 36.7460 8.02988   1
  -8  -1  -5 385.686 18.5022   3
  -8  -1  -5 362.519 16.8985   4
   8   1   5 397.875 20.4314   1
  -9  -1  -5 1.93309 6.55563   3
  -9  -1  -5 1.60574 4.74262   4
   9   1   5 7.10071 7.70763   1
 -10  -1  -5 1119.79 35.2228   4
 -10  -1  -5 1074.48 38.1371   3
  10   1   5 1148.53 39.6665   1
 -11  -1  -5 -3.4352 7.01841   3
  11   1   5 -7.4911 8.01553   1
 -12  -1  -5 56.5658 12.9089   3
  12   1   5 61.1541 14.7598   1
  10  -2  -5 7.24019 10.9270   1
 -10   2   5 10.5466 8.72892   3
   9  -2  -5 24.7375 11.3612   1
  -9   2   5 25.7029 9.94047   3
   8  -2  -5 102.634 11.7328   4
   8  -2  -5 141.431 17.5516   1
  -8   2   5 87.4494 12.9360   3
   7  -2  -5 32.2716 10.0785   1
   7  -2  -5 24.5074 6.56457   4
  -7   2   5 22.0013 5.56268   2
  -7   2   5 30.0226 8.69170   3
   6  -2  -5 99.3184 10.5071   4
   6  -2  -5 91.8597 13.4228   1
  -6   2   5 96.2705 8.67934   2
  -6   2   5 124.285 13.1301   3
   5  -2  -5 1511.01 38.7775   4
   5  -2  -5 1502.44 44.0034   1
  -5   2   5 1495.46 42.2292   3
  -5   2   5 1532.65 42.8432   2
   4  -2  -5 48.6244 9.08535   1
   4  -2  -5 62.7439 7.76097   4
  -4   2   5 75.2112 7.75506   2
  -4   2   5 79.0087 8.87571   3
   3  -2  -5 321.810 13.6401   4
   3  -2  -5 328.386 16.7065   1
  -3   2   5 340.909 14.2725   2
  -3   2   5 346.139 14.2229   3
   2  -2  -5 1409.58 37.8256   1
   2  -2  -5 1424.41 34.3049   4
  -2   2   5 1488.89 35.5245   3
  -2   2   5 1455.96 39.6216   2
   1  -2  -5 26.9411 6.01302   1
   1  -2  -5 35.8699 5.40183   4
  -1   2   5 41.8769 5.60539   2
  -1   2   5 37.8787 4.56343   3
   0  -2  -5 751.326 21.4033   1
   0  -2  -5 780.348 20.3720   4
   0   2   5 767.178 18.0065   3
   0   2   5 783.255 23.2540   2
  -1  -2  -5 9.41444 3.56311   1
  -1  -2  -5 6.35502 3.41912   4
   1   2   5 4.20981 2.91635   2
  -2  -2  -5 384.878 12.9370   1
  -2  -2  -5 410.893 13.2704   4
  -2  -2  -5 404.520 9.85353   3
   2   2   5 393.389 13.6026   2
  -3  -2  -5 551.205 16.7584   4
  -3  -2  -5 574.532 15.2222   3
   3   2   5 579.387 17.0013   1
   3   2   5 562.656 16.8630   2
  -4  -2  -5 54.3443 6.59014   4
  -4  -2  -5 53.0696 5.84318   3
   4   2   5 55.4921 6.46031   1
   4   2   5 58.8059 5.02290   2
  -5  -2  -5 1055.48 28.5956   3
  -5  -2  -5 1054.29 27.7962   4
   5   2   5 1076.37 26.9383   2
   5   2   5 1031.87 29.1152   1
  -6  -2  -5 20.1950 5.35954   3
  -6  -2  -5 10.4773 4.45594   4
   6   2   5 30.2825 6.64845   1
  -7  -2  -5 94.9660 9.99198   4
  -7  -2  -5 85.5511 9.74135   3
   7   2   5 75.0976 10.2629   1
  -8  -2  -5 35.3595 7.74293   3
  -8  -2  -5 33.9408 7.26035   4
   8   2   5 43.3624 8.91579   1
  -9  -2  -5 0.24872 5.63926   3
  -9  -2  -5 5.07473 5.41537   4
   9   2   5 10.8339 7.37283   1
 -10  -2  -5 119.105 13.0251   4
 -10  -2  -5 131.113 14.4178   3
  10   2   5 111.342 14.6404   1
 -11  -2  -5 1.32588 7.30877   3
 -11  -2  -5 -7.3995 5.33374   4
  11   2   5 10.8115 8.76971   1
 -12  -2  -5 2.81398 7.58886   3
  12   2   5 10.4400 5.37065   4
  12   2   5 -3.8454 8.40356   1
   9  -3  -5 119.912 18.3163   1
  -9   3   5 123.119 15.9562   3
   8  -3  -5 4.67472 9.92992   1
  -8   3   5 22.5718 8.86300   3
   7  -3  -5 124.681 10.9742   4
   7  -3  -5 110.382 15.5653   1
  -7   3   5 131.772 10.9556   2
  -7   3   5 110.409 13.1513   3
   6  -3  -5 74.1579 12.7845   1
   6  -3  -5 89.3571 9.66566   4
  -6   3   5 85.5787 9.17516   2
  -6   3   5 65.1805 10.3327   3
   5  -3  -5 629.146 27.3257   1
   5  -3  -5 616.291 20.7708   4
  -5   3   5 630.616 22.9854   2
  -5   3   5 615.297 24.1265   3
   4  -3  -5 3.71530 6.98591   1
   4  -3  -5 -0.4742 3.62085   4
  -4   3   5 9.74232 4.23016   2
  -4   3   5 9.02579 5.61370   3
   3  -3  -5 3.89034 6.37838   1
   3  -3  -5 5.34411 3.61763   4
  -3   3   5 8.71877 3.81258   2
  -3   3   5 6.92802 4.46145   3
   2  -3  -5 383.247 13.7986   4
   2  -3  -5 390.027 18.9616   1
  -2   3   5 388.668 15.6630   2
  -2   3   5 393.334 14.2568   3
   1  -3  -5 99.1552 10.5648   1
   1  -3  -5 83.4945 6.66773   4
  -1   3   5 87.8127 6.30639   3
  -1   3   5 72.2602 7.47557   2
   0  -3  -5 1243.36 33.4109   1
   0  -3  -5 1281.87 29.4457   4
   0   3   5 1303.98 28.4904   3
   0   3   5 1222.92 35.0262   2
  -1  -3  -5 22.9925 5.56017   1
  -1  -3  -5 22.6719 4.42238   4
   1   3   5 8.68929 3.56424   2
  -2  -3  -5 3640.27 71.5591   4
   2   3   5 3548.73 86.2519   2
  -3  -3  -5 3862.83 77.2315   4
  -3  -3  -5 3749.23 80.2364   1
  -3  -3  -5 3965.82 80.3496   3
   3   3   5 3894.70 91.7711   2
  -4  -3  -5 233.807 9.28768   3
  -4  -3  -5 229.190 10.9196   4
   4   3   5 220.315 9.12565   2
   4   3   5 253.073 11.3042   1
  -5  -3  -5 258.837 12.5945   4
  -5  -3  -5 269.945 11.2179   3
   5   3   5 248.883 12.1403   1
   5   3   5 270.475 9.39475   2
  -6  -3  -5 1039.21 29.1796   4
  -6  -3  -5 1076.01 29.7647   3
   6   3   5 1019.49 30.1736   1
  -7  -3  -5 802.566 26.1870   4
  -7  -3  -5 846.051 26.6081   3
   7   3   5 804.151 26.7800   1
  -8  -3  -5 103.952 11.2401   4
  -8  -3  -5 119.444 11.9781   3
   8   3   5 104.116 11.3611   1
  -9  -3  -5 526.954 22.1211   4
  -9  -3  -5 507.361 21.7960   3
   9   3   5 471.959 22.2858   1
 -10  -3  -5 201.095 15.0641   3
 -10  -3  -5 210.643 15.3227   4
  10   3   5 183.764 15.7641   1
 -11  -3  -5 56.0181 10.8142   4
 -11  -3  -5 46.5877 9.74261   3
  11   3   5 73.6989 12.8996   1
 -12  -3  -5 208.391 17.5896   4
 -12  -3  -5 202.351 17.6417   3
  12   3   5 224.479 19.5366   1
  -9   4   5 39.4524 11.1306   3
   8  -4  -5 171.053 20.2097   1
  -8   4   5 183.860 18.0522   3
   7  -4  -5 4.57549 8.86383   1
  -7   4   5 13.4243 5.03455   2
  -7   4   5 -8.1446 6.23918   3
   6  -4  -5 13.0937 9.59109   1
  -6   4   5 18.4699 5.72118   2
  -6   4   5 27.5116 8.30288   3
   5  -4  -5 581.704 27.1279   1
   5  -4  -5 586.760 19.2494   4
  -5   4   5 596.970 22.9710   2
  -5   4   5 578.874 23.3291   3
   4  -4  -5 209.421 10.9083   4
   4  -4  -5 195.733 17.8203   1
  -4   4   5 191.018 12.3683   2
  -4   4   5 196.018 13.1134   3
   3  -4  -5 30.8459 9.21425   1
   3  -4  -5 43.0240 5.85461   4
  -3   4   5 27.9230 6.24546   3
  -3   4   5 22.3508 5.43354   2
   2  -4  -5 711.647 19.3655   4
   2  -4  -5 694.639 27.1121   1
  -2   4   5 686.553 24.1585   2
  -2   4   5 695.385 21.3170   3
   1  -4  -5 96.0259 11.0018   1
   1  -4  -5 87.4046 6.70212   4
  -1   4   5 96.9689 7.31658   3
  -1   4   5 79.2082 8.09906   2
   0  -4  -5 53.4612 5.70678   4
   0  -4  -5 60.9396 8.77500   1
   0   4   5 66.4614 5.35689   3
   0   4   5 62.0055 7.01150   2
  -1  -4  -5 328.909 15.4833   1
  -1  -4  -5 336.898 11.8482   4
   1   4   5 312.687 13.4231   2
   1   4   5 326.276 9.11439   3
  -2  -4  -5 139.517 9.37217   1
  -2  -4  -5 121.010 7.69199   4
   2   4   5 120.688 8.03005   2
   2   4   5 140.403 4.56373   3
  -3  -4  -5 220.907 7.64540   3
  -3  -4  -5 212.601 11.2710   1
  -3  -4  -5 211.043 10.3958   4
   3   4   5 204.820 9.82983   2
  -4  -4  -5 2.85729 2.82877   3
  -4  -4  -5 1.35485 3.85619   4
   4   4   5 3.48038 3.34889   1
   4   4   5 1.50908 2.55393   2
  -5  -4  -5 117.190 7.55969   3
  -5  -4  -5 96.8818 8.58802   4
   5   4   5 105.060 6.03704   2
   5   4   5 103.824 8.35893   1
  -6  -4  -5 54.5952 6.82527   3
  -6  -4  -5 49.4291 7.28018   4
   6   4   5 48.5163 7.10967   1
   6   4   5 46.2757 4.13832   2
  -7  -4  -5 16.1127 5.56026   3
  -7  -4  -5 13.7077 5.59670   4
   7   4   5 15.3469 5.53497   1
  -8  -4  -5 74.9974 10.3815   4
  -8  -4  -5 70.3466 9.19336   3
   8   4   5 107.679 12.3451   1
  -9  -4  -5 112.862 12.4014   3
  -9  -4  -5 100.669 11.9322   4
   9   4   5 113.299 12.9320   1
 -10  -4  -5 336.519 19.1699   4
 -10  -4  -5 344.566 18.5019   3
  10   4   5 305.269 18.5572   1
 -11  -4  -5 19.1694 8.16164   4
 -11  -4  -5 31.0507 8.60770   3
  11   4   5 18.6999 8.49070   1
 -12  -4  -5 125.815 15.1751   4
 -12  -4  -5 133.638 15.0135   3
  12   4   5 143.550 16.6727   1
 -13  -4  -5 118.634 16.0911   3
  13   4   5 128.387 14.5831   4
  13   4   5 111.545 16.7939   1
   8  -5  -5 32.9634 12.5267   1
  -8   5   5 28.3530 10.5807   3
   7  -5  -5 96.5503 16.5432   1
  -7   5   5 91.2583 13.4195   3
  -7   5   5 76.4861 10.0727   2
   6  -5  -5 0.89319 9.39433   1
  -6   5   5 10.2541 5.32573   2
  -6   5   5 2.30712 6.72440   3
   5  -5  -5 848.715 34.5772   1
  -5   5   5 821.226 30.0599   2
  -5   5   5 832.950 29.1872   3
   4  -5  -5 33.7413 10.7738   1
   4  -5  -5 55.8728 6.40066   4
  -4   5   5 45.9236 7.88525   2
  -4   5   5 41.3544 8.17602   3
   3  -5  -5 993.054 25.0564   4
   3  -5  -5 983.297 36.4606   1
  -3   5   5 1046.09 30.7846   3
  -3   5   5 1066.92 34.1927   2
   2  -5  -5 91.8741 6.84303   4
   2  -5  -5 94.5485 13.0956   1
  -2   5   5 92.6867 9.65684   2
  -2   5   5 109.952 9.29615   3
   1  -5  -5 245.008 16.9393   1
   1  -5  -5 208.040 9.12578   4
  -1   5   5 228.356 12.5762   2
  -1   5   5 219.579 10.7414   3
   0  -5  -5 411.290 19.6305   1
   0  -5  -5 415.475 13.3459   4
   0   5   5 418.216 13.4255   3
   0   5   5 390.537 16.9538   2
  -1  -5  -5 161.255 11.8780   1
  -1  -5  -5 161.631 8.39388   4
   1   5   5 166.789 10.0364   2
   1   5   5 161.401 7.08985   3
  -2  -5  -5 1099.46 31.7801   1
  -2  -5  -5 1128.29 27.7384   4
   2   5   5 1101.49 32.7820   2
   2   5   5 1132.35 25.5302   3
  -3  -5  -5 50.1055 4.79348   3
  -3  -5  -5 40.7666 6.79839   1
  -3  -5  -5 38.7866 5.80151   4
   3   5   5 32.6949 5.01936   2
  -4  -5  -5 562.004 16.3617   3
  -4  -5  -5 558.811 18.2598   4
  -4  -5  -5 543.562 19.4312   1
   4   5   5 529.926 18.2225   2
  -5  -5  -5 1008.43 28.7039   4
  -5  -5  -5 1005.42 26.7837   3
   5   5   5 1031.33 28.3736   2
   5   5   5 1008.23 28.7845   1
  -6  -5  -5 1336.62 34.7566   3
  -6  -5  -5 1273.61 35.5074   4
   6   5   5 1390.68 34.6065   2
   6   5   5 1314.36 35.8863   1
  -7  -5  -5 1470.34 40.1542   4
  -7  -5  -5 1485.31 39.1381   3
   7   5   5 1424.61 39.3598   1
   7   5   5 1501.91 36.0679   2
  -8  -5  -5 102.853 10.6042   3
  -8  -5  -5 63.4562 9.92679   4
   8   5   5 88.9188 10.8823   1
  -9  -5  -5 35.2842 8.20286   4
  -9  -5  -5 29.8604 7.66302   3
   9   5   5 39.5690 8.48052   1
 -10  -5  -5 2.40164 5.76923   4
 -10  -5  -5 10.3761 6.33861   3
  10   5   5 7.97418 6.34642   1
 -11  -5  -5 226.951 17.6061   4
 -11  -5  -5 223.064 16.7452   3
  11   5   5 213.599 16.4771   1
 -12  -5  -5 32.7243 9.64580   4
 -12  -5  -5 14.7980 8.53598   3
  12   5   5 26.7159 9.51684   1
 -13  -5  -5 63.1615 12.6185   3
 -13  -5  -5 79.7461 13.6879   4
  13   5   5 62.7384 12.9046   1
   7  -6  -5 0.03658 10.9426   1
  -7   6   5 0.99342 8.27433   3
  -7   6   5 9.53660 5.62647   2
   6  -6  -5 15.1886 11.3262   1
  -6   6   5 3.48545 4.71077   2
  -6   6   5 -16.673 5.48748   3
   5  -6  -5 90.0913 15.8152   1
  -5   6   5 86.7644 11.6680   3
  -5   6   5 106.613 11.9317   2
   4  -6  -5 8.64991 9.47334   1
  -4   6   5 -2.9111 4.11914   2
  -4   6   5 2.62237 6.04264   3
   3  -6  -5 -0.5693 8.13703   1
  -3   6   5 2.07317 4.32788   2
  -3   6   5 0.45336 5.78824   3
   2  -6  -5 205.206 8.98139   4
   2  -6  -5 208.455 17.8072   1
  -2   6   5 202.212 12.4619   3
  -2   6   5 206.673 13.1911   2
   1  -6  -5 343.739 20.6728   1
   1  -6  -5 352.007 11.8253   4
  -1   6   5 356.249 14.6210   3
  -1   6   5 321.476 16.1647   2
   0  -6  -5 5.18711 6.80420   1
   0  -6  -5 1.02478 2.85963   4
   0   6   5 1.51417 3.81562   2
   0   6   5 1.60484 3.45925   3
  -1  -6  -5 1.39288 5.18020   1
  -1  -6  -5 1.22453 3.04615   4
   1   6   5 1.57890 3.36902   2
   1   6   5 0.81423 2.72967   3
  -2  -6  -5 340.958 16.6806   1
  -2  -6  -5 359.241 13.3131   4
   2   6   5 345.201 11.1997   3
   2   6   5 351.090 15.8386   2
  -3  -6  -5 79.5042 7.78682   4
  -3  -6  -5 95.9627 10.4498   1
   3   6   5 67.4304 7.64521   2
   3   6   5 87.1305 5.16463   3
  -4  -6  -5 39.6226 7.00146   1
  -4  -6  -5 41.3813 6.51774   4
  -4  -6  -5 39.4627 5.31027   3
   4   6   5 24.8546 4.74789   2
  -5  -6  -5 351.456 15.9840   1
  -5  -6  -5 365.337 15.8601   4
  -5  -6  -5 346.668 13.6038   3
   5   6   5 319.551 13.4834   2
  -6  -6  -5 922.253 28.5413   4
  -6  -6  -5 992.763 27.6358   3
   6   6   5 928.803 27.2547   2
   6   6   5 941.642 28.7199   1
  -7  -6  -5 3.49999 5.48448   4
  -7  -6  -5 9.78830 5.21100   3
   7   6   5 8.24542 4.68061   1
   7   6   5 7.82321 2.78262   2
  -8  -6  -5 436.798 18.2102   3
  -8  -6  -5 406.079 20.4032   4
   8   6   5 374.861 18.4884   1
  -9  -6  -5 516.875 21.6042   3
  -9  -6  -5 537.918 23.7724   4
   9   6   5 511.629 22.0470   1
 -10  -6  -5 7.03537 6.02318   3
 -10  -6  -5 4.57711 6.09862   4
  10   6   5 1.64033 5.40836   1
 -11  -6  -5 8.67330 6.77846   3
 -11  -6  -5 13.3973 6.88949   4
  11   6   5 0.80947 6.00196   1
 -12  -6  -5 -2.5978 6.09015   3
 -12  -6  -5 9.21230 7.81520   4
  12   6   5 5.40866 7.02888   1
 -13  -6  -5 5.83933 8.27872   4
 -13  -6  -5 6.35436 8.02509   3
  13   6   5 7.54220 8.40321   1
   6  -7  -5 198.421 21.9635   1
  -6   7   5 161.008 14.0012   2
  -6   7   5 179.895 17.3818   3
   5  -7  -5 8.28598 11.1524   1
  -5   7   5 5.58963 7.07588   3
  -5   7   5 7.03023 6.06288   2
   4  -7  -5 8.87767 9.67485   1
  -4   7   5 12.4020 5.72589   2
  -4   7   5 0.40667 6.15948   3
   3  -7  -5 63.7150 13.5248   1
  -3   7   5 53.4808 9.57881   3
  -3   7   5 56.0441 9.06181   2
   2  -7  -5 258.797 21.6966   1
  -2   7   5 293.412 15.3435   3
  -2   7   5 305.579 17.0309   2
   1  -7  -5 1081.91 25.4082   4
   1  -7  -5 1020.09 38.8396   1
  -1   7   5 1088.01 36.7937   2
  -1   7   5 1124.92 31.3625   3
   0  -7  -5 560.099 26.2280   1
   0  -7  -5 572.392 16.3639   4
   0   7   5 525.392 23.0114   2
   0   7   5 565.506 18.8043   3
  -1  -7  -5 8.45270 3.63757   4
  -1  -7  -5 -2.5697 6.53715   1
   1   7   5 6.16875 3.68996   3
   1   7   5 14.6779 5.03979   2
  -2  -7  -5 79.5560 7.36536   4
  -2  -7  -5 68.4896 10.2114   1
   2   7   5 68.8067 5.78506   3
   2   7   5 74.4724 9.01952   2
  -3  -7  -5 23.0468 7.05850   1
  -3  -7  -5 28.3978 5.42368   4
   3   7   5 33.9213 4.39785   3
   3   7   5 31.3358 6.13883   2
  -4  -7  -5 1359.53 35.1321   4
  -4  -7  -5 1401.37 34.8071   3
  -4  -7  -5 1327.15 38.3981   1
   4   7   5 1384.54 40.3380   2
  -5  -7  -5 4.61423 4.71348   3
  -5  -7  -5 10.7413 6.56132   1
  -5  -7  -5 7.26642 5.21956   4
   5   7   5 11.0623 4.13557   2
  -6  -7  -5 161.378 10.5467   3
  -6  -7  -5 156.426 12.5017   4
   6   7   5 150.829 10.7791   1
   6   7   5 152.857 9.25356   2
  -7  -7  -5 18.5789 6.77239   4
  -7  -7  -5 0.59115 5.04223   3
   7   7   5 5.15591 4.82882   1
   7   7   5 13.6153 3.72250   2
  -8  -7  -5 871.164 28.3466   3
  -8  -7  -5 831.190 30.4019   4
   8   7   5 883.771 29.6042   1
  -9  -7  -5 170.718 15.1456   4
  -9  -7  -5 177.193 13.0340   3
   9   7   5 174.726 13.1794   1
 -10  -7  -5 324.728 20.0173   4
 -10  -7  -5 351.452 18.7795   3
  10   7   5 366.438 19.1928   1
 -11  -7  -5 12.7180 7.70823   4
 -11  -7  -5 4.47287 6.84795   3
  11   7   5 7.87593 6.46755   1
 -12  -7  -5 250.551 20.4509   4
 -12  -7  -5 258.525 18.8834   3
  12   7   5 265.282 18.9522   1
 -13  -7  -5 -2.8948 7.28671   3
 -13  -7  -5 1.87347 8.20426   4
  13   7   5 9.15092 7.99800   1
   5  -8  -5 82.4797 16.2218   1
  -5   8   5 60.1986 10.3163   2
  -5   8   5 43.6114 10.5565   3
   4  -8  -5 61.3613 14.4543   1
  -4   8   5 61.5257 10.5119   2
  -4   8   5 60.0840 10.3837   3
   3  -8  -5 116.338 17.1464   1
  -3   8   5 165.006 14.1402   2
  -3   8   5 152.469 14.2507   3
   2  -8  -5 43.3602 11.4605   1
  -2   8   5 19.1848 6.91891   2
  -2   8   5 13.8049 6.82696   3
   1  -8  -5 56.0523 12.6022   1
  -1   8   5 78.2898 11.1499   2
  -1   8   5 62.3170 8.36678   3
   0  -8  -5 117.931 15.5520   1
   0   8   5 110.056 9.34999   3
   0   8   5 117.893 12.9418   2
  -1  -8  -5 141.105 8.77856   4
  -1  -8  -5 158.127 16.8271   1
   1   8   5 131.067 8.91056   3
   1   8   5 132.742 11.6910   2
  -2  -8  -5 181.064 10.1032   4
  -2  -8  -5 157.231 15.9226   1
   2   8   5 171.381 13.0995   2
   2   8   5 175.175 9.13952   3
  -3  -8  -5 277.365 17.2675   1
  -3  -8  -5 309.962 14.0069   4
   3   8   5 292.942 11.5561   3
   3   8   5 279.246 15.7418   2
  -4  -8  -5 20.4205 7.04973   1
  -4  -8  -5 7.58829 4.75764   4
   4   8   5 2.42288 3.86413   2
   4   8   5 11.3613 3.38800   3
  -5  -8  -5 58.7387 10.0574   1
  -5  -8  -5 43.4017 8.10131   4
  -5  -8  -5 57.1372 7.74616   3
   5   8   5 44.0722 7.07421   2
  -6  -8  -5 336.411 16.0528   3
  -6  -8  -5 330.026 18.2493   1
  -6  -8  -5 343.910 17.3393   4
   6   8   5 348.239 15.4102   2
  -7  -8  -5 585.785 21.5994   3
  -7  -8  -5 542.994 23.6094   4
   7   8   5 553.903 20.1295   2
   7   8   5 587.078 22.6739   1
  -8  -8  -5 39.0522 8.81436   4
  -8  -8  -5 53.5500 8.59966   3
   8   8   5 47.9443 8.36623   1
  -9  -8  -5 1.24083 6.31036   4
  -9  -8  -5 9.24932 6.21782   3
   9   8   5 2.94127 4.76082   1
 -10  -8  -5 340.797 21.3003   4
 -10  -8  -5 336.116 19.0518   3
  10   8   5 385.566 20.1568   1
 -11  -8  -5 4.69759 6.70442   3
 -11  -8  -5 16.1713 8.81319   4
  11   8   5 5.21588 6.01141   1
 -12  -8  -5 3.49030 6.79686   3
 -12  -8  -5 1.77761 7.58423   4
  12   8   5 1.76001 6.52432   1
   4  -9  -5 137.545 20.5167   1
  -4   9   5 142.474 14.7329   3
  -4   9   5 129.782 14.9988   2
   3  -9  -5 237.310 23.7478   1
  -3   9   5 241.195 17.5683   2
  -3   9   5 264.481 17.4506   3
   2  -9  -5 -0.0406 8.87172   1
  -2   9   5 4.75306 5.28889   2
  -2   9   5 4.09486 6.46542   3
   1  -9  -5 12.5500 9.85930   1
  -1   9   5 8.02605 5.99566   3
  -1   9   5 13.2289 6.32565   2
   0  -9  -5 2.73174 8.13730   1
   0   9   5 8.39017 4.93682   3
   0   9   5 -0.5731 5.06583   2
  -1  -9  -5 299.234 21.4110   1
   1   9   5 377.241 19.9110   2
   1   9   5 358.561 15.1335   3
  -2  -9  -5 477.608 24.5647   1
  -2  -9  -5 535.605 17.7616   4
   2   9   5 546.736 18.3202   3
   2   9   5 541.897 24.3884   2
  -3  -9  -5 344.327 19.8957   1
  -3  -9  -5 330.490 15.1026   4
   3   9   5 374.574 19.4222   2
   3   9   5 366.501 13.9821   3
  -4  -9  -5 131.204 10.6418   4
  -4  -9  -5 138.104 14.1510   1
   4   9   5 101.316 7.76224   3
   4   9   5 136.288 11.4253   2
  -5  -9  -5 412.444 18.4639   4
  -5  -9  -5 398.119 19.8891   1
   5   9   5 382.605 18.8547   2
   5   9   5 428.318 15.3617   3
  -6  -9  -5 16.3844 6.74453   4
  -6  -9  -5 12.5936 5.94886   3
  -6  -9  -5 13.9776 7.16723   1
   6   9   5 8.93446 4.70407   2
  -7  -9  -5 525.436 22.8296   4
  -7  -9  -5 536.062 21.2312   3
   7   9   5 531.787 20.8676   2
   7   9   5 518.768 22.0835   1
  -8  -9  -5 37.5822 7.79545   3
  -8  -9  -5 15.7442 7.63671   4
   8   9   5 30.5667 7.22926   1
  -9  -9  -5 589.593 26.5398   4
  -9  -9  -5 551.633 23.2992   3
   9   9   5 556.975 24.0247   1
 -10  -9  -5 42.4548 10.3182   4
 -10  -9  -5 40.0980 9.20750   3
  10   9   5 47.3216 9.27843   1
 -11  -9  -5 209.438 18.4470   4
 -11  -9  -5 202.743 16.0442   3
  11   9   5 221.134 16.4322   1
 -12  -9  -5 50.2014 12.7753   4
 -12  -9  -5 48.4365 11.1432   3
  12   9   5 61.5073 10.7702   1
   3 -10  -5 11.2134 12.8808   1
  -3  10   5 16.6914 7.33524   2
   2 -10  -5 14.7489 11.5377   1
  -2  10   5 12.7148 6.62374   2
   1 -10  -5 182.066 20.2965   1
  -1  10   5 172.639 15.0028   2
   0 -10  -5 17.7527 10.5642   1
   0  10   5 20.7814 7.49756   2
  -1 -10  -5 9.21374 9.16601   1
   1  10   5 7.25346 5.52978   2
   1  10   5 8.12299 6.10009   3
  -2 -10  -5 39.6665 10.8771   1
   2  10   5 40.8322 6.47355   3
   2  10   5 30.1242 7.77978   2
  -3 -10  -5 163.125 11.4048   4
  -3 -10  -5 176.072 16.9355   1
   3  10   5 159.864 13.6048   2
   3  10   5 174.656 10.2204   3
  -4 -10  -5 87.7762 9.93058   4
  -4 -10  -5 93.3688 12.8588   1
   4  10   5 97.5527 11.7966   2
   4  10   5 91.1453 8.66046   3
  -5 -10  -5 123.268 14.0295   1
  -5 -10  -5 129.550 12.3629   4
   5  10   5 140.909 9.14307   3
   5  10   5 120.633 12.5651   2
  -6 -10  -5 36.0674 8.13748   4
  -6 -10  -5 49.5309 9.96498   1
   6  10   5 40.2378 7.46325   2
   6  10   5 55.5383 6.85434   3
  -7 -10  -5 193.002 13.8865   3
  -7 -10  -5 168.922 14.4747   4
   7  10   5 200.945 14.1890   1
  -8 -10  -5 14.5746 6.99633   3
  -8 -10  -5 26.2820 8.56587   4
   8  10   5 13.4248 6.18695   1
  -9 -10  -5 6.93406 6.88295   3
  -9 -10  -5 23.0862 8.62692   4
   9  10   5 16.8154 6.74005   1
 -10 -10  -5 244.869 17.0886   3
 -10 -10  -5 209.368 20.0354   4
  10  10   5 215.885 15.8705   1
 -11 -10  -5 10.1578 7.76648   3
 -11 -10  -5 4.56587 8.57175   4
  11  10   5 7.47541 6.24272   1
 -12 -10  -5 10.8175 8.63951   3
 -12 -10  -5 10.0371 9.63326   4
  12  10   5 10.9597 7.00103   1
   2 -11  -5 -3.8532 9.37551   1
  -2  11   5 13.1216 7.31424   2
   1 -11  -5 254.493 24.0493   1
  -1  11   5 205.780 17.2640   2
   0 -11  -5 87.3866 16.2428   1
   0  11   5 91.9770 13.1776   2
  -1 -11  -5 60.9096 13.5807   1
   1  11   5 67.7014 11.4087   2
  -2 -11  -5 82.1216 14.1687   1
   2  11   5 85.8840 12.2406   2
  -3 -11  -5 35.2992 10.6910   1
   3  11   5 48.4527 9.50295   2
  -4 -11  -5 416.684 23.3344   1
   4  11   5 396.575 21.7465   2
  -5 -11  -5 4.59651 5.51884   4
  -5 -11  -5 2.87273 6.85147   1
   5  11   5 13.8396 6.18048   2
  -6 -11  -5 401.178 19.9806   4
  -6 -11  -5 369.963 21.2439   1
   6  11   5 370.540 19.7799   2
  -7 -11  -5 193.561 16.6243   1
  -7 -11  -5 205.348 15.8191   4
   7  11   5 181.215 13.7213   2
  -8 -11  -5 181.920 17.0992   4
   8  11   5 170.544 13.8749   1
  -9 -11  -5 304.290 26.0041   3
  -9 -11  -5 274.363 19.9749   4
   9  11   5 283.865 17.8321   1
 -10 -11  -5 50.6366 11.8375   4
 -10 -11  -5 42.4345 16.0646   3
  10  11   5 53.7371 10.1816   1
 -11 -11  -5 49.5691 11.7645   4
  11  11   5 57.2826 10.3900   1
   0 -12  -5 98.1490 16.8205   1
   0  12   5 114.759 14.5639   2
  -1 -12  -5 10.9862 10.3466   1
   1  12   5 0.87259 5.54438   2
  -2 -12  -5 5.06485 9.79087   1
   2  12   5 0.58040 5.80681   2
  -3 -12  -5 271.117 21.6462   1
   3  12   5 190.740 16.3522   2
  -4 -12  -5 4.26908 8.44170   1
   4  12   5 1.92968 4.97063   2
  -5 -12  -5 16.0830 9.00521   1
   5  12   5 26.3446 7.63465   2
  -6 -12  -5 101.296 14.0180   1
  -6 -12  -5 120.319 13.3727   4
   6  12   5 93.1715 12.1124   2
  -7 -12  -5 58.8986 11.3136   1
  -7 -12  -5 42.7145 9.82908   4
   7  12   5 42.4353 8.49474   2
  -8 -12  -5 44.2800 10.1862   4
   8  12   5 39.5058 8.76327   1
  -9 -12  -5 3.33348 8.33026   4
   9  12   5 18.0283 7.05562   1
 -10 -12  -5 91.9038 14.6101   4
  10  12   5 95.1578 12.6252   1
  -2 -13  -5 33.0952 11.7801   1
   2  13   5 72.1058 12.1354   2
  -3 -13  -5 7.76976 9.52687   1
   3  13   5 21.2052 8.47077   2
  -4 -13  -5 38.3495 11.2071   1
   4  13   5 55.1830 10.8460   2
  -5 -13  -5 -3.1453 8.56350   1
   5  13   5 6.91765 6.07690   2
  -6 -13  -5 335.580 22.3264   1
   6  13   5 303.022 19.7263   2
  -7 -13  -5 20.6545 9.16957   1
   7  13   5 25.4077 7.29550   2
  -8 -13  -5 68.8650 12.9049   4
   8  13   5 72.6930 11.2805   1
   9  13   5 26.5878 8.21151   1
   6  12  -6 90.0819 12.9469   3
  -6 -12   6 88.9934 14.2711   2
   5  12  -6 117.090 13.8188   3
  -5 -12   6 130.199 16.8173   2
   4  12  -6 71.6749 11.4978   3
  -4 -12   6 107.939 16.1298   2
   3  12  -6 42.7600 9.49754   3
  -3 -12   6 31.3104 11.4359   2
   2  12  -6 104.781 13.3271   3
  -2 -12   6 103.115 16.2596   2
   1  12  -6 28.6531 9.11372   3
  -1 -12   6 40.3033 13.0411   2
   8  11  -6 38.6374 9.49474   4
  -8 -11   6 37.2987 12.1124   3
   7  11  -6 244.219 17.2957   4
  -7 -11   6 248.877 19.8651   2
  -7 -11   6 235.088 20.3696   3
   6  11  -6 110.606 12.5411   4
  -6 -11   6 132.903 15.8703   2
  -6 -11   6 71.9468 13.6327   3
   5  11  -6 51.5765 10.2815   3
  -5 -11   6 62.7313 12.8445   2
   4  11  -6 1.26931 5.55304   3
  -4 -11   6 18.6383 8.71797   2
   3  11  -6 53.5936 9.69575   3
  -3 -11   6 82.4435 13.9071   2
   2  11  -6 34.6317 9.10789   3
  -2 -11   6 35.6306 11.1353   2
   1  11  -6 97.1435 13.5297   3
  -1 -11   6 75.5808 14.3212   2
   0  11  -6 63.5599 11.7427   3
   0 -11   6 43.2138 12.2568   2
  -1  11  -6 45.8550 10.8747   3
   1 -11   6 34.0456 12.1649   2
   9  10  -6 60.3044 11.5054   4
  -9 -10   6 75.5906 14.1956   3
   8  10  -6 198.647 16.2958   4
  -8 -10   6 189.821 19.0942   3
   7  10  -6 203.510 15.8212   4
  -7 -10   6 190.888 17.5449   2
  -7 -10   6 195.553 20.1007   3
   6  10  -6 158.833 13.3497   4
  -6 -10   6 92.1818 14.2243   3
  -6 -10   6 132.171 15.2946   2
   5  10  -6 53.1559 9.21926   4
  -5 -10   6 24.4773 9.12888   2
  -5 -10   6 42.3498 11.3911   3
   4  10  -6 83.5419 11.3026   3
   4  10  -6 111.554 11.5378   4
  -4 -10   6 77.4174 12.7825   2
   3  10  -6 14.7338 6.40352   3
  -3 -10   6 10.6530 7.96476   2
   2  10  -6 144.769 14.9983   3
  -2 -10   6 96.2159 14.5098   2
   1  10  -6 48.6474 9.25313   3
  -1 -10   6 63.9176 12.7441   2
   0  10  -6 302.137 18.4170   3
   0 -10   6 311.850 18.1197   1
   0 -10   6 311.602 22.0281   2
  -1  10  -6 234.513 17.1179   3
   1 -10   6 249.477 18.2991   1
   1 -10   6 218.936 21.0598   2
  -2  10  -6 15.2921 7.71442   3
   2 -10   6 3.23732 7.74424   1
   2 -10   6 17.0466 9.17177   2
  -3  10  -6 70.2204 12.2468   3
   3 -10   6 69.7283 12.9235   1
   3 -10   6 74.6041 13.2950   2
  10   9  -6 371.148 22.8321   4
 -10  -9   6 307.988 23.6010   3
   9   9  -6 38.8216 9.93364   4
  -9  -9   6 21.1610 10.5830   3
   8   9  -6 14.6793 7.18235   4
  -8  -9   6 5.44323 9.05830   3
   7   9  -6 150.956 15.4835   4
  -7  -9   6 157.040 17.2559   3
  -7  -9   6 136.934 14.3277   2
   6   9  -6 15.6567 6.58211   4
  -6  -9   6 43.2431 9.48993   2
  -6  -9   6 44.5532 11.0853   3
   5   9  -6 58.7353 9.40824   4
  -5  -9   6 51.7786 10.2178   2
  -5  -9   6 52.1371 11.2289   3
   4   9  -6 15.9363 5.73313   3
   4   9  -6 13.7514 5.44170   4
  -4  -9   6 19.4355 7.95845   2
   3   9  -6 -1.7549 4.91204   3
   3   9  -6 1.83296 4.26931   4
  -3  -9   6 -7.9242 5.66558   2
   2   9  -6 10.6938 5.83071   3
  -2  -9   6 -3.4969 6.78281   2
   1   9  -6 26.9770 7.66876   3
  -1  -9   6 17.4478 8.37017   2
  -1  -9   6 15.2698 6.01733   1
   0   9  -6 193.576 14.1272   3
   0  -9   6 209.502 17.6296   2
   0  -9   6 192.804 14.6177   1
  -1   9  -6 18.1188 7.83325   3
   1  -9   6 4.14680 6.65335   1
   1  -9   6 26.6355 8.85613   2
  -2   9  -6 -5.4752 5.24800   3
   2  -9   6 8.14045 7.74326   2
   2  -9   6 3.09600 7.17816   1
  -3   9  -6 114.418 14.0041   3
   3  -9   6 113.459 14.9479   1
   3  -9   6 120.403 15.9515   2
  -4   9  -6 2.97378 7.44439   3
   4  -9   6 2.14509 8.58322   1
   4  -9   6 4.15529 7.07434   2
  -5   9  -6 13.8407 8.38492   3
   5  -9   6 -0.7086 9.18501   1
   5  -9   6 14.7296 9.18723   2
  10   8  -6 18.7922 8.46746   4
 -10  -8   6 30.1761 10.9359   3
   9   8  -6 111.089 14.4730   4
  -9  -8   6 114.215 15.3884   3
   8   8  -6 13.5668 6.87021   4
  -8  -8   6 -4.3659 7.63115   3
   7   8  -6 412.416 21.1477   4
  -7  -8   6 431.193 21.2481   2
  -7  -8   6 399.407 23.2625   3
   6   8  -6 9.17629 5.59116   4
  -6  -8   6 0.73379 6.44146   3
  -6  -8   6 6.93260 6.16962   2
   5   8  -6 703.425 26.5275   4
  -5  -8   6 765.614 30.0382   2
  -5  -8   6 769.943 30.5027   3
   4   8  -6 18.4947 5.84181   4
  -4  -8   6 13.5846 7.34559   2
  -4  -8   6 14.3316 7.85777   3
   3   8  -6 504.371 21.7744   3
   3   8  -6 484.123 19.4457   4
  -3  -8   6 517.625 24.8662   2
   2   8  -6 625.857 24.8599   3
   2   8  -6 604.015 21.1959   4
  -2  -8   6 646.142 20.1857   1
  -2  -8   6 640.216 28.8218   2
   1   8  -6 66.2561 10.1051   3
  -1  -8   6 63.4890 11.1119   2
  -1  -8   6 75.6112 9.17037   1
   0   8  -6 58.3246 9.52480   3
   0  -8   6 77.8297 9.86562   1
   0  -8   6 61.6652 11.3814   2
  -1   8  -6 126.508 13.2424   3
   1  -8   6 120.318 14.1776   2
   1  -8   6 130.288 13.1243   1
  -2   8  -6 96.8254 12.0276   3
   2  -8   6 82.0144 11.7725   1
   2  -8   6 101.294 14.0727   2
  -3   8  -6 426.601 21.9131   3
   3  -8   6 396.783 22.4585   1
   3  -8   6 414.844 23.4008   2
  -4   8  -6 110.831 14.0358   3
   4  -8   6 94.9183 14.0547   1
   4  -8   6 152.372 16.1924   2
  -5   8  -6 206.720 17.6577   3
   5  -8   6 242.129 18.2968   2
   5  -8   6 232.361 21.4815   1
  -6   8  -6 27.0569 10.0542   3
   6  -8   6 34.6636 9.71237   2
   6  -8   6 23.0878 11.2990   1
  11   7  -6 -2.5032 7.13287   4
 -11  -7   6 -3.7987 8.91866   3
  10   7  -6 9.06777 7.73077   4
 -10  -7   6 11.0889 9.34666   3
   9   7  -6 14.0473 7.44360   4
  -9  -7   6 26.0013 9.89535   3
   8   7  -6 57.6935 10.7264   4
  -8  -7   6 66.8986 12.6952   3
   7   7  -6 216.814 15.6617   4
  -7  -7   6 199.982 14.6527   2
  -7  -7   6 223.804 17.5639   3
   6   7  -6 85.6709 11.0238   4
  -6  -7   6 132.755 12.8178   2
  -6  -7   6 84.2963 12.5972   3
   5   7  -6 48.1178 8.98493   4
  -5  -7   6 50.8323 9.27256   2
  -5  -7   6 43.4309 9.17360   3
   4   7  -6 376.894 18.0015   4
  -4  -7   6 404.604 21.1942   3
  -4  -7   6 440.361 21.8713   2
   3   7  -6 41.4300 7.07264   4
  -3  -7   6 34.1743 9.01785   2
  -3  -7   6 15.0308 7.16196   3
  -3  -7   6 36.1893 4.72652   1
   2   7  -6 2.27601 4.18558   4
   2   7  -6 -1.5515 4.27751   3
  -2  -7   6 -1.7122 6.30166   2
  -2  -7   6 -1.7742 3.21027   1
   1   7  -6 -0.0835 4.37609   3
   1   7  -6 7.57616 4.34578   4
  -1  -7   6 11.4909 4.93328   1
  -1  -7   6 5.43018 6.55905   2
   0   7  -6 19.3895 4.86306   4
   0   7  -6 9.98057 5.91006   3
   0  -7   6 16.6312 7.71841   2
   0  -7   6 17.0359 6.03209   1
  -1   7  -6 61.2346 9.45304   3
   1  -7   6 60.7771 10.7936   2
   1  -7   6 60.7110 9.50032   1
  -2   7  -6 6.82848 6.09225   3
   2  -7   6 7.65996 6.23343   2
   2  -7   6 4.54841 6.47749   1
  -3   7  -6 36.4442 8.31712   3
   3  -7   6 28.5323 8.70098   1
   3  -7   6 37.7127 8.67560   2
  -4   7  -6 148.834 15.2971   3
   4  -7   6 137.100 15.8808   1
   4  -7   6 167.025 16.2119   2
  -5   7  -6 51.2667 10.6304   3
   5  -7   6 49.4672 11.8412   1
   5  -7   6 51.1815 9.95090   2
  -6   7  -6 15.0377 9.27184   3
   6  -7   6 24.4403 11.3567   1
   6  -7   6 21.0122 8.09681   2
  -7   7  -6 22.3145 10.6960   3
   7  -7   6 -4.6563 6.50322   2
   7  -7   6 15.2766 11.6839   1
  11   6  -6 27.1237 9.78549   4
 -11  -6   6 18.5881 10.0576   3
  10   6  -6 555.767 27.8137   4
 -10  -6   6 575.459 29.5449   3
   9   6  -6 -2.2363 5.23731   4
  -9  -6   6 6.09685 8.51455   3
   8   6  -6 527.211 24.9919   4
  -8  -6   6 493.618 25.6488   3
   7   6  -6 7.01715 5.92185   4
  -7  -6   6 -1.4343 4.58341   2
  -7  -6   6 11.0372 7.71578   3
   6   6  -6 4.49138 5.50368   4
  -6  -6   6 19.4404 7.93308   3
  -6  -6   6 3.52123 5.56174   2
   5   6  -6 117.490 12.4117   4
  -5  -6   6 125.184 12.4001   2
  -5  -6   6 138.540 15.0498   3
   4   6  -6 302.615 16.0150   4
  -4  -6   6 288.418 16.4248   2
  -4  -6   6 256.976 16.1436   3
   3   6  -6 747.999 25.2705   4
  -3  -6   6 755.716 28.7385   2
  -3  -6   6 747.378 28.3590   3
   2   6  -6 42.0293 6.81194   4
  -2  -6   6 42.9094 4.67900   1
  -2  -6   6 32.0380 7.75562   2
  -2  -6   6 32.4471 7.66104   3
   1   6  -6 44.0559 7.50343   3
   1   6  -6 38.2376 6.49777   4
  -1  -6   6 26.9232 7.88888   2
  -1  -6   6 40.1110 5.74878   1
   0   6  -6 1287.49 30.9605   4
   0   6  -6 1281.56 37.4970   3
   0  -6   6 1263.67 42.0360   2
   0  -6   6 1303.04 34.3910   1
  -1   6  -6 246.931 14.4198   3
  -1   6  -6 256.186 9.64542   4
   1  -6   6 237.144 13.9214   1
   1  -6   6 244.269 16.4507   2
  -2   6  -6 999.833 33.5146   3
   2  -6   6 1086.76 33.7787   1
   2  -6   6 1068.84 37.1249   2
  -3   6  -6 140.212 13.8024   3
   3  -6   6 172.166 14.2296   2
   3  -6   6 158.629 15.1760   1
  -4   6  -6 73.5145 10.9165   3
   4  -6   6 82.1060 11.1634   2
   4  -6   6 76.9532 12.2683   1
  -5   6  -6 14.0077 7.48387   3
   5  -6   6 8.91351 7.91563   1
   5  -6   6 4.25158 6.18739   2
  -6   6  -6 159.964 16.5191   3
   6  -6   6 187.052 19.3964   1
   6  -6   6 152.219 14.6132   2
  -7   6  -6 43.6818 11.8208   3
   7  -6   6 79.9544 15.2450   1
   7  -6   6 61.6332 10.0329   2
   8  -6   6 150.643 20.6982   1
  11   5  -6 4.74204 7.31789   4
 -11  -5   6 9.09535 9.23905   3
  10   5  -6 0.90018 6.85296   4
 -10  -5   6 4.35812 8.18989   3
   9   5  -6 92.6184 13.4793   4
  -9  -5   6 97.8652 14.5803   3
   8   5  -6 23.4729 7.89194   4
  -8  -5   6 29.9281 8.97231   3
   7   5  -6 4.33578 5.09394   4
  -7  -5   6 5.55438 6.73448   3
  -7  -5   6 1.33159 4.86194   2
   6   5  -6 238.795 15.5307   4
  -6  -5   6 249.076 16.5869   3
  -6  -5   6 271.337 15.0897   2
   5   5  -6 447.369 20.0114   4
  -5  -5   6 431.287 20.9531   3
  -5  -5   6 430.774 19.3322   2
   4   5  -6 -1.9630 4.12445   4
  -4  -5   6 -1.2245 5.31816   3
  -4  -5   6 1.41550 4.96788   2
   3   5  -6 189.942 12.7524   4
  -3  -5   6 200.718 13.7165   2
  -3  -5   6 191.896 13.1721   3
   2   5  -6 5.70157 4.27653   4
  -2  -5   6 -0.8462 5.41875   3
  -2  -5   6 6.34002 2.04177   1
  -2  -5   6 -2.8514 4.59048   2
   1   5  -6 43.5576 6.94420   3
   1   5  -6 50.2773 6.88469   4
  -1  -5   6 29.7267 7.15212   2
  -1  -5   6 50.0917 5.38457   1
   0   5  -6 1.52504 3.56883   4
   0   5  -6 8.08915 4.39158   3
   0  -5   6 0.43520 3.79196   1
   0  -5   6 6.43692 5.54232   2
  -1   5  -6 694.501 18.4311   4
  -1   5  -6 687.169 24.0609   3
   1  -5   6 678.865 26.8023   2
   1  -5   6 717.269 23.0799   1
  -2   5  -6 4.07830 4.82334   3
  -2   5  -6 -1.6173 2.31430   4
   2  -5   6 1.09750 4.98278   1
   2  -5   6 -0.1261 5.11557   2
  -3   5  -6 13.7368 6.23304   3
   3  -5   6 17.8962 6.99954   1
   3  -5   6 18.1468 6.93413   2
  -4   5  -6 212.562 14.4277   3
   4  -5   6 192.537 15.4227   1
   4  -5   6 204.504 13.9078   2
  -5   5  -6 326.113 18.7627   3
   5  -5   6 296.068 19.0808   1
   5  -5   6 282.252 16.4544   2
  -6   5  -6 149.154 15.4604   3
   6  -5   6 167.558 17.6205   1
   6  -5   6 136.747 12.3845   2
  -7   5  -6 4.63882 7.97686   3
   7  -5   6 14.7057 6.18748   2
   7  -5   6 5.73563 9.47722   1
  -8   5  -6 124.492 16.7163   3
   8  -5   6 121.523 17.9024   1
  -9   5  -6 78.5387 14.9760   3
   9  -5   6 48.0105 15.0860   1
  11   4  -6 72.9818 13.3574   4
 -11  -4   6 72.6198 13.6557   3
  10   4  -6 29.0734 9.16773   4
 -10  -4   6 38.0334 11.1674   3
   9   4  -6 3.41493 6.34950   4
  -9  -4   6 -5.5473 6.69459   3
   8   4  -6 219.242 16.4073   4
  -8  -4   6 208.227 15.9928   3
   7   4  -6 593.624 25.3114   4
   7   4  -6 633.651 21.6521   1
  -7  -4   6 580.517 21.9237   2
  -7  -4   6 543.291 24.4356   3
   6   4  -6 1337.73 31.9537   1
   6   4  -6 1278.22 38.7604   4
  -6  -4   6 1251.45 39.8758   3
  -6  -4   6 1288.90 38.2912   2
   5   4  -6 432.236 19.7405   4
   5   4  -6 425.373 13.1568   1
  -5  -4   6 422.855 19.3512   3
  -5  -4   6 432.289 18.2803   2
   4   4  -6 80.5556 9.73575   4
  -4  -4   6 76.7682 9.98108   3
  -4  -4   6 90.8906 9.62249   2
   3   4  -6 10.7407 5.24557   4
  -3  -4   6 12.5806 5.61412   2
  -3  -4   6 5.45471 5.08274   3
   2   4  -6 10.7705 4.66851   4
  -2  -4   6 5.65759 4.94977   2
  -2  -4   6 3.78530 5.06819   3
   1   4  -6 1010.60 27.9045   4
  -1  -4   6 1013.79 32.8647   2
  -1  -4   6 1009.36 22.6124   1
  -1  -4   6 993.597 31.1313   3
   0   4  -6 318.819 13.2442   4
   0   4  -6 311.636 14.1575   3
   0  -4   6 318.844 12.1374   1
   0  -4   6 335.763 16.7036   2
  -1   4  -6 429.132 17.1182   3
  -1   4  -6 443.668 14.0458   4
   1  -4   6 448.814 16.0863   1
   1  -4   6 429.218 19.4793   2
  -2   4  -6 84.0802 8.87291   3
  -2   4  -6 87.1920 5.93721   4
   2  -4   6 92.5044 9.82135   1
   2  -4   6 87.7570 10.5403   2
  -3   4  -6 923.536 30.4118   3
  -3   4  -6 1028.24 22.1497   4
   3  -4   6 1002.03 30.5993   1
   3  -4   6 1018.58 33.0701   2
  -4   4  -6 327.172 12.5420   4
  -4   4  -6 271.173 16.0988   3
   4  -4   6 257.035 14.9732   2
   4  -4   6 284.034 17.2862   1
  -5   4  -6 564.715 24.1038   3
   5  -4   6 560.711 22.8293   2
   5  -4   6 575.302 25.8941   1
  -6   4  -6 8.81735 7.00209   3
   6  -4   6 10.1975 5.06074   2
   6  -4   6 25.3581 9.29785   1
  -7   4  -6 152.424 15.9767   3
   7  -4   6 139.227 16.5613   1
   7  -4   6 163.468 12.0372   2
  -8   4  -6 3.04614 8.36789   3
   8  -4   6 6.86905 9.53387   1
  -9   4  -6 39.8397 12.0934   3
   9  -4   6 30.4263 12.6718   1
  11   3  -6 8.20719 7.39473   4
 -11  -3   6 -1.2042 8.14675   3
  10   3  -6 230.857 18.8146   4
 -10  -3   6 206.711 18.5645   3
   9   3  -6 146.596 16.4347   4
  -9  -3   6 101.019 14.4193   3
   8   3  -6 175.378 13.7013   1
   8   3  -6 150.385 15.2959   4
  -8  -3   6 169.880 16.8971   3
   7   3  -6 147.828 12.0706   1
   7   3  -6 108.663 13.0825   4
  -7  -3   6 132.402 14.7416   3
  -7  -3   6 128.460 10.2995   2
   6   3  -6 1.10559 4.58064   4
   6   3  -6 1.74094 4.58957   1
  -6  -3   6 4.89747 6.37875   3
  -6  -3   6 -0.9924 4.10704   2
   5   3  -6 -0.8275 4.27082   4
   5   3  -6 1.80077 3.80812   1
  -5  -3   6 -2.6270 4.04578   2
  -5  -3   6 -5.1310 4.48704   3
   4   3  -6 72.8219 9.55331   4
   4   3  -6 68.7056 5.65273   1
  -4  -3   6 66.6302 9.24532   3
  -4  -3   6 65.9119 7.98829   2
   3   3  -6 219.692 12.8505   4
  -3  -3   6 204.039 11.8737   2
  -3  -3   6 179.181 12.1100   3
   2   3  -6 2.62364 3.89933   4
  -2  -3   6 -0.8062 4.33836   3
  -2  -3   6 7.94906 4.87616   2
   1   3  -6 6.63754 4.42126   4
  -1  -3   6 5.87570 4.98192   2
  -1  -3   6 3.91377 5.25961   3
   0   3  -6 29.5086 4.91780   3
   0   3  -6 42.2978 6.23895   4
   0  -3   6 32.9152 6.63278   2
   0  -3   6 33.1113 4.69470   1
  -1   3  -6 230.449 11.3674   3
  -1   3  -6 237.940 10.3899   4
   1  -3   6 246.877 10.8353   1
   1  -3   6 240.535 13.5578   2
  -2   3  -6 1946.50 48.0289   3
  -2   3  -6 1948.70 40.3069   4
   2  -3   6 1935.25 53.0394   2
   2  -3   6 1873.43 45.0915   1
  -3   3  -6 624.687 16.2251   4
  -3   3  -6 638.561 22.1090   3
   3  -3   6 624.753 23.0318   2
   3  -3   6 623.863 21.6650   1
  -4   3  -6 2.24574 2.51173   4
  -4   3  -6 2.30555 4.33104   3
   4  -3   6 2.12578 4.30172   2
   4  -3   6 13.2878 6.55907   1
  -5   3  -6 1200.29 38.0266   3
  -5   3  -6 1324.54 29.1354   4
   5  -3   6 1306.93 38.5031   2
   5  -3   6 1256.82 38.3722   1
  -6   3  -6 126.222 13.7592   3
   6  -3   6 107.145 9.44716   2
   6  -3   6 124.081 14.4198   1
  -7   3  -6 78.9876 11.9909   3
   7  -3   6 86.8986 9.06059   2
   7  -3   6 81.5160 13.0485   1
  -8   3  -6 114.581 14.3962   3
   8  -3   6 133.004 17.3710   1
  -9   3  -6 -0.3407 7.66072   3
   9  -3   6 -11.216 9.14208   1
 -10   3  -6 -1.4585 8.18398   3
  10  -3   6 6.73047 11.3091   1
  11   2  -6 30.1369 9.35014   4
 -11  -2   6 18.6488 9.66264   3
  10   2  -6 14.5198 7.22348   4
 -10  -2   6 1.55390 7.27404   3
   9   2  -6 90.9210 13.2354   1
   9   2  -6 104.816 14.0662   4
  -9  -2   6 111.576 14.9278   3
   8   2  -6 98.3122 12.0196   1
   8   2  -6 80.6525 11.5447   4
  -8  -2   6 101.208 13.4789   3
   7   2  -6 77.5732 11.1597   4
   7   2  -6 69.6496 10.0553   1
  -7  -2   6 85.2045 11.4693   3
  -7  -2   6 68.8946 8.07693   2
   6   2  -6 -0.3877 4.94393   1
   6   2  -6 1.21646 5.08149   4
  -6  -2   6 11.0647 4.96956   2
  -6  -2   6 8.53675 6.36189   3
   5   2  -6 236.286 14.5150   4
   5   2  -6 265.941 12.5068   1
  -5  -2   6 260.242 14.8077   3
  -5  -2   6 257.762 12.9320   2
   4   2  -6 664.636 23.9184   4
   4   2  -6 635.932 18.2386   1
  -4  -2   6 654.408 22.4394   2
  -4  -2   6 651.256 22.9919   3
   3   2  -6 3524.68 76.3094   4
   3   2  -6 3575.01 69.5268   1
  -3  -2   6 3444.23 80.3366   3
  -3  -2   6 3505.33 86.8835   2
   2   2  -6 1091.84 30.3155   4
  -2  -2   6 1088.30 32.0086   2
  -2  -2   6 1053.82 30.2411   3
   1   2  -6 19.9705 5.30285   4
  -1  -2   6 22.0205 5.82821   2
  -1  -2   6 24.4471 5.67991   3
   0   2  -6 63.9190 7.40689   4
   0  -2   6 66.1408 4.46216   1
   0  -2   6 73.4186 7.89578   3
   0  -2   6 82.6558 8.56653   2
  -1   2  -6 46.7835 5.93293   4
  -1   2  -6 39.5842 5.51409   3
   1  -2   6 43.0271 6.76711   2
   1  -2   6 36.2577 4.65627   1
  -2   2  -6 1171.68 31.1408   3
  -2   2  -6 1168.73 27.0587   4
   2  -2   6 1141.51 29.1609   1
   2  -2   6 1156.51 34.4308   2
  -3   2  -6 8.97176 4.81693   3
  -3   2  -6 16.0787 3.44357   4
   3  -2   6 9.63069 4.79101   1
   3  -2   6 12.2384 4.82858   2
  -4   2  -6 687.380 23.6653   3
  -4   2  -6 687.810 18.0838   4
   4  -2   6 666.003 23.0629   2
   4  -2   6 691.003 23.2482   1
  -5   2  -6 1132.70 26.9877   4
  -5   2  -6 1130.49 34.1303   3
   5  -2   6 1144.79 34.6149   1
   5  -2   6 1109.01 33.4874   2
  -6   2  -6 253.804 15.8373   3
  -6   2  -6 229.799 10.5292   4
   6  -2   6 241.549 12.5061   2
   6  -2   6 228.235 16.4263   1
  -7   2  -6 422.003 15.5616   4
  -7   2  -6 401.631 20.4142   3
   7  -2   6 428.124 17.0431   2
   7  -2   6 443.880 22.4700   1
  -8   2  -6 46.4293 10.6097   3
   8  -2   6 77.8126 13.3610   1
  -9   2  -6 255.191 19.1012   3
   9  -2   6 291.549 22.3370   1
 -10   2  -6 35.7388 10.5964   3
  10  -2   6 24.7869 12.6911   1
 -11   2  -6 34.5971 11.8858   3
  11  -2   6 21.1148 13.0273   1
  10   1  -6 65.6455 11.2943   4
  10   1  -6 60.6777 12.5689   1
 -10  -1   6 60.4208 12.8684   3
   9   1  -6 -3.2779 7.08307   1
   9   1  -6 0.21332 5.10390   4
  -9  -1   6 -14.072 6.47131   3
   8   1  -6 58.0246 10.5060   1
   8   1  -6 68.4669 10.7701   4
  -8  -1   6 57.9951 11.3653   3
   7   1  -6 9.82831 5.49249   4
   7   1  -6 1.11213 6.21998   1
  -7  -1   6 13.9828 7.28379   3
  -7  -1   6 11.4799 4.92813   2
   6   1  -6 240.351 15.2207   4
   6   1  -6 254.536 15.1656   1
  -6  -1   6 244.117 15.3061   3
  -6  -1   6 250.634 12.8669   2
   5   1  -6 134.240 10.8998   1
  -5  -1   6 122.404 9.53082   2
  -5  -1   6 128.120 11.1751   3
   4   1  -6 -0.6915 3.75917   4
   4   1  -6 -0.7015 3.85606   1
  -4  -1   6 4.09832 4.04252   2
  -4  -1   6 -4.6202 4.19733   3
   3   1  -6 71.8317 6.66911   1
   3   1  -6 61.6999 8.08170   4
  -3  -1   6 71.1311 7.68958   3
  -3  -1   6 66.1091 7.20548   2
   2   1  -6 2770.42 60.6203   4
   2   1  -6 2578.02 53.7057   1
  -2  -1   6 2698.17 61.8606   3
  -2  -1   6 2705.80 67.4588   2
   1   1  -6 662.179 13.8991   1
   1   1  -6 635.037 20.8887   4
  -1  -1   6 655.950 21.4578   2
  -1  -1   6 650.088 20.0090   3
   0   1  -6 9.80445 4.60153   4
   0  -1   6 13.0634 2.07184   1
   0  -1   6 16.8405 4.79749   3
   0  -1   6 6.81107 4.54847   2
  -1   1  -6 636.665 18.5382   3
  -1   1  -6 652.234 18.7613   4
   1  -1   6 672.611 16.7198   1
   1  -1   6 658.219 21.8239   2
  -2   1  -6 813.801 20.9399   4
  -2   1  -6 794.435 22.3287   3
   2  -1   6 802.709 25.2494   2
   2  -1   6 802.320 21.3722   1
  -3   1  -6 23.5093 4.38127   4
  -3   1  -6 18.9199 5.07004   3
   3  -1   6 23.2040 4.96607   2
   3  -1   6 18.6883 4.90286   1
  -4   1  -6 57.4684 5.84492   4
  -4   1  -6 62.6414 7.68004   3
   4  -1   6 45.8300 6.17504   2
   4  -1   6 37.8126 7.22975   1
  -5   1  -6 585.725 21.0632   3
  -5   1  -6 583.038 17.1998   4
   5  -1   6 557.833 21.3126   1
   5  -1   6 570.537 19.4302   2
  -6   1  -6 38.7645 5.61795   4
  -6   1  -6 46.1235 8.97467   3
   6  -1   6 45.4240 5.88011   2
   6  -1   6 35.5025 8.50294   1
  -7   1  -6 -7.8050 5.58654   3
  -7   1  -6 0.00417 3.29845   4
   7  -1   6 10.9148 6.90321   1
   7  -1   6 5.56985 3.26632   2
  -8   1  -6 221.830 16.5677   3
  -8   1  -6 246.437 13.1087   4
   8  -1   6 280.714 19.0389   1
  -9   1  -6 6.41824 8.14068   3
   9  -1   6 11.1234 8.81087   1
 -10   1  -6 1.17762 7.67601   3
  10  -1   6 3.15598 9.06042   1
 -11   1  -6 11.0544 9.19370   3
  11  -1   6 17.3421 11.6155   1
  10   0  -6 536.571 28.1588   1
  10   0  -6 518.336 24.9358   4
 -10   0   6 519.201 27.2030   3
   9   0  -6 6.89188 8.74777   1
   9   0  -6 13.8580 6.73717   4
  -9   0   6 15.8058 8.60657   3
   8   0  -6 121.429 13.1066   4
   8   0  -6 140.554 15.5159   1
  -8   0   6 112.344 13.7394   3
   7   0  -6 74.4069 10.2523   4
   7   0  -6 97.4139 12.4557   1
  -7   0   6 88.0033 11.7062   3
  -7   0   6 100.771 9.59495   2
   6   0  -6 572.677 22.6402   4
   6   0  -6 567.427 23.2634   1
  -6   0   6 589.705 23.7336   3
  -6   0   6 577.401 20.9324   2
   5   0  -6 219.432 13.5047   4
   5   0  -6 223.296 13.9858   1
  -5   0   6 197.697 13.1582   3
  -5   0   6 209.374 11.7123   2
   4   0  -6 39.5401 6.93158   4
   4   0  -6 69.2203 8.45794   1
  -4   0   6 55.8714 7.69805   3
  -4   0   6 57.9946 7.02064   2
   3   0  -6 193.289 11.7800   4
   3   0  -6 206.864 10.8909   1
  -3   0   6 182.387 10.5480   3
  -3   0   6 194.293 10.6125   2
   2   0  -6 133.127 10.3410   4
   2   0  -6 136.582 8.19661   1
  -2   0   6 142.573 9.49242   2
  -2   0   6 128.114 8.34176   3
   1   0  -6 2145.07 43.2313   1
   1   0  -6 2047.65 46.6461   4
  -1   0   6 2003.42 47.0472   3
  -1   0   6 2030.88 52.7448   2
   0   0  -6 830.816 23.2563   4
   0   0  -6 862.341 19.3638   1
   0   0   6 859.173 22.3582   3
   0   0   6 837.022 25.2871   2
  -1   0  -6 420.688 12.5737   3
  -1   0  -6 417.774 14.5397   4
   1   0   6 445.075 11.9941   1
   1   0   6 427.511 15.6178   2
  -2   0  -6 3021.85 61.4855   4
  -2   0  -6 3034.66 65.6820   3
   2   0   6 2989.06 62.6348   1
   2   0   6 3062.60 74.4170   2
  -3   0  -6 167.951 9.00401   3
  -3   0  -6 171.195 8.94584   4
   3   0   6 171.060 9.11751   1
   3   0   6 179.383 9.92041   2
  -4   0  -6 1258.04 33.1107   3
  -4   0  -6 1279.83 30.3679   4
   4   0   6 1253.69 33.1474   1
   4   0   6 1319.03 34.8499   2
  -5   0  -6 1002.12 29.5286   3
  -5   0  -6 1043.49 26.4961   4
   5   0   6 1033.61 28.8172   2
   5   0   6 1059.44 30.4085   1
  -6   0  -6 357.086 16.6344   3
  -6   0  -6 366.991 14.3942   4
   6   0   6 357.394 17.5899   1
   6   0   6 370.179 13.3349   2
  -7   0  -6 169.405 13.0384   3
  -7   0  -6 164.272 10.6091   4
   7   0   6 163.695 8.25646   2
   7   0   6 212.646 15.3305   1
  -8   0  -6 1010.30 29.6458   4
  -8   0  -6 1007.14 33.5844   3
   8   0   6 1013.16 35.2628   1
  -9   0  -6 498.265 23.3289   3
  -9   0  -6 472.485 19.8250   4
   9   0   6 477.143 24.5179   1
 -10   0  -6 33.5224 7.82082   4
 -10   0  -6 29.7881 9.62111   3
  10   0   6 31.9838 11.1444   1
 -11   0  -6 5.93521 7.84543   3
  11   0   6 16.0088 10.5846   1
 -12   0  -6 72.9757 14.1517   3
  12   0   6 44.6817 15.1521   1
  10  -1  -6 11.1113 9.92318   1
 -10   1   6 23.5590 8.69680   3
   9  -1  -6 17.2399 6.84890   4
   9  -1  -6 -1.1532 8.48452   1
  -9   1   6 14.7907 8.98597   3
   8  -1  -6 6.54900 6.01077   4
   8  -1  -6 6.25265 8.60173   1
  -8   1   6 15.2715 7.78271   3
   7  -1  -6 7.94759 7.68445   1
   7  -1  -6 7.50481 5.33259   4
  -7   1   6 6.12092 4.45202   2
  -7   1   6 -4.5625 5.86782   3
   6  -1  -6 23.3287 6.60997   4
   6  -1  -6 5.86189 6.66750   1
  -6   1   6 16.2413 6.91769   3
  -6   1   6 11.8557 4.99828   2
   5  -1  -6 352.805 18.4316   1
   5  -1  -6 325.157 16.0860   4
  -5   1   6 314.770 14.8403   2
  -5   1   6 327.921 16.2837   3
   4  -1  -6 20.9459 5.64435   4
   4  -1  -6 13.5330 6.35375   1
  -4   1   6 11.0683 5.04308   3
  -4   1   6 7.29451 4.18754   2
   3  -1  -6 694.351 22.5830   4
   3  -1  -6 683.367 23.0497   1
  -3   1   6 711.819 23.0884   2
  -3   1   6 687.554 21.6569   3
   2  -1  -6 1224.84 32.0732   1
   2  -1  -6 1237.15 32.3162   4
  -2   1   6 1265.66 31.7246   3
  -2   1   6 1272.07 35.4181   2
   1  -1  -6 0.15811 3.25324   1
   1  -1  -6 1.01960 3.74203   4
  -1   1   6 7.13814 3.80568   2
  -1   1   6 -0.2176 2.66258   3
   0  -1  -6 322.703 11.3343   1
   0  -1  -6 298.213 12.8600   4
   0   1   6 301.950 12.8697   2
   0   1   6 326.189 10.4664   3
  -1  -1  -6 874.952 19.8700   3
  -1  -1  -6 852.386 22.7196   4
  -1  -1  -6 837.060 20.8797   1
   1   1   6 846.263 24.9866   2
  -2  -1  -6 4.67967 3.75306   4
  -2  -1  -6 12.7085 2.70692   3
   2   1   6 11.1926 3.16377   1
   2   1   6 15.1825 4.24004   2
  -3  -1  -6 80.3947 7.27164   4
  -3  -1  -6 67.7109 5.74446   3
   3   1   6 78.5760 6.79845   2
   3   1   6 60.1285 6.15666   1
  -4  -1  -6 205.413 10.3907   4
  -4  -1  -6 205.507 9.86189   3
   4   1   6 208.095 9.64130   2
   4   1   6 228.138 11.2367   1
  -5  -1  -6 28.2501 5.67778   3
  -5  -1  -6 35.0534 5.57742   4
   5   1   6 31.5812 6.18644   1
   5   1   6 34.3102 4.52004   2
  -6  -1  -6 -4.3801 3.05115   4
  -6  -1  -6 4.87996 4.79460   3
   6   1   6 5.02582 2.58127   2
   6   1   6 0.46933 4.45595   1
  -7  -1  -6 235.755 14.0203   3
  -7  -1  -6 221.657 12.7547   4
   7   1   6 229.406 8.49934   2
   7   1   6 238.864 14.8354   1
  -8  -1  -6 12.6034 6.93180   3
  -8  -1  -6 24.1356 6.14982   4
   8   1   6 22.7878 7.91799   1
  -9  -1  -6 63.2276 10.7096   3
  -9  -1  -6 46.5707 8.12428   4
   9   1   6 58.4747 11.4782   1
 -10  -1  -6 72.9753 11.7584   3
 -10  -1  -6 73.7813 10.1562   4
  10   1   6 76.5571 13.3300   1
 -11  -1  -6 5.63229 7.61738   3
 -11  -1  -6 10.4342 6.65336   4
  11   1   6 12.1055 10.4426   1
 -12  -1  -6 7.34620 8.90443   3
  12   1   6 4.29353 10.0565   1
   9  -2  -6 41.1781 12.6661   1
  -9   2   6 34.0778 10.7680   3
   8  -2  -6 216.918 15.1546   4
   8  -2  -6 188.768 19.7988   1
  -8   2   6 204.351 16.9399   3
   7  -2  -6 147.983 12.6978   4
   7  -2  -6 157.530 16.9696   1
  -7   2   6 154.619 11.3876   2
  -7   2   6 132.231 14.1939   3
   6  -2  -6 431.149 22.7302   1
   6  -2  -6 438.357 19.1018   4
  -6   2   6 417.975 18.2752   2
  -6   2   6 410.401 19.8307   3
   5  -2  -6 92.7943 10.1288   4
   5  -2  -6 78.5941 11.9585   1
  -5   2   6 96.0242 10.8978   3
  -5   2   6 91.1043 9.38800   2
   4  -2  -6 153.223 12.9904   1
   4  -2  -6 165.679 11.1882   4
  -4   2   6 147.206 11.0394   3
  -4   2   6 145.382 10.2464   2
   3  -2  -6 243.285 12.5044   4
   3  -2  -6 239.778 14.6403   1
  -3   2   6 236.685 12.3514   2
  -3   2   6 257.711 12.3522   3
   2  -2  -6 231.329 11.8846   4
   2  -2  -6 261.175 13.8606   1
  -2   2   6 248.896 12.1528   2
  -2   2   6 253.892 10.9517   3
   1  -2  -6 1437.09 36.4748   1
   1  -2  -6 1447.54 34.4394   4
  -1   2   6 1449.72 39.9190   2
  -1   2   6 1448.40 33.8109   3
   0  -2  -6 51.1109 6.60847   1
   0  -2  -6 36.0579 5.71294   4
   0   2   6 46.6438 3.86748   3
   0   2   6 40.8044 5.61705   2
  -1  -2  -6 4646.37 95.1431   1
  -1  -2  -6 4638.60 91.9104   4
   1   2   6 4828.44 112.086   2
  -2  -2  -6 22.8413 4.43380   1
  -2  -2  -6 32.9098 2.72615   3
  -2  -2  -6 35.3288 5.19119   4
   2   2   6 35.7874 5.10415   2
  -3  -2  -6 1279.43 29.5194   3
  -3  -2  -6 1314.38 31.5406   4
   3   2   6 1276.43 34.2498   2
   3   2   6 1314.58 31.5497   1
  -4  -2  -6 12.7346 4.52055   4
  -4  -2  -6 10.9600 3.54701   3
   4   2   6 24.3091 5.19535   1
   4   2   6 21.7787 4.10083   2
  -5  -2  -6 1419.40 35.1457   3
  -5  -2  -6 1350.60 34.1542   4
   5   2   6 1409.07 35.3150   2
   5   2   6 1324.81 35.3655   1
  -6  -2  -6 967.976 27.5118   4
  -6  -2  -6 996.321 28.4757   3
   6   2   6 983.950 29.4605   1
   6   2   6 953.332 25.1372   2
  -7  -2  -6 225.881 12.5303   4
  -7  -2  -6 228.330 13.3509   3
   7   2   6 234.711 14.0895   1
  -8  -2  -6 162.467 11.9637   4
  -8  -2  -6 176.913 12.9062   3
   8   2   6 173.547 14.0217   1
  -9  -2  -6 23.6814 7.75124   3
  -9  -2  -6 34.7667 7.84882   4
   9   2   6 28.9474 8.61294   1
 -10  -2  -6 71.7090 11.3643   3
 -10  -2  -6 62.5285 9.77325   4
  10   2   6 40.6001 10.8009   1
 -11  -2  -6 524.044 23.8303   4
 -11  -2  -6 527.513 25.1356   3
  11   2   6 512.387 26.8683   1
 -12  -2  -6 88.4535 13.5882   3
 -12  -2  -6 92.7005 12.8172   4
  12   2   6 93.1478 15.9262   1
   9  -3  -6 24.7823 11.3102   1
  -9   3   6 8.61007 8.60880   3
   8  -3  -6 42.9893 11.7719   1
  -8   3   6 40.2031 10.5716   3
   7  -3  -6 115.464 11.4032   4
   7  -3  -6 91.9432 14.4695   1
  -7   3   6 104.490 13.3817   3
  -7   3   6 85.9665 9.96856   2
   6  -3  -6 7.61708 5.23525   4
   6  -3  -6 -4.6311 6.86950   1
  -6   3   6 2.66515 5.97339   3
  -6   3   6 7.07070 4.73303   2
   5  -3  -6 14.7818 5.34188   4
   5  -3  -6 4.41985 7.29779   1
  -5   3   6 4.36772 4.46110   2
  -5   3   6 7.25987 6.15612   3
   4  -3  -6 7.00228 4.48693   4
   4  -3  -6 8.63027 7.39250   1
  -4   3   6 8.08734 4.39990   2
  -4   3   6 11.7878 5.41429   3
   3  -3  -6 25.3737 8.17110   1
   3  -3  -6 30.8730 5.89448   4
  -3   3   6 20.4129 5.07893   2
  -3   3   6 20.6692 5.81143   3
   2  -3  -6 849.626 23.9328   4
   2  -3  -6 859.306 29.3127   1
  -2   3   6 889.028 28.0468   2
  -2   3   6 882.987 24.4668   3
   1  -3  -6 40.6945 5.64900   4
   1  -3  -6 31.1798 7.07814   1
  -1   3   6 25.5971 4.34815   3
  -1   3   6 32.7749 5.45979   2
   0  -3  -6 313.057 12.2658   4
   0  -3  -6 279.399 14.0981   1
   0   3   6 289.437 9.09687   3
   0   3   6 290.775 13.0631   2
  -1  -3  -6 991.889 24.9417   4
  -1  -3  -6 930.919 26.2904   1
   1   3   6 902.622 27.7661   2
  -2  -3  -6 542.702 17.4822   1
  -2  -3  -6 479.233 16.1201   4
   2   3   6 487.170 17.1125   2
  -3  -3  -6 1381.55 29.3640   3
  -3  -3  -6 1335.48 32.1743   4
  -3  -3  -6 1303.97 32.9347   1
   3   3   6 1300.06 35.3729   2
  -4  -3  -6 335.041 11.4241   3
  -4  -3  -6 335.546 13.7014   4
   4   3   6 324.330 13.4217   1
   4   3   6 349.366 12.5382   2
  -5  -3  -6 1479.16 36.0081   3
  -5  -3  -6 1460.90 36.4365   4
   5   3   6 1470.88 37.2921   2
   5   3   6 1457.45 37.5986   1
  -6  -3  -6 96.6077 9.52425   4
  -6  -3  -6 82.6032 8.21811   3
   6   3   6 103.119 9.91752   1
   6   3   6 84.3144 5.46686   2
  -7  -3  -6 569.691 20.4320   3
  -7  -3  -6 546.133 20.5871   4
   7   3   6 552.441 21.5899   1
  -8  -3  -6 157.202 11.9495   3
  -8  -3  -6 142.929 11.7496   4
   8   3   6 154.422 12.8728   1
  -9  -3  -6 161.549 12.6407   3
  -9  -3  -6 162.994 12.8063   4
   9   3   6 146.794 14.5103   1
 -10  -3  -6 3.83594 5.62356   4
 -10  -3  -6 19.4652 7.19443   3
  10   3   6 9.93740 7.17945   1
 -11  -3  -6 4.26907 6.55697   3
 -11  -3  -6 -0.4568 5.50824   4
  11   3   6 5.39048 7.73403   1
 -12  -3  -6 19.3197 8.08176   4
 -12  -3  -6 31.7285 10.2712   3
  12   3   6 33.1156 10.9577   1
   8  -4  -6 2.13319 10.5323   1
  -8   4   6 27.5417 9.76022   3
   7  -4  -6 1.01167 8.76856   1
  -7   4   6 3.68353 5.05615   2
  -7   4   6 -5.0594 6.46175   3
   6  -4  -6 60.7858 12.4984   1
  -6   4   6 84.4696 9.86686   2
  -6   4   6 68.4011 10.7535   3
   5  -4  -6 23.6179 5.84299   4
   5  -4  -6 19.4488 9.31073   1
  -5   4   6 8.77995 5.02160   2
  -5   4   6 17.3795 6.84690   3
   4  -4  -6 420.869 22.8934   1
   4  -4  -6 407.268 15.9392   4
  -4   4   6 416.601 17.9956   3
  -4   4   6 423.925 18.8204   2
   3  -4  -6 68.3623 7.53454   4
   3  -4  -6 60.9862 11.5574   1
  -3   4   6 57.6488 7.55665   2
  -3   4   6 47.1536 7.19271   3
   2  -4  -6 1127.71 28.2152   4
   2  -4  -6 1091.58 35.9799   1
  -2   4   6 1165.67 30.1350   3
  -2   4   6 1050.84 33.9986   2
   1  -4  -6 969.511 25.1459   4
   1  -4  -6 999.328 31.6728   1
  -1   4   6 1031.63 25.7771   3
  -1   4   6 929.764 30.5288   2
   0  -4  -6 385.385 17.4373   1
   0  -4  -6 379.851 13.4068   4
   0   4   6 383.988 11.7797   3
   0   4   6 384.039 15.9070   2
  -1  -4  -6 206.912 9.86741   4
  -1  -4  -6 184.337 11.9039   1
   1   4   6 201.961 10.8068   2
   1   4   6 175.643 5.87343   3
  -2  -4  -6 10.1668 4.91202   1
  -2  -4  -6 13.0720 4.14625   4
   2   4   6 3.57765 3.35182   2
  -3  -4  -6 608.728 14.4386   3
  -3  -4  -6 587.951 19.6899   1
  -3  -4  -6 590.725 18.8492   4
   3   4   6 577.570 19.5792   2
  -4  -4  -6 2862.65 60.5389   3
  -4  -4  -6 2798.60 60.4712   4
   4   4   6 2780.54 69.1183   2
   4   4   6 2830.73 62.8172   1
  -5  -4  -6 141.359 8.11392   3
  -5  -4  -6 133.260 9.57870   4
   5   4   6 156.991 9.99508   1
   5   4   6 137.470 7.54993   2
  -6  -4  -6 204.394 10.6856   3
  -6  -4  -6 194.449 11.9754   4
   6   4   6 204.328 8.48924   2
   6   4   6 178.838 11.5600   1
  -7  -4  -6 204.284 12.1556   3
  -7  -4  -6 228.199 13.5898   4
   7   4   6 226.967 13.4419   1
  -8  -4  -6 428.903 18.4089   3
  -8  -4  -6 452.553 19.9839   4
   8   4   6 420.931 19.5658   1
  -9  -4  -6 375.430 18.5680   3
  -9  -4  -6 370.066 19.3943   4
   9   4   6 392.649 19.9987   1
 -10  -4  -6 34.3226 8.39052   3
 -10  -4  -6 40.7379 8.93395   4
  10   4   6 21.7615 8.35290   1
 -11  -4  -6 31.2461 9.04037   3
 -11  -4  -6 24.0354 8.25060   4
  11   4   6 46.1583 10.5263   1
 -12  -4  -6 5.72639 7.54739   4
 -12  -4  -6 21.9805 9.13400   3
  12   4   6 19.1747 9.04568   1
 -13  -4  -6 0.74416 7.08492   4
 -13  -4  -6 -7.4197 7.21096   3
  13   4   6 7.25399 8.94957   1
   8  -5  -6 30.6843 12.6698   1
  -8   5   6 24.1111 9.80105   3
   7  -5  -6 33.4783 12.2088   1
  -7   5   6 67.1241 9.72263   2
  -7   5   6 65.1786 11.9380   3
   6  -5  -6 298.787 23.2347   1
  -6   5   6 301.278 16.9136   2
  -6   5   6 284.391 17.9027   3
   5  -5  -6 -5.0476 8.35166   1
  -5   5   6 9.11857 6.56677   3
  -5   5   6 12.9252 5.52406   2
   4  -5  -6 22.5901 5.21686   4
   4  -5  -6 10.4695 9.37901   1
  -4   5   6 24.5241 6.89047   3
  -4   5   6 21.5568 6.18606   2
   3  -5  -6 26.2039 5.40280   4
   3  -5  -6 34.2417 10.5512   1
  -3   5   6 44.7442 8.02714   3
  -3   5   6 21.1555 6.15243   2
   2  -5  -6 88.9373 13.1041   1
   2  -5  -6 72.4471 6.93353   4
  -2   5   6 88.5485 8.83075   3
  -2   5   6 70.1580 8.74310   2
   1  -5  -6 236.782 16.7612   1
   1  -5  -6 230.416 10.2898   4
  -1   5   6 230.645 11.0865   3
  -1   5   6 229.817 13.1714   2
   0  -5  -6 1886.87 51.2514   1
   0  -5  -6 1953.58 42.4611   4
   0   5   6 1997.02 44.1636   3
   0   5   6 1932.85 53.7693   2
  -1  -5  -6 492.487 21.1364   1
  -1  -5  -6 535.624 16.6927   4
   1   5   6 547.148 14.2226   3
   1   5   6 527.486 20.1935   2
  -2  -5  -6 484.369 16.1385   4
  -2  -5  -6 492.625 19.0948   1
   2   5   6 472.088 18.4552   2
   2   5   6 513.389 12.2936   3
  -3  -5  -6 918.923 27.4527   1
  -3  -5  -6 906.444 24.6836   4
   3   5   6 890.521 27.5632   2
  -4  -5  -6 93.2964 5.87799   3
  -4  -5  -6 99.4671 9.79060   1
  -4  -5  -6 90.3646 8.01313   4
   4   5   6 94.0983 7.24456   2
  -5  -5  -6 132.113 7.59644   3
  -5  -5  -6 136.085 9.88161   4
   5   5   6 131.960 8.04729   2
   5   5   6 152.587 10.1669   1
  -6  -5  -6 186.888 12.2041   4
  -6  -5  -6 184.731 9.81145   3
   6   5   6 163.874 8.10099   2
   6   5   6 178.416 11.4901   1
  -7  -5  -6 3.76796 4.46637   3
  -7  -5  -6 -0.1866 4.47094   4
   7   5   6 2.87330 2.73750   2
   7   5   6 2.91365 4.24382   1
  -8  -5  -6 105.715 11.6910   4
  -8  -5  -6 116.934 11.1092   3
   8   5   6 118.830 11.8851   1
  -9  -5  -6 207.848 13.6151   3
  -9  -5  -6 205.512 15.2220   4
   9   5   6 222.144 14.9323   1
 -10  -5  -6 128.500 13.2189   3
 -10  -5  -6 132.285 14.1396   4
  10   5   6 142.432 14.5989   1
 -11  -5  -6 108.791 12.9196   3
 -11  -5  -6 139.002 15.7419   4
  11   5   6 119.585 14.6656   1
 -12  -5  -6 38.6063 9.85043   3
 -12  -5  -6 34.2729 9.37594   4
  12   5   6 49.5554 11.0689   1
 -13  -5  -6 85.7263 13.2561   3
 -13  -5  -6 97.3335 14.7596   4
  13   5   6 94.3374 14.6141   1
   7  -6  -6 60.5263 14.7015   1
  -7   6   6 37.8728 10.6321   3
  -7   6   6 63.7617 9.80200   2
   6  -6  -6 8.85204 10.3226   1
  -6   6   6 34.4021 7.86807   2
  -6   6   6 29.1379 9.61206   3
   5  -6  -6 20.8984 10.4928   1
  -5   6   6 18.9473 6.24446   2
  -5   6   6 19.3812 7.90047   3
   4  -6  -6 230.009 20.5178   1
  -4   6   6 211.322 14.8267   2
  -4   6   6 245.115 15.2554   3
   3  -6  -6 152.074 17.9380   1
  -3   6   6 150.190 12.1419   3
  -3   6   6 162.806 12.9158   2
   2  -6  -6 8.58026 8.63606   1
   2  -6  -6 7.55487 3.76873   4
  -2   6   6 15.9691 5.83645   2
  -2   6   6 9.94040 5.58822   3
   1  -6  -6 22.0709 9.47899   1
   1  -6  -6 14.2434 4.30517   4
  -1   6   6 12.9173 5.21048   2
  -1   6   6 10.6643 5.02229   3
   0  -6  -6 102.659 7.49016   4
   0  -6  -6 67.0575 10.9688   1
   0   6   6 109.788 10.7742   2
   0   6   6 97.2390 7.58029   3
  -1  -6  -6 1685.03 38.0529   4
  -1  -6  -6 1651.74 46.6837   1
   1   6   6 1735.97 38.6138   3
   1   6   6 1640.48 47.8248   2
  -2  -6  -6 1317.49 32.4641   4
  -2  -6  -6 1311.25 37.9545   1
   2   6   6 1388.08 30.3577   3
   2   6   6 1261.54 38.8015   2
  -3  -6  -6 71.4731 7.63829   4
  -3  -6  -6 64.0646 8.57293   1
   3   6   6 59.8841 7.35969   2
   3   6   6 61.1358 4.05132   3
  -4  -6  -6 319.115 15.8716   1
  -4  -6  -6 338.565 11.5641   3
  -4  -6  -6 335.318 14.4932   4
   4   6   6 298.083 14.1029   2
  -5  -6  -6 279.529 14.0962   4
  -5  -6  -6 262.720 11.1134   3
  -5  -6  -6 257.327 14.3153   1
   5   6   6 262.315 12.1028   2
  -6  -6  -6 1061.18 28.8493   3
  -6  -6  -6 1039.42 31.2112   4
   6   6   6 1053.78 30.0936   2
   6   6   6 1037.87 31.3519   1
  -7  -6  -6 3.60196 4.40171   3
  -7  -6  -6 5.52023 5.35678   4
   7   6   6 8.64412 4.87562   1
   7   6   6 1.28457 2.96946   2
  -8  -6  -6 413.908 20.2231   4
  -8  -6  -6 472.314 18.7262   3
   8   6   6 421.052 19.0427   1
  -9  -6  -6 139.432 11.7302   3
  -9  -6  -6 153.572 15.4453   4
   9   6   6 102.670 11.7337   1
 -10  -6  -6 119.160 12.7573   3
 -10  -6  -6 116.118 14.3566   4
  10   6   6 112.202 12.7251   1
 -11  -6  -6 318.481 18.2669   3
 -11  -6  -6 305.973 19.6182   4
  11   6   6 350.225 20.1693   1
 -12  -6  -6 -0.4906 6.18478   3
 -12  -6  -6 2.75771 6.71792   4
  12   6   6 -4.5352 6.01628   1
 -13  -6  -6 54.0452 11.4290   3
 -13  -6  -6 59.9302 12.7524   4
  13   6   6 51.8197 11.7169   1
   6  -7  -6 62.3006 14.3585   1
  -6   7   6 25.0802 9.77963   3
  -6   7   6 44.5847 8.86649   2
   5  -7  -6 38.8712 12.9906   1
  -5   7   6 43.7382 9.68888   3
  -5   7   6 49.4319 9.58848   2
   4  -7  -6 167.847 19.9014   1
  -4   7   6 151.271 13.5854   2
  -4   7   6 159.279 13.9703   3
   3  -7  -6 60.7293 13.6497   1
  -3   7   6 30.8196 7.85782   3
  -3   7   6 35.7743 8.02417   2
   2  -7  -6 392.200 24.1311   1
  -2   7   6 393.670 17.5491   3
  -2   7   6 379.703 19.6496   2
   1  -7  -6 31.8944 5.02459   4
   1  -7  -6 13.9815 8.80552   1
  -1   7   6 18.7839 6.21294   2
  -1   7   6 27.0834 6.52712   3
   0  -7  -6 27.6660 9.43980   1
   0  -7  -6 43.9328 5.78912   4
   0   7   6 33.2523 7.11308   2
   0   7   6 35.9758 6.06249   3
  -1  -7  -6 274.516 18.4753   1
  -1  -7  -6 235.190 10.9435   4
   1   7   6 247.993 10.6000   3
   1   7   6 261.389 14.9946   2
  -2  -7  -6 220.903 10.9925   4
  -2  -7  -6 200.456 14.8330   1
   2   7   6 239.144 9.24983   3
   2   7   6 203.812 13.1657   2
  -3  -7  -6 94.5690 8.83020   4
  -3  -7  -6 77.6961 9.83671   1
   3   7   6 93.2319 9.66175   2
   3   7   6 80.3339 5.34210   3
  -4  -7  -6 31.7744 7.59722   1
  -4  -7  -6 16.2621 5.45718   4
   4   7   6 26.0750 3.57855   3
   4   7   6 18.7310 5.11756   2
  -5  -7  -6 64.2272 9.19592   1
  -5  -7  -6 64.4978 7.14866   3
  -5  -7  -6 50.6023 7.93795   4
   5   7   6 73.7406 7.98534   2
  -6  -7  -6 194.601 10.6676   3
  -6  -7  -6 168.661 12.0034   4
   6   7   6 178.428 12.0335   1
   6   7   6 161.038 9.96937   2
  -7  -7  -6 68.5013 9.89122   4
  -7  -7  -6 79.9645 8.94729   3
   7   7   6 92.4227 7.38744   2
   7   7   6 75.0250 9.49656   1
  -8  -7  -6 20.7235 6.30239   3
  -8  -7  -6 15.9231 6.73799   4
   8   7   6 15.1837 5.98821   1
  -9  -7  -6 96.9201 10.7124   3
  -9  -7  -6 55.2908 10.1189   4
   9   7   6 70.1641 10.2994   1
 -10  -7  -6 81.9508 10.7786   3
 -10  -7  -6 65.8725 11.1592   4
  10   7   6 76.1033 11.0646   1
 -11  -7  -6 35.0751 8.45368   3
 -11  -7  -6 30.9422 9.04164   4
  11   7   6 21.6133 7.71803   1
 -12  -7  -6 139.802 16.6539   4
 -12  -7  -6 147.607 15.2798   3
  12   7   6 134.856 15.6424   1
 -13  -7  -6 48.6750 11.2567   3
 -13  -7  -6 50.6151 12.1978   4
  13   7   6 58.8222 12.0189   1
   5  -8  -6 63.3274 15.5192   1
  -5   8   6 81.6204 12.1549   2
  -5   8   6 77.5812 12.5551   3
   4  -8  -6 97.5572 17.1769   1
  -4   8   6 90.4827 12.2422   2
  -4   8   6 77.8911 11.5992   3
   3  -8  -6 9.71137 10.2980   1
  -3   8   6 2.80454 5.68415   2
  -3   8   6 9.37485 6.90231   3
   2  -8  -6 6.97573 9.87103   1
  -2   8   6 21.6082 7.29973   2
  -2   8   6 16.2475 7.19280   3
   1  -8  -6 400.005 24.7747   1
  -1   8   6 420.250 20.9918   2
  -1   8   6 393.990 17.2052   3
   0  -8  -6 0.62867 7.77915   1
   0   8   6 1.73992 4.63418   3
   0   8   6 -3.4863 4.56419   2
  -1  -8  -6 514.977 26.4790   1
  -1  -8  -6 546.381 17.2419   4
   1   8   6 533.829 17.6593   3
   1   8   6 545.497 23.3682   2
  -2  -8  -6 477.769 23.3394   1
  -2  -8  -6 516.673 17.4623   4
   2   8   6 531.960 16.3529   3
   2   8   6 487.528 22.1457   2
  -3  -8  -6 876.642 25.4788   4
   3   8   6 850.639 30.6562   2
   3   8   6 873.127 23.1599   3
  -4  -8  -6 127.722 13.5552   1
  -4  -8  -6 113.820 10.6339   4
   4   8   6 122.154 10.3477   2
   4   8   6 124.674 7.06776   3
  -5  -8  -6 1145.47 30.7054   3
  -5  -8  -6 1086.71 32.0550   4
  -5  -8  -6 1121.04 35.5846   1
   5   8   6 1131.18 35.3949   2
  -6  -8  -6 207.412 14.1294   4
  -6  -8  -6 216.574 12.2702   3
  -6  -8  -6 217.943 15.1195   1
   6   8   6 221.143 12.4031   2
  -7  -8  -6 54.3429 9.40004   4
  -7  -8  -6 53.3944 8.09225   3
   7   8   6 39.8932 7.96088   1
   7   8   6 62.1426 7.37085   2
  -8  -8  -6 329.472 19.0246   4
  -8  -8  -6 352.509 16.9152   3
   8   8   6 371.665 18.4731   1
  -9  -8  -6 25.5367 7.22347   3
  -9  -8  -6 23.6898 7.83902   4
   9   8   6 29.2558 7.17356   1
 -10  -8  -6 -2.6509 5.69319   3
 -10  -8  -6 -6.0422 5.81959   4
  10   8   6 15.2140 6.62503   1
 -11  -8  -6 76.8097 11.6094   3
 -11  -8  -6 73.9844 12.4570   4
  11   8   6 104.970 13.4155   1
 -12  -8  -6 51.1942 11.9029   4
 -12  -8  -6 50.8592 10.4584   3
  12   8   6 53.4793 10.5500   1
   4  -9  -6 14.4162 11.5808   1
  -4   9   6 3.93610 6.02948   2
   3  -9  -6 15.9300 11.9750   1
  -3   9   6 12.6736 6.78474   2
   2  -9  -6 -4.8927 9.00542   1
  -2   9   6 -0.7030 5.42302   2
   1  -9  -6 9.54127 9.43033   1
  -1   9   6 -5.5110 7.84667   3
  -1   9   6 -3.3648 4.55317   2
   0  -9  -6 4.14346 8.74634   1
   0   9   6 12.8336 6.83790   3
   0   9   6 1.97383 5.10441   2
  -1  -9  -6 22.5904 9.91798   1
   1   9   6 24.8286 7.60850   2
   1   9   6 40.9740 6.91735   3
  -2  -9  -6 124.717 9.30790   4
  -2  -9  -6 81.2665 12.5862   1
   2   9   6 141.334 9.16608   3
   2   9   6 123.369 13.5627   2
  -3  -9  -6 83.8507 9.08831   4
  -3  -9  -6 89.0362 12.7215   1
   3   9   6 66.3213 10.0370   2
   3   9   6 76.9691 7.21834   3
  -4  -9  -6 29.6081 6.54119   4
  -4  -9  -6 32.3335 8.24083   1
   4   9   6 19.8182 6.11905   2
   4   9   6 38.9986 5.19734   3
  -5  -9  -6 796.667 30.0901   1
  -5  -9  -6 880.886 27.6922   4
   5   9   6 860.579 23.7806   3
   5   9   6 840.710 29.8647   2
  -6  -9  -6 20.4930 7.52531   1
  -6  -9  -6 12.4492 6.44064   4
  -6  -9  -6 10.2463 5.13867   3
   6   9   6 21.6046 5.63922   2
  -7  -9  -6 17.8138 5.89035   3
  -7  -9  -6 13.0697 6.57093   4
   7   9   6 20.7108 6.43087   1
   7   9   6 17.5320 5.27563   2
  -8  -9  -6 217.903 13.8485   3
  -8  -9  -6 217.453 16.4012   4
   8   9   6 222.435 15.2626   1
  -9  -9  -6 5.85842 6.80002   4
  -9  -9  -6 11.4136 6.34458   3
   9   9   6 11.9600 6.01284   1
 -10  -9  -6 22.7869 7.80094   3
 -10  -9  -6 6.47227 7.19649   4
  10   9   6 -0.2691 5.47068   1
 -11  -9  -6 80.3379 11.9071   3
 -11  -9  -6 63.4679 12.5232   4
  11   9   6 64.4394 10.6180   1
 -12  -9  -6 6.20743 8.43094   4
 -12  -9  -6 6.09210 7.24332   3
  12   9   6 0.67281 6.45518   1
   3 -10  -6 24.2710 14.1577   1
  -3  10   6 27.8884 9.07270   2
   2 -10  -6 579.430 32.6388   1
  -2  10   6 596.566 28.2067   2
   1 -10  -6 9.38427 10.0628   1
  -1  10   6 -0.7600 5.62646   2
   0 -10  -6 181.255 19.8999   1
   0  10   6 233.095 17.0788   2
  -1 -10  -6 40.0245 11.0027   1
   1  10   6 35.3554 8.56572   2
  -2 -10  -6 149.941 17.0432   1
   2  10   6 154.344 15.7113   2
  -3 -10  -6 79.8476 8.96761   4
  -3 -10  -6 57.6909 11.9739   1
   3  10   6 69.0389 10.6714   2
  -4 -10  -6 5.52000 5.19042   4
  -4 -10  -6 1.46245 6.62961   1
   4  10   6 1.71209 5.24086   2
  -5 -10  -6 125.343 14.3826   1
  -5 -10  -6 158.186 12.4511   4
   5  10   6 156.173 12.4774   2
  -6 -10  -6 202.152 15.9507   1
  -6 -10  -6 209.973 14.6425   4
   6  10   6 203.578 13.9111   2
  -7 -10  -6 74.9681 10.9425   4
  -7 -10  -6 73.2488 14.4244   3
   7  10   6 60.5750 9.92897   1
   7  10   6 69.1842 8.86982   2
  -8 -10  -6 212.856 16.5092   4
  -8 -10  -6 212.203 14.1646   3
   8  10   6 193.201 14.4720   1
  -9 -10  -6 82.1132 12.6300   4
  -9 -10  -6 87.5493 11.1142   3
   9  10   6 83.7222 11.4430   1
 -10 -10  -6 421.609 21.6502   3
 -10 -10  -6 439.914 24.5448   4
  10  10   6 436.287 21.6136   1
 -11 -10  -6 23.6072  9.9999   4
 -11 -10  -6 40.5108 10.0648   3
  11  10   6 38.3555 9.07528   1
 -12 -10  -6 49.3669 13.4545   3
 -12 -10  -6 51.8123 12.6253   4
  12  10   6 55.6984 10.8241   1
   2 -11  -6 30.1904 12.3027   1
  -2  11   6 26.9336 9.10745   2
   1 -11  -6 0.33832 9.64132   1
  -1  11   6 6.38471 6.67544   2
   0 -11  -6 -6.6843 9.01945   1
   0  11   6 -2.1024 5.57066   2
  -1 -11  -6 56.9652 13.5444   1
   1  11   6 66.7663 11.4106   2
  -2 -11  -6 331.969 23.5506   1
   2  11   6 363.130 21.2544   2
  -3 -11  -6 57.3745 12.2355   1
   3  11   6 58.0856 10.4618   2
  -4 -11  -6 63.4281 12.0900   1
   4  11   6 86.5925 12.0877   2
  -5 -11  -6 293.122 16.4671   4
  -5 -11  -6 238.408 18.3798   1
   5  11   6 262.201 17.0989   2
  -6 -11  -6 16.8382 6.92147   4
  -6 -11  -6 27.1796 9.04281   1
   6  11   6 7.36517 5.47162   2
  -7 -11  -6 14.5692 7.41278   4
  -7 -11  -6 14.8135 8.22549   1
   7  11   6 26.8912 6.67412   2
  -8 -11  -6 -3.8021 6.44545   4
   8  11   6 4.98978 5.56851   1
  -9 -11  -6 156.736 16.8014   4
   9  11   6 146.817 15.3562   1
 -10 -11  -6 12.2387 8.55259   4
  10  11   6 8.74120 6.01841   1
 -11 -11  -6 10.9622 8.53982   4
  11  11   6 16.7277 7.04338   1
   0 -12  -6 62.4703 14.6270   1
   0  12   6 47.1493 10.3597   2
  -1 -12  -6 77.6952 15.3031   1
   1  12   6 114.809 14.4507   2
  -2 -12  -6 174.001 19.8364   1
   2  12   6 154.602 16.8435   2
  -3 -12  -6 205.935 20.4730   1
   3  12   6 198.294 16.7934   2
  -4 -12  -6 54.1363 12.3168   1
   4  12   6 76.3180 11.9162   2
  -5 -12  -6 3.31299 8.06136   1
   5  12   6 13.4003 6.05861   2
  -6 -12  -6 -3.5595 5.55725   4
  -6 -12  -6 -4.5460 7.64070   1
   6  12   6 6.29085 5.25548   2
  -7 -12  -6 -0.2859 7.15417   1
  -7 -12  -6 1.36720 6.33725   4
   7  12   6 12.4780 5.86865   2
  -8 -12  -6 146.401 15.5710   4
   8  12   6 100.051 12.8000   1
  -9 -12  -6 115.179 15.1973   4
   9  12   6 102.858 12.9396   1
 -10 -12  -6 59.7466 12.5896   4
  10  12   6 74.1933 11.2883   1
  -3 -13  -6 -11.407 8.16865   1
   3  13   6 10.2227 6.95218   2
  -4 -13  -6 3.18473 9.45465   1
   4  13   6 11.6310 7.02621   2
  -5 -13  -6 2.93989 9.02320   1
   5  13   6 4.21600 6.04444   2
  -6 -13  -6 57.8535 12.3729   1
   6  13   6 54.7838 10.3025   2
  -7 -13  -6 3.57754 7.90803   1
   7  13   6 10.3599 5.62852   2
  -8 -13  -6 25.4326 9.46221   4
   8  13   6 29.9069 8.29842   1
   5  12  -7 45.7108 9.66371   3
  -5 -12   7 39.0749 11.0470   2
   4  12  -7 45.8402 9.87040   3
  -4 -12   7 65.6764 13.7164   2
   3  12  -7 5.92076 6.92388   3
  -3 -12   7 0.91436 8.66189   2
   2  12  -7 50.3147 10.2968   3
  -2 -12   7 43.1077 12.5241   2
   8  11  -7 97.2410 13.5573   4
   7  11  -7 17.6528 7.54945   4
  -7 -11   7 34.7325 10.5185   2
  -7 -11   7 39.7151 12.2008   3
   6  11  -7 123.726 13.4572   4
   6  11  -7 91.5790 12.5501   3
  -6 -11   7 100.261 14.4481   2
   5  11  -7 268.129 17.9391   3
  -5 -11   7 301.920 21.7532   2
   4  11  -7 7.86305 5.96235   3
  -4 -11   7 2.18439 8.49124   2
   3  11  -7 284.716 18.1812   3
  -3 -11   7 275.631 22.1956   2
   2  11  -7 17.0358 7.22361   3
  -2 -11   7 34.2062 11.6854   2
   1  11  -7 216.838 17.0806   3
  -1 -11   7 239.221 22.7163   2
   0  11  -7 18.3866 8.08650   3
   0 -11   7 34.9245 11.8970   2
  -1  11  -7 42.6916 10.3659   3
   1 -11   7 39.9027 12.4722   2
   9  10  -7 13.9446 7.72577   4
  -9 -10   7 -11.901 7.85505   3
   8  10  -7 64.1216 11.9338   4
  -8 -10   7 65.6066 13.4772   3
   7  10  -7 22.9971 7.81913   4
  -7 -10   7 27.1679 9.11144   2
  -7 -10   7 31.8760 10.8044   3
   6  10  -7 1.81369 5.37373   4
  -6 -10   7 8.40637 8.28294   3
  -6 -10   7 -3.3369 6.32555   2
   5  10  -7 147.939 12.8862   3
   5  10  -7 152.996 12.8621   4
  -5 -10   7 145.360 15.7952   2
   4  10  -7 111.406 13.1468   3
   4  10  -7 121.055 12.2154   4
  -4 -10   7 92.4841 13.9253   2
   3  10  -7 0.02675 5.09852   3
  -3 -10   7 8.07612 8.43855   2
   2  10  -7 76.7718 11.2930   3
  -2 -10   7 80.2691 13.2941   2
   1  10  -7 1.14986 5.25434   3
  -1 -10   7 9.80819 8.53954   2
   0  10  -7 79.3036 12.0261   3
   0 -10   7 60.7872 13.3092   2
  -1  10  -7 51.7992 10.4740   3
   1 -10   7 83.5857 14.2919   2
  -2  10  -7 27.3077 8.75810   3
   2 -10   7 31.5984 9.65677   1
   2 -10   7 69.8087 13.5060   2
  -3  10  -7 141.191 16.7002   3
   3 -10   7 141.551 15.8125   1
   3 -10   7 117.496 16.2316   2
   9   9  -7 4.17251 6.60835   4
  -9  -9   7 7.65747 9.06849   3
   8   9  -7 58.5957 11.0516   4
  -8  -9   7 63.1643 13.0647   3
   7   9  -7 31.9994 8.50339   4
  -7  -9   7 29.1179 9.78737   3
  -7  -9   7 19.1014 8.05855   2
   6   9  -7 233.906 16.4467   4
  -6  -9   7 219.534 18.9071   3
  -6  -9   7 225.020 17.3144   2
   5   9  -7 62.7912 9.82750   4
  -5  -9   7 39.4951 9.72969   3
  -5  -9   7 42.7871 10.2153   2
   4   9  -7 570.575 22.5206   4
   4   9  -7 647.337 25.3007   3
  -4  -9   7 572.376 27.6727   2
   3   9  -7 142.796 11.7154   4
   3   9  -7 138.140 14.0023   3
  -3  -9   7 147.808 16.2507   2
   2   9  -7 52.7561 9.71941   3
  -2  -9   7 38.9641 10.2116   2
   1   9  -7 124.427 13.7886   3
  -1  -9   7 117.937 15.3580   2
   0   9  -7 62.5525 10.4535   3
   0  -9   7 59.2700 11.9563   2
   0  -9   7 86.3879 12.8676   1
  -1   9  -7 189.978 15.5458   3
   1  -9   7 172.361 18.1894   2
   1  -9   7 208.204 15.1390   1
  -2   9  -7 32.8575 9.31576   3
   2  -9   7 39.4433 9.84512   1
   2  -9   7 24.6608 8.99688   2
  -3   9  -7 0.86178 6.50070   3
   3  -9   7 -0.1015 7.46330   2
   3  -9   7 -2.9979 7.08117   1
  -4   9  -7 -4.0809 6.83718   3
   4  -9   7 4.22925 9.27390   1
   4  -9   7 10.1058 7.60239   2
  10   8  -7 -9.4932 5.86285   4
 -10  -8   7 22.1936 10.1867   3
   9   8  -7 21.1124 8.49078   4
  -9  -8   7 14.2483 8.84115   3
   8   8  -7 8.55624 6.74467   4
  -8  -8   7 26.5799 10.4089   3
   7   8  -7 47.8678 9.73060   4
  -7  -8   7 37.5567 10.8361   3
  -7  -8   7 38.5155 8.90380   2
   6   8  -7 -2.4247 4.73330   4
  -6  -8   7 7.77685 7.77307   3
  -6  -8   7 7.75745 6.73247   2
   5   8  -7 132.681 13.6347   4
  -5  -8   7 117.334 14.8056   3
  -5  -8   7 101.926 12.9867   2
   4   8  -7 11.1484 5.55695   4
  -4  -8   7 -3.5192 6.84383   3
  -4  -8   7 21.1085 7.86936   2
   3   8  -7 186.163 13.9148   3
   3   8  -7 218.781 13.2728   4
  -3  -8   7 197.384 16.1693   2
   2   8  -7 632.130 25.2415   3
   2   8  -7 599.865 21.5831   4
  -2  -8   7 607.401 28.6599   2
   1   8  -7 92.2926 11.4292   3
  -1  -8   7 76.0727 12.2688   2
  -1  -8   7 99.9560 10.1359   1
   0   8  -7 419.472 20.5177   3
   0  -8   7 392.011 22.9426   2
   0  -8   7 401.282 18.2190   1
  -1   8  -7 106.244 12.1152   3
   1  -8   7 113.495 14.7053   2
   1  -8   7 116.813 12.4897   1
  -2   8  -7 0.10484 5.78780   3
   2  -8   7 2.29518 6.93641   2
   2  -8   7 10.2382 7.00189   1
  -3   8  -7 41.6461 9.13644   3
   3  -8   7 28.8388 9.28720   1
   3  -8   7 43.4375 10.2666   2
  -4   8  -7 62.7301 11.4046   3
   4  -8   7 35.2403 9.84634   2
   4  -8   7 59.8024 11.6640   1
  -5   8  -7 16.8807 8.86972   3
   5  -8   7 -4.5732 5.86038   2
   5  -8   7 10.2059 9.58572   1
  -6   8  -7 35.0945 10.6381   3
   6  -8   7 12.8727 9.71940   1
   6  -8   7 19.3522 8.65628   2
  10   7  -7 93.7087 14.8840   4
 -10  -7   7 66.2928 13.4664   3
   9   7  -7 203.918 17.5788   4
  -9  -7   7 181.341 19.4667   3
   8   7  -7 240.464 18.0227   4
  -8  -7   7 237.452 19.0973   3
   7   7  -7 190.808 15.2411   4
  -7  -7   7 207.552 19.3699   3
  -7  -7   7 176.420 14.0643   2
   6   7  -7 308.446 18.1202   4
  -6  -7   7 284.374 19.3680   3
  -6  -7   7 283.355 17.4964   2
   5   7  -7 8.05196 5.72134   4
  -5  -7   7 16.7827 6.87162   2
  -5  -7   7 13.1928 7.72360   3
   4   7  -7 -0.2835 4.29541   4
  -4  -7   7 9.56456 7.14548   2
  -4  -7   7 7.52892 6.70711   3
   3   7  -7 8.89885 5.26231   4
  -3  -7   7 -4.1786 5.74539   3
  -3  -7   7 12.2617 7.08017   2
   2   7  -7 442.199 20.1279   3
   2   7  -7 439.075 18.2654   4
  -2  -7   7 447.167 23.2238   2
   1   7  -7 774.109 23.9517   4
   1   7  -7 811.882 28.5954   3
  -1  -7   7 769.084 31.6522   2
  -1  -7   7 757.040 22.7050   1
   0   7  -7 811.375 29.4860   3
   0   7  -7 843.026 23.6077   4
   0  -7   7 875.029 34.0756   2
   0  -7   7 889.668 26.8895   1
  -1   7  -7 9.60042 5.96491   3
   1  -7   7 2.16592 6.34643   2
   1  -7   7 12.5466 6.47490   1
  -2   7  -7 120.950 12.8846   3
   2  -7   7 144.880 15.5233   2
   2  -7   7 138.936 13.1367   1
  -3   7  -7 7.23998 6.36107   3
   3  -7   7 11.7635 7.42819   2
   3  -7   7 -0.3493 6.47035   1
  -4   7  -7 451.093 23.0468   3
   4  -7   7 426.390 23.7652   1
   4  -7   7 456.624 23.6334   2
  -5   7  -7 8.14258 7.34091   3
   5  -7   7 13.0678 6.78726   2
   5  -7   7 10.8240 8.84801   1
  -6   7  -7 21.0828 9.62774   3
   6  -7   7 6.33715 9.64727   1
   6  -7   7 16.8576 7.60054   2
  -7   7  -7 -2.0250 8.47569   3
   7  -7   7 1.73306 6.66114   2
   7  -7   7 6.50372 11.0294   1
  10   6  -7 7.37440 7.34371   4
 -10  -6   7 10.5535 9.09733   3
   9   6  -7 37.8073 9.79263   4
  -9  -6   7 18.9106 10.2108   3
   8   6  -7 13.1538 7.15745   4
  -8  -6   7 17.1074 8.38955   3
   7   6  -7 93.6442 12.5225   4
  -7  -6   7 110.034 11.8534   2
  -7  -6   7 104.484 14.3381   3
   6   6  -7 353.940 19.3298   4
  -6  -6   7 318.536 19.6615   3
  -6  -6   7 325.534 18.0037   2
   5   6  -7 265.591 16.4591   4
  -5  -6   7 291.756 18.2898   3
  -5  -6   7 243.253 16.1369   2
   4   6  -7 154.849 12.6477   4
  -4  -6   7 162.328 15.6845   3
  -4  -6   7 196.534 14.8103   2
   3   6  -7 33.2517 7.32727   4
  -3  -6   7 42.3735 8.98612   2
  -3  -6   7 44.5364 9.56909   3
   2   6  -7 107.798 10.9553   4
  -2  -6   7 105.573 13.1180   3
  -2  -6   7 110.803 5.91323   1
  -2  -6   7 120.621 13.1910   2
   1   6  -7 22.2610 5.94690   4
   1   6  -7 7.23857 4.37335   3
  -1  -6   7 18.9253 7.24463   2
  -1  -6   7 17.3260 4.22839   1
   0   6  -7 111.802 9.89395   3
   0   6  -7 138.703 9.82583   4
   0  -6   7 136.745 10.1001   1
   0  -6   7 109.543 13.1216   2
  -1   6  -7 28.3114 4.83030   4
  -1   6  -7 33.3203 7.29856   3
   1  -6   7 28.1447 7.15487   1
   1  -6   7 30.6625 8.56971   2
  -2   6  -7 -1.8731 4.57766   3
   2  -6   7 0.53389 6.23849   2
   2  -6   7 0.08883 6.27950   1
  -3   6  -7 13.0116 5.99019   3
   3  -6   7 14.8116 7.62086   1
   3  -6   7 18.3546 7.38712   2
  -4   6  -7 57.6974 9.79500   3
   4  -6   7 55.7838 10.0059   2
   4  -6   7 62.1782 10.8728   1
  -5   6  -7 43.2105 9.75678   3
   5  -6   7 34.5356 10.3504   1
   5  -6   7 55.3394 9.54860   2
  -6   6  -7 185.231 18.3496   3
   6  -6   7 184.272 19.7359   1
   6  -6   7 131.841 14.1419   2
  -7   6  -7 34.0977 10.8352   3
   7  -6   7 44.2385 13.0096   1
   7  -6   7 27.6612 8.00346   2
  -8   6  -7 23.6700 11.2318   3
   8  -6   7 25.0839 12.5074   1
  11   5  -7 24.8568 9.63145   4
 -11  -5   7 4.19741 8.84777   3
  10   5  -7 12.3920 7.83981   4
 -10  -5   7 1.68279 7.88818   3
   9   5  -7 100.389 13.9675   4
  -9  -5   7 122.350 15.1065   3
   8   5  -7 200.564 16.2810   4
  -8  -5   7 210.771 19.5048   3
   7   5  -7 316.280 19.1440   4
  -7  -5   7 263.988 18.5750   3
  -7  -5   7 308.749 16.4034   2
   6   5  -7 36.9227 8.82774   4
  -6  -5   7 25.3313 8.67155   3
  -6  -5   7 42.9473 8.00227   2
   5   5  -7 291.388 17.0709   4
  -5  -5   7 263.622 17.1647   3
  -5  -5   7 273.795 15.8539   2
   4   5  -7 388.329 18.7878   4
  -4  -5   7 374.338 19.7307   3
  -4  -5   7 416.764 19.7412   2
   3   5  -7 1910.57 48.8660   4
  -3  -5   7 2008.90 56.6454   2
  -3  -5   7 1976.74 53.4173   3
   2   5  -7 248.046 13.8816   4
  -2  -5   7 238.373 15.1047   2
   1   5  -7 163.787 11.0514   4
   1   5  -7 145.223 10.5339   3
  -1  -5   7 161.983 7.55557   1
  -1  -5   7 160.638 13.7484   2
   0   5  -7 789.542 23.2461   4
   0   5  -7 787.466 26.7588   3
   0  -5   7 829.245 30.4215   2
   0  -5   7 826.360 22.8685   1
  -1   5  -7 1495.54 42.0472   3
  -1   5  -7 1517.15 34.6858   4
   1  -5   7 1483.20 38.3658   1
   1  -5   7 1555.32 47.9400   2
  -2   5  -7 158.353 7.71241   4
  -2   5  -7 141.280 11.6573   3
   2  -5   7 163.323 15.2596   2
   2  -5   7 146.464 11.9579   1
  -3   5  -7 551.505 23.0237   3
   3  -5   7 615.861 25.6715   2
   3  -5   7 567.538 22.6684   1
  -4   5  -7 412.202 20.2234   3
   4  -5   7 438.450 21.2492   1
   4  -5   7 394.876 20.3284   2
  -5   5  -7 104.446 13.0045   3
   5  -5   7 114.596 14.2991   1
   5  -5   7 91.7718 11.2854   2
  -6   5  -7 107.349 13.1635   3
   6  -5   7 130.621 15.9323   1
   6  -5   7 123.770 12.8593   2
  -7   5  -7 8.82736 8.73143   3
   7  -5   7 -1.5437 4.68348   2
   7  -5   7 8.49291 9.37074   1
  -8   5  -7 3.46929 9.07575   3
   8  -5   7 16.8881 11.4872   1
  11   4  -7 22.0707 9.21435   4
 -11  -4   7 42.9183 12.5234   3
  10   4  -7 43.9283 10.6536   4
 -10  -4   7 12.1726 9.24849   3
   9   4  -7 215.769 18.3280   4
  -9  -4   7 217.106 21.0112   3
   8   4  -7 62.9745 11.2469   4
  -8  -4   7 37.6461 9.42292   3
   7   4  -7 48.7701 9.40090   4
  -7  -4   7 49.2646 7.92428   2
  -7  -4   7 36.1800 9.20068   3
   6   4  -7 -0.1487 5.20059   4
  -6  -4   7 1.26383 6.09235   3
  -6  -4   7 5.03791 5.04467   2
   5   4  -7 40.8692 8.37820   4
  -5  -4   7 35.8066 7.39530   2
  -5  -4   7 29.3304 8.30833   3
   4   4  -7 0.24004 4.40916   4
  -4  -4   7 -4.3397 5.18630   3
  -4  -4   7 9.09497 5.53804   2
   3   4  -7 596.372 22.4828   4
  -3  -4   7 604.723 23.3874   2
  -3  -4   7 617.359 23.8822   3
   2   4  -7 4.73241 4.72093   4
  -2  -4   7 5.22583 4.94165   3
  -2  -4   7 10.3949 5.49883   2
   1   4  -7 75.8045 9.06617   4
  -1  -4   7 74.1910 9.71964   2
  -1  -4   7 80.1074 4.14749   1
  -1  -4   7 76.9206 9.19525   3
   0   4  -7 489.856 17.8983   4
   0   4  -7 510.096 18.7720   3
   0  -4   7 471.383 14.8742   1
   0  -4   7 494.730 21.4949   2
  -1   4  -7 7.70148 3.92403   4
  -1   4  -7 3.25996 3.86431   3
   1  -4   7 -1.2565 4.87593   2
   1  -4   7 0.89457 3.94204   1
  -2   4  -7 34.5439 6.31634   3
  -2   4  -7 48.7250 5.42656   4
   2  -4   7 41.6109 6.92712   1
   2  -4   7 47.0433 8.47175   2
  -3   4  -7 71.6601 9.04965   3
  -3   4  -7 98.0009 6.31349   4
   3  -4   7 116.941 11.8580   1
   3  -4   7 82.7982 10.2210   2
  -4   4  -7 109.701 6.21924   4
  -4   4  -7 88.0059 10.9748   3
   4  -4   7 88.3607 11.2548   1
   4  -4   7 97.5183 11.3607   2
  -5   4  -7 20.2510 7.47675   3
   5  -4   7 14.7382 5.90788   2
   5  -4   7 6.33386 7.44935   1
  -6   4  -7 8.61594 6.92870   3
   6  -4   7 5.37764 7.89434   1
   6  -4   7 5.45326 4.93415   2
  -7   4  -7 138.087 15.9294   3
   7  -4   7 149.873 17.2537   1
   7  -4   7 133.155 12.5867   2
  -8   4  -7 25.9957 10.1788   3
   8  -4   7 27.8157 11.1164   1
  -9   4  -7 17.5237 10.8313   3
   9  -4   7 22.8419 11.5589   1
  11   3  -7 263.451 20.1213   4
  10   3  -7 139.797 16.5778   4
 -10  -3   7 132.453 16.9778   3
   9   3  -7 19.9518 7.99966   4
  -9  -3   7 8.98800 8.23497   3
   8   3  -7 10.8947 7.23789   4
  -8  -3   7 16.1291 7.48469   3
   7   3  -7 47.0192 9.85021   4
   7   3  -7 81.6749 14.1030   1
  -7  -3   7 64.7692 8.42199   2
  -7  -3   7 61.4928 10.8702   3
   6   3  -7 961.498 33.7608   4
   6   3  -7 1057.33 27.9216   1
  -6  -3   7 1016.58 34.3734   3
  -6  -3   7 985.958 31.9090   2
   5   3  -7 16.5588 4.48066   1
   5   3  -7 16.6979 6.41780   4
  -5  -3   7 23.6680 7.19192   3
  -5  -3   7 17.0403 5.80734   2
   4   3  -7 1634.99 34.0489   1
   4   3  -7 1597.97 43.9852   4
  -4  -3   7 1702.29 46.9041   2
  -4  -3   7 1688.01 45.8269   3
   3   3  -7 92.8976 10.5556   4
  -3  -3   7 125.010 10.6616   2
  -3  -3   7 107.834 11.2844   3
   2   3  -7 1357.02 36.6999   4
  -2  -3   7 1344.43 40.0555   2
  -2  -3   7 1359.11 38.2888   3
   1   3  -7 614.512 21.2973   4
  -1  -3   7 617.665 22.5352   3
  -1  -3   7 622.033 23.5850   2
   0   3  -7 514.705 18.1990   4
   0   3  -7 518.539 18.1155   3
   0  -3   7 479.803 13.5616   1
   0  -3   7 466.835 20.0497   2
  -1   3  -7 488.990 16.7716   4
   1  -3   7 529.294 16.1699   1
   1  -3   7 513.531 21.0599   2
  -2   3  -7 17.9639 5.31937   3
  -2   3  -7 12.8708 4.03768   4
   2  -3   7 24.8984 6.37513   2
   2  -3   7 24.5368 5.69007   1
  -3   3  -7 218.537 9.23733   4
  -3   3  -7 213.351 12.4971   3
   3  -3   7 202.167 12.1300   1
   3  -3   7 214.617 12.9933   2
  -4   3  -7 98.5572 6.57520   4
  -4   3  -7 121.686 10.3573   3
   4  -3   7 102.643 11.1284   1
   4  -3   7 113.991 11.0027   2
  -5   3  -7 56.4647 9.51012   3
  -5   3  -7 47.2144 5.31019   4
   5  -3   7 47.5360 7.74785   2
   5  -3   7 57.3011 9.76814   1
  -6   3  -7 537.668 23.9243   3
   6  -3   7 525.045 24.2324   1
   6  -3   7 574.375 21.7338   2
  -7   3  -7 75.5874 12.4311   3
   7  -3   7 91.8684 13.7161   1
   7  -3   7 94.7863 9.74302   2
  -8   3  -7 784.323 32.1430   3
   8  -3   7 760.120 33.3140   1
  -9   3  -7 -7.5521 8.39876   3
   9  -3   7 5.06741 9.88960   1
 -10   3  -7 5.59636 9.16322   3
  10  -3   7 1.50757 11.5744   1
  10   2  -7 36.1576 9.52098   4
 -10  -2   7 40.2363 11.4000   3
   9   2  -7 6.00588 6.33623   4
  -9  -2   7 20.0966 8.53021   3
   8   2  -7 46.0592 9.75413   4
   8   2  -7 50.1461 9.65150   1
  -8  -2   7 59.6859 11.2241   3
   7   2  -7 35.3448 8.82613   4
   7   2  -7 57.0904 8.96937   1
  -7  -2   7 54.8510 7.75307   2
  -7  -2   7 53.5197 10.6377   3
   6   2  -7 9.94088 5.85855   1
   6   2  -7 1.83802 5.04108   4
  -6  -2   7 1.83438 6.03746   3
  -6  -2   7 0.86341 5.08620   2
   5   2  -7 64.6550 7.60813   1
   5   2  -7 65.7797 9.82539   4
  -5  -2   7 75.9319 10.3296   3
  -5  -2   7 69.3321 8.52547   2
   4   2  -7 21.2825 6.24179   4
   4   2  -7 14.1893 3.87208   1
  -4  -2   7 8.52390 5.43363   3
  -4  -2   7 11.3670 5.02789   2
   3   2  -7 697.932 24.4166   4
   3   2  -7 698.948 15.8207   1
  -3  -2   7 678.881 23.2719   3
  -3  -2   7 699.408 23.9720   2
   2   2  -7 55.9185 8.06618   4
  -2  -2   7 74.7464 8.77587   3
  -2  -2   7 65.7783 7.85169   2
   1   2  -7 0.46770 4.89347   4
  -1  -2   7 3.15284 4.55583   2
  -1  -2   7 29.5569 6.33813   3
   0   2  -7 3618.94 75.8025   4
   0  -2   7 3596.88 82.3859   3
   0  -2   7 3730.49 71.6756   1
   0  -2   7 3668.54 91.5159   2
  -1   2  -7 -0.3567 2.68696   3
  -1   2  -7 -0.4712 3.64524   4
   1  -2   7 7.36454 3.21377   1
   1  -2   7 1.34800 4.56350   2
  -2   2  -7 97.4580 7.40954   4
  -2   2  -7 81.3247 7.94837   3
   2  -2   7 88.6139 7.32249   1
   2  -2   7 86.4354 9.02762   2
  -3   2  -7 1479.44 39.0335   3
  -3   2  -7 1477.89 33.4313   4
   3  -2   7 1481.52 37.0579   1
   3  -2   7 1435.25 42.1398   2
  -4   2  -7 32.8045 6.90993   3
  -4   2  -7 35.3136 4.78752   4
   4  -2   7 29.8458 6.96311   1
   4  -2   7 31.9829 6.14146   2
  -5   2  -7 78.7668 6.74443   4
  -5   2  -7 101.467 11.1135   3
   5  -2   7 80.5134 10.7663   1
   5  -2   7 83.4598 8.92283   2
  -6   2  -7 1.57529 5.97861   3
  -6   2  -7 2.75174 3.24232   4
   6  -2   7 3.05838 3.97444   2
   6  -2   7 3.48501 6.59536   1
  -7   2  -7 4.24947 3.88184   4
  -7   2  -7 -1.5333 6.26723   3
   7  -2   7 4.09138 4.02875   2
   7  -2   7 -3.5625 6.57579   1
  -8   2  -7 15.4713 7.99756   3
   8  -2   7 33.5785 10.4269   1
  -9   2  -7 10.0529 8.63873   3
   9  -2   7 6.04118 9.16341   1
 -10   2  -7 65.1523 13.1996   3
  10  -2   7 61.6123 13.9560   1
  11  -2   7 41.2288 14.3673   1
  10   1  -7 10.4645 7.40599   4
 -10  -1   7 -2.9521 7.99204   3
   9   1  -7 317.897 19.7109   4
   9   1  -7 294.430 19.8488   1
  -9  -1   7 318.601 20.5062   3
   8   1  -7 110.820 13.1540   4
   8   1  -7 110.875 13.2848   1
  -8  -1   7 86.6059 12.3362   3
   7   1  -7 820.766 29.5656   4
   7   1  -7 785.065 28.1539   1
  -7  -1   7 813.860 27.2127   2
  -7  -1   7 789.875 29.9260   3
   6   1  -7 46.9869 8.89214   1
   6   1  -7 61.8192 9.81652   4
  -6  -1   7 46.2025 7.54623   2
  -6  -1   7 51.2991 9.71724   3
   5   1  -7 8.10529 5.42623   4
   5   1  -7 7.90116 5.38709   1
  -5  -1   7 -3.2808 4.86022   3
  -5  -1   7 7.38893 4.71718   2
   4   1  -7 129.114 9.17492   1
   4   1  -7 119.369 12.1089   4
  -4  -1   7 119.911 10.2832   3
  -4  -1   7 113.316 9.48526   2
   3   1  -7 31.3964 4.58480   1
   3   1  -7 40.9389 7.86036   4
  -3  -1   7 37.1090 6.53973   2
  -3  -1   7 33.2054 6.32076   3
   2   1  -7 1568.34 32.8055   1
   2   1  -7 1557.22 40.5365   4
  -2  -1   7 1536.04 43.2140   2
  -2  -1   7 1612.99 40.4515   3
   1   1  -7 88.4555 9.72661   4
  -1  -1   7 58.5001 7.43353   3
  -1  -1   7 46.3098 6.76265   2
   0   1  -7 1170.67 31.5300   4
   0  -1   7 1230.78 32.4002   3
   0  -1   7 1198.01 35.3167   2
   0  -1   7 1257.45 25.7599   1
  -1   1  -7 939.565 25.4595   3
  -1   1  -7 940.349 25.5775   4
   1  -1   7 985.509 22.6503   1
   1  -1   7 975.985 29.4669   2
  -2   1  -7 771.936 21.8313   4
  -2   1  -7 785.676 22.6335   3
   2  -1   7 801.121 25.8665   2
   2  -1   7 809.072 21.4874   1
  -3   1  -7 94.9506 7.13295   4
  -3   1  -7 90.6109 7.65527   3
   3  -1   7 78.9398 7.94413   2
   3  -1   7 88.1893 7.69399   1
  -4   1  -7 9.54573 3.61643   4
  -4   1  -7 6.27400 4.31820   3
   4  -1   7 6.96183 4.05692   2
   4  -1   7 2.54035 4.65473   1
  -5   1  -7 379.904 16.7410   3
  -5   1  -7 370.843 13.5813   4
   5  -1   7 359.545 16.8101   1
   5  -1   7 386.785 15.4819   2
  -6   1  -7 344.281 17.6465   3
  -6   1  -7 383.746 14.3833   4
   6  -1   7 385.848 15.5285   2
   6  -1   7 400.283 19.5702   1
  -7   1  -7 23.5022 5.26775   4
  -7   1  -7 35.3082 8.67193   3
   7  -1   7 24.9593 5.30254   2
   7  -1   7 17.9529 8.00855   1
  -8   1  -7 13.8238 7.18373   3
  -8   1  -7 6.18981 4.63743   4
   8  -1   7 7.22145 8.10186   1
  -9   1  -7 135.037 14.7139   3
   9  -1   7 117.486 15.4406   1
 -10   1  -7 218.484 18.1682   3
  10  -1   7 194.745 20.4855   1
 -11   1  -7 294.223 21.7817   3
  11  -1   7 308.673 25.0817   1
  10   0  -7 59.3701 13.9889   1
  10   0  -7 51.6394 10.6659   4
 -10   0   7 19.8149 9.49890   3
   9   0  -7 4.06516 8.31328   1
   9   0  -7 9.70618 7.36669   4
  -9   0   7 -2.9899 7.58924   3
   8   0  -7 19.1207 8.42065   1
   8   0  -7 12.4585 6.67917   4
  -8   0   7 25.4186 8.83829   3
   7   0  -7 290.640 18.0807   1
   7   0  -7 332.567 18.1826   4
  -7   0   7 331.738 19.5237   3
  -7   0   7 309.200 15.5039   2
   6   0  -7 -3.9352 5.69441   1
   6   0  -7 -6.8641 4.12658   4
  -6   0   7 4.55197 4.79674   2
  -6   0   7 15.4804 6.78640   3
   5   0  -7 243.423 15.1858   1
   5   0  -7 247.201 14.9356   4
  -5   0   7 238.957 14.2455   3
  -5   0   7 232.668 12.8698   2
   4   0  -7 1193.39 34.9524   4
   4   0  -7 1162.67 32.1496   1
  -4   0   7 1162.40 34.9725   2
  -4   0   7 1217.55 34.0386   3
   3   0  -7 708.029 24.0998   4
   3   0  -7 710.752 21.3395   1
  -3   0   7 716.121 22.5236   3
  -3   0   7 665.260 23.1863   2
   2   0  -7 243.600 10.0068   1
   2   0  -7 231.584 13.3901   4
  -2   0   7 231.657 12.2218   2
  -2   0   7 230.706 11.1227   3
   1   0  -7 44.6656 4.59207   1
   1   0  -7 42.5048 7.06715   4
  -1   0   7 60.5145 6.68345   3
  -1   0   7 46.2743 6.64713   2
   0   0  -7 1251.27 31.6056   4
   0   0  -7 1209.44 26.5602   1
   0   0   7 1173.79 34.3789   2
   0   0   7 1236.62 30.5172   3
  -1   0  -7 806.519 20.6473   3
  -1   0  -7 777.166 22.5828   4
   1   0   7 784.996 19.1924   1
   1   0   7 783.772 24.6401   2
  -2   0  -7 658.411 19.8076   4
  -2   0  -7 681.415 18.6568   3
   2   0   7 660.803 17.9736   1
   2   0   7 618.605 21.5014   2
  -3   0  -7 611.519 18.2123   4
  -3   0  -7 577.801 17.9302   3
   3   0   7 566.959 17.9026   1
   3   0   7 586.943 20.2222   2
  -4   0  -7 538.656 18.0081   3
  -4   0  -7 514.717 16.8226   4
   4   0   7 527.563 18.4304   1
   4   0   7 531.592 18.4586   2
  -5   0  -7 2.28902 3.24629   4
  -5   0  -7 4.34047 4.30930   3
   5   0   7 2.04454 3.20017   2
   5   0   7 6.21299 4.55483   1
  -6   0  -7 214.734 13.3540   3
  -6   0  -7 207.325 11.1365   4
   6   0   7 217.294 14.1287   1
   6   0   7 224.554 10.5631   2
  -7   0  -7 45.1982 8.42639   3
  -7   0  -7 42.7282 6.59363   4
   7   0   7 51.2975 5.71893   2
   7   0   7 57.8718 9.71198   1
  -8   0  -7 579.433 23.6985   3
  -8   0  -7 537.383 20.2433   4
   8   0   7 504.167 24.1531   1
  -9   0  -7 26.2745 8.59987   3
  -9   0  -7 41.0573 7.49118   4
   9   0   7 32.1989 9.84400   1
 -10   0  -7 74.3594 12.1506   3
 -10   0  -7 68.3038 9.76692   4
  10   0   7 62.6566 12.6785   1
 -11   0  -7 103.302 14.5826   3
  11   0   7 132.480 17.5452   1
   9  -1  -7 102.756 13.2745   4
   9  -1  -7 118.761 16.6757   1
  -9   1   7 121.966 15.5323   3
   8  -1  -7 9.07222 6.04572   4
   8  -1  -7 4.59259 8.59352   1
  -8   1   7 13.0785 8.03223   3
   7  -1  -7 75.8887 10.9931   4
   7  -1  -7 59.5752 11.7611   1
  -7   1   7 68.9727 8.80276   2
  -7   1   7 48.0644 10.0624   3
   6  -1  -7 20.4874 6.78788   4
   6  -1  -7 -0.5000 6.63650   1
  -6   1   7 13.7051 5.36109   2
  -6   1   7 4.76850 6.49415   3
   5  -1  -7 934.875 30.8643   1
   5  -1  -7 969.338 30.0463   4
  -5   1   7 915.633 29.8914   2
  -5   1   7 926.381 30.3232   3
   4  -1  -7 129.428 11.0645   4
   4  -1  -7 140.632 12.0698   1
  -4   1   7 169.638 11.6970   3
  -4   1   7 135.789 10.3319   2
   3  -1  -7 446.164 18.3280   4
   3  -1  -7 442.095 17.9773   1
  -3   1   7 430.352 16.7708   3
  -3   1   7 460.038 17.6662   2
   2  -1  -7 135.009 9.36997   1
   2  -1  -7 120.701 10.3237   4
  -2   1   7 141.044 8.54527   3
  -2   1   7 138.749 9.57846   2
   1  -1  -7 934.986 26.9214   4
   1  -1  -7 914.262 24.4278   1
  -1   1   7 976.987 28.9423   2
  -1   1   7 928.730 24.6708   3
   0  -1  -7 173.876 8.50225   1
   0  -1  -7 172.130 10.7129   4
   0   1   7 175.093 8.10832   3
   0   1   7 153.164 9.84432   2
  -1  -1  -7 356.479 14.0186   4
  -1  -1  -7 350.978 11.6122   1
  -1  -1  -7 351.590 10.2814   3
   1   1   7 344.293 14.3380   2
  -2  -1  -7 9.43740 4.34922   4
  -2  -1  -7 9.90989 2.55792   3
   2   1   7 8.04445 2.91405   1
   2   1   7 10.2514 4.33355   2
  -3  -1  -7 3569.44 72.1589   4
  -3  -1  -7 3583.03 75.9736   3
   3   1   7 3522.16 74.0098   1
   3   1   7 3517.72 86.0099   2
  -4  -1  -7 961.766 26.0947   3
  -4  -1  -7 1003.73 26.3414   4
   4   1   7 991.469 28.2281   2
   4   1   7 977.925 27.0417   1
  -5  -1  -7 340.488 14.0020   4
  -5  -1  -7 329.553 13.8948   3
   5   1   7 309.833 14.6037   1
   5   1   7 334.424 13.0687   2
  -6  -1  -7 66.9991 7.80775   4
  -6  -1  -7 61.7324 8.20894   3
   6   1   7 67.1638 6.12871   2
   6   1   7 58.6438 8.20629   1
  -7  -1  -7 15.0427 5.74951   3
  -7  -1  -7 13.3248 4.94516   4
   7   1   7 19.3997 3.62442   2
   7   1   7 14.2342 6.75107   1
  -8  -1  -7 385.675 17.0630   4
  -8  -1  -7 387.847 18.7704   3
   8   1   7 367.476 19.8243   1
  -9  -1  -7 172.770 12.6491   4
  -9  -1  -7 158.090 13.5766   3
   9   1   7 152.576 16.2485   1
 -10  -1  -7 18.2436 6.61228   4
 -10  -1  -7 13.0903 7.62991   3
  10   1   7 22.4549 9.35380   1
 -11  -1  -7 45.0584 9.06031   4
 -11  -1  -7 36.7674 10.7426   3
  11   1   7 69.4045 13.8599   1
 -12  -1  -7 3.20537 8.52078   3
  12   1   7 1.56905 10.0946   1
   9  -2  -7 -3.9112 8.51091   1
  -9   2   7 1.32306 8.74747   3
   8  -2  -7 15.7563 9.27299   1
   8  -2  -7 8.99709 6.21522   4
  -8   2   7 -8.9868 6.41507   3
   7  -2  -7 700.608 29.4231   1
   7  -2  -7 688.547 26.3932   4
  -7   2   7 689.440 28.1449   3
  -7   2   7 691.135 25.6219   2
   6  -2  -7 13.8595 8.00371   1
   6  -2  -7 13.9487 6.27569   4
  -6   2   7 6.70664 5.07612   2
  -6   2   7 -3.0488 5.97731   3
   5  -2  -7 26.2196 8.81452   1
   5  -2  -7 29.7641 6.98111   4
  -5   2   7 32.6455 7.65107   3
  -5   2   7 29.1968 6.41029   2
   4  -2  -7 480.243 21.7752   1
   4  -2  -7 477.642 19.3313   4
  -4   2   7 495.412 19.4671   3
  -4   2   7 471.620 19.4832   2
   3  -2  -7 456.575 18.1338   4
   3  -2  -7 452.640 20.0412   1
  -3   2   7 443.427 18.2785   2
  -3   2   7 432.842 16.5763   3
   2  -2  -7 291.990 14.3952   1
   2  -2  -7 320.467 14.4293   4
  -2   2   7 314.717 14.3161   2
  -2   2   7 280.116 12.0220   3
   1  -2  -7 172.842 10.6070   1
   1  -2  -7 124.959 9.63879   4
  -1   2   7 135.181 7.31074   3
  -1   2   7 134.125 9.55747   2
   0  -2  -7 264.748 11.8459   1
   0  -2  -7 249.959 12.4667   4
   0   2   7 244.865 12.4137   2
   0   2   7 258.959 8.85501   3
  -1  -2  -7 1.12791 3.31445   1
  -1  -2  -7 1.57375 1.24088   3
  -1  -2  -7 -4.4046 3.67816   4
   1   2   7 -1.8613 3.50260   2
  -2  -2  -7 23.2606 4.60388   1
  -2  -2  -7 17.0792 4.95482   4
  -2  -2  -7 20.5397 2.30547   3
   2   2   7 13.1900 4.36166   2
  -3  -2  -7 683.987 17.3971   3
  -3  -2  -7 680.144 20.5726   4
   3   2   7 708.313 20.0797   1
   3   2   7 680.979 21.5575   2
  -4  -2  -7 160.019 9.79601   4
  -4  -2  -7 151.070 7.86443   3
   4   2   7 154.091 9.35839   1
   4   2   7 144.622 8.73186   2
  -5  -2  -7 44.5550 6.61652   4
  -5  -2  -7 43.0317 5.90574   3
   5   2   7 58.1491 7.84592   1
   5   2   7 45.6079 5.39989   2
  -6  -2  -7 424.197 16.6824   3
  -6  -2  -7 428.388 16.9273   4
   6   2   7 453.153 14.6293   2
   6   2   7 445.809 18.2727   1
  -7  -2  -7 5.23079 4.78989   4
  -7  -2  -7 6.24608 5.25855   3
   7   2   7 13.3277 5.72952   1
   7   2   7 6.87652 2.49243   2
  -8  -2  -7 79.8880 9.76014   4
  -8  -2  -7 85.0359 10.3832   3
   8   2   7 87.1086 11.8877   1
  -9  -2  -7 18.4035 6.31658   4
  -9  -2  -7 19.2114 7.01439   3
   9   2   7 19.1280 8.16335   1
 -10  -2  -7 4.34775 6.34318   3
 -10  -2  -7 5.23656 5.32610   4
  10   2   7 -1.0714 6.60434   1
 -11  -2  -7 164.947 16.5419   3
 -11  -2  -7 157.667 15.1572   4
  11   2   7 163.868 17.7247   1
 -12  -2  -7 50.1313 11.2156   3
 -12  -2  -7 49.6198 9.98991   4
  12   2   7 83.1495 14.9090   1
   9  -3  -7 0.45135 10.1658   1
  -9   3   7 0.34886 7.96975   3
   8  -3  -7 133.691 17.3033   1
  -8   3   7 128.636 15.3618   3
   7  -3  -7 34.0857 7.84227   4
   7  -3  -7 29.3108 10.5502   1
  -7   3   7 11.4798 7.68132   3
  -7   3   7 38.7540 7.80943   2
   6  -3  -7 75.3596 12.6122   1
   6  -3  -7 97.1944 11.1602   4
  -6   3   7 86.1808 9.78316   2
  -6   3   7 86.7426 11.4532   3
   5  -3  -7 22.8406 9.12075   1
   5  -3  -7 17.4551 6.02038   4
  -5   3   7 25.5454 7.12142   3
  -5   3   7 10.5672 5.15547   2
   4  -3  -7 852.969 32.1287   1
   4  -3  -7 866.775 26.4650   4
  -4   3   7 870.314 27.4828   3
  -4   3   7 834.289 28.9593   2
   3  -3  -7 16.6077 5.36123   4
   3  -3  -7 14.9032 7.52231   1
  -3   3   7 12.1177 4.41379   2
  -3   3   7 9.13698 4.89696   3
   2  -3  -7 967.295 31.0025   1
   2  -3  -7 978.095 27.0418   4
  -2   3   7 961.507 26.4441   3
  -2   3   7 961.600 30.6101   2
   1  -3  -7 58.9899 7.29760   4
   1  -3  -7 44.7883 7.96448   1
  -1   3   7 50.7632 5.46140   3
  -1   3   7 60.4569 7.72725   2
   0  -3  -7 1738.55 39.6382   4
   0  -3  -7 1706.55 42.5537   1
   0   3   7 1743.85 37.4402   3
   0   3   7 1649.64 46.3901   2
  -1  -3  -7 1417.14 35.4338   1
  -1  -3  -7 1405.23 33.8673   4
   1   3   7 1402.46 39.2569   2
  -2  -3  -7 581.887 18.6117   1
  -2  -3  -7 573.308 18.2133   4
   2   3   7 538.040 19.0370   2
  -3  -3  -7 251.947 12.0278   1
  -3  -3  -7 256.702 7.47096   3
  -3  -3  -7 243.015 11.9279   4
   3   3   7 257.465 11.6689   2
  -4  -3  -7 432.837 13.1721   3
  -4  -3  -7 450.152 16.5242   4
   4   3   7 406.777 15.6528   1
   4   3   7 430.776 15.3708   2
  -5  -3  -7 215.329 9.79964   3
  -5  -3  -7 203.618 11.6912   4
   5   3   7 221.331 9.84303   2
   5   3   7 224.618 11.7987   1
  -6  -3  -7 1097.91 30.7668   4
  -6  -3  -7 1080.63 29.7749   3
   6   3   7 1060.33 31.3967   1
   6   3   7 1126.86 29.3445   2
  -7  -3  -7 465.012 18.9049   4
  -7  -3  -7 452.672 18.2231   3
   7   3   7 474.043 13.7579   2
   7   3   7 446.499 19.3503   1
  -8  -3  -7 1040.89 32.1894   4
  -8  -3  -7 1068.64 32.5143   3
   8   3   7 1055.53 33.9685   1
  -9  -3  -7 128.453 12.7045   3
  -9  -3  -7 124.587 12.4755   4
   9   3   7 130.402 13.7687   1
 -10  -3  -7 585.459 24.5955   4
 -10  -3  -7 624.420 25.0382   3
  10   3   7 576.143 26.1066   1
 -11  -3  -7 1.91995 5.72656   4
 -11  -3  -7 2.39615 6.54359   3
  11   3   7 7.03683 7.95944   1
 -12  -3  -7 183.461 17.8650   3
 -12  -3  -7 143.003 15.4285   4
  12   3   7 186.767 19.4113   1
   8  -4  -7 6.66729 10.3231   1
  -8   4   7 17.3108 9.37304   3
   7  -4  -7 -12.534 7.92319   1
  -7   4   7 7.24658 5.63636   2
  -7   4   7 8.12951 7.35573   3
   6  -4  -7 113.831 15.9640   1
  -6   4   7 123.765 13.7092   3
  -6   4   7 139.874 12.0583   2
   5  -4  -7 265.027 14.2929   4
   5  -4  -7 249.718 19.8713   1
  -5   4   7 276.190 16.1841   3
  -5   4   7 265.932 15.2344   2
   4  -4  -7 19.3179 5.86512   4
   4  -4  -7 26.6652 9.67286   1
  -4   4   7 17.3640 6.63452   3
  -4   4   7 30.0823 6.54031   2
   3  -4  -7 372.782 21.0653   1
   3  -4  -7 358.721 15.3188   4
  -3   4   7 379.506 17.4760   2
  -3   4   7 364.201 16.0585   3
   2  -4  -7 108.421 9.00953   4
   2  -4  -7 112.957 13.4171   1
  -2   4   7 88.1623 9.62180   2
  -2   4   7 105.628 9.04808   3
   1  -4  -7 211.801 10.9527   4
   1  -4  -7 210.251 14.8472   1
  -1   4   7 218.020 12.4828   2
  -1   4   7 215.990 9.76560   3
   0  -4  -7 328.016 13.1709   4
   0  -4  -7 338.979 16.4425   1
   0   4   7 317.743 10.3978   3
   0   4   7 323.601 14.9038   2
  -1  -4  -7 51.9124 6.55514   4
  -1  -4  -7 57.9013 7.98300   1
   1   4   7 55.1037 7.26535   2
  -2  -4  -7 138.932 8.87592   4
  -2  -4  -7 120.513 10.0295   1
   2   4   7 128.339 8.88060   2
  -3  -4  -7 43.1963 6.89213   1
  -3  -4  -7 38.5510 6.02265   4
   3   4   7 53.9436 6.64030   2
  -4  -4  -7 70.2109 4.77761   3
  -4  -4  -7 64.3813 7.76097   4
   4   4   7 77.0685 8.21872   1
   4   4   7 74.8185 6.98509   2
  -5  -4  -7 699.956 22.1106   4
  -5  -4  -7 705.387 19.4254   3
   5   4   7 639.099 21.9754   1
   5   4   7 689.333 21.1218   2
  -6  -4  -7 3.12266 4.23210   4
  -6  -4  -7 3.79264 3.75677   3
   6   4   7 9.47208 4.60960   1
   6   4   7 5.12957 3.35602   2
  -7  -4  -7 193.736 12.6105   4
  -7  -4  -7 177.068 11.1228   3
   7   4   7 182.072 8.07511   2
   7   4   7 180.477 12.4665   1
  -8  -4  -7 27.2703 6.59442   3
  -8  -4  -7 18.3718 6.39399   4
   8   4   7 15.9005 6.45730   1
  -9  -4  -7 -1.0249 4.94999   4
  -9  -4  -7 6.79990 5.56546   3
   9   4   7 1.90128 5.42786   1
 -10  -4  -7 10.8137 6.42526   4
 -10  -4  -7 17.7103 7.12961   3
  10   4   7 14.1101 6.97776   1
 -11  -4  -7 31.4723 8.74817   3
 -11  -4  -7 26.5718 8.63427   4
  11   4   7 46.5172 10.9783   1
 -12  -4  -7 90.6773 12.8586   3
 -12  -4  -7 60.5656 11.4297   4
  12   4   7 105.257 14.7385   1
 -13  -4  -7 50.4604 11.1860   3
 -13  -4  -7 41.9891 10.3204   4
  13   4   7 45.2485 12.4636   1
   7  -5  -7 314.047 25.5357   1
  -7   5   7 354.846 21.4788   3
  -7   5   7 380.255 19.7004   2
   6  -5  -7 33.8780 11.9619   1
  -6   5   7 22.3110 8.23140   3
  -6   5   7 22.0438 6.62033   2
   5  -5  -7 453.232 25.9247   1
  -5   5   7 433.508 20.5381   3
  -5   5   7 378.400 19.6871   2
   4  -5  -7 8.21546 8.90678   1
   4  -5  -7 0.66290 4.15195   4
  -4   5   7 -1.0119 4.07734   2
  -4   5   7 14.1243 6.48953   3
   3  -5  -7 22.4628 5.21514   4
   3  -5  -7 8.64160 8.45274   1
  -3   5   7 25.5394 6.72486   3
  -3   5   7 9.95213 5.18352   2
   2  -5  -7 145.911 16.6882   1
   2  -5  -7 161.700 9.95949   4
  -2   5   7 152.231 11.5352   2
  -2   5   7 154.438 10.5247   3
   1  -5  -7 180.845 10.0832   4
   1  -5  -7 173.564 15.3739   1
  -1   5   7 166.735 11.4852   2
  -1   5   7 163.974 9.42833   3
   0  -5  -7 1344.36 40.1733   1
   0  -5  -7 1318.75 32.7851   4
   0   5   7 1391.68 41.0982   2
   0   5   7 1418.30 32.2802   3
  -1  -5  -7 9.44530 5.96394   1
  -1  -5  -7 17.9605 4.30420   4
   1   5   7 13.9080 2.75367   3
   1   5   7 7.92855 4.18645   2
  -2  -5  -7 72.0076 7.52182   4
  -2  -5  -7 71.9459 9.78835   1
   2   5   7 48.3297 6.71309   2
  -3  -5  -7 1124.28 32.2435   1
  -3  -5  -7 1132.83 29.7592   4
   3   5   7 1111.48 33.1175   2
  -4  -5  -7 703.942 22.1154   4
  -4  -5  -7 710.703 23.7738   1
  -4  -5  -7 691.477 17.5907   3
   4   5   7 697.602 22.9702   2
  -5  -5  -7 2051.49 48.1124   4
  -5  -5  -7 2073.38 45.9694   3
   5   5   7 2016.02 49.7622   1
   5   5   7 1984.46 52.2282   2
  -6  -5  -7 144.380 8.81447   3
  -6  -5  -7 139.360 11.0423   4
   6   5   7 149.437 8.26839   2
   6   5   7 128.993 10.2883   1
  -7  -5  -7 247.601 15.0329   4
  -7  -5  -7 270.378 12.9383   3
   7   5   7 289.290 15.2640   1
   7   5   7 278.320 10.9449   2
  -8  -5  -7 14.1844 5.49540   3
  -8  -5  -7 11.5474 5.97378   4
   8   5   7 15.3885 6.37970   1
  -9  -5  -7 235.719 15.7359   4
  -9  -5  -7 199.712 13.2171   3
   9   5   7 210.136 14.7655   1
 -10  -5  -7 56.9577 10.1675   4
 -10  -5  -7 60.4730 9.67938   3
  10   5   7 72.0581 11.4944   1
 -11  -5  -7 145.055 15.8024   4
 -11  -5  -7 147.891 14.6293   3
  11   5   7 140.181 15.6110   1
 -12  -5  -7 139.848 15.7635   4
 -12  -5  -7 150.884 16.0264   3
  12   5   7 176.413 18.4563   1
 -13  -5  -7 90.7468 14.1006   4
 -13  -5  -7 138.300 16.1137   3
  13   5   7 127.995 16.7228   1
   7  -6  -7 23.6150 12.6506   1
  -7   6   7 33.9728 8.28950   2
  -7   6   7 4.91340 7.84453   3
   6  -6  -7 16.0913 11.0276   1
  -6   6   7 22.4692 7.33604   2
  -6   6   7 9.53772 8.19287   3
   5  -6  -7 12.8926 10.0125   1
  -5   6   7 18.6960 6.94751   2
  -5   6   7 27.2382 8.52136   3
   4  -6  -7 5.40134 8.59268   1
  -4   6   7 9.50113 5.69554   2
  -4   6   7 5.09033 6.38582   3
   3  -6  -7 166.793 18.9981   1
  -3   6   7 161.336 12.8689   2
  -3   6   7 145.530 11.6999   3
   2  -6  -7 328.416 13.1439   4
   2  -6  -7 319.396 21.3508   1
  -2   6   7 312.266 17.3558   2
  -2   6   7 290.151 14.2352   3
   1  -6  -7 13.7373 8.91401   1
   1  -6  -7 5.45250 4.00051   4
  -1   6   7 7.63561 4.64766   3
  -1   6   7 15.5638 5.52272   2
   0  -6  -7 143.723 15.4724   1
   0  -6  -7 114.162 8.43717   4
   0   6   7 123.616 8.02634   3
   0   6   7 116.073 10.4563   2
  -1  -6  -7 67.2963 9.88486   1
  -1  -6  -7 85.9952 7.98246   4
   1   6   7 61.5357 8.50459   2
   1   6   7 67.7419 5.67434   3
  -2  -6  -7 25.0505 7.22008   1
  -2  -6  -7 26.7750 5.50718   4
   2   6   7 24.7162 5.61333   2
   2   6   7 32.0128 3.19866   3
  -3  -6  -7 2.82824 3.72775   4
  -3  -6  -7 -0.9160 4.78084   1
   3   6   7 5.70126 1.67087   3
   3   6   7 0.49111 3.53906   2
  -4  -6  -7 690.924 22.3108   4
  -4  -6  -7 696.068 24.3221   1
  -4  -6  -7 705.545 17.9877   3
   4   6   7 660.700 23.3288   2
  -5  -6  -7 195.207 12.0355   4
  -5  -6  -7 197.379 13.1865   1
  -5  -6  -7 206.452 9.17295   3
   5   6   7 178.213 10.3441   2
  -6  -6  -7 20.5137 4.90671   3
  -6  -6  -7 27.7733 6.41191   4
   6   6   7 27.8748 4.93020   2
   6   6   7 13.0293 5.02382   1
  -7  -6  -7 222.774 11.6372   3
  -7  -6  -7 204.888 13.8759   4
   7   6   7 227.920 10.5202   2
   7   6   7 230.218 13.9353   1
  -8  -6  -7 671.265 26.0279   4
  -8  -6  -7 696.301 23.1998   3
   8   6   7 660.883 25.2462   1
  -9  -6  -7 166.548 13.9805   4
  -9  -6  -7 179.797 12.6827   3
   9   6   7 177.126 13.9940   1
 -10  -6  -7 108.084 11.6452   3
 -10  -6  -7 86.6254 12.0810   4
  10   6   7 129.143 14.1233   1
 -11  -6  -7 257.155 16.1978   3
 -11  -6  -7 215.117 17.3179   4
  11   6   7 241.434 17.4259   1
 -12  -6  -7 80.9850 13.2715   4
 -12  -6  -7 84.2659 12.1589   3
  12   6   7 93.9684 13.7928   1
 -13  -6  -7 38.8356 9.95490   3
 -13  -6  -7 19.5348 8.76514   4
  13   6   7 53.0125 11.9110   1
   6  -7  -7 16.1530 12.0642   1
  -6   7   7 6.57536 9.11875   3
  -6   7   7 22.2456 7.41307   2
   5  -7  -7 61.3870 13.9577   1
  -5   7   7 68.0431 10.7892   2
  -5   7   7 71.2060 11.7921   3
   4  -7  -7 33.5791 12.5014   1
  -4   7   7 44.6565 9.15356   2
  -4   7   7 33.5674 8.71826   3
   3  -7  -7 1119.49 43.2628   1
  -3   7   7 1168.16 40.1869   2
  -3   7   7 1147.79 35.3932   3
   2  -7  -7 180.525 20.0553   1
  -2   7   7 200.620 13.2707   3
  -2   7   7 217.370 15.0917   2
   1  -7  -7 9.75960 8.67635   1
   1  -7  -7 5.77895 3.90188   4
  -1   7   7 8.53345 5.65782   2
  -1   7   7 6.72622 5.30410   3
   0  -7  -7 1.28075 3.92697   4
   0  -7  -7 -4.0949 7.61768   1
   0   7   7 1.40338 4.63626   2
   0   7   7 4.39578 4.46077   3
  -1  -7  -7 9.62281 4.37860   4
  -1  -7  -7 13.0898 7.81921   1
   1   7   7 14.5529 5.69230   2
   1   7   7 15.8783 4.34760   3
  -2  -7  -7 320.484 13.4956   4
  -2  -7  -7 285.515 18.0051   1
   2   7   7 318.296 10.4660   3
   2   7   7 332.392 16.6636   2
  -3  -7  -7 69.9527 9.85524   1
  -3  -7  -7 76.8896 8.46266   4
   3   7   7 105.332 10.6781   2
   3   7   7 88.4160 5.02159   3
  -4  -7  -7 167.887 11.5443   4
  -4  -7  -7 195.758 13.8098   1
   4   7   7 172.050 11.3557   2
   4   7   7 184.574 7.02900   3
  -5  -7  -7 282.901 14.4313   4
  -5  -7  -7 320.775 12.0269   3
  -5  -7  -7 307.192 17.0993   1
   5   7   7 284.393 14.2139   2
  -6  -7  -7 396.575 15.1039   3
  -6  -7  -7 415.613 18.5904   4
   6   7   7 396.517 16.3881   2
   6   7   7 399.023 18.2255   1
  -7  -7  -7 372.228 15.4583   3
  -7  -7  -7 355.612 17.9210   4
   7   7   7 354.849 14.6918   2
   7   7   7 364.290 17.6504   1
  -8  -7  -7 222.891 15.5779   4
  -8  -7  -7 243.463 13.8252   3
   8   7   7 234.632 15.0456   1
  -9  -7  -7 101.552 10.9449   3
  -9  -7  -7 95.0683 11.9971   4
   9   7   7 96.1301 11.9413   1
 -10  -7  -7 120.268 14.1916   4
 -10  -7  -7 148.298 13.5696   3
  10   7   7 135.801 14.1604   1
 -11  -7  -7 38.4408 9.65721   4
 -11  -7  -7 44.6606 9.59123   3
  11   7   7 34.8372 8.85071   1
 -12  -7  -7 6.83699 7.12358   3
 -12  -7  -7 1.73912 7.06204   4
  12   7   7 19.4542 8.07935   1
 -13  -7  -7 23.2294 8.84715   3
 -13  -7  -7 15.9866 9.22894   4
  13   7   7 12.8420 8.89885   1
   5  -8  -7 44.2187 14.2756   1
  -5   8   7 50.2035 10.0344   2
   4  -8  -7 82.1499 15.7157   1
  -4   8   7 42.7890 9.37827   2
   3  -8  -7 11.7924 10.7326   1
  -3   8   7 10.8853 6.53446   2
   2  -8  -7 38.2127 12.0797   1
  -2   8   7 26.0040 10.9159   3
  -2   8   7 46.4390 9.41858   2
   1  -8  -7 28.9249 10.8544   1
  -1   8   7 41.8739 8.93529   2
  -1   8   7 29.9698 8.74061   3
   0  -8  -7 240.012 20.1227   1
   0  -8  -7 234.898 11.0176   4
   0   8   7 277.429 16.1025   3
   0   8   7 236.418 15.9976   2
  -1  -8  -7 16.2683 8.95441   1
  -1  -8  -7 15.3875 4.82063   4
   1   8   7 12.8678 6.12985   2
   1   8   7 32.8543 8.46143   3
  -2  -8  -7 3.46649 4.18887   4
  -2  -8  -7 5.20834 7.64094   1
   2   8   7 7.19810 5.03919   2
  -3  -8  -7 9.55200 5.01220   4
  -3  -8  -7 -1.6475 6.08307   1
   3   8   7 10.1186 4.66151   3
   3   8   7 0.95746 4.38073   2
  -4  -8  -7 44.1658 9.50296   1
  -4  -8  -7 36.1474 6.95826   4
   4   8   7 52.6997 5.15795   3
   4   8   7 34.8865 7.14512   2
  -5  -8  -7 628.094 25.7402   1
  -5  -8  -7 604.997 22.6010   4
   5   8   7 606.187 17.3787   3
   5   8   7 599.525 23.5516   2
  -6  -8  -7 385.645 19.8764   1
  -6  -8  -7 393.518 18.7159   4
  -6  -8  -7 428.583 15.6934   3
   6   8   7 367.613 17.1692   2
  -7  -8  -7 19.7941 5.73539   3
  -7  -8  -7 14.9044 6.72155   4
   7   8   7 9.66046 4.53093   2
   7   8   7 8.53049 5.35435   1
  -8  -8  -7 823.507 26.5090   3
  -8  -8  -7 782.800 29.3489   4
   8   8   7 800.641 29.0625   1
  -9  -8  -7 41.9198 8.03093   3
  -9  -8  -7 72.8377 11.6137   4
   9   8   7 46.3784 8.94805   1
 -10  -8  -7 22.0064 8.26135   4
 -10  -8  -7 15.9477 6.85285   3
  10   8   7 27.2569 7.60564   1
 -11  -8  -7 91.5626 11.9003   3
 -11  -8  -7 72.2298 12.4291   4
  11   8   7 99.6708 13.5789   1
 -12  -8  -7 4.92861 7.34399   3
 -12  -8  -7 1.79089 7.35167   4
  12   8   7 3.99621 6.55676   1
   4  -9  -7 1.86706 12.4597   1
  -4   9   7 27.3077 8.49261   2
   3  -9  -7 -4.0516 11.2975   1
  -3   9   7 1.04396 6.24535   2
   2  -9  -7 52.9048 13.7271   1
  -2   9   7 60.6127 10.9252   2
   1  -9  -7 49.4516 12.2213   1
  -1   9   7 54.1440 10.3933   2
   0  -9  -7 628.198 30.5311   1
   0   9   7 603.409 27.3753   2
  -1  -9  -7 158.510 17.1528   1
   1   9   7 180.346 14.4622   2
  -2  -9  -7 310.092 20.6347   1
  -2  -9  -7 292.693 13.4803   4
   2   9   7 299.539 17.8582   2
  -3  -9  -7 17.6295 5.55113   4
  -3  -9  -7 16.1781 8.45252   1
   3   9   7 15.3963 6.23583   2
  -4  -9  -7 30.3606 8.58905   1
  -4  -9  -7 29.0526 6.53601   4
   4   9   7 17.0104 6.00681   2
  -5  -9  -7 91.7969 12.4478   1
  -5  -9  -7 54.9631 8.66213   4
   5   9   7 80.6229 10.2450   2
  -6  -9  -7 -0.5613 6.36068   1
  -6  -9  -7 7.44528 5.46320   4
   6   9   7 3.12982 4.23434   2
  -7  -9  -7 137.530 13.5609   4
  -7  -9  -7 123.741 12.1442   3
   7   9   7 92.6565 10.8222   1
   7   9   7 126.811 10.1501   2
  -8  -9  -7 608.121 22.8346   3
  -8  -9  -7 636.343 26.2662   4
   8   9   7 614.693 25.0753   1
  -9  -9  -7 172.526 16.6394   4
  -9  -9  -7 175.766 13.1500   3
   9   9   7 175.149 14.4271   1
 -10  -9  -7 398.367 20.0169   3
 -10  -9  -7 403.963 23.1478   4
  10   9   7 402.070 20.7475   1
 -11  -9  -7 37.4257 10.2273   4
 -11  -9  -7 47.7940 9.94491   3
  11   9   7 28.2657 9.05937   1
 -12  -9  -7 271.534 18.1280   3
 -12  -9  -7 236.905 20.8271   4
  12   9   7 269.385 19.2555   1
   3 -10  -7 94.9856 16.4642   1
  -3  10   7 94.0109 13.4622   2
   2 -10  -7 14.3526 10.3622   1
  -2  10   7 12.6348 7.16473   2
   1 -10  -7 3.09308 9.45946   1
  -1  10   7 7.30216 6.68111   2
   0 -10  -7 49.0733 13.2135   1
   0  10   7 41.6454 9.76174   2
  -1 -10  -7 340.744 23.2602   1
   1  10   7 278.145 18.4443   2
  -2 -10  -7 38.6882 11.5051   1
   2  10   7 31.2038 8.50415   2
  -3 -10  -7 -5.4366 7.10146   1
  -3 -10  -7 0.70724 4.18112   4
   3  10   7 0.18887 5.20046   2
  -4 -10  -7 148.694 15.4850   1
  -4 -10  -7 157.193 11.8055   4
   4  10   7 137.062 14.0422   2
  -5 -10  -7 135.429 12.7765   4
  -5 -10  -7 132.436 15.4261   1
   5  10   7 100.010 11.7447   2
  -6 -10  -7 24.1681 8.59974   1
  -6 -10  -7 18.2955 7.09172   4
   6  10   7 19.2305 6.11956   2
  -7 -10  -7 34.6694 8.38446   4
   7  10   7 36.9151 8.23205   1
   7  10   7 44.8390 7.64797   2
  -8 -10  -7 17.3555 7.96776   4
   8  10   7 16.2933 6.73945   1
  -9 -10  -7 -7.3364 6.33585   4
   9  10   7 -0.7337 5.21977   1
 -10 -10  -7 32.2018 9.91581   4
  10  10   7 33.1379 8.56818   1
 -11 -10  -7 13.3133 8.61357   4
  11  10   7 9.83893 6.97235   1
 -12 -10  -7 9.26083 8.91642   4
  12  10   7 9.12588 7.53941   1
   1 -11  -7 18.2226 11.5205   1
  -1  11   7 24.6238 8.77048   2
   0 -11  -7 35.4861 12.1683   1
   0  11   7 34.6575 9.83689   2
  -1 -11  -7 19.4399 11.3755   1
   1  11   7 22.6310 8.09001   2
  -2 -11  -7 309.023 23.3335   1
   2  11   7 327.184 20.4516   2
  -3 -11  -7 98.9795 14.6534   1
   3  11   7 104.482 13.4008   2
  -4 -11  -7 71.3180 10.0000   4
  -4 -11  -7 44.9907 11.1868   1
   4  11   7 54.7943 10.1272   2
  -5 -11  -7 448.019 24.9552   1
  -5 -11  -7 465.337 20.4830   4
   5  11   7 485.176 23.4759   2
  -6 -11  -7 5.22980 6.29505   4
  -6 -11  -7 13.7646 8.00432   1
   6  11   7 11.5280 5.84331   2
  -7 -11  -7 386.578 20.6116   4
  -7 -11  -7 386.935 21.7263   1
   7  11   7 379.156 19.9336   2
  -8 -11  -7 243.464 17.5985   4
   8  11   7 263.269 17.4953   1
  -9 -11  -7 79.7743 12.7793   4
   9  11   7 70.7113 11.2727   1
 -10 -11  -7 7.35292 7.83897   4
  10  11   7 11.6421 6.76864   1
 -11 -11  -7 343.857 23.5129   4
  11  11   7 294.462 19.5485   1
  -1 -12  -7 70.1637 14.5943   1
   1  12   7 53.3838 11.1862   2
  -2 -12  -7 6.46252 9.83219   1
   2  12   7 9.93356 7.08535   2
  -3 -12  -7 59.0154 13.3642   1
   3  12   7 66.7142 11.8087   2
  -4 -12  -7 5.05990 8.83180   1
   4  12   7 15.9069 7.40257   2
  -5 -12  -7 15.2097 8.77457   1
   5  12   7 7.69466 6.46717   2
  -6 -12  -7 -0.2480 7.82172   1
  -6 -12  -7 4.00644 6.19803   4
   6  12   7 6.78833 6.04126   2
  -7 -12  -7 14.5319 8.89516   1
  -7 -12  -7 2.29746 6.44335   4
   7  12   7 4.39882 5.44094   2
  -8 -12  -7 -4.5922 6.36514   4
   8  12   7 14.3983 7.04298   1
  -9 -12  -7 -0.8879 7.62404   4
   9  12   7 12.4009 6.59989   1
 -10 -12  -7 26.2140 10.1800   4
  10  12   7 24.0071 7.95221   1
  -3 -13  -7 1.19690 9.75367   1
   3  13   7 -7.9173 5.01967   2
  -4 -13  -7 285.027 23.1829   1
   4  13   7 330.756 21.5836   2
  -5 -13  -7 14.1666 10.1175   1
   5  13   7 9.97346 6.63205   2
  -6 -13  -7 114.045 15.9732   1
   6  13   7 134.897 15.1336   2
  -7 -13  -7 49.1170 12.0229   1
   7  13   7 58.3482 10.1117   2
  -8 -13  -7 109.770 14.3139   4
   8  13   7 71.1017 11.2569   1
   7  11  -8 11.6555 6.93883   4
  -7 -11   8 1.20631 9.29408   3
  -7 -11   8 10.4517 8.24815   2
   6  11  -8 15.5768 6.37803   4
   6  11  -8 3.02307 5.45060   3
  -6 -11   8 8.63361 8.51882   2
   5  11  -8 9.70975 6.78579   3
  -5 -11   8 8.09510 9.04762   2
   4  11  -8 139.736 15.3424   3
  -4 -11   8 109.404 15.6065   2
   3  11  -8 103.447 13.4759   3
  -3 -11   8 93.4360 15.1031   2
   2  11  -8 -2.9798 5.52039   3
  -2 -11   8 0.30624 8.44940   2
   1  11  -8 23.4088 8.46648   3
  -1 -11   8 54.0895 12.8788   2
   0  11  -8 13.3792 7.93095   3
   0 -11   8 6.30839 9.18065   2
   8  10  -8 100.463 13.8255   4
  -8 -10   8 105.007 16.3632   3
   7  10  -8 10.2418 6.72229   4
  -7 -10   8 2.60885 9.43127   3
  -7 -10   8 2.25757 7.45877   2
   6  10  -8 75.2110 10.8597   4
  -6 -10   8 50.3245 12.8230   3
  -6 -10   8 65.2996 12.3173   2
   5  10  -8 8.19986 5.57406   4
   5  10  -8 5.31422 5.66708   3
  -5 -10   8 8.70201 7.65169   2
   4  10  -8 164.463 17.0949   4
   4  10  -8 174.520 14.7057   3
  -4 -10   8 185.244 18.6921   2
   3  10  -8 20.3014 7.32593   3
  -3 -10   8 28.5223 10.0562   2
   2  10  -8 498.133 24.3708   3
  -2 -10   8 489.512 28.5903   2
   1  10  -8 350.887 20.6078   3
  -1 -10   8 373.500 24.7265   2
   0  10  -8 68.1021 11.8918   3
   0 -10   8 67.3766 13.6708   2
  -1  10  -8 7.72168 6.94229   3
   1 -10   8 3.41981 9.00905   2
  -2  10  -8 -1.6060 6.46741   3
   2 -10   8 12.2543 9.38364   2
  -3  10  -8 25.1337 9.60866   3
   9   9  -8 4.71523 7.39980   4
  -9  -9   8 0.80463 9.41325   3
   8   9  -8 238.899 17.7638   4
  -8  -9   8 262.382 21.2422   3
   7   9  -8 246.922 17.5599   4
  -7  -9   8 247.819 18.6167   2
  -7  -9   8 261.345 21.0588   3
   6   9  -8 -0.4909 5.25820   4
  -6  -9   8 3.87643 6.88884   2
  -6  -9   8 -3.5640 7.97573   3
   5   9  -8 90.9288 11.5503   4
  -5  -9   8 100.376 13.8210   2
  -5  -9   8 68.8404 13.2922   3
   4   9  -8 42.6865 8.14068   4
   4   9  -8 40.0061 8.01428   3
  -4  -9   8 46.7789 10.6773   2
   3   9  -8 -2.0619 4.99897   3
   3   9  -8 7.95244 5.30918   4
  -3  -9   8 -2.0902 7.29791   2
   2   9  -8 17.4097 6.81901   3
  -2  -9   8 17.0894 8.67706   2
   1   9  -8 9.12114 6.27116   3
  -1  -9   8 11.8374 8.23217   2
   0   9  -8 21.0270 7.74934   3
   0  -9   8 13.1987 9.13953   2
  -1   9  -8 10.3560 7.18627   3
   1  -9   8 -0.6930 7.35440   2
  -2   9  -8 6.25104 6.47276   3
   2  -9   8 -1.2920 6.63536   1
   2  -9   8 13.0724 8.38622   2
  -3   9  -8 6.12104 6.76045   3
   3  -9   8 -4.7558 7.17252   1
   3  -9   8 2.22977 8.07589   2
  -4   9  -8 30.8461 10.0550   3
   4  -9   8 25.9191 10.6154   1
   4  -9   8 6.93819 7.64455   2
   9   8  -8 330.885 22.0430   4
  -9  -8   8 283.434 22.5268   3
   8   8  -8 125.831 15.5303   4
  -8  -8   8 103.306 16.0587   3
   7   8  -8 224.861 17.1144   4
  -7  -8   8 243.324 19.8824   3
  -7  -8   8 263.706 17.9084   2
   6   8  -8 15.9260 6.94800   4
  -6  -8   8 25.7788 9.26218   3
  -6  -8   8 18.1194 8.17346   2
   5   8  -8 23.4706 7.45564   4
  -5  -8   8 15.3135 8.92210   3
  -5  -8   8 19.7247 8.53091   2
   4   8  -8 441.855 20.0569   4
  -4  -8   8 460.559 23.7023   2
  -4  -8   8 399.895 23.3948   3
   3   8  -8 1.06981 4.38292   3
   3   8  -8 10.8888 5.52930   4
  -3  -8   8 10.6465 7.60533   2
   2   8  -8 105.237 11.9588   3
   2   8  -8 107.402 11.2465   4
  -2  -8   8 112.097 14.1847   2
   1   8  -8 38.7577 8.35091   3
  -1  -8   8 31.1636 9.49435   2
   0   8  -8 144.773 12.6240   3
   0  -8   8 124.719 15.7106   2
  -1   8  -8 764.299 29.6717   3
   1  -8   8 743.066 26.5185   1
   1  -8   8 783.116 33.7789   2
  -2   8  -8 110.588 13.0354   3
   2  -8   8 141.624 16.1955   2
   2  -8   8 142.240 13.9939   1
  -3   8  -8 438.962 23.0690   3
   3  -8   8 495.926 26.4580   2
   3  -8   8 446.609 22.5985   1
  -4   8  -8 26.9216 8.71706   3
   4  -8   8 22.4713 8.41660   2
   4  -8   8 13.2490 9.08269   1
  -5   8  -8 69.4724 12.4107   3
   5  -8   8 66.7544 12.1809   2
   5  -8   8 39.1818 11.5069   1
  10   7  -8 127.735 16.4281   4
 -10  -7   8 124.598 17.4116   3
   9   7  -8 36.6962 10.3519   4
  -9  -7   8 17.5482 9.54992   3
   8   7  -8 119.886 15.0335   4
  -8  -7   8 98.6045 14.5765   3
   7   7  -8 96.6148 13.3549   4
  -7  -7   8 105.815 12.6722   2
  -7  -7   8 70.0179 11.8672   3
   6   7  -8 10.5623 6.48926   4
  -6  -7   8 14.9298 7.12950   2
  -6  -7   8 34.2840 9.89897   3
   5   7  -8 102.540 12.0835   4
  -5  -7   8 97.8569 12.4003   2
  -5  -7   8 81.8470 12.0282   3
   4   7  -8 -1.6577 4.60026   4
  -4  -7   8 -0.0417 5.85579   2
  -4  -7   8 -3.4581 6.02429   3
   3   7  -8 18.8781 6.29360   4
  -3  -7   8 38.2319 9.40320   2
  -3  -7   8 21.5200 8.42832   3
   2   7  -8 198.359 13.7139   3
   2   7  -8 217.287 13.4792   4
  -2  -7   8 241.663 18.3350   2
   1   7  -8 22.9554 6.93006   3
   1   7  -8 19.4195 6.13848   4
  -1  -7   8 7.08399 7.79249   2
   0   7  -8 72.7948 10.7527   3
   0   7  -8 85.7582 8.74853   4
   0  -7   8 89.7599 9.26903   1
   0  -7   8 66.8196 11.2726   2
  -1   7  -8 14.1107 6.00357   3
   1  -7   8 26.5840 6.83275   1
   1  -7   8 27.4432 8.34259   2
  -2   7  -8 71.7018 11.0851   3
   2  -7   8 55.1379 10.6523   2
   2  -7   8 52.9704 9.04645   1
  -3   7  -8 12.8731 6.70429   3
   3  -7   8 34.8988 9.27876   2
   3  -7   8 25.8246 8.19457   1
  -4   7  -8 19.8667 7.52726   3
   4  -7   8 10.0948 8.52612   1
   4  -7   8 7.67819 7.34344   2
  -5   7  -8 1.27346 6.97886   3
   5  -7   8 9.14052 7.08670   2
   5  -7   8 -7.8912 7.31545   1
  -6   7  -8 42.2727 10.5394   3
   6  -7   8 44.1218 9.58857   2
   6  -7   8 19.2583 11.3788   1
  -7   7  -8 93.5030 15.0419   3
   7  -7   8 83.9085 15.9128   1
  10   6  -8 18.8416 8.65639   4
 -10  -6   8 12.5633 9.49679   3
   9   6  -8 21.3053 8.93305   4
  -9  -6   8 16.6540 10.1297   3
   8   6  -8 60.7758 11.7953   4
  -8  -6   8 76.8277 13.0815   3
   7   6  -8 575.309 26.4246   4
  -7  -6   8 589.706 24.6509   2
  -7  -6   8 543.797 26.8536   3
   6   6  -8 124.976 13.9985   4
  -6  -6   8 107.402 13.7112   3
  -6  -6   8 148.520 14.0560   2
   5   6  -8 1173.73 36.8597   4
  -5  -6   8 1157.35 38.7649   2
  -5  -6   8 1112.31 38.1451   3
   4   6  -8 51.5223 9.19657   4
  -4  -6   8 41.0803 9.16180   2
  -4  -6   8 57.6761 10.6467   3
   3   6  -8 52.0249 8.62665   4
  -3  -6   8 57.0283 10.1124   2
  -3  -6   8 42.5342 9.98821   3
   2   6  -8 138.730 12.7515   4
  -2  -6   8 147.682 14.5719   2
  -2  -6   8 165.597 15.8103   3
   1   6  -8 79.6831 9.65396   4
   1   6  -8 76.9821 9.83182   3
  -1  -6   8 69.2616 6.14580   1
  -1  -6   8 78.7340 11.7451   2
   0   6  -8 553.611 22.4933   3
   0   6  -8 555.997 19.5024   4
   0  -6   8 540.067 25.8380   2
   0  -6   8 538.294 18.3083   1
  -1   6  -8 6.24913 4.21985   4
  -1   6  -8 2.82516 5.28237   3
   1  -6   8 -0.0674 6.13905   2
   1  -6   8 -1.3829 4.78307   1
  -2   6  -8 3.63170 5.12110   3
   2  -6   8 17.7240 7.71030   2
   2  -6   8 3.14540 5.84006   1
  -3   6  -8 129.326 13.2440   3
   3  -6   8 153.816 14.3484   1
   3  -6   8 133.324 14.2978   2
  -4   6  -8 134.030 14.4539   3
   4  -6   8 146.267 15.0967   2
   4  -6   8 146.930 14.7477   1
  -5   6  -8 478.561 23.9082   3
   5  -6   8 381.203 23.1204   2
   5  -6   8 473.267 24.5197   1
  -6   6  -8 28.1254 9.44148   3
   6  -6   8 28.9404 10.6089   1
   6  -6   8 46.0599 9.50119   2
  -7   6  -8 117.850 15.7560   3
   7  -6   8 119.544 13.3956   2
   7  -6   8 120.536 16.9462   1
  10   5  -8 35.4393 10.4612   4
 -10  -5   8 3.85674 9.21390   3
   9   5  -8 16.6563 8.36883   4
  -9  -5   8 15.0054 9.52106   3
   8   5  -8 8.40018 6.87636   4
  -8  -5   8 9.44183 7.53943   3
   7   5  -8 126.745 14.9989   4
  -7  -5   8 144.521 12.9954   2
  -7  -5   8 147.493 15.6913   3
   6   5  -8 8.34031 6.33314   4
  -6  -5   8 9.55839 7.16267   3
  -6  -5   8 -4.9990 4.98378   2
   5   5  -8 58.4043 9.82603   4
  -5  -5   8 56.3326 9.40735   2
  -5  -5   8 60.7678 10.8663   3
   4   5  -8 6.97589 5.71884   4
  -4  -5   8 -2.1513 5.38362   2
  -4  -5   8 4.90458 6.67889   3
   3   5  -8 94.2903 11.4232   4
  -3  -5   8 78.7191 11.0671   3
  -3  -5   8 84.7149 10.9917   2
   2   5  -8 10.3686 5.57084   4
  -2  -5   8 17.0277 7.41155   3
  -2  -5   8 5.49065 5.80158   2
   1   5  -8 229.855 14.0887   3
   1   5  -8 257.924 14.2168   4
  -1  -5   8 256.132 8.28819   1
  -1  -5   8 232.652 15.8863   2
   0   5  -8 127.072 10.4627   4
   0   5  -8 122.841 10.7221   3
   0  -5   8 134.518 13.8545   2
   0  -5   8 112.163 8.62150   1
  -1   5  -8 42.0079 7.13122   3
  -1   5  -8 42.5377 6.60546   4
   1  -5   8 50.9466 10.1104   2
   1  -5   8 39.0367 6.96634   1
  -2   5  -8 83.1864 7.14597   4
  -2   5  -8 66.4845 9.12672   3
   2  -5   8 77.9091 11.4018   2
   2  -5   8 74.2514 9.15868   1
  -3   5  -8 1120.92 35.9503   3
   3  -5   8 1155.17 38.7425   2
   3  -5   8 1140.52 34.2919   1
  -4   5  -8 245.922 15.8245   3
   4  -5   8 245.455 16.1864   1
   4  -5   8 279.741 16.7916   2
  -5   5  -8 -0.3713 6.19175   3
   5  -5   8 1.45612 5.14776   2
   5  -5   8 6.30588 7.72575   1
  -6   5  -8 301.977 19.8749   3
   6  -5   8 325.295 21.0363   1
   6  -5   8 293.205 17.4111   2
  -7   5  -8 70.4529 12.8344   3
   7  -5   8 43.5622 8.60650   2
   7  -5   8 74.4570 14.1095   1
  -8   5  -8 -5.1122 8.51197   3
   8  -5   8 -2.5487 9.95975   1
  10   4  -8 220.537 18.9619   4
 -10  -4   8 180.759 19.9517   3
   9   4  -8 5.43437 7.15981   4
  -9  -4   8 12.5822 8.95626   3
   8   4  -8 556.285 26.3304   4
  -8  -4   8 532.312 26.3054   3
   7   4  -8 119.796 14.4451   4
  -7  -4   8 120.577 14.9878   3
  -7  -4   8 124.227 11.9547   2
   6   4  -8 1.33142 5.12785   4
  -6  -4   8 4.57090 5.21930   2
  -6  -4   8 5.28998 6.90217   3
   5   4  -8 59.5020 10.0886   4
  -5  -4   8 61.9870 10.3064   3
  -5  -4   8 69.6882 9.79569   2
   4   4  -8 122.319 12.8149   4
  -4  -4   8 110.929 11.3933   2
  -4  -4   8 93.5473 12.0039   3
   3   4  -8 891.159 29.3074   4
  -3  -4   8 863.603 30.1937   3
  -3  -4   8 859.193 30.7550   2
   2   4  -8 1456.05 39.7107   4
  -2  -4   8 1472.18 44.4156   2
  -2  -4   8 1417.85 41.7883   3
   1   4  -8 100.805 10.8143   4
  -1  -4   8 72.9259 10.2049   3
  -1  -4   8 68.8042 9.77350   2
   0   4  -8 569.673 19.9585   4
   0   4  -8 499.403 19.7622   3
   0  -4   8 539.097 15.4316   1
   0  -4   8 507.806 22.6984   2
  -1   4  -8 77.8606 8.07538   4
  -1   4  -8 96.3688 10.0915   3
   1  -4   8 77.0146 10.0508   2
   1  -4   8 75.5661 7.51659   1
  -2   4  -8 419.004 14.5175   4
  -2   4  -8 420.603 18.2971   3
   2  -4   8 411.418 20.0883   2
   2  -4   8 406.121 16.3078   1
  -3   4  -8 5.83009 3.47503   4
  -3   4  -8 5.22644 5.04746   3
   3  -4   8 6.82536 5.80455   1
   3  -4   8 16.0141 6.57570   2
  -4   4  -8 176.024 8.27391   4
  -4   4  -8 177.103 13.6259   3
   4  -4   8 180.696 14.2627   1
   4  -4   8 173.835 13.5049   2
  -5   4  -8 121.842 13.7475   3
   5  -4   8 108.730 13.0611   1
   5  -4   8 87.7619 10.7199   2
  -6   4  -8 429.331 22.2993   3
   6  -4   8 421.635 22.5971   1
   6  -4   8 431.514 20.2047   2
  -7   4  -8 6.88375 8.18450   3
   7  -4   8 4.60267 4.96263   2
   7  -4   8 -2.3010 8.30532   1
  -8   4  -8 178.192 19.3160   3
   8  -4   8 177.704 19.7887   1
  -9   4  -8 12.7357 9.55096   3
   9  -4   8 -3.9244 9.74961   1
  10   3  -8 7.10437 7.55767   4
 -10  -3   8 -2.3178 8.40466   3
   9   3  -8 19.1519 8.15022   4
  -9  -3   8 8.14787 8.33406   3
   8   3  -8 107.586 14.0323   4
  -8  -3   8 89.2588 13.0092   3
   7   3  -8 10.6059 6.48135   4
  -7  -3   8 29.3720 8.19120   3
  -7  -3   8 8.73942 5.56967   2
   6   3  -8 257.264 16.9933   4
  -6  -3   8 231.324 14.1241   2
  -6  -3   8 215.398 15.4008   3
   5   3  -8 845.329 30.1376   4
  -5  -3   8 851.201 29.3576   2
  -5  -3   8 843.469 29.8991   3
   4   3  -8 75.0168 10.1778   4
  -4  -3   8 78.9871 9.40674   2
  -4  -3   8 60.6806 9.45267   3
   3   3  -8 51.4731 8.68011   4
  -3  -3   8 42.9869 8.27437   3
  -3  -3   8 42.5207 7.72012   2
   2   3  -8 24.2636 6.64805   4
  -2  -3   8 31.4044 7.74250   3
  -2  -3   8 27.1825 6.82826   2
   1   3  -8 184.879 12.3793   4
  -1  -3   8 186.950 13.3711   3
  -1  -3   8 163.258 12.5139   2
   0   3  -8 728.155 23.8108   4
   0   3  -8 761.540 24.1332   3
   0  -3   8 772.916 27.4306   2
   0  -3   8 747.919 18.2353   1
  -1   3  -8 456.091 17.4306   3
  -1   3  -8 447.704 16.4023   4
   1  -3   8 439.721 19.6602   2
   1  -3   8 445.125 14.4795   1
  -2   3  -8 115.395 8.37592   4
  -2   3  -8 107.800 8.69172   3
   2  -3   8 116.283 8.87264   1
   2  -3   8 110.839 11.1439   2
  -3   3  -8 459.058 15.1814   4
  -3   3  -8 462.294 18.9337   3
   3  -3   8 456.877 18.1844   1
   3  -3   8 484.511 20.4052   2
  -4   3  -8 2.13500 3.05379   4
  -4   3  -8 13.1857 6.10709   3
   4  -3   8 -0.5838 5.60789   1
   4  -3   8 2.07029 4.91949   2
  -5   3  -8 394.395 19.7425   3
  -5   3  -8 415.746 13.7900   4
   5  -3   8 407.852 18.7024   2
   5  -3   8 434.120 20.6923   1
  -6   3  -8 37.4018 9.04196   3
   6  -3   8 30.1365 6.67939   2
   6  -3   8 40.5313 9.84462   1
  -7   3  -8 113.781 14.1625   3
   7  -3   8 111.693 14.4980   1
   7  -3   8 123.013 10.5796   2
  -8   3  -8 16.8092 9.12756   3
   8  -3   8 19.1501 9.74160   1
  -9   3  -8 -7.9908 7.69302   3
   9  -3   8 4.51037 9.42356   1
 -10   3  -8 0.87138 8.63409   3
  10  -3   8 7.63460 12.7116   1
  10   2  -8 99.6669 14.0639   4
 -10  -2   8 76.2866 13.4659   3
   9   2  -8 171.360 17.1233   4
  -9  -2   8 152.213 17.0795   3
   8   2  -8 10.8412 6.59151   4
  -8  -2   8 1.08955 6.91407   3
   7   2  -8 65.2044 10.7540   4
  -7  -2   8 62.3668 8.62012   2
  -7  -2   8 60.9361 10.7952   3
   6   2  -8 136.057 10.9080   1
   6   2  -8 150.112 14.5644   4
  -6  -2   8 155.015 14.7665   3
  -6  -2   8 138.360 11.6658   2
   5   2  -8 1172.73 35.7575   4
   5   2  -8 1136.68 28.6473   1
  -5  -2   8 1103.74 35.2222   2
  -5  -2   8 1103.99 35.0665   3
   4   2  -8 127.158 6.99242   1
   4   2  -8 133.942 13.0446   4
  -4  -2   8 139.063 12.8454   3
  -4  -2   8 127.567 11.5757   2
   3   2  -8 136.003 13.1946   4
  -3  -2   8 113.652 10.0231   2
  -3  -2   8 132.391 12.1685   3
   2   2  -8 107.857 11.6302   4
  -2  -2   8 132.668 10.8687   2
  -2  -2   8 124.624 10.3665   3
   1   2  -8 160.841 12.0405   4
  -1  -2   8 185.801 11.7148   2
  -1  -2   8 151.492 11.2454   3
   0   2  -8 233.529 13.1699   4
   0  -2   8 223.020 13.2395   2
   0  -2   8 233.634 12.8243   3
   0  -2   8 220.301 7.30602   1
  -1   2  -8 536.144 18.5974   4
  -1   2  -8 555.710 18.6421   3
   1  -2   8 561.245 21.5654   2
   1  -2   8 561.182 15.5102   1
  -2   2  -8 465.213 15.9330   4
  -2   2  -8 485.121 17.4072   3
   2  -2   8 447.512 19.0370   2
   2  -2   8 441.867 15.0725   1
  -3   2  -8 2497.12 52.0250   4
  -3   2  -8 2445.24 58.9356   3
   3  -2   8 2395.22 55.1560   1
   3  -2   8 2414.10 64.9076   2
  -4   2  -8 7.25696 4.88528   3
  -4   2  -8 6.92374 3.54587   4
   4  -2   8 9.05150 5.10714   2
   4  -2   8 11.8708 5.58282   1
  -5   2  -8 701.840 25.3775   3
  -5   2  -8 690.971 19.9120   4
   5  -2   8 719.802 25.4012   1
   5  -2   8 674.657 24.6423   2
  -6   2  -8 285.493 16.9275   3
  -6   2  -8 302.518 12.6061   4
   6  -2   8 286.459 14.7788   2
   6  -2   8 292.586 17.9189   1
  -7   2  -8 278.074 12.7354   4
  -7   2  -8 288.522 18.1286   3
   7  -2   8 270.901 18.4180   1
   7  -2   8 292.073 14.4314   2
  -8   2  -8 65.4612 11.8594   3
   8  -2   8 76.6365 12.9620   1
  -9   2  -8 255.411 19.6988   3
   9  -2   8 255.415 20.8535   1
 -10   2  -8 47.5365 11.6606   3
  10  -2   8 82.3866 15.1555   1
  10   1  -8 159.689 17.6333   4
 -10  -1   8 114.714 16.0878   3
   9   1  -8 29.7051 9.00162   4
  -9  -1   8 35.5602 10.8067   3
   8   1  -8 215.432 16.8562   4
   8   1  -8 187.374 16.1546   1
  -8  -1   8 219.998 17.1637   3
   7   1  -8 10.4118 7.13582   1
   7   1  -8 15.7730 6.80350   4
  -7  -1   8 1.33847 6.40958   3
  -7  -1   8 3.59864 5.31754   2
   6   1  -8 10.9958 6.41277   1
   6   1  -8 5.52979 5.85286   4
  -6  -1   8 8.52621 5.33848   2
  -6  -1   8 16.2896 6.96801   3
   5   1  -8 385.624 16.3668   1
   5   1  -8 385.097 19.5367   4
  -5  -1   8 422.681 18.3613   2
  -5  -1   8 421.858 19.2512   3
   4   1  -8 715.204 20.6630   1
   4   1  -8 654.362 25.6392   4
  -4  -1   8 656.063 24.2021   2
  -4  -1   8 685.200 24.3424   3
   3   1  -8 76.7817 9.71303   4
   3   1  -8 60.4576 5.56496   1
  -3  -1   8 60.1920 8.23228   3
  -3  -1   8 77.0651 8.74917   2
   2   1  -8 437.401 11.4300   1
   2   1  -8 407.125 18.5551   4
  -2  -1   8 436.058 17.1379   3
  -2  -1   8 429.074 18.0475   2
   1   1  -8 335.759 16.5828   4
  -1  -1   8 392.721 9.23427   1
  -1  -1   8 367.729 15.5289   3
  -1  -1   8 362.742 16.4136   2
   0   1  -8 320.507 15.3892   4
   0  -1   8 329.618 14.0012   3
   0  -1   8 332.677 15.4649   2
   0  -1   8 327.988 9.21338   1
  -1   1  -8 457.581 15.3425   3
  -1   1  -8 468.653 17.2704   4
   1  -1   8 460.034 13.1323   1
   1  -1   8 448.688 18.3066   2
  -2   1  -8 268.169 11.7922   3
  -2   1  -8 264.594 12.1511   4
   2  -1   8 266.946 13.9859   2
   2  -1   8 285.848 10.8963   1
  -3   1  -8 57.9138 6.57514   4
  -3   1  -8 52.8095 6.74703   3
   3  -1   8 53.0859 6.72409   1
   3  -1   8 53.0865 7.45551   2
  -4   1  -8 71.4977 7.01419   4
  -4   1  -8 72.3853 8.49512   3
   4  -1   8 79.6646 8.30828   2
   4  -1   8 68.6742 8.34923   1
  -5   1  -8 413.157 15.0581   4
  -5   1  -8 423.110 17.9179   3
   5  -1   8 438.770 18.3179   1
   5  -1   8 368.253 16.4938   2
  -6   1  -8 17.2457 4.89317   4
  -6   1  -8 19.6833 6.90641   3
   6  -1   8 4.62693 6.26915   1
   6  -1   8 20.1777 5.21457   2
  -7   1  -8 11.3345 4.35814   4
  -7   1  -8 21.5936 7.68597   3
   7  -1   8 19.8284 7.83340   1
   7  -1   8 9.85904 4.27531   2
  -8   1  -8 190.955 15.7752   3
  -8   1  -8 175.786 11.5332   4
   8  -1   8 203.263 16.6701   1
  -9   1  -8 8.65898 7.46255   3
   9  -1   8 -7.6461 7.09026   1
 -10   1  -8 96.3270 14.1817   3
  10  -1   8 107.026 16.1561   1
 -11   1  -8 -4.1769 8.08845   3
  11  -1   8 -2.8334 10.0347   1
  10   0  -8 27.4682 9.11374   4
 -10   0   8 5.97852 9.28397   3
   9   0  -8 4.36776 6.74246   4
   9   0  -8 -3.1343 8.75089   1
  -9   0   8 -0.5771 7.75508   3
   8   0  -8 28.4339 8.48686   4
   8   0  -8 24.0250 9.09014   1
  -8   0   8 21.9104 8.94402   3
   7   0  -8 174.526 14.6674   1
   7   0  -8 187.441 15.0719   4
  -7   0   8 189.201 15.3333   3
  -7   0   8 179.177 12.6130   2
   6   0  -8 13.7325 6.62220   1
   6   0  -8 10.3329 6.19976   4
  -6   0   8 12.6979 7.10652   3
  -6   0   8 24.7750 6.38656   2
   5   0  -8 468.810 19.6019   1
   5   0  -8 479.902 20.9456   4
  -5   0   8 444.007 20.0558   3
  -5   0   8 455.085 19.4184   2
   4   0  -8 56.7459 9.31926   4
   4   0  -8 82.9067 9.51115   1
  -4   0   8 66.4975 8.40074   2
  -4   0   8 71.4961 9.30868   3
   3   0  -8 592.151 22.8692   4
   3   0  -8 597.938 18.6066   1
  -3   0   8 614.178 22.0750   2
  -3   0   8 592.932 20.4002   3
   2   0  -8 506.362 15.5768   1
   2   0  -8 531.630 20.6586   4
  -2   0   8 516.493 20.0656   2
  -2   0   8 539.039 18.3162   3
   1   0  -8 8.65009 5.30849   4
   1   0  -8 22.4587 3.61338   1
  -1   0   8 24.9792 5.86076   2
  -1   0   8 21.9306 5.01545   3
   0   0  -8 1428.78 36.8295   4
   0   0  -8 1474.97 31.3993   1
   0   0   8 1388.55 40.4412   2
   0   0   8 1462.64 36.0246   3
  -1   0  -8 9.91641 3.24194   3
  -1   0  -8 20.8039 5.94295   4
   1   0   8 16.7678 3.20092   1
   1   0   8 15.6453 5.31983   2
  -2   0  -8 2378.33 54.5049   3
  -2   0  -8 2344.44 52.8620   4
   2   0   8 2480.38 62.6751   2
   2   0   8 2493.11 52.1537   1
  -3   0  -8 194.015 10.4987   4
  -3   0  -8 182.513 9.34210   3
   3   0   8 188.558 9.78722   1
   3   0   8 194.790 10.9841   2
  -4   0  -8 30.6651 5.70221   4
  -4   0  -8 32.8348 5.76810   3
   4   0   8 29.9248 5.59641   2
   4   0   8 23.0308 5.39589   1
  -5   0  -8 513.404 19.2824   3
  -5   0  -8 526.290 17.6723   4
   5   0   8 524.294 18.8498   2
   5   0   8 521.785 19.7332   1
  -6   0  -8 869.846 24.9150   4
  -6   0  -8 887.739 28.2181   3
   6   0   8 845.929 28.3099   1
   6   0   8 851.142 26.3383   2
  -7   0  -8 1382.96 36.2285   4
  -7   0  -8 1463.83 41.5297   3
   7   0   8 1450.61 42.1003   1
   7   0   8 1408.26 38.5943   2
  -8   0  -8 16.4102 7.17103   3
  -8   0  -8 13.0882 5.15976   4
   8   0   8 1.88478 6.62259   1
  -9   0  -8 14.4682 5.65982   4
  -9   0  -8 17.5269 7.85941   3
   9   0   8 3.78853 7.93557   1
 -10   0  -8 36.7717 7.78583   4
 -10   0  -8 21.5011 9.01650   3
  10   0   8 32.6457 11.2693   1
 -11   0  -8 67.4829 12.5480   3
  11   0   8 88.5355 15.5012   1
   9  -1  -8 35.9169 9.39578   4
   9  -1  -8 33.4550 11.0540   1
  -9   1   8 32.5478 10.5049   3
   8  -1  -8 11.2062 7.10002   4
   8  -1  -8 -4.2655 7.65891   1
  -8   1   8 11.5273 8.30571   3
   7  -1  -8 9.20455 7.55516   1
   7  -1  -8 -2.2286 5.40092   4
  -7   1   8 10.2035 5.65654   2
  -7   1   8 -9.0200 6.15820   3
   6  -1  -8 -0.2949 5.15696   4
   6  -1  -8 3.33195 6.76060   1
  -6   1   8 2.41525 5.90389   3
  -6   1   8 10.7406 5.59833   2
   5  -1  -8 171.652 13.5329   4
   5  -1  -8 172.283 14.4562   1
  -5   1   8 160.761 12.5711   3
  -5   1   8 165.961 12.3100   2
   4  -1  -8 85.8063 10.4799   1
   4  -1  -8 55.9312 9.03483   4
  -4   1   8 84.7853 9.33969   2
  -4   1   8 69.7952 9.00528   3
   3  -1  -8 103.612 10.0579   1
   3  -1  -8 75.7549 9.60657   4
  -3   1   8 102.773 9.90762   3
  -3   1   8 92.4723 9.45734   2
   2  -1  -8 1015.99 29.8918   4
   2  -1  -8 977.684 27.1110   1
  -2   1   8 993.377 31.0997   2
  -2   1   8 995.418 27.3963   3
   1  -1  -8 652.446 22.2989   4
   1  -1  -8 630.600 18.8127   1
  -1   1   8 664.250 22.7676   2
  -1   1   8 618.326 18.9510   3
   0  -1  -8 56.6954 7.94179   4
   0  -1  -8 70.8066 6.22612   1
   0   1   8 60.2609 7.38899   2
   0   1   8 70.0492 6.34071   3
  -1  -1  -8 1056.03 28.4636   4
  -1  -1  -8 1056.90 24.9920   3
  -1  -1  -8 1045.30 25.4325   1
   1   1   8 1024.60 31.2847   2
  -2  -1  -8 80.6249 5.33128   3
  -2  -1  -8 101.912 8.97328   4
   2   1   8 79.5696 8.17519   2
   2   1   8 83.9241 6.23801   1
  -3  -1  -8 309.994 11.1963   3
  -3  -1  -8 305.795 13.3999   4
   3   1   8 322.463 13.8821   2
   3   1   8 311.814 12.2773   1
  -4  -1  -8 55.1783 6.15564   3
  -4  -1  -8 41.9743 6.44909   4
   4   1   8 59.1996 6.89976   2
   4   1   8 59.4105 7.16021   1
  -5  -1  -8 764.949 22.8673   4
  -5  -1  -8 762.528 23.1330   3
   5   1   8 779.249 23.8928   2
   5   1   8 726.989 23.9248   1
  -6  -1  -8 860.944 26.8461   3
  -6  -1  -8 829.197 25.5352   4
   6   1   8 889.526 25.8432   2
   6   1   8 903.944 28.5728   1
  -7  -1  -8 11.4690 5.02800   4
  -7  -1  -8 13.0214 6.28352   3
   7   1   8 9.07648 3.68502   2
   7   1   8 1.90665 5.32744   1
  -8  -1  -8 330.251 15.6157   4
  -8  -1  -8 294.200 16.6539   3
   8   1   8 305.637 18.2965   1
  -9  -1  -8 146.542 11.9213   4
  -9  -1  -8 144.253 14.9277   3
   9   1   8 163.367 16.1012   1
 -10  -1  -8 -3.4920 4.80544   4
 -10  -1  -8 6.03251 6.60735   3
  10   1   8 8.49025 8.13607   1
 -11  -1  -8 5.23883 5.83294   4
 -11  -1  -8 4.79480 8.03721   3
  11   1   8 11.4765 9.18795   1
 -12  -1  -8 4.32017 8.04540   3
  12   1   8 8.08102 10.1222   1
   9  -2  -8 37.8454 12.2621   1
  -9   2   8 26.2730 10.8209   3
   8  -2  -8 366.375 20.4117   4
   8  -2  -8 321.586 22.4481   1
  -8   2   8 382.504 21.8236   3
   7  -2  -8 3.75889 6.04877   4
   7  -2  -8 -0.2511 7.70905   1
  -7   2   8 -1.5061 4.81851   2
  -7   2   8 -0.6740 7.02699   3
   6  -2  -8 134.755 15.0159   1
   6  -2  -8 160.837 13.3039   4
  -6   2   8 137.399 11.6008   2
  -6   2   8 138.840 13.9710   3
   5  -2  -8 90.8237 12.2874   1
   5  -2  -8 90.6516 11.1174   4
  -5   2   8 98.4988 11.3304   3
  -5   2   8 62.9764 8.94617   2
   4  -2  -8 23.5622 6.80288   4
   4  -2  -8 33.2995 8.85614   1
  -4   2   8 25.7254 6.49439   2
  -4   2   8 33.5886 7.21349   3
   3  -2  -8 106.917 10.9412   4
   3  -2  -8 123.560 12.2460   1
  -3   2   8 109.440 10.7389   2
  -3   2   8 122.311 9.46382   3
   2  -2  -8 38.7086 7.07863   4
   2  -2  -8 42.7471 7.40989   1
  -2   2   8 52.0050 7.22193   2
  -2   2   8 49.7158 6.15659   3
   1  -2  -8 1897.47 45.3034   1
   1  -2  -8 1920.77 45.2228   4
  -1   2   8 1881.14 43.5875   3
  -1   2   8 1897.03 51.9057   2
   0  -2  -8 1397.21 35.5093   4
   0  -2  -8 1420.31 34.7542   1
   0   2   8 1402.72 40.2349   2
   0   2   8 1407.19 32.5657   3
  -1  -2  -8 21.3900 5.58867   4
  -1  -2  -8 11.9533 4.23014   1
  -1  -2  -8 10.8106 1.90823   3
   1   2   8 7.84123 4.38426   2
  -2  -2  -8 629.594 18.7262   1
  -2  -2  -8 609.138 14.7123   3
  -2  -2  -8 622.243 20.3104   4
   2   2   8 592.736 21.0687   2
  -3  -2  -8 76.1975 5.08297   3
  -3  -2  -8 70.9079 7.97550   4
   3   2   8 81.5727 6.74138   1
   3   2   8 77.7335 7.95058   2
  -4  -2  -8 2919.90 64.0979   3
  -4  -2  -8 2931.00 63.2044   4
   4   2   8 2962.06 72.8354   2
   4   2   8 2937.93 64.6133   1
  -5  -2  -8 10.6334 4.62758   4
  -5  -2  -8 7.07893 3.82853   3
   5   2   8 9.29398 4.13790   2
   5   2   8 4.41942 3.88473   1
  -6  -2  -8 87.0189 9.12152   4
  -6  -2  -8 94.8976 8.81424   3
   6   2   8 102.092 10.5086   1
   6   2   8 95.7618 7.44072   2
  -7  -2  -8 4.96591 5.00357   3
  -7  -2  -8 7.80399 5.10036   4
   7   2   8 13.9296 3.66005   2
   7   2   8 14.8402 5.96420   1
  -8  -2  -8 290.257 15.5803   3
  -8  -2  -8 322.699 16.1216   4
   8   2   8 280.599 17.1060   1
  -9  -2  -8 351.681 18.2303   3
  -9  -2  -8 288.589 16.3297   4
   9   2   8 349.153 19.4534   1
 -10  -2  -8 297.760 17.0391   4
 -10  -2  -8 279.638 17.8601   3
  10   2   8 317.960 20.3019   1
 -11  -2  -8 80.9266 12.2080   3
 -11  -2  -8 76.1264 11.2368   4
  11   2   8 90.2032 14.4508   1
 -12  -2  -8 94.4555 14.1535   3
 -12  -2  -8 104.645 13.3249   4
  12   2   8 116.424 17.0991   1
   8  -3  -8 29.3383 11.7308   1
  -8   3   8 29.0794 10.1830   3
   7  -3  -8 9.13381 6.29175   4
   7  -3  -8 -6.0207 7.86296   1
  -7   3   8 0.93960 5.26852   2
  -7   3   8 5.72499 6.63790   3
   6  -3  -8 53.5111 11.8324   1
   6  -3  -8 75.2394 10.1740   4
  -6   3   8 72.0172 9.77816   2
  -6   3   8 49.5682 9.71186   3
   5  -3  -8 50.8967 8.39626   4
   5  -3  -8 68.7676 11.9598   1
  -5   3   8 64.2706 9.62891   3
  -5   3   8 53.5465 8.77548   2
   4  -3  -8 82.1320 12.4837   1
   4  -3  -8 74.0221 9.72574   4
  -4   3   8 90.2019 10.2448   2
  -4   3   8 82.9808 10.1124   3
   3  -3  -8 24.1188 6.38479   4
   3  -3  -8 13.1127 7.29714   1
  -3   3   8 31.0675 6.46015   2
  -3   3   8 24.4027 5.90714   3
   2  -3  -8 112.236 11.7196   1
   2  -3  -8 101.104 9.60811   4
  -2   3   8 104.016 8.23736   3
  -2   3   8 106.830 10.5345   2
   1  -3  -8 5.17614 5.23336   1
   1  -3  -8 2.97091 4.20762   4
  -1   3   8 1.92313 3.88100   2
  -1   3   8 2.75466 3.02969   3
   0  -3  -8 78.8082 8.90096   1
   0  -3  -8 80.2568 8.50912   4
   0   3   8 72.9493 8.20934   2
   0   3   8 68.5938 4.93925   3
  -1  -3  -8 1162.96 31.5476   1
  -1  -3  -8 1231.00 31.3768   4
   1   3   8 1196.83 35.2812   2
  -2  -3  -8 299.563 13.7251   4
  -2  -3  -8 308.472 13.7367   1
   2   3   8 331.130 14.3568   2
  -3  -3  -8 972.303 27.1552   4
  -3  -3  -8 992.456 21.8059   3
  -3  -3  -8 989.210 27.2318   1
   3   3   8 992.776 29.5696   2
  -4  -3  -8 65.9257 5.23113   3
  -4  -3  -8 63.5023 7.64394   4
   4   3   8 77.1185 8.06037   1
   4   3   8 76.3527 7.63865   2
  -5  -3  -8 7.29526 4.65998   4
  -5  -3  -8 4.47018 3.41736   3
   5   3   8 10.0544 3.98478   2
   5   3   8 4.82375 3.85364   1
  -6  -3  -8 208.127 10.8646   3
  -6  -3  -8 227.584 13.1682   4
   6   3   8 214.661 12.7164   1
   6   3   8 219.302 10.2724   2
  -7  -3  -8 590.107 21.6536   4
  -7  -3  -8 564.884 20.4564   3
   7   3   8 587.815 17.6905   2
   7   3   8 558.259 22.1938   1
  -8  -3  -8 2.92193 5.61167   3
  -8  -3  -8 13.3885 5.63897   4
   8   3   8 16.5485 6.35815   1
  -9  -3  -8 3.72248 5.46935   3
  -9  -3  -8 3.64636 5.08918   4
   9   3   8 -2.5946 5.31396   1
 -10  -3  -8 238.679 16.0204   3
 -10  -3  -8 251.218 16.4992   4
  10   3   8 240.310 17.2705   1
 -11  -3  -8 24.8329 8.23981   3
 -11  -3  -8 38.1161 8.79268   4
  11   3   8 27.8651 9.54686   1
 -12  -3  -8 47.0507 10.0746   4
 -12  -3  -8 54.1891 10.7947   3
  12   3   8 51.8641 12.1435   1
   8  -4  -8 78.1840 15.4797   1
  -8   4   8 81.2264 13.7420   3
   7  -4  -8 38.8750 12.0510   1
  -7   4   8 54.8688 9.53774   2
  -7   4   8 49.1484 10.9062   3
   6  -4  -8 91.6357 14.6574   1
  -6   4   8 107.270 11.8940   2
  -6   4   8 90.2035 12.3548   3
   5  -4  -8 116.250 15.6249   1
   5  -4  -8 149.452 11.9693   4
  -5   4   8 143.215 12.3620   2
  -5   4   8 136.818 12.2591   3
   4  -4  -8 326.960 20.7672   1
   4  -4  -8 379.940 16.6547   4
  -4   4   8 345.505 17.6018   2
  -4   4   8 343.511 16.8975   3
   3  -4  -8 886.832 32.5905   1
   3  -4  -8 923.398 26.9974   4
  -3   4   8 885.707 30.5939   2
  -3   4   8 867.032 27.0006   3
   2  -4  -8 21.9203 5.75456   4
   2  -4  -8 28.5799 9.03899   1
  -2   4   8 18.7508 5.87598   2
  -2   4   8 30.3711 5.63774   3
   1  -4  -8 41.6689 6.69521   4
   1  -4  -8 42.9835 9.00497   1
  -1   4   8 36.3556 5.23579   3
  -1   4   8 27.3737 6.08953   2
   0  -4  -8 237.468 12.1065   4
   0  -4  -8 217.599 14.1295   1
   0   4   8 233.850 13.0012   2
   0   4   8 247.190 8.53403   3
  -1  -4  -8 932.620 28.3227   1
  -1  -4  -8 966.485 26.3439   4
   1   4   8 910.010 29.6982   2
  -2  -4  -8 534.446 18.3295   4
  -2  -4  -8 534.936 19.6682   1
   2   4   8 526.136 19.6131   2
  -3  -4  -8 2074.74 49.7415   1
  -3  -4  -8 2101.11 47.8178   4
   3   4   8 2036.44 54.5663   2
  -4  -4  -8 92.4890 4.86333   3
  -4  -4  -8 87.8938 8.96678   4
   4   4   8 99.8057 8.25279   1
   4   4   8 90.8788 8.02437   2
  -5  -4  -8 869.332 22.7409   3
  -5  -4  -8 875.712 26.6418   4
   5   4   8 874.822 26.1969   2
   5   4   8 871.923 26.5761   1
  -6  -4  -8 34.7315 5.46744   3
  -6  -4  -8 39.8425 7.43094   4
   6   4   8 24.6122 4.82340   2
   6   4   8 46.9616 7.87939   1
  -7  -4  -8 1345.16 35.9504   3
  -7  -4  -8 1308.61 37.3611   4
   7   4   8 1340.84 38.4590   1
   7   4   8 1425.27 35.8655   2
  -8  -4  -8 2.49067 4.76078   3
  -8  -4  -8 5.59758 5.43009   4
   8   4   8 8.99217 5.77476   1
  -9  -4  -8 96.1887 10.7624   3
  -9  -4  -8 77.0034 10.7337   4
   9   4   8 119.788 13.1481   1
 -10  -4  -8 -2.1621 5.50670   3
 -10  -4  -8 3.38514 5.88722   4
  10   4   8 -1.7713 6.14381   1
 -11  -4  -8 157.923 16.0572   4
 -11  -4  -8 164.196 14.3319   3
  11   4   8 149.170 15.8551   1
 -12  -4  -8 73.4831 11.8674   4
 -12  -4  -8 74.0096 12.1330   3
  12   4   8 94.3982 14.1472   1
  13   4   8 15.2874 10.1475   1
   7  -5  -8 27.6808 12.2884   1
  -7   5   8 33.9221 8.36044   2
  -7   5   8 25.2812 9.75457   3
   6  -5  -8 0.45608 9.44094   1
  -6   5   8 7.45576 5.83400   2
  -6   5   8 10.7285 7.55531   3
   5  -5  -8 48.8646 11.8141   1
  -5   5   8 49.8620 8.72939   2
  -5   5   8 54.4192 9.61347   3
   4  -5  -8 43.8535 7.37941   4
   4  -5  -8 60.3893 12.6027   1
  -4   5   8 57.8997 9.19217   3
  -4   5   8 41.7449 8.09535   2
   3  -5  -8 38.0172 6.56253   4
   3  -5  -8 26.6143 9.45147   1
  -3   5   8 49.6688 7.91776   3
  -3   5   8 39.8020 7.70904   2
   2  -5  -8 166.803 10.9985   4
   2  -5  -8 159.661 16.9286   1
  -2   5   8 155.134 10.4440   3
  -2   5   8 164.680 12.6667   2
   1  -5  -8 335.575 14.1651   4
   1  -5  -8 318.433 19.2616   1
  -1   5   8 314.803 16.4468   2
  -1   5   8 319.625 12.6935   3
   0  -5  -8 -1.9662 3.66481   4
   0  -5  -8 11.0551 6.75624   1
   0   5   8 2.41724 4.02132   2
   0   5   8 -1.5590 2.77538   3
  -1  -5  -8 21.6851 7.00839   1
  -1  -5  -8 18.0788 5.16134   4
   1   5   8 24.9693 5.53099   2
  -2  -5  -8 11.9372 5.82134   1
  -2  -5  -8 23.8037 5.35355   4
   2   5   8 22.4231 5.37841   2
  -3  -5  -8 654.233 23.5498   1
  -3  -5  -8 685.577 21.5263   4
   3   5   8 656.991 23.1182   2
  -4  -5  -8 219.899 12.6127   4
  -4  -5  -8 237.341 13.7072   1
  -4  -5  -8 232.285 7.10697   3
   4   5   8 213.714 11.5005   2
  -5  -5  -8 107.500 10.3551   4
  -5  -5  -8 123.701 6.53975   3
   5   5   8 129.499 10.0458   1
   5   5   8 112.585 8.19542   2
  -6  -5  -8 169.865 11.9299   4
  -6  -5  -8 171.469 8.80983   3
   6   5   8 167.048 11.1788   1
   6   5   8 165.712 9.70405   2
  -7  -5  -8 251.297 12.5147   3
  -7  -5  -8 277.895 15.2870   4
   7   5   8 270.237 11.7466   2
   7   5   8 263.456 15.0182   1
  -8  -5  -8 49.1798 7.68420   3
  -8  -5  -8 48.2160 8.44025   4
   8   5   8 53.2095 9.33686   1
  -9  -5  -8 148.207 11.5901   3
  -9  -5  -8 153.719 13.4521   4
   9   5   8 136.812 13.8707   1
 -10  -5  -8 236.661 17.0507   4
 -10  -5  -8 216.555 14.6250   3
  10   5   8 218.535 16.7256   1
 -11  -5  -8 60.8970 11.0262   4
 -11  -5  -8 70.4855 10.5998   3
  11   5   8 58.5955 11.2173   1
 -12  -5  -8 21.6998 8.84203   4
 -12  -5  -8 14.0709 8.21334   3
 -13  -5  -8 30.0516 9.83961   4
 -13  -5  -8 31.8897 9.95806   3
  13   5   8 38.4672 11.4236   1
   6  -6  -8 61.0329 14.0599   1
  -6   6   8 86.8009 11.7809   2
  -6   6   8 63.0593 11.4709   3
   5  -6  -8 84.4464 15.2817   1
  -5   6   8 80.3260 11.4821   3
  -5   6   8 74.1744 10.9817   2
   4  -6  -8 110.016 16.6011   1
  -4   6   8 126.801 12.6394   3
  -4   6   8 111.717 12.8860   2
   3  -6  -8 49.1082 12.8198   1
   3  -6  -8 28.7205 5.75968   4
  -3   6   8 44.7195 8.66944   2
  -3   6   8 41.2037 8.11949   3
   2  -6  -8 163.854 10.0931   4
   2  -6  -8 172.258 17.9885   1
  -2   6   8 158.173 12.7779   2
  -2   6   8 156.808 11.2293   3
   1  -6  -8 466.690 16.7452   4
   1  -6  -8 486.376 24.9480   1
  -1   6   8 465.906 16.5063   3
  -1   6   8 426.127 20.5297   2
   0  -6  -8 1280.06 41.1792   1
   0  -6  -8 1311.22 32.5567   4
   0   6   8 1303.24 31.2978   3
   0   6   8 1248.52 40.4992   2
  -1  -6  -8 8.66496 4.26299   4
  -1  -6  -8 5.78775 6.89768   1
   1   6   8 1.37898 2.63412   3
   1   6   8 3.79007 4.48252   2
  -2  -6  -8 124.841 9.59548   4
  -2  -6  -8 114.016 11.7714   1
   2   6   8 133.738 10.8337   2
  -3  -6  -8 604.954 23.6170   1
  -3  -6  -8 647.930 21.2919   4
   3   6   8 642.744 23.4047   2
  -4  -6  -8 1016.28 31.8109   1
  -4  -6  -8 1013.02 29.2696   4
   4   6   8 1008.04 31.9648   2
   4   6   8 1039.01 22.2478   3
  -5  -6  -8 86.0779 9.87378   4
  -5  -6  -8 102.000 11.5364   1
  -5  -6  -8 86.3769 5.99682   3
   5   6   8 74.1199 8.09461   2
  -6  -6  -8 556.731 17.1336   3
  -6  -6  -8 499.433 20.5280   4
   6   6   8 515.607 21.0070   1
   6   6   8 532.253 19.1726   2
  -7  -6  -8 430.012 16.3125   3
  -7  -6  -8 457.533 20.3289   4
   7   6   8 451.376 19.8988   1
   7   6   8 463.693 16.6907   2
  -8  -6  -8 347.032 15.5026   3
  -8  -6  -8 356.156 18.6608   4
   8   6   8 355.530 18.0410   1
  -9  -6  -8 607.365 22.3833   3
  -9  -6  -8 600.273 25.4699   4
   9   6   8 628.984 25.4054   1
 -10  -6  -8 3.04200 6.08583   4
 -10  -6  -8 1.41754 5.13544   3
  10   6   8 2.82718 5.90906   1
 -11  -6  -8 7.23297 6.56304   3
 -11  -6  -8 2.13461 6.49053   4
  11   6   8 5.20205 7.07652   1
 -12  -6  -8 102.591 12.8526   3
 -12  -6  -8 99.6885 13.9534   4
  12   6   8 91.7656 14.0173   1
 -13  -6  -8 22.6418 8.84914   3
 -13  -6  -8 27.0119 9.78415   4
  13   6   8 21.9023 9.56197   1
   6  -7  -8 29.6135 12.9877   1
  -6   7   8 18.8014 7.09736   2
   5  -7  -8 24.3981 12.2340   1
  -5   7   8 12.2005 6.47204   2
   4  -7  -8 -2.1708 8.90911   1
  -4   7   8 5.12035 5.84165   2
   3  -7  -8 21.3697 11.0338   1
  -3   7   8 7.07095 8.05611   3
  -3   7   8 9.37984 6.13894   2
   2  -7  -8 28.3042 10.8775   1
  -2   7   8 26.7404 7.15336   3
  -2   7   8 41.3621 8.61379   2
   1  -7  -8 69.9253 13.3754   1
   1  -7  -8 66.0525 7.25392   4
  -1   7   8 51.4326 8.82144   2
  -1   7   8 68.9897 8.72219   3
   0  -7  -8 778.313 22.2401   4
   0  -7  -8 733.777 31.0808   1
   0   7   8 694.980 28.1759   2
  -1  -7  -8 30.9690 5.96654   4
  -1  -7  -8 21.3153 8.39658   1
   1   7   8 21.8588 6.49849   2
  -2  -7  -8 9.89305 4.76814   4
  -2  -7  -8 7.12529 7.11590   1
   2   7   8 15.7570 5.71223   2
  -3  -7  -8 865.682 25.3476   4
  -3  -7  -8 783.067 28.9488   1
   3   7   8 826.075 29.2340   2
  -4  -7  -8 -2.9950 5.27488   1
  -4  -7  -8 0.48288 4.61985   4
   4   7   8 3.07387 4.14389   2
  -5  -7  -8 31.8463 7.00662   4
  -5  -7  -8 21.7345 7.19319   1
  -5  -7  -8 35.8417 4.53856   3
   5   7   8 38.0697 6.88106   2
  -6  -7  -8 138.115 8.66830   3
  -6  -7  -8 123.907 12.3333   4
   6   7   8 133.563 9.75655   2
   6   7   8 135.574 11.3973   1
  -7  -7  -8 91.8896 8.73438   3
  -7  -7  -8 66.5577 9.55143   4
   7   7   8 61.5257 9.10612   1
   7   7   8 85.4478 8.26849   2
  -8  -7  -8 12.9281 6.19910   4
  -8  -7  -8 10.9605 5.39081   3
   8   7   8 4.40094 5.03963   1
  -9  -7  -8 15.9097 6.21970   3
  -9  -7  -8 18.1781 7.61499   4
   9   7   8 8.36755 5.99957   1
 -10  -7  -8 119.463 12.2236   3
 -10  -7  -8 110.246 14.1830   4
  10   7   8 111.348 13.2773   1
 -11  -7  -8 0.46009 5.99560   3
 -11  -7  -8 7.85751 7.24070   4
  11   7   8 3.96437 6.73298   1
 -12  -7  -8 3.71805 6.82340   3
 -12  -7  -8 1.71341 6.48419   4
  12   7   8 6.60707 6.98744   1
 -13  -7  -8 13.6835 8.17074   3
  13   7   8 31.8768 10.0030   1
   5  -8  -8 3.33923 11.4300   1
  -5   8   8 17.3341 7.46882   2
   4  -8  -8 14.2660 11.9131   1
  -4   8   8 4.18672 6.15431   2
   3  -8  -8 170.654 20.8257   1
  -3   8   8 138.314 14.8849   2
   2  -8  -8 8.77444 9.49860   1
  -2   8   8 18.8269 7.37923   2
   1  -8  -8 335.836 23.6435   1
  -1   8   8 327.780 19.2023   2
   0  -8  -8 5.49199 4.13950   4
   0  -8  -8 15.9201 9.04243   1
   0   8   8 11.5981 6.17977   2
  -1  -8  -8 510.857 26.0633   1
  -1  -8  -8 534.723 18.2411   4
   1   8   8 513.166 23.8167   2
  -2  -8  -8 481.277 18.0677   4
  -2  -8  -8 503.303 24.6416   1
   2   8   8 522.381 23.4658   2
  -3  -8  -8 86.3940 9.10670   4
  -3  -8  -8 75.4223 10.9364   1
   3   8   8 77.1310 10.0883   2
  -4  -8  -8 443.899 18.0670   4
  -4  -8  -8 404.033 20.9891   1
   4   8   8 401.327 19.5319   2
  -5  -8  -8 25.2424 8.43707   1
  -5  -8  -8 19.0171 6.28556   4
   5   8   8 30.1934 6.72724   2
  -6  -8  -8 523.445 23.2553   1
  -6  -8  -8 503.420 21.2623   4
   6   8   8 536.690 21.1365   2
  -7  -8  -8 31.0326 6.73857   3
  -7  -8  -8 34.9320 7.77293   4
   7   8   8 23.5155 6.60150   1
   7   8   8 35.2374 6.28199   2
  -8  -8  -8 69.5510 8.89186   3
  -8  -8  -8 64.5991 10.0995   4
   8   8   8 76.3115 10.8334   1
  -9  -8  -8 235.623 16.8421   4
  -9  -8  -8 232.986 14.2481   3
   9   8   8 207.653 15.5325   1
 -10  -8  -8 223.126 17.4486   4
 -10  -8  -8 223.841 14.7591   3
  10   8   8 215.504 16.4692   1
 -11  -8  -8 677.557 29.8116   4
 -11  -8  -8 622.983 25.5908   3
  11   8   8 650.803 28.1810   1
 -12  -8  -8 50.0168 11.1380   4
 -12  -8  -8 50.5514 10.3309   3
  12   8   8 52.9704 10.9429   1
   4  -9  -8 58.8385 16.0471   1
  -4   9   8 55.9643 10.8563   2
   3  -9  -8 2.30901 11.5672   1
  -3   9   8 12.1470 7.02761   2
   2  -9  -8 1.36321 9.67792   1
  -2   9   8 5.62502 6.38304   2
   1  -9  -8 12.4336 10.1330   1
  -1   9   8 8.00034 6.57874   2
   0  -9  -8 143.976 18.6346   1
   0   9   8 138.887 15.1718   2
  -1  -9  -8 -7.9399 6.93438   1
   1   9   8 5.05636 5.53692   2
  -2  -9  -8 6.07739 7.46579   1
  -2  -9  -8 -5.6402 3.68137   4
   2   9   8 -1.9501 5.09630   2
  -3  -9  -8 615.685 21.2710   4
  -3  -9  -8 596.637 26.9430   1
   3   9   8 634.219 26.7954   2
  -4  -9  -8 0.36646 6.65700   1
  -4  -9  -8 4.46344 4.97463   4
   4   9   8 -0.5716 4.76445   2
  -5  -9  -8 77.4464 9.87694   4
  -5  -9  -8 73.7234 11.3195   1
   5   9   8 73.0521 9.74095   2
  -6  -9  -8 210.304 16.3242   1
  -6  -9  -8 203.343 13.9923   4
   6   9   8 215.424 14.1002   2
  -7  -9  -8 5.99769 5.75142   4
   7   9   8 -1.0309 4.19934   1
   7   9   8 -4.0939 3.41492   2
  -8  -9  -8 -1.8561 5.51469   4
   8   9   8 -0.8059 4.80917   1
  -9  -9  -8 -3.4292 5.74759   4
   9   9   8 -1.6514 4.88080   1
 -10  -9  -8 9.20501 7.24805   4
  10   9   8 7.93270 6.36984   1
 -11  -9  -8 15.7443 8.26715   4
  11   9   8 17.1589 7.24316   1
 -12  -9  -8 13.5361 9.15589   4
  12   9   8 7.04967 7.25003   1
   2 -10  -8 10.2454 10.4417   1
  -2  10   8 15.0175 7.90659   2
   1 -10  -8 61.2507 14.1132   1
  -1  10   8 78.6311 12.4235   2
   0 -10  -8 14.5219 10.4628   1
   0  10   8 29.4148 8.75698   2
  -1 -10  -8 296.689 22.6332   1
   1  10   8 288.171 19.9056   2
  -2 -10  -8 -1.9832 8.07594   1
   2  10   8 2.10559 5.63706   2
  -3 -10  -8 679.368 23.3306   4
   3  10   8 692.288 29.8723   2
  -4 -10  -8 206.408 17.6274   1
  -4 -10  -8 194.602 13.2343   4
   4  10   8 211.431 16.0271   2
  -5 -10  -8 322.081 16.4104   4
  -5 -10  -8 313.709 20.2738   1
   5  10   8 328.419 18.8771   2
  -6 -10  -8 57.9055 11.5088   1
  -6 -10  -8 43.3671 8.50967   4
   6  10   8 49.6825 8.76518   2
  -7 -10  -8 34.2758 8.77568   4
  -7 -10  -8 19.4884 8.25773   1
   7  10   8 29.7264 6.83339   2
  -8 -10  -8 85.6110 12.1901   4
   8  10   8 74.8458 11.2682   1
  -9 -10  -8 165.424 16.8072   4
   9  10   8 171.377 14.4822   1
 -10 -10  -8 10.3753 7.79442   4
  10  10   8 30.3301 8.60737   1
 -11 -10  -8 19.6663 8.30095   4
  11  10   8 15.3044 7.32906   1
 -12 -10  -8 1.38386 8.34831   4
  12  10   8 8.34150 6.99754   1
   1 -11  -8 51.4601 14.3108   1
  -1  11   8 52.9590 11.3438   2
   0 -11  -8 46.1932 13.8792   1
   0  11   8 36.6249 10.1249   2
  -1 -11  -8 14.6413 10.3527   1
   1  11   8 15.3789 7.61133   2
  -2 -11  -8 16.8501 10.4936   1
   2  11   8 12.6084 7.60083   2
  -3 -11  -8 46.1495 11.5495   1
   3  11   8 64.6172 11.0576   2
  -4 -11  -8 92.2427 14.2584   1
  -4 -11  -8 122.847 11.8767   4
   4  11   8 140.526 15.0297   2
  -5 -11  -8 75.8677 13.1939   1
  -5 -11  -8 82.4967 10.7706   4
   5  11   8 104.852 13.2459   2
  -6 -11  -8 3.65474 5.64145   4
  -6 -11  -8 3.35245 7.50095   1
   6  11   8 -1.8830 4.60511   2
  -7 -11  -8 160.684 16.8530   1
  -7 -11  -8 168.038 15.6424   4
   7  11   8 150.551 13.1855   2
  -8 -11  -8 -4.5158 6.41274   4
   8  11   8 19.2905 6.97084   1
  -9 -11  -8 0.08221 6.70334   4
   9  11   8 -6.6116 5.12733   1
 -10 -11  -8 18.5022 9.13316   4
  10  11   8 28.8895 8.58771   1
 -11 -11  -8 127.769 16.2181   4
  11  11   8 95.6485 13.3758   1
  -1 -12  -8 14.5533 11.4041   1
   1  12   8 54.8355 11.3735   2
  -2 -12  -8 92.2042 15.9724   1
   2  12   8 112.786 15.5251   2
  -3 -12  -8 -3.0972 8.79862   1
   3  12   8 4.98688 6.71009   2
  -4 -12  -8 13.1654 10.0707   1
   4  12   8 9.28852 6.87851   2
  -5 -12  -8 6.32292 8.75889   1
   5  12   8 8.70083 6.40537   2
  -6 -12  -8 438.340 25.2425   1
  -6 -12  -8 461.771 21.9467   4
   6  12   8 430.644 23.3835   2
  -7 -12  -8 176.827 18.3378   1
  -7 -12  -8 246.844 17.3205   4
   7  12   8 208.644 16.0695   2
  -8 -12  -8 174.533 17.0448   4
   8  12   8 152.592 15.9535   1
  -9 -12  -8 14.6706 8.25022   4
   9  12   8 24.1957 7.83140   1
 -10 -12  -8 35.6815 10.7541   4
  10  12   8 20.7615 7.84785   1
  -4 -13  -8 28.4588 12.4125   1
   4  13   8 41.9404 10.4995   2
  -5 -13  -8 15.1663 10.9704   1
   5  13   8 25.9426 9.34765   2
  -6 -13  -8 16.0543 9.98259   1
   6  13   8 17.5541 7.51800   2
  -7 -13  -8 10.7807 12.0537   4
  -7 -13  -8 6.72612 9.54488   1
   7  13   8 28.3388 7.90755   2
  -8 -13  -8 12.6677 7.97767   4
   8  13   8 -0.1421 5.98636   1
   6  11  -9 9.28475 7.12830   3
   6  11  -9 13.7771 6.84728   4
  -6 -11   9 0.54617 8.56715   2
   5  11  -9 76.7536 11.5599   3
  -5 -11   9 82.8043 14.5357   2
   4  11  -9 26.2814 8.07114   3
  -4 -11   9 16.6056 10.3174   2
   3  11  -9 70.7863 11.3022   3
  -3 -11   9 94.2768 15.7012   2
   2  11  -9 53.5868 10.8141   3
  -2 -11   9 34.4332 11.9939   2
   1  11  -9 9.85992 7.78730   3
  -1 -11   9 9.38097 10.0334   2
   0  11  -9 329.032 21.4408   3
   0 -11   9 298.675 24.3139   2
   7  10  -9 53.6563 10.3252   4
  -7 -10   9 34.9789 10.2673   2
  -7 -10   9 52.1287 13.8822   3
   6  10  -9 47.6464 9.44838   4
  -6 -10   9 25.8316 10.0022   2
  -6 -10   9 23.9471 10.6483   3
   5  10  -9 1.15146 5.21128   3
   5  10  -9 2.68421 5.24717   4
  -5 -10   9 -8.1174 7.34808   2
   4  10  -9 43.9372 9.40296   3
  -4 -10   9 59.5243 12.5158   2
   3  10  -9 4.29679 6.16085   3
  -3 -10   9 20.3498 9.71889   2
   2  10  -9 60.0545 11.1409   3
  -2 -10   9 48.9483 12.3674   2
   1  10  -9 50.3932 9.89737   3
  -1 -10   9 52.5584 13.0564   2
   0  10  -9 -1.1360 6.50955   3
   0 -10   9 3.66392 8.74523   2
  -1  10  -9 67.0349 12.1504   3
   1 -10   9 99.6182 15.7217   2
  -2  10  -9 14.3870 7.71779   3
   2 -10   9 -4.2623 8.38932   2
   8   9  -9 131.002 15.4137   4
  -8  -9   9 146.724 19.3948   3
   7   9  -9 196.363 16.4340   4
  -7  -9   9 232.058 17.6406   2
  -7  -9   9 180.765 19.1353   3
   6   9  -9 200.322 15.8089   4
  -6  -9   9 206.996 17.1944   2
  -6  -9   9 214.731 21.2979   3
   5   9  -9 358.314 19.2851   4
  -5  -9   9 355.872 23.5556   3
  -5  -9   9 344.299 21.6822   2
   4   9  -9 28.4522 8.08516   3
   4   9  -9 29.4834 8.08374   4
  -4  -9   9 29.4193 9.45559   2
   3   9  -9 63.8711 10.3908   3
   3   9  -9 89.5933 10.9627   4
  -3  -9   9 75.7579 13.2357   2
   2   9  -9 26.8193 8.35577   3
  -2  -9   9 18.5169 8.78900   2
   1   9  -9 414.767 22.3571   3
  -1  -9   9 457.854 26.1025   2
   0   9  -9 55.7245 10.0138   3
   0  -9   9 55.6722 11.9974   2
  -1   9  -9 129.721 14.9966   3
   1  -9   9 141.299 17.6517   2
  -2   9  -9 2.31866 6.51397   3
   2  -9   9 8.18070 8.83601   2
  -3   9  -9 129.053 15.6515   3
   3  -9   9 140.213 17.0866   2
  -4   9  -9 70.9938 12.6887   3
   4  -9   9 84.2325 13.7355   1
   4  -9   9 67.6504 13.1957   2
   9   8  -9 2.49445 6.96295   4
  -9  -8   9 6.10677 9.10816   3
   8   8  -9 7.98126 7.30729   4
  -8  -8   9 8.05766 8.65817   3
   7   8  -9 3.41867 6.24125   4
  -7  -8   9 13.5658 8.68569   3
  -7  -8   9 5.93677 7.06367   2
   6   8  -9 5.52433 6.24362   4
  -6  -8   9 4.01749 7.70173   3
  -6  -8   9 -0.1796 6.08047   2
   5   8  -9 19.5971 7.00574   4
  -5  -8   9 10.1125 8.45155   3
  -5  -8   9 29.8483 8.77714   2
   4   8  -9 161.413 13.7116   4
  -4  -8   9 170.476 17.0442   2
  -4  -8   9 150.657 15.9735   3
   3   8  -9 18.1974 6.88414   3
   3   8  -9 9.53254 5.81466   4
  -3  -8   9 9.93320 7.98159   2
   2   8  -9 -1.2405 5.42867   3
   2   8  -9 -1.5401 4.78472   4
  -2  -8   9 -2.4294 6.63767   2
   1   8  -9 2.15642 5.60889   3
  -1  -8   9 4.17945 7.44045   2
   0   8  -9 96.4437 12.7501   3
   0  -8   9 98.4243 14.3258   2
  -1   8  -9 16.6261 7.54647   3
   1  -8   9 42.0440 10.4172   2
  -2   8  -9 390.252 21.1821   3
   2  -8   9 374.335 23.2740   2
   2  -8   9 378.754 19.6987   1
  -3   8  -9 60.4142 10.9851   3
   3  -8   9 62.7174 10.6670   1
   3  -8   9 83.0850 13.5861   2
  -4   8  -9 -5.3538 6.89973   3
   4  -8   9 -2.0583 7.14498   2
   4  -8   9 7.33068 7.82299   1
  -5   8  -9 84.2294 13.0120   3
   5  -8   9 118.018 15.4653   2
   5  -8   9 125.732 15.6915   1
   9   7  -9 20.9180 8.99251   4
  -9  -7   9 15.0748 9.48979   3
   8   7  -9 218.450 17.8865   4
  -8  -7   9 234.439 21.9598   3
   7   7  -9 11.1758 6.55158   4
  -7  -7   9 14.1706 7.59906   2
  -7  -7   9 -1.4759 8.23730   3
   6   7  -9 43.0585 9.28048   4
  -6  -7   9 34.5229 8.69867   2
  -6  -7   9 43.0861 10.3237   3
   5   7  -9 7.88949 5.75607   4
  -5  -7   9 6.49746 6.15113   2
  -5  -7   9 0.95139 7.21617   3
   4   7  -9 396.331 19.8158   4
  -4  -7   9 410.793 22.3516   2
  -4  -7   9 403.849 22.9886   3
   3   7  -9 630.904 24.0812   4
  -3  -7   9 586.342 27.5461   2
  -3  -7   9 635.769 28.2963   3
   2   7  -9 700.976 24.9012   4
   2   7  -9 681.243 26.7928   3
  -2  -7   9 678.440 30.6394   2
   1   7  -9 9.82411 6.10883   3
   1   7  -9 10.7235 5.33738   4
  -1  -7   9 8.05729 7.12814   2
   0   7  -9 62.3242 10.1247   3
   0   7  -9 87.0834 9.33877   4
   0  -7   9 58.5947 11.5361   2
  -1   7  -9 4.03081 5.07031   3
   1  -7   9 5.11652 5.39866   1
   1  -7   9 7.61898 7.38903   2
  -2   7  -9 271.604 16.9625   3
   2  -7   9 254.827 15.5152   1
   2  -7   9 264.988 19.1609   2
  -3   7  -9 17.9056 7.73575   3
   3  -7   9 7.93757 6.78843   1
   3  -7   9 31.2336 9.75249   2
  -4   7  -9 94.4829 13.2599   3
   4  -7   9 104.326 13.7995   1
   4  -7   9 139.325 15.6852   2
  -5   7  -9 126.362 15.2555   3
   5  -7   9 116.505 14.2186   2
   5  -7   9 144.432 16.6145   1
  -6   7  -9 38.1543 10.6496   3
   6  -7   9 50.9809 12.2493   1
   6  -7   9 44.6832 10.1279   2
  10   6  -9 52.4526 11.7520   4
 -10  -6   9 34.5727 11.8106   3
   9   6  -9 11.8399 7.83948   4
  -9  -6   9 8.43491 8.52086   3
   8   6  -9 64.7396 11.4093   4
  -8  -6   9 60.5643 11.9741   3
   7   6  -9 -1.2534 6.36807   4
  -7  -6   9 -7.6160 6.93771   3
  -7  -6   9 -2.4212 5.66881   2
   6   6  -9 42.9110 9.34198   4
  -6  -6   9 74.7291 12.9333   3
  -6  -6   9 54.6799 9.77935   2
   5   6  -9 204.360 15.1116   4
  -5  -6   9 201.319 17.0425   3
  -5  -6   9 216.335 15.9882   2
   4   6  -9 51.2239 9.36504   4
  -4  -6   9 42.4232 9.71767   3
  -4  -6   9 50.4149 9.65438   2
   3   6  -9 95.5653 11.4051   4
  -3  -6   9 96.2061 13.7860   3
  -3  -6   9 94.9371 12.4637   2
   2   6  -9 989.779 31.2102   4
   2   6  -9 1002.07 32.3983   3
  -2  -6   9 964.462 36.4396   2
   1   6  -9 245.976 15.2693   3
   1   6  -9 213.531 14.2811   4
  -1  -6   9 255.611 17.3807   2
   0   6  -9 94.4626 10.0502   4
   0   6  -9 93.4078 11.1300   3
   0  -6   9 84.7845 12.5721   2
   0  -6   9 102.616 8.99000   1
  -1   6  -9 69.8462 10.2730   3
  -1   6  -9 62.4017 7.42519   4
   1  -6   9 63.0827 8.16352   1
   1  -6   9 60.7780 11.1371   2
  -2   6  -9 102.396 12.5282   3
   2  -6   9 111.119 11.9070   1
   2  -6   9 89.6527 12.6546   2
  -3   6  -9 -0.4799 5.06941   3
   3  -6   9 6.93081 6.66391   2
   3  -6   9 -4.9689 5.55274   1
  -4   6  -9 34.3032 8.94801   3
   4  -6   9 42.5130 9.53589   2
  -5   6  -9 152.155 16.6454   3
   5  -6   9 162.139 16.2391   2
   5  -6   9 149.046 16.1073   1
  -6   6  -9 5.32044 7.59893   3
   6  -6   9 0.77033 8.36769   1
   6  -6   9 3.95049 6.48432   2
  -7   6  -9 -3.5796 7.88529   3
   7  -6   9 0.18008 6.29887   2
   7  -6   9 4.79630 9.36658   1
  10   5  -9 222.039 19.4560   4
 -10  -5   9 235.850 20.6978   3
   9   5  -9 46.4196 11.0474   4
  -9  -5   9 49.1481 11.8794   3
   8   5  -9 38.8614 10.1557   4
  -8  -5   9 26.9961 10.1456   3
   7   5  -9 21.0077 7.86748   4
  -7  -5   9 21.3042 9.37575   3
  -7  -5   9 20.8195 7.11690   2
   6   5  -9 207.359 15.7547   4
  -6  -5   9 168.621 16.7392   3
  -6  -5   9 187.699 13.8962   2
   5   5  -9 367.891 19.7290   4
  -5  -5   9 410.124 21.6870   3
  -5  -5   9 380.897 19.3925   2
   4   5  -9 13.1659 6.37733   4
  -4  -5   9 7.39668 7.07392   3
  -4  -5   9 0.99878 6.09182   2
   3   5  -9 84.8866 11.1456   4
  -3  -5   9 132.941 13.5514   2
  -3  -5   9 114.379 12.8688   3
   2   5  -9 1.70662 5.73731   4
  -2  -5   9 -0.2155 6.33590   3
  -2  -5   9 2.11071 6.04525   2
   1   5  -9 359.741 17.2230   4
   1   5  -9 349.927 17.4367   3
  -1  -5   9 300.939 18.6633   2
   0   5  -9 643.154 22.3909   4
   0   5  -9 632.682 24.3025   3
   0  -5   9 625.819 27.5066   2
   0  -5   9 652.439 18.5180   1
  -1   5  -9 195.196 13.1271   3
  -1   5  -9 158.208 11.0598   4
   1  -5   9 163.884 14.0980   2
   1  -5   9 158.617 10.8533   1
  -2   5  -9 805.968 22.4603   4
  -2   5  -9 769.256 28.4208   3
   2  -5   9 802.623 25.7268   1
   2  -5   9 862.687 32.2323   2
  -3   5  -9 17.4737 6.44363   3
   3  -5   9 32.9369 7.69408   1
   3  -5   9 31.8999 8.61577   2
  -4   5  -9 315.748 18.5418   3
   4  -5   9 366.064 20.0950   2
   4  -5   9 337.484 18.5509   1
  -5   5  -9 4.66776 6.65859   3
   5  -5   9 -4.0646 6.61032   1
   5  -5   9 -7.1802 4.83367   2
  -6   5  -9 16.3921 8.01268   3
   6  -5   9 25.6338 7.72083   2
   6  -5   9 25.5340 9.53072   1
  -7   5  -9 78.3847 13.9245   3
   7  -5   9 134.091 17.1083   1
   7  -5   9 96.5389 11.8297   2
  -8   5  -9 81.9465 14.5105   3
   8  -5   9 81.7983 15.1737   1
  10   4  -9 10.5707 7.80628   4
 -10  -4   9 -6.2342 8.16614   3
   9   4  -9 3.88758 7.37215   4
  -9  -4   9 3.60865 8.29327   3
   8   4  -9 -2.1270 5.46964   4
  -8  -4   9 18.7410 8.87120   3
   7   4  -9 156.527 16.3465   4
  -7  -4   9 168.550 17.1686   3
  -7  -4   9 166.049 13.0641   2
   6   4  -9 22.9424 8.08797   4
  -6  -4   9 12.6223 6.66491   2
  -6  -4   9 10.3084 7.64522   3
   5   4  -9 410.244 20.9095   4
  -5  -4   9 376.364 20.5484   3
  -5  -4   9 414.659 19.9027   2
   4   4  -9 135.251 13.6288   4
  -4  -4   9 164.010 13.5289   3
  -4  -4   9 148.697 13.2440   2
   3   4  -9 68.2983 10.1708   4
  -3  -4   9 56.7872 9.30318   2
  -3  -4   9 57.3186 9.44885   3
   2   4  -9 800.478 28.1674   4
  -2  -4   9 806.751 29.4767   3
  -2  -4   9 835.824 30.1515   2
   1   4  -9 37.1907 7.92169   4
  -1  -4   9 34.2032 8.30591   3
  -1  -4   9 29.1947 7.34364   2
   0   4  -9 49.7667 7.90363   3
   0   4  -9 74.9741 9.15847   4
   0  -4   9 65.1986 9.54245   2
   0  -4   9 54.2783 5.23568   1
  -1   4  -9 673.136 24.0895   3
  -1   4  -9 682.405 21.8411   4
   1  -4   9 671.717 20.0804   1
   1  -4   9 711.638 27.9418   2
  -2   4  -9 11.3819 5.39797   3
  -2   4  -9 11.8585 4.73676   4
   2  -4   9 17.0763 6.84617   2
   2  -4   9 15.8281 5.44871   1
  -3   4  -9 6.35724 3.93351   4
  -3   4  -9 5.44092 4.99258   3
   3  -4   9 11.3405 5.98231   1
   3  -4   9 7.76401 6.09180   2
  -4   4  -9 81.4016 6.96779   4
  -4   4  -9 76.3495 10.5185   3
   4  -4   9 84.1320 10.9116   1
   4  -4   9 86.9082 11.0470   2
  -5   4  -9 91.7844 11.8944   3
   5  -4   9 101.308 11.8072   2
   5  -4   9 114.926 13.0344   1
  -6   4  -9 -6.7889 5.17040   3
   6  -4   9 0.73419 5.27754   2
   6  -4   9 9.95590 7.43360   1
  -7   4  -9 40.6177 10.0063   3
   7  -4   9 43.2890 7.96866   2
   7  -4   9 39.3250 10.9730   1
  -8   4  -9 34.3146 10.6533   3
   8  -4   9 46.9046 12.6980   1
  -9   4  -9 7.32451 10.5195   3
   9  -4   9 14.3843 11.1255   1
  10   3  -9 24.4370 9.96741   4
 -10  -3   9 12.0699 9.12794   3
   9   3  -9 -2.7251 6.17431   4
  -9  -3   9 3.76674 8.19541   3
   8   3  -9 124.690 14.9457   4
  -8  -3   9 148.827 16.6104   3
   7   3  -9 190.156 15.5435   4
  -7  -3   9 191.381 16.5501   3
  -7  -3   9 176.568 13.3739   2
   6   3  -9 341.367 19.6463   4
  -6  -3   9 352.090 20.1171   3
  -6  -3   9 376.148 18.6418   2
   5   3  -9 170.431 14.3110   4
  -5  -3   9 156.199 12.7049   2
  -5  -3   9 176.557 14.8197   3
   4   3  -9 29.7277 8.17359   4
  -4  -3   9 9.15852 6.48639   3
  -4  -3   9 23.8062 6.64575   2
   3   3  -9 1059.19 34.6229   4
  -3  -3   9 1165.73 36.3928   2
  -3  -3   9 1111.09 35.1025   3
   2   3  -9 4.93177 6.04632   4
  -2  -3   9 11.0322 6.46138   3
  -2  -3   9 9.98967 5.86184   2
   1   3  -9 1482.87 40.2763   4
  -1  -3   9 1438.74 43.9554   2
  -1  -3   9 1480.19 41.7425   3
   0   3  -9 278.237 15.2911   4
   0   3  -9 307.873 14.3337   3
   0  -3   9 273.064 16.0498   2
   0  -3   9 294.620 9.30396   1
  -1   3  -9 1153.92 30.8503   4
  -1   3  -9 1131.70 32.7600   3
   1  -3   9 1151.15 27.6184   1
   1  -3   9 1069.32 36.2753   2
  -2   3  -9 105.209 9.43741   3
  -2   3  -9 104.624 9.02864   4
   2  -3   9 107.314 8.99366   1
   2  -3   9 134.103 12.6776   2
  -3   3  -9 298.050 12.6225   4
  -3   3  -9 273.269 14.3361   3
   3  -3   9 271.343 13.9535   1
   3  -3   9 273.774 16.2399   2
  -4   3  -9 142.053 8.79939   4
  -4   3  -9 114.077 11.5998   3
   4  -3   9 124.698 11.7810   1
   4  -3   9 98.5369 11.1757   2
  -5   3  -9 258.571 11.1344   4
  -5   3  -9 235.987 15.8429   3
   5  -3   9 253.043 16.6670   1
   5  -3   9 249.973 15.1957   2
  -6   3  -9 609.221 26.2339   3
   6  -3   9 642.818 26.2315   1
   6  -3   9 606.127 24.3151   2
  -7   3  -9 119.274 14.7384   3
   7  -3   9 127.226 14.7666   1
   7  -3   9 123.812 11.9503   2
  -8   3  -9 30.6616 10.2338   3
   8  -3   9 32.6443 10.5364   1
  -9   3  -9 -0.0047 8.37898   3
   9  -3   9 14.6837 10.9799   1
 -10   3  -9 -2.8570 8.45636   3
  10  -3   9 3.65835 10.9047   1
  10   2  -9 4.18809 7.82870   4
 -10  -2   9 -12.699 6.72083   3
   9   2  -9 65.3281 11.7671   4
  -9  -2   9 61.1357 12.4007   3
   8   2  -9 30.8442 9.39521   4
  -8  -2   9 39.5146 10.6922   3
   7   2  -9 -0.7910 6.13320   4
  -7  -2   9 -5.7973 6.15990   3
  -7  -2   9 -3.1618 5.21166   2
   6   2  -9 69.6070 10.9919   4
  -6  -2   9 108.822 11.6123   2
  -6  -2   9 84.3160 11.6830   3
   5   2  -9 -0.5161 5.27714   4
  -5  -2   9 5.04722 6.37945   3
  -5  -2   9 12.8046 6.10757   2
   4   2  -9 -0.8429 5.74276   4
   4   2  -9 -1.0525 3.24403   1
  -4  -2   9 -7.1492 4.62738   3
  -4  -2   9 -0.1044 5.23735   2
   3   2  -9 0.41225 5.71721   4
  -3  -2   9 1.55055 5.00585   2
  -3  -2   9 -1.5611 5.02787   3
   2   2  -9 923.220 30.3294   4
  -2  -2   9 946.564 30.9806   2
  -2  -2   9 889.620 29.2477   3
   1   2  -9 50.0753 8.66195   4
  -1  -2   9 44.6998 7.80986   3
  -1  -2   9 46.7635 7.63455   2
   0   2  -9 310.545 15.9742   4
   0   2  -9 331.978 13.7430   3
   0  -2   9 318.862 16.2831   2
   0  -2   9 306.168 8.94339   1
  -1   2  -9 647.061 21.4882   3
  -1   2  -9 641.877 21.6269   4
   1  -2   9 684.901 17.5738   1
   1  -2   9 651.298 24.5954   2
  -2   2  -9 430.426 16.8502   3
  -2   2  -9 424.116 16.4798   4
   2  -2   9 438.409 14.6292   1
   2  -2   9 451.944 19.6775   2
  -3   2  -9 403.433 15.1525   4
  -3   2  -9 409.305 16.7852   3
   3  -2   9 394.863 15.5584   1
   3  -2   9 394.979 18.5142   2
  -4   2  -9 30.1323 7.02895   3
  -4   2  -9 4.72405 3.97569   4
   4  -2   9 9.12887 5.26532   2
   4  -2   9 12.2842 5.84277   1
  -5   2  -9 268.274 12.0858   4
  -5   2  -9 270.319 15.7952   3
   5  -2   9 293.597 16.3432   1
   5  -2   9 256.909 14.7460   2
  -6   2  -9 6.22544 6.50032   3
  -6   2  -9 5.05167 3.81418   4
   6  -2   9 -2.1152 6.30779   1
   6  -2   9 -1.7241 4.18758   2
  -7   2  -9 4.11929 6.57461   3
  -7   2  -9 10.7768 4.29424   4
   7  -2   9 4.09510 6.89102   1
   7  -2   9 4.37186 4.60474   2
  -8   2  -9 -1.4373 7.02002   3
   8  -2   9 -8.9457 6.72591   1
  -9   2  -9 128.301 15.6318   3
   9  -2   9 124.834 16.2351   1
 -10   2  -9 3.39908 8.59436   3
  10  -2   9 2.60032 10.0998   1
   9   1  -9 220.137 18.1767   4
  -9  -1   9 212.416 20.4088   3
   8   1  -9 130.528 15.1102   4
  -8  -1   9 123.868 15.6858   3
   7   1  -9 139.223 15.4773   4
  -7  -1   9 123.734 13.9097   3
  -7  -1   9 145.737 13.0845   2
   6   1  -9 198.584 13.3031   1
   6   1  -9 203.570 15.6462   4
  -6  -1   9 238.171 16.0701   3
  -6  -1   9 208.041 14.1552   2
   5   1  -9 23.3529 5.82933   1
   5   1  -9 24.5023 7.54384   4
  -5  -1   9 22.3558 6.75171   2
  -5  -1   9 22.0336 7.48582   3
   4   1  -9 911.213 31.4646   4
   4   1  -9 918.416 24.2363   1
  -4  -1   9 872.017 29.6293   3
  -4  -1   9 929.526 30.6851   2
   3   1  -9 1.09081 5.34953   4
   3   1  -9 6.97467 3.09038   1
  -3  -1   9 7.81102 5.07879   3
  -3  -1   9 10.1320 5.63795   2
   2   1  -9 1450.73 29.9380   1
   2   1  -9 1397.25 39.7709   4
  -2  -1   9 1388.65 38.4211   3
  -2  -1   9 1437.51 41.9564   2
   1   1  -9 836.550 27.7960   4
  -1  -1   9 850.343 18.1442   1
  -1  -1   9 778.292 27.6102   2
  -1  -1   9 822.478 25.9857   3
   0   1  -9 586.159 21.2711   4
   0  -1   9 558.115 20.3176   3
   0  -1   9 588.789 14.3754   1
   0  -1   9 590.082 22.4135   2
  -1   1  -9 8.80896 5.27024   4
  -1   1  -9 9.96954 3.50144   3
   1  -1   9 8.91516 2.89997   1
   1  -1   9 11.3725 5.21296   2
  -2   1  -9 59.4039 6.79104   3
  -2   1  -9 45.7288 6.88139   4
   2  -1   9 51.9510 7.89465   2
   2  -1   9 53.0229 5.78221   1
  -3   1  -9 197.350 10.9431   4
  -3   1  -9 185.845 10.4829   3
   3  -1   9 200.329 10.5311   1
   3  -1   9 180.513 11.9251   2
  -4   1  -9 973.708 28.6998   3
  -4   1  -9 932.786 25.9195   4
   4  -1   9 942.410 30.6374   2
   4  -1   9 944.909 27.7497   1
  -5   1  -9 4.89451 4.14908   4
  -5   1  -9 9.74028 5.46628   3
   5  -1   9 11.9795 4.93091   2
   5  -1   9 6.53306 5.83141   1
  -6   1  -9 147.547 10.0466   4
  -6   1  -9 159.373 12.6913   3
   6  -1   9 147.006 10.8804   2
   6  -1   9 191.236 13.9468   1
  -7   1  -9 12.9571 7.17139   3
  -7   1  -9 5.58832 4.70046   4
   7  -1   9 20.0199 7.90398   1
   7  -1   9 9.12069 4.49778   2
  -8   1  -9 413.680 16.7793   4
  -8   1  -9 417.999 21.6341   3
   8  -1   9 375.059 21.2312   1
  -9   1  -9 197.160 17.0861   3
   9  -1   9 226.576 19.3383   1
 -10   1  -9 162.528 18.0016   3
  10  -1   9 179.113 19.4087   1
 -11   1  -9 -5.4715 7.96586   3
  11  -1   9 0.27073 10.6920   1
   9   0  -9 49.4589 10.9253   4
  -9   0   9 38.7980 11.0599   3
   8   0  -9 30.5586 9.17371   4
  -8   0   9 21.7433 9.09952   3
   7   0  -9 36.8048 8.85674   1
   7   0  -9 48.8180 9.82786   4
  -7   0   9 35.5261 8.08935   2
  -7   0   9 31.8041 9.06898   3
   6   0  -9 341.652 19.0749   4
   6   0  -9 380.772 18.2713   1
  -6   0   9 353.787 17.9487   2
  -6   0   9 341.209 19.0907   3
   5   0  -9 -1.1138 5.06791   1
   5   0  -9 1.29698 5.68709   4
  -5   0   9 -3.1056 4.92708   2
  -5   0   9 0.69682 5.53244   3
   4   0  -9 116.170 10.3272   1
   4   0  -9 111.635 13.1187   4
  -4   0   9 112.928 11.1158   2
  -4   0   9 112.322 11.4081   3
   3   0  -9 50.7675 6.66303   1
   3   0  -9 46.2513 8.60985   4
  -3   0   9 43.8138 7.78891   2
  -3   0   9 48.2264 7.49319   3
   2   0  -9 187.459 13.7255   4
   2   0  -9 190.005 8.87292   1
  -2   0   9 210.915 13.0365   2
  -2   0   9 209.090 11.5409   3
   1   0  -9 713.767 18.2993   1
   1   0  -9 744.047 25.3461   4
  -1   0   9 729.242 25.3298   2
  -1   0   9 728.594 22.5589   3
   0   0  -9 1539.96 40.0151   4
   0   0  -9 1579.04 34.0397   1
   0   0   9 1573.18 44.6997   2
   0   0   9 1580.08 39.4569   3
  -1   0  -9 185.895 8.65188   3
  -1   0  -9 178.720 12.0498   4
   1   0   9 175.849 11.5110   2
   1   0   9 177.301 7.68208   1
  -2   0  -9 327.790 12.3855   3
  -2   0  -9 352.436 15.2014   4
   2   0   9 342.086 12.0410   1
   2   0   9 313.971 15.1844   2
  -3   0  -9 171.126 9.29458   3
  -3   0  -9 159.774 10.6029   4
   3   0   9 165.771 9.33589   1
   3   0   9 152.081 10.7808   2
  -4   0  -9 194.414 10.6711   3
  -4   0  -9 194.070 10.9891   4
   4   0   9 192.833 11.4805   2
   4   0   9 185.597 10.8877   1
  -5   0  -9 3.49882 4.24147   4
  -5   0  -9 13.4741 5.36729   3
   5   0   9 14.3933 5.34631   1
   5   0   9 7.29507 4.64281   2
  -6   0  -9 140.921 11.4810   3
  -6   0  -9 142.956 10.0096   4
   6   0   9 143.982 9.95601   2
   6   0   9 138.305 12.1427   1
  -7   0  -9 60.5162 9.41957   3
  -7   0  -9 34.4536 6.45842   4
   7   0   9 52.6099 6.61362   2
   7   0   9 53.1915 9.88229   1
  -8   0  -9 4.28932 6.41175   3
  -8   0  -9 4.15336 4.50403   4
   8   0   9 0.07101 6.50175   1
  -9   0  -9 38.3973 9.55869   3
  -9   0  -9 37.8102 7.26521   4
   9   0   9 38.4651 10.3594   1
 -10   0  -9 182.367 17.6959   3
  10   0   9 151.376 17.4238   1
 -11   0  -9 24.1933 10.2625   3
  11   0   9 40.0905 12.5407   1
   9  -1  -9 120.018 15.0147   4
  -9   1   9 120.497 15.8153   3
   8  -1  -9 50.9654 10.3772   4
   8  -1  -9 47.8772 11.0574   1
  -8   1   9 34.9122 10.1046   3
   7  -1  -9 302.496 19.1714   1
   7  -1  -9 302.590 18.5780   4
  -7   1   9 252.803 17.5758   3
  -7   1   9 257.259 16.0548   2
   6  -1  -9 62.5557 10.5763   1
   6  -1  -9 68.3539 10.8201   4
  -6   1   9 60.5791 10.3496   3
  -6   1   9 72.4532 9.82864   2
   5  -1  -9 111.378 12.4182   4
   5  -1  -9 120.572 12.9577   1
  -5   1   9 108.102 10.8932   2
  -5   1   9 113.651 12.2687   3
   4  -1  -9 103.304 11.9516   4
   4  -1  -9 126.524 12.1611   1
  -4   1   9 109.092 10.8824   3
  -4   1   9 131.093 12.0364   2
   3  -1  -9 73.9434 10.1956   4
   3  -1  -9 95.6257 9.45761   1
  -3   1   9 70.1109 9.11828   2
  -3   1   9 91.0778 9.19826   3
   2  -1  -9 9.06968 4.32868   1
   2  -1  -9 9.61114 5.72817   4
  -2   1   9 11.2733 4.28316   3
  -2   1   9 12.1956 5.08432   2
   1  -1  -9 16.0072 5.96742   4
   1  -1  -9 21.9208 4.69804   1
  -1   1   9 13.0289 5.39539   2
  -1   1   9 15.4169 4.60155   3
   0  -1  -9 60.8980 6.01200   1
   0  -1  -9 61.5561 8.92091   4
   0   1   9 45.2850 5.83246   3
   0   1   9 50.5470 7.29776   2
  -1  -1  -9 1916.91 42.8307   3
  -1  -1  -9 1952.00 42.2679   1
  -1  -1  -9 1854.12 45.2235   4
   1   1   9 1886.95 51.6366   2
  -2  -1  -9 2341.21 53.1559   4
  -2  -1  -9 2338.99 51.8754   3
   2   1   9 2422.85 51.1706   1
   2   1   9 2261.27 61.0611   2
  -3  -1  -9 592.421 20.3674   4
  -3  -1  -9 633.760 17.8953   3
   3   1   9 601.066 21.2568   2
   3   1   9 596.080 18.5296   1
  -4  -1  -9 85.3182 7.09644   3
  -4  -1  -9 111.150 10.1348   4
   4   1   9 115.922 8.93503   2
   4   1   9 93.2888 7.82857   1
  -5  -1  -9 74.8663 7.99370   3
  -5  -1  -9 84.2819 8.94418   4
   5   1   9 64.4054 7.73970   2
   5   1   9 76.2775 8.63902   1
  -6  -1  -9 277.883 14.1427   4
  -6  -1  -9 314.121 14.9747   3
   6   1   9 305.679 13.6785   2
   6   1   9 288.565 15.3197   1
  -7  -1  -9 394.641 17.9218   3
  -7  -1  -9 388.387 16.7347   4
   7   1   9 360.293 18.6430   1
   7   1   9 387.009 15.0972   2
  -8  -1  -9 31.7190 6.91471   4
  -8  -1  -9 29.4848 7.72984   3
   8   1   9 33.1695 8.46335   1
  -9  -1  -9 132.823 12.7984   4
  -9  -1  -9 152.789 13.6321   3
   9   1   9 124.949 14.8625   1
 -10  -1  -9 3.89602 5.05485   4
 -10  -1  -9 -9.7092 5.83057   3
  10   1   9 -1.7153 7.12896   1
 -11  -1  -9 419.567 20.4063   4
 -11  -1  -9 382.956 22.8730   3
  11   1   9 422.980 25.8275   1
 -12  -1  -9 11.2089 8.96119   3
  12   1   9 34.3910 12.7303   1
   8  -2  -9 15.3418 10.1835   1
   8  -2  -9 30.0865 9.14736   4
  -8   2   9 24.1619 9.73799   3
   7  -2  -9 84.4503 13.3572   1
   7  -2  -9 110.803 12.8250   4
  -7   2   9 83.1676 12.4511   3
  -7   2   9 68.5460 10.2976   2
   6  -2  -9 -9.8155 6.42057   1
   6  -2  -9 4.77243 5.92555   4
  -6   2   9 2.30244 6.38012   3
  -6   2   9 5.20665 5.12657   2
   5  -2  -9 568.932 24.5747   1
   5  -2  -9 580.875 23.6781   4
  -5   2   9 536.638 22.6656   2
  -5   2   9 534.442 22.6061   3
   4  -2  -9 546.471 23.2241   1
   4  -2  -9 597.798 23.2874   4
  -4   2   9 576.009 23.0422   2
  -4   2   9 556.172 21.5457   3
   3  -2  -9 72.2905 9.80372   4
   3  -2  -9 80.1887 10.0693   1
  -3   2   9 67.9710 8.29492   3
  -3   2   9 82.5128 9.67460   2
   2  -2  -9 667.191 22.7220   1
   2  -2  -9 665.171 23.7292   4
  -2   2   9 691.905 21.1152   3
  -2   2   9 642.815 24.5149   2
   1  -2  -9 243.919 14.0321   4
   1  -2  -9 215.654 11.9621   1
  -1   2   9 207.026 9.75919   3
  -1   2   9 213.313 12.8413   2
   0  -2  -9 1.62333 4.75581   4
   0  -2  -9 4.09539 3.85202   1
   0   2   9 3.46307 3.10621   3
   0   2   9 -5.3408 3.64483   2
  -1  -2  -9 17.8866 6.17167   4
  -1  -2  -9 24.4506 2.86579   3
  -1  -2  -9 26.6538 5.01956   1
   1   2   9 29.1889 5.83509   2
  -2  -2  -9 155.440 10.6327   4
  -2  -2  -9 178.965 9.86448   1
  -2  -2  -9 163.307 6.09226   3
   2   2   9 163.601 11.1003   2
  -3  -2  -9 176.120 11.1606   4
  -3  -2  -9 173.571 7.02885   3
   3   2   9 174.481 11.0217   2
   3   2   9 178.221 9.56425   1
  -4  -2  -9 24.3541 5.73713   4
  -4  -2  -9 26.4180 4.37677   3
   4   2   9 23.1267 4.99040   1
   4   2   9 20.6985 5.15199   2
  -5  -2  -9 1.86190 4.07912   4
  -5  -2  -9 -2.1196 3.45313   3
   5   2   9 5.54848 4.00581   2
   5   2   9 4.09503 4.05267   1
  -6  -2  -9 303.344 13.7379   3
  -6  -2  -9 288.964 14.7672   4
   6   2   9 276.444 12.8249   2
   6   2   9 260.252 14.5081   1
  -7  -2  -9 262.456 13.7226   3
  -7  -2  -9 249.769 14.3077   4
   7   2   9 249.305 15.1386   1
   7   2   9 252.210 11.4822   2
  -8  -2  -9 45.0880 8.13814   3
  -8  -2  -9 51.1626 8.53068   4
   8   2   9 31.3118 8.18214   1
  -9  -2  -9 6.40251 5.49684   4
  -9  -2  -9 13.8673 6.48242   3
   9   2   9 7.97936 6.39741   1
 -10  -2  -9 184.247 14.8428   3
 -10  -2  -9 174.285 14.1857   4
  10   2   9 193.979 18.6449   1
 -11  -2  -9 57.9997 10.9921   3
 -11  -2  -9 54.2563 9.36951   4
  11   2   9 56.9226 12.0829   1
 -12  -2  -9 26.6294 8.36666   4
 -12  -2  -9 25.7403 9.61549   3
  12   2   9 11.4383 10.3903   1
   8  -3  -9 -2.2917 8.52093   1
  -8   3   9 5.36110 8.22880   3
   7  -3  -9 31.3029 10.6465   1
   7  -3  -9 28.6822 8.64200   4
  -7   3   9 35.9053 9.70477   3
  -7   3   9 43.7475 8.59212   2
   6  -3  -9 181.945 14.6254   4
   6  -3  -9 186.855 18.3044   1
  -6   3   9 169.933 14.4889   3
  -6   3   9 191.622 14.2786   2
   5  -3  -9 316.651 20.3878   1
   5  -3  -9 291.194 16.7423   4
  -5   3   9 337.151 17.6918   2
  -5   3   9 310.924 16.8450   3
   4  -3  -9 371.258 18.6129   4
   4  -3  -9 399.035 21.0424   1
  -4   3   9 333.681 18.0239   2
  -4   3   9 413.197 18.1285   3
   3  -3  -9 75.4509 11.0698   1
   3  -3  -9 64.5251 9.18199   4
  -3   3   9 69.9353 8.76440   3
  -3   3   9 79.5172 9.85939   2
   2  -3  -9 2.92672 5.20091   4
   2  -3  -9 0.31648 6.14592   1
  -2   3   9 15.7821 5.63748   2
  -2   3   9 5.85649 4.36330   3
   1  -3  -9 1085.77 32.0314   1
   1  -3  -9 1097.94 30.9357   4
  -1   3   9 1076.00 27.6654   3
  -1   3   9 1119.32 34.6698   2
   0  -3  -9 47.6153 7.47830   1
   0  -3  -9 48.0901 7.39633   4
   0   3   9 50.2395 4.58021   3
   0   3   9 52.6057 7.79530   2
  -1  -3  -9 528.530 18.5663   1
  -1  -3  -9 525.848 19.1163   4
   1   3   9 545.197 20.6468   2
  -2  -3  -9 1000.69 27.7094   4
  -2  -3  -9 926.259 26.8011   1
   2   3   9 925.004 29.8937   2
  -3  -3  -9 420.605 17.0135   4
  -3  -3  -9 453.333 16.6696   1
  -3  -3  -9 439.920 10.7658   3
   3   3   9 438.756 17.5932   2
  -4  -3  -9 1300.65 35.0545   4
  -4  -3  -9 1350.37 30.9854   3
   4   3   9 1379.55 35.3977   1
   4   3   9 1344.35 38.0017   2
  -5  -3  -9 1076.38 31.1234   4
  -5  -3  -9 1121.82 28.2591   3
   5   3   9 1118.34 31.5106   1
   5   3   9 1109.25 32.0958   2
  -6  -3  -9 1140.83 32.2861   4
  -6  -3  -9 1067.48 29.4002   3
   6   3   9 1132.59 32.8557   1
   6   3   9 1108.31 31.6979   2
  -7  -3  -9 1.64951 4.44255   3
  -7  -3  -9 12.2978 5.41617   4
   7   3   9 7.05053 5.36406   1
   7   3   9 9.64775 4.28422   2
  -8  -3  -9 357.869 17.6517   4
  -8  -3  -9 396.121 17.3724   3
   8   3   9 345.656 18.4834   1
  -9  -3  -9 10.5687 6.43752   3
  -9  -3  -9 13.2029 5.86472   4
   9   3   9 24.2089 7.27065   1
 -10  -3  -9 3.74678 5.43172   4
 -10  -3  -9 1.14498 5.96607   3
  10   3   9 11.1423 7.27494   1
 -11  -3  -9 87.3277 12.5542   3
 -11  -3  -9 87.9272 11.9997   4
  11   3   9 83.2454 13.0370   1
 -12  -3  -9 7.21376 7.92135   3
 -12  -3  -9 21.4706 7.71643   4
  12   3   9 24.7993 9.96252   1
   7  -4  -9 32.8230 11.1931   1
  -7   4   9 43.2715 9.02956   2
  -7   4   9 47.3056 10.9900   3
   6  -4  -9 8.84530 7.94302   4
   6  -4  -9 -4.9233 8.47452   1
  -6   4   9 11.2168 6.22476   2
  -6   4   9 5.80570 7.05942   3
   5  -4  -9 99.1137 11.0846   4
   5  -4  -9 86.8746 13.7402   1
  -5   4   9 105.584 12.2149   3
  -5   4   9 90.9157 11.1418   2
   4  -4  -9 34.7762 9.98502   1
   4  -4  -9 44.5576 8.26324   4
  -4   4   9 47.5859 8.41501   3
  -4   4   9 32.1055 7.58256   2
   3  -4  -9 137.604 11.3632   4
   3  -4  -9 116.885 14.6317   1
  -3   4   9 110.435 10.7132   3
  -3   4   9 114.806 11.9271   2
   2  -4  -9 4.57365 7.23461   1
   2  -4  -9 12.8952 5.57226   4
  -2   4   9 8.74009 5.13854   2
  -2   4   9 5.19267 4.34200   3
   1  -4  -9 2.61495 6.33908   1
   1  -4  -9 4.69773 4.88514   4
  -1   4   9 7.06550 5.16338   2
   0  -4  -9 46.5244 7.03731   4
   0  -4  -9 50.8019 8.64545   1
   0   4   9 55.4344 4.65488   3
   0   4   9 48.8887 7.42916   2
  -1  -4  -9 21.9207 5.65766   4
  -1  -4  -9 17.1831 6.04332   1
   1   4   9 17.3822 5.41294   2
  -2  -4  -9 73.0578 8.39724   4
  -2  -4  -9 70.4214 9.32031   1
   2   4   9 70.8919 8.12979   2
  -3  -4  -9 423.103 16.9071   4
  -3  -4  -9 413.772 17.1492   1
   3   4   9 392.569 16.9088   2
  -4  -4  -9 97.9747 9.70991   4
  -4  -4  -9 89.9445 4.36848   3
   4   4   9 90.3074 8.85833   2
   4   4   9 83.2690 8.64324   1
  -5  -4  -9 326.396 15.5859   4
  -5  -4  -9 319.606 11.1158   3
   5   4   9 313.300 14.1521   2
   5   4   9 317.987 14.8862   1
  -6  -4  -9 163.755 9.17795   3
  -6  -4  -9 171.786 12.1881   4
   6   4   9 153.152 9.82491   2
   6   4   9 164.539 11.5465   1
  -7  -4  -9 41.6502 7.93142   4
  -7  -4  -9 44.7420 6.73876   3
   7   4   9 41.7859 5.72895   2
   7   4   9 34.2082 7.45989   1
  -8  -4  -9 18.1648 5.82808   3
  -8  -4  -9 17.0666 6.44288   4
   8   4   9 12.3293 5.89464   1
  -9  -4  -9 32.4191 7.65110   4
  -9  -4  -9 31.7898 7.42177   3
   9   4   9 34.7656 8.67415   1
 -10  -4  -9 95.9117 12.0362   4
 -10  -4  -9 125.214 12.7371   3
  10   4   9 133.492 14.8896   1
 -11  -4  -9 87.9565 12.3809   4
 -11  -4  -9 95.0676 12.2372   3
  11   4   9 83.7667 12.4899   1
 -12  -4  -9 15.3917 7.42523   4
 -12  -4  -9 3.35014 6.69603   3
  12   4   9 8.26886 8.41839   1
   7  -5  -9 22.9602 11.7900   1
  -7   5   9 42.2733 9.21213   2
  -7   5   9 13.7116 9.42651   3
   6  -5  -9 30.2483 10.8537   1
  -6   5   9 19.8159 6.92388   2
  -6   5   9 14.3877 8.34132   3
   5  -5  -9 234.238 21.5857   1
  -5   5   9 239.388 16.2649   3
  -5   5   9 235.114 16.2473   2
   4  -5  -9 347.462 22.5638   1
   4  -5  -9 326.720 16.2255   4
  -4   5   9 358.329 17.6246   3
  -4   5   9 325.324 18.6333   2
   3  -5  -9 48.7195 7.66362   4
   3  -5  -9 50.6369 11.1705   1
  -3   5   9 54.1378 8.77878   2
  -3   5   9 54.1716 8.06028   3
   2  -5  -9 1669.18 40.7805   4
   2  -5  -9 1670.86 49.9289   1
  -2   5   9 1570.27 48.9767   2
  -2   5   9 1667.27 41.7097   3
   1  -5  -9 27.3336 8.85506   1
   1  -5  -9 19.9397 5.80253   4
  -1   5   9 16.4725 5.97771   2
  -1   5   9 19.6205 4.71802   3
   0  -5  -9 264.691 16.9638   1
   0  -5  -9 256.375 12.9372   4
   0   5   9 248.876 14.5133   2
   0   5   9 262.830 9.39785   3
  -1  -5  -9 247.714 12.9166   4
  -1  -5  -9 257.696 15.8733   1
   1   5   9 258.616 14.4149   2
  -2  -5  -9 109.763 9.36435   4
  -2  -5  -9 119.440 11.8282   1
   2   5   9 101.367 10.3179   2
  -3  -5  -9 398.955 18.3877   1
  -3  -5  -9 375.266 16.3143   4
   3   5   9 414.477 17.4763   2
  -4  -5  -9 5.83523 5.48239   1
  -4  -5  -9 5.02505 4.78191   4
   4   5   9 6.46352 4.23076   2
  -5  -5  -9 57.6446 8.10162   4
  -5  -5  -9 50.5133 4.72244   3
   5   5   9 44.1252 7.23026   1
   5   5   9 50.4998 6.84693   2
  -6  -5  -9 308.182 15.9319   4
  -6  -5  -9 292.585 11.5658   3
   6   5   9 299.333 15.3903   1
   6   5   9 318.014 13.8113   2
  -7  -5  -9 49.4668 6.69933   3
  -7  -5  -9 47.9133 8.28286   4
   7   5   9 37.5784 7.58221   1
   7   5   9 45.3705 6.37858   2
  -8  -5  -9 923.899 27.6494   3
  -8  -5  -9 911.531 30.5169   4
   8   5   9 892.686 30.7187   1
  -9  -5  -9 17.2139 6.31694   3
  -9  -5  -9 27.1833 7.64726   4
   9   5   9 22.9685 7.25483   1
 -10  -5  -9 618.263 24.4038   3
 -10  -5  -9 658.581 27.0267   4
  10   5   9 627.045 26.8092   1
 -11  -5  -9 25.4123 7.65497   3
 -11  -5  -9 40.4691 9.40123   4
  11   5   9 48.3565 10.3273   1
 -12  -5  -9 114.124 14.3554   4
 -12  -5  -9 89.5177 12.5888   3
  12   5   9 86.3578 13.7635   1
  13   5   9 25.9167 10.4988   1
   6  -6  -9 5.38898 10.2596   1
  -6   6   9 16.4321 7.23613   2
   5  -6  -9 9.29919 10.1934   1
  -5   6   9 29.1618 8.11342   2
   4  -6  -9 37.9999 11.9340   1
  -4   6   9 24.3564 9.55029   3
  -4   6   9 41.3898 8.60574   2
   3  -6  -9 1.85668 4.38717   4
   3  -6  -9 1.28762 8.35597   1
  -3   6   9 -2.3788 4.84591   2
  -3   6   9 0.47356 5.49554   3
   2  -6  -9 12.2186 4.99570   4
   2  -6  -9 7.44436 8.31864   1
  -2   6   9 9.79082 6.10569   2
  -2   6   9 17.7756 5.90216   3
   1  -6  -9 42.6065 11.0831   1
   1  -6  -9 40.9740 6.54856   4
  -1   6   9 34.3412 7.68285   3
  -1   6   9 31.7623 7.38949   2
   0  -6  -9 50.6497 7.14361   4
   0  -6  -9 37.7022 9.34046   1
   0   6   9 35.2814 7.60085   2
  -1  -6  -9 58.7827 10.4457   1
  -1  -6  -9 63.7770 7.79454   4
   1   6   9 55.5571 8.69379   2
  -2  -6  -9 501.135 18.4134   4
  -2  -6  -9 463.205 21.2385   1
   2   6   9 496.077 20.9070   2
  -3  -6  -9 21.0009 5.58164   4
  -3  -6  -9 16.3785 6.63308   1
   3   6   9 15.1390 5.20640   2
  -4  -6  -9 56.7934 8.27838   4
  -4  -6  -9 57.3271 9.36256   1
   4   6   9 51.4669 7.58418   2
  -5  -6  -9 146.543 11.7716   4
  -5  -6  -9 154.942 12.8698   1
  -5  -6  -9 164.703 6.99549   3
   5   6   9 159.454 10.8780   2
  -6  -6  -9 762.353 20.7286   3
  -6  -6  -9 731.891 26.0584   4
   6   6   9 752.962 26.5003   1
   6   6   9 733.776 24.8674   2
  -7  -6  -9 66.5950 9.67133   4
  -7  -6  -9 75.9051 7.65312   3
   7   6   9 74.2777 7.84866   2
   7   6   9 71.4060 9.55288   1
  -8  -6  -9 -4.1588 3.83155   3
  -8  -6  -9 1.89772 5.48829   4
   8   6   9 8.17558 5.41956   1
  -9  -6  -9 299.079 14.7254   3
  -9  -6  -9 316.533 18.3656   4
   9   6   9 255.673 16.8392   1
 -10  -6  -9 31.8452 8.60145   4
 -10  -6  -9 42.5245 8.10044   3
  10   6   9 38.8871 9.50616   1
 -11  -6  -9 -5.0264 5.52568   3
 -11  -6  -9 3.02373 6.55281   4
  11   6   9 16.9687 7.99690   1
 -12  -6  -9 34.3421 9.13966   3
 -12  -6  -9 28.7512 9.34220   4
  12   6   9 43.3924 11.1378   1
  13   6   9 13.0921 9.06218   1
   5  -7  -9 254.638 24.2215   1
  -5   7   9 262.392 18.3468   2
   4  -7  -9 15.0987 10.9535   1
  -4   7   9 18.0582 7.57072   2
   3  -7  -9 6.04511 8.92914   1
  -3   7   9 5.89222 5.94560   2
   2  -7  -9 7.35197 8.93788   1
  -2   7   9 -2.7445 5.25349   2
   1  -7  -9 7.08904 4.49667   4
   1  -7  -9 9.18884 8.79995   1
  -1   7   9 8.15267 5.57332   2
   0  -7  -9 280.227 13.3579   4
   0  -7  -9 306.690 20.7053   1
   0   7   9 281.908 16.8571   2
  -1  -7  -9 488.208 17.7063   4
  -1  -7  -9 462.134 23.6235   1
   1   7   9 436.530 21.1183   2
  -2  -7  -9 176.626 11.6306   4
  -2  -7  -9 161.948 15.4200   1
   2   7   9 173.336 12.8453   2
  -3  -7  -9 517.952 23.3097   1
  -3  -7  -9 515.297 19.4064   4
   3   7   9 504.367 21.6334   2
  -4  -7  -9 44.4650 7.65430   4
  -4  -7  -9 62.8430 10.5586   1
   4   7   9 69.8510 9.03888   2
  -5  -7  -9 493.632 20.0684   4
  -5  -7  -9 446.292 21.3900   1
   5   7   9 480.398 19.8788   2
  -6  -7  -9 30.3495 7.43620   4
   6   7   9 20.8061 6.34165   1
   6   7   9 22.4918 5.63963   2
  -7  -7  -9 42.2202 8.47510   4
  -7  -7  -9 60.7491 7.63969   3
   7   7   9 51.4310 9.21187   1
   7   7   9 45.4083 6.89742   2
  -8  -7  -9 31.2622 8.22938   4
  -8  -7  -9 44.8437 6.96780   3
   8   7   9 28.7693 7.16987   1
  -9  -7  -9 498.782 19.8060   3
  -9  -7  -9 495.203 23.1496   4
   9   7   9 525.791 23.1817   1
 -10  -7  -9 54.7766 8.91717   3
 -10  -7  -9 42.7031 9.77544   4
  10   7   9 56.4958 10.2969   1
 -11  -7  -9 111.389 14.3144   4
 -11  -7  -9 127.637 13.0447   3
  11   7   9 126.484 15.1244   1
 -12  -7  -9 23.7272 9.26401   4
 -12  -7  -9 18.6672 7.73181   3
  12   7   9 23.5666 8.80315   1
   4  -8  -9 5.48141 11.3235   1
  -4   8   9 11.1893 6.93386   2
   3  -8  -9 84.0398 15.7673   1
  -3   8   9 142.000 15.5135   2
   2  -8  -9 257.856 22.3741   1
  -2   8   9 279.954 18.2807   2
   1  -8  -9 -5.5556 8.02790   1
  -1   8   9 3.87769 5.65077   2
   0  -8  -9 83.6351 13.8587   1
   0  -8  -9 86.3998 8.52238   4
   0   8   9 95.6533 12.2276   2
  -1  -8  -9 101.546 9.57523   4
  -1  -8  -9 106.424 15.0913   1
   1   8   9 86.9610 11.7886   2
  -2  -8  -9 49.2391 10.3325   1
  -2  -8  -9 50.1821 7.57015   4
   2   8   9 64.0887 10.1145   2
  -3  -8  -9 236.748 13.3119   4
  -3  -8  -9 220.373 16.6412   1
   3   8   9 211.284 14.3821   2
  -4  -8  -9 41.5425 8.99708   1
  -4  -8  -9 53.3060 8.15931   4
   4   8   9 46.9745 8.32186   2
  -5  -8  -9 61.2583 8.88068   4
  -5  -8  -9 46.6951 9.44427   1
   5   8   9 65.2737 8.62482   2
  -6  -8  -9 335.499 18.8439   1
  -6  -8  -9 300.136 17.0220   4
   6   8   9 313.737 15.9594   2
  -7  -8  -9 67.3230 10.2887   4
   7   8   9 62.1894 7.90198   2
   7   8   9 54.9144 8.92289   1
  -8  -8  -9 274.503 17.6247   4
   8   8   9 285.375 17.4892   1
  -9  -8  -9 22.7251 7.92706   4
   9   8   9 38.4862 9.00659   1
 -10  -8  -9 167.805 16.8068   4
  10   8   9 163.992 16.5776   1
 -11  -8  -9 37.4511 9.74482   4
  11   8   9 36.8188 9.43219   1
 -12  -8  -9 41.8184 10.7942   4
  12   8   9 57.9807 11.4076   1
   3  -9  -9 89.8212 16.5978   1
  -3   9   9 79.9922 12.7531   2
   2  -9  -9 186.181 21.3132   1
  -2   9   9 145.189 15.8793   2
   1  -9  -9 47.9654 12.8214   1
  -1   9   9 51.7566 10.5888   2
   0  -9  -9 15.2167 10.2423   1
   0   9   9 14.2763 6.94190   2
  -1  -9  -9 48.5017 8.61556   4
  -1  -9  -9 58.5498 12.4139   1
   1   9   9 48.0722 9.21163   2
  -2  -9  -9 66.6312 12.3612   1
  -2  -9  -9 73.6130 8.82472   4
   2   9   9 96.4009 12.5105   2
  -3  -9  -9 103.261 13.8593   1
  -3  -9  -9 106.162 10.4253   4
   3   9   9 97.3078 12.1397   2
  -4  -9  -9 18.2823 7.99779   1
  -4  -9  -9 27.8924 6.71509   4
   4   9   9 41.7835 8.44835   2
  -5  -9  -9 251.698 15.0325   4
  -5  -9  -9 247.351 17.7971   1
   5   9   9 261.069 16.2275   2
  -6  -9  -9 832.088 31.6855   1
  -6  -9  -9 824.017 28.5726   4
   6   9   9 758.441 28.6414   2
  -7  -9  -9 73.6470 10.7679   4
   7   9   9 96.0056 10.3121   2
   7   9   9 86.2400 11.2462   1
  -8  -9  -9 206.018 15.5038   4
   8   9   9 206.590 15.5321   1
  -9  -9  -9 106.109 13.5209   4
   9   9   9 89.5358 12.3287   1
 -10  -9  -9 96.9793 13.8667   4
  10   9   9 88.5950 12.8759   1
 -11  -9  -9 52.2368 11.0888   4
  11   9   9 29.0715 8.96021   1
 -12  -9  -9 60.2611 12.6589   4
  12   9   9 64.5916 12.0056   1
   2 -10  -9 50.1841 13.9811   1
  -2  10   9 53.8573 11.1265   2
   1 -10  -9 235.072 24.1134   1
  -1  10   9 242.273 18.9351   2
   0 -10  -9 -0.8695 9.52977   1
   0  10   9 3.28194 6.44939   2
  -1 -10  -9 8.96755 8.77327   1
   1  10   9 9.52000 6.85969   2
  -2 -10  -9 26.4430 10.6019   1
   2  10   9 35.3228 9.02355   2
  -3 -10  -9 9.31669 5.17115   4
  -3 -10  -9 2.14097 8.61674   1
   3  10   9 25.7965 7.90235   2
  -4 -10  -9 33.7556 7.15141   4
  -4 -10  -9 16.8902 9.47369   1
   4  10   9 53.1418 9.84065   2
  -5 -10  -9 106.467 11.6124   4
  -5 -10  -9 87.5440 13.5482   1
   5  10   9 98.6386 11.9020   2
  -6 -10  -9 110.869 14.3312   1
  -6 -10  -9 137.951 13.3289   4
   6  10   9 120.252 12.9250   2
  -7 -10  -9 18.9177 7.33030   4
   7  10   9 21.0087 6.54811   2
  -8 -10  -9 141.411 14.7971   4
   8  10   9 122.297 13.9179   1
  -9 -10  -9 0.04157 6.34521   4
   9  10   9 0.60291 5.75942   1
 -10 -10  -9 20.9234 8.95094   4
  10  10   9 33.4859 9.12686   1
 -11 -10  -9 9.95632 8.35374   4
  11  10   9 13.9831 7.43462   1
   1 -11  -9 5.12441 10.0820   1
  -1  11   9 22.8467 8.78912   2
   0 -11  -9 173.354 20.9435   1
   0  11   9 173.752 18.4818   2
  -1 -11  -9 12.2292 10.4950   1
   1  11   9 20.3229 8.45139   2
  -2 -11  -9 11.3565 9.34480   1
   2  11   9 45.8242 10.7183   2
  -3 -11  -9 182.072 20.0138   1
   3  11   9 151.695 16.7730   2
  -4 -11  -9 20.5845 6.36991   4
  -4 -11  -9 5.38672 9.11551   1
   4  11   9 12.4349 7.03012   2
  -5 -11  -9 218.850 14.5700   4
  -5 -11  -9 192.776 19.1257   1
   5  11   9 254.410 17.5255   2
  -6 -11  -9 16.2672 8.78913   1
  -6 -11  -9 -1.6825 5.84626   4
   6  11   9 9.06431 6.07178   2
  -7 -11  -9 22.8885 7.94855   4
  -7 -11  -9 19.6774 8.65390   1
   7  11   9 29.5348 7.24913   2
  -8 -11  -9 143.438 15.0717   4
   8  11   9 127.890 14.4350   1
  -9 -11  -9 95.9526 13.9639   4
   9  11   9 86.5721 12.4234   1
 -10 -11  -9 569.114 27.8581   4
  10  11   9 530.163 25.5561   1
 -11 -11  -9 5.04358 8.28797   4
  11  11   9 4.73662 6.83573   1
  -1 -12  -9 38.8447 13.0922   1
   1  12   9 66.7671 12.2079   2
  -2 -12  -9 43.4710 13.0160   1
   2  12   9 42.3982 10.2236   2
  -3 -12  -9 59.6166 13.1139   1
   3  12   9 56.6075 11.2061   2
  -4 -12  -9 6.74798 10.0830   1
   4  12   9 16.6484 7.80844   2
  -5 -12  -9 15.8315 10.2943   1
   5  12   9 7.45219 6.79094   2
  -6 -12  -9 22.9229 7.76670   4
  -6 -12  -9 23.5936 9.90500   1
   6  12   9 25.2737 8.13805   2
  -7 -12  -9 5.11455 8.68501   1
  -7 -12  -9 1.39998 6.84628   4
   7  12   9 12.4765 6.69556   2
  -8 -12  -9 75.0908 12.0688   4
   8  12   9 50.2670 10.3076   1
  -9 -12  -9 48.6097 11.2237   4
   9  12   9 45.7612 10.4211   1
  10  12   9 11.1988 7.23935   1
  -4 -13  -9 12.6064 10.3707   1
   4  13   9 17.2125 7.88676   2
  -5 -13  -9 54.8218 13.7732   1
   5  13   9 74.5240 12.3331   2
  -6 -13  -9 20.0958 10.6789   1
   6  13   9 19.0522 7.30184   2
  -7 -13  -9 523.986 28.1041   4
  -7 -13  -9 441.242 26.6780   1
   7  13   9 407.232 23.1002   2
   4  11 -10 13.5206 7.30627   3
  -4 -11  10 -9.6426 8.45487   2
   3  11 -10 9.59409 7.04470   3
  -3 -11  10 7.58967 10.2179   2
   2  11 -10 5.39092 6.84130   3
  -2 -11  10 7.48548 9.74284   2
   7  10 -10 93.7275 13.5362   4
   6  10 -10 18.7255 7.67627   4
  -6 -10  10 16.6328 10.2038   3
  -6 -10  10 -6.5829 7.12368   2
   5  10 -10 145.367 14.5497   4
   5  10 -10 140.906 15.3204   3
  -5 -10  10 126.959 16.6542   2
   4  10 -10 90.5393 12.5635   3
  -4 -10  10 90.2534 14.4801   2
   3  10 -10 405.618 22.5184   3
  -3 -10  10 422.887 26.1171   2
   2  10 -10 7.78037 6.67223   3
  -2 -10  10 -0.0490 8.31005   2
   1  10 -10 44.3746 9.82315   3
  -1 -10  10 14.4379 10.3016   2
   0  10 -10 30.9596 9.57691   3
   0 -10  10 24.8593 11.0428   2
  -1  10 -10 83.8147 13.3598   3
   1 -10  10 96.1571 16.0947   2
   8   9 -10 33.8545 9.67781   4
  -8  -9  10 13.7886 10.0719   3
   7   9 -10 58.5563 11.5450   4
  -7  -9  10 42.4188 11.0160   2
  -7  -9  10 42.6104 12.2690   3
   6   9 -10 15.9010 7.43729   4
  -6  -9  10 -4.8075 8.10054   3
  -6  -9  10 -2.1410 7.12378   2
   5   9 -10 43.9243 9.35022   4
  -5  -9  10 40.5051 12.1197   3
  -5  -9  10 51.9111 11.4778   2
   4   9 -10 -1.5190 4.61780   3
   4   9 -10 9.20256 6.28684   4
  -4  -9  10 10.9173 8.39427   2
   3   9 -10 81.8553 10.7510   4
   3   9 -10 91.8523 12.1193   3
  -3  -9  10 87.0748 14.1809   2
   2   9 -10 7.37057 6.29477   3
  -2  -9  10 -5.7158 7.17028   2
   1   9 -10 14.8166 7.24049   3
  -1  -9  10 7.72078 8.43316   2
   0   9 -10 1.93285 6.19355   3
   0  -9  10 1.49926 8.57672   2
  -1   9 -10 40.7234 9.75539   3
   1  -9  10 42.3555 11.7616   2
  -2   9 -10 11.2645 7.57144   3
   2  -9  10 4.20710 8.20279   2
  -3   9 -10 2.05655 6.93975   3
   3  -9  10 16.2728 8.99097   2
   8   8 -10 43.5607 10.6815   4
  -8  -8  10 59.5086 13.7444   3
   7   8 -10 46.6502 9.84125   4
  -7  -8  10 34.7630 11.7603   3
  -7  -8  10 16.7237 8.27967   2
   6   8 -10 376.646 21.3710   4
  -6  -8  10 371.441 22.0798   2
  -6  -8  10 393.938 24.1369   3
   5   8 -10 6.65927 6.30217   4
  -5  -8  10 4.48008 8.63889   3
  -5  -8  10 7.13300 7.53158   2
   4   8 -10 371.903 19.6469   4
  -4  -8  10 360.164 22.8663   2
  -4  -8  10 356.841 22.9277   3
   3   8 -10 1.42111 5.54692   3
   3   8 -10 16.5706 6.58936   4
  -3  -8  10 15.8012 8.24329   2
   2   8 -10 125.125 12.7172   4
   2   8 -10 103.055 13.3747   3
  -2  -8  10 129.223 16.4834   2
   1   8 -10 322.929 19.0486   3
  -1  -8  10 328.024 22.0048   2
   0   8 -10 199.835 15.7795   3
   0  -8  10 167.258 18.1091   2
  -1   8 -10 224.033 16.5767   3
   1  -8  10 269.557 21.1181   2
  -2   8 -10 -2.7746 5.99804   3
   2  -8  10 -3.8479 7.26244   2
  -3   8 -10 0.30978 6.57911   3
   3  -8  10 8.44549 8.17051   2
  -4   8 -10 51.7935 10.9883   3
   4  -8  10 88.2386 14.3155   2
   4  -8  10 69.6802 12.0042   1
  -5   8 -10 9.41235 8.26532   3
   5  -8  10 6.58359 7.79828   2
   5  -8  10 -6.8589 7.22209   1
   9   7 -10 -2.4186 6.09603   4
  -9  -7  10 -10.947 7.16038   3
   8   7 -10 73.1867 12.3827   4
  -8  -7  10 72.7373 14.0609   3
   7   7 -10 11.0016 6.98861   4
  -7  -7  10 -5.2760 7.55420   3
  -7  -7  10 -4.0960 6.28581   2
   6   7 -10 11.3911 6.55367   4
  -6  -7  10 -9.6727 5.35924   2
  -6  -7  10 15.7545 8.65652   3
   5   7 -10 85.3697 12.2784   4
  -5  -7  10 75.4649 11.7385   2
  -5  -7  10 70.1394 12.6928   3
   4   7 -10 25.6772 7.56613   4
  -4  -7  10 14.3143 8.10510   2
  -4  -7  10 17.1909 9.00976   3
   3   7 -10 60.1899 10.3076   4
  -3  -7  10 81.6262 12.3795   3
  -3  -7  10 48.3922 10.3878   2
   2   7 -10 4.76651 5.55782   3
   2   7 -10 1.90095 5.74949   4
  -2  -7  10 1.51324 6.75233   2
   1   7 -10 -2.5743 5.14906   3
   1   7 -10 5.51243 5.89478   4
  -1  -7  10 4.91900 7.09404   2
   0   7 -10 328.970 19.4511   3
   0   7 -10 382.684 17.8637   4
   0  -7  10 374.155 23.2577   2
   1  -7  10 46.4769 10.7223   2
  -2   7 -10 -2.2195 5.13243   3
   2  -7  10 1.84315 6.91486   2
   2  -7  10 -14.637 6.91443   1
  -3   7 -10 89.2887 12.5081   3
   3  -7  10 129.597 15.4156   2
   3  -7  10 114.443 12.6948   1
  -4   7 -10 37.1504 9.99816   3
   4  -7  10 46.7251 10.5767   1
   4  -7  10 52.4448 10.9498   2
  -5   7 -10 38.7462 10.3359   3
   5  -7  10 13.6623 8.75894   1
   5  -7  10 20.9311 8.81165   2
  -6   7 -10 12.5794 8.82881   3
   6  -7  10 9.54552 7.90753   2
   6  -7  10 0.43828 9.02662   1
   9   6 -10 172.950 18.4575   4
  -9  -6  10 186.871 20.5494   3
   8   6 -10 69.3482 12.1455   4
  -8  -6  10 36.9270 11.5329   3
   7   6 -10 672.482 29.0097   4
  -7  -6  10 664.813 30.3008   3
  -7  -6  10 638.526 27.8917   2
   6   6 -10 156.686 15.9200   4
  -6  -6  10 160.512 15.5777   2
  -6  -6  10 196.606 17.4619   3
   5   6 -10 5.36768 5.91818   4
  -5  -6  10 -0.5698 6.14157   2
  -5  -6  10 4.42028 6.43214   3
   4   6 -10 64.8126 10.5739   4
  -4  -6  10 57.4406 11.0624   3
  -4  -6  10 45.2752 9.75852   2
   3   6 -10 33.5806 8.16667   4
  -3  -6  10 30.6304 8.60644   2
  -3  -6  10 31.7803 9.27891   3
   2   6 -10 433.549 20.2774   3
   2   6 -10 421.822 20.2861   4
  -2  -6  10 404.197 22.7958   2
   1   6 -10 70.3791 10.4251   3
   1   6 -10 51.4451 8.97362   4
  -1  -6  10 48.2385 10.0743   2
   0   6 -10 19.7155 6.55625   4
   0   6 -10 20.5549 7.04209   3
   0  -6  10 33.6095 8.97555   2
  -1   6 -10 398.404 20.3803   3
  -1   6 -10 434.573 17.0196   4
   1  -6  10 459.168 23.8548   2
  -2   6 -10 34.1560 8.27043   3
   2  -6  10 44.4865 10.3173   2
   2  -6  10 32.2745 7.51299   1
  -3   6 -10 424.530 21.6576   3
   3  -6  10 422.112 20.1009   1
   3  -6  10 446.107 23.8413   2
  -4   6 -10 -0.5191 5.32504   3
   4  -6  10 8.21525 6.88428   2
   4  -6  10 -7.2813 6.08078   1
  -5   6 -10 271.738 19.4578   3
   5  -6  10 298.388 19.3717   2
   5  -6  10 263.397 18.8977   1
  -6   6 -10 30.1655 10.0360   3
   6  -6  10 26.8609 10.2626   1
   6  -6  10 62.5851 10.7902   2
  -7   6 -10 37.3083 11.0442   3
   7  -6  10 17.4149 10.7507   1
   7  -6  10 21.5587 8.18103   2
   9   5 -10 2.18123 7.04567   4
  -9  -5  10 -0.9140 8.34079   3
   8   5 -10 24.3803 8.90720   4
  -8  -5  10 20.9223 9.31588   3
   7   5 -10 138.694 15.2730   4
  -7  -5  10 118.190 12.8475   2
  -7  -5  10 101.374 14.2485   3
   6   5 -10 -2.4221 5.63971   4
  -6  -5  10 13.4605 8.10782   3
  -6  -5  10 -1.5640 5.48482   2
   5   5 -10 169.302 14.6533   4
  -5  -5  10 168.383 14.0283   2
  -5  -5  10 144.189 15.4540   3
   4   5 -10 328.253 18.8918   4
  -4  -5  10 322.400 18.4807   2
  -4  -5  10 304.385 18.3017   3
   3   5 -10 85.0172 11.7022   4
  -3  -5  10 75.5391 11.6156   3
  -3  -5  10 96.6850 12.1408   2
   2   5 -10 -1.7022 5.60497   4
  -2  -5  10 3.67515 6.21710   2
  -2  -5  10 6.44617 7.07014   3
   1   5 -10 -4.7765 5.42190   4
   1   5 -10 10.1554 5.28709   3
  -1  -5  10 2.47346 6.26045   2
   0   5 -10 182.613 13.3829   3
   0   5 -10 201.419 13.8294   4
   0  -5  10 173.694 15.1620   2
  -1   5 -10 294.442 16.5162   3
  -1   5 -10 293.403 14.8986   4
   1  -5  10 283.245 13.1812   1
   1  -5  10 274.781 18.1049   2
  -2   5 -10 107.580 12.3380   3
  -2   5 -10 119.752 9.84270   4
   2  -5  10 108.852 13.4667   2
   2  -5  10 146.951 11.2483   1
  -3   5 -10 238.882 15.5817   3
   3  -5  10 196.117 13.8094   1
   3  -5  10 186.583 15.6878   2
  -4   5 -10 78.6501 11.0184   3
   4  -5  10 79.8828 11.0210   1
   4  -5  10 99.6292 12.3734   2
  -5   5 -10 49.5278 10.0860   3
   5  -5  10 39.6049 8.79306   2
   5  -5  10 69.7800 11.4254   1
  -6   5 -10 163.647 17.1456   3
   6  -5  10 186.534 15.1568   2
   6  -5  10 181.184 17.9576   1
  -7   5 -10 40.0417 10.8143   3
   7  -5  10 41.1707 11.5927   1
   7  -5  10 32.2665 8.03299   2
  -8   5 -10 114.419 16.1482   3
   8  -5  10 111.859 16.8222   1
   9   4 -10 128.442 16.2416   4
  -9  -4  10 152.749 18.3281   3
   8   4 -10 40.7340 10.0717   4
  -8  -4  10 9.82307 9.41455   3
   7   4 -10 11.9276 7.15130   4
  -7  -4  10 12.9578 7.97110   3
  -7  -4  10 4.38331 5.93470   2
   6   4 -10 -2.8224 5.56807   4
  -6  -4  10 14.7091 7.96288   3
  -6  -4  10 -5.9093 5.39683   2
   5   4 -10 559.337 25.9036   4
  -5  -4  10 591.432 25.1384   2
  -5  -4  10 661.734 27.0202   3
   4   4 -10 444.173 21.9482   4
  -4  -4  10 445.909 21.9747   3
  -4  -4  10 441.584 21.1170   2
   3   4 -10 316.939 18.3217   4
  -3  -4  10 307.586 18.1774   2
  -3  -4  10 326.780 18.6755   3
   2   4 -10 329.113 18.7175   4
  -2  -4  10 363.155 19.5205   2
  -2  -4  10 352.689 19.4933   3
   1   4 -10 134.842 13.2696   4
  -1  -4  10 110.591 12.5012   2
  -1  -4  10 115.561 13.1139   3
   0   4 -10 62.7114 8.62376   3
   0   4 -10 60.1787 9.41427   4
   0  -4  10 70.5212 5.53026   1
   0  -4  10 66.1448 10.1400   2
  -1   4 -10 17.8481 6.14479   3
  -1   4 -10 25.9154 6.71371   4
   1  -4  10 11.0417 4.47989   1
   1  -4  10 17.5774 7.25391   2
  -2   4 -10 53.9218 8.53684   3
  -2   4 -10 65.5722 8.25969   4
   2  -4  10 70.4954 10.8185   2
   2  -4  10 58.5284 7.71589   1
  -3   4 -10 321.995 13.5017   4
  -3   4 -10 317.363 17.1214   3
   3  -4  10 350.650 16.4986   1
   3  -4  10 319.345 18.5551   2
  -4   4 -10 479.455 16.0960   4
  -4   4 -10 459.976 21.6228   3
   4  -4  10 523.533 21.1959   1
   4  -4  10 513.787 23.5254   2
  -5   4 -10 106.969 13.0005   3
   5  -4  10 136.423 13.4292   2
   5  -4  10 124.079 13.2828   1
  -6   4 -10 122.342 14.1198   3
   6  -4  10 100.604 13.1230   1
   6  -4  10 104.926 12.1926   2
  -7   4 -10 16.0437 8.72037   3
   7  -4  10 11.0803 6.17725   2
   7  -4  10 23.0750 9.73589   1
  -8   4 -10 132.655 16.6656   3
   8  -4  10 169.573 19.2644   1
  -9   4 -10 90.6104 15.1533   3
   9  -4  10 89.9390 15.5341   1
  -9  -3  10 25.9605 10.2096   3
   8   3 -10 23.3752 8.83082   4
  -8  -3  10 22.0158 9.34115   3
   7   3 -10 439.415 23.5016   4
  -7  -3  10 423.072 20.4584   2
  -7  -3  10 437.216 23.5998   3
   6   3 -10 2.38595 6.54363   4
  -6  -3  10 14.3305 6.29640   2
  -6  -3  10 10.1354 7.88600   3
   5   3 -10 19.5399 7.34583   4
  -5  -3  10 19.7697 7.29587   2
  -5  -3  10 27.0242 8.13065   3
   4   3 -10 131.175 14.3542   4
  -4  -3  10 104.011 12.6136   3
  -4  -3  10 91.8854 11.1383   2
   3   3 -10 232.791 16.5145   4
  -3  -3  10 287.937 15.9530   2
  -3  -3  10 264.379 16.3691   3
   2   3 -10 84.9671 11.3585   4
  -2  -3  10 77.5280 10.1013   2
  -2  -3  10 91.6563 11.0807   3
   1   3 -10 -5.0931 5.12120   4
  -1  -3  10 6.90100 6.08202   3
  -1  -3  10 5.30785 5.60613   2
   0   3 -10 14.8009 5.05796   3
   0   3 -10 11.5585 6.26812   4
   0  -3  10 -1.5209 5.53223   2
   0  -3  10 14.8477 2.96328   1
  -1   3 -10 0.89338 3.86418   3
  -1   3 -10 18.4335 6.36211   4
   1  -3  10 7.65231 5.67652   2
   1  -3  10 14.0184 4.02872   1
  -2   3 -10 318.949 15.3789   3
  -2   3 -10 295.663 14.5756   4
   2  -3  10 306.090 13.2409   1
   2  -3  10 271.303 16.5243   2
  -3   3 -10 1007.57 32.0344   3
  -3   3 -10 1008.60 27.2501   4
   3  -3  10 998.830 34.8649   2
   3  -3  10 1015.93 28.8897   1
  -4   3 -10 32.0216 7.65034   3
  -4   3 -10 28.1654 5.50985   4
   4  -3  10 38.9122 8.07896   2
   4  -3  10 46.8264 8.08207   1
  -5   3 -10 148.141 14.8904   3
  -5   3 -10 129.436 9.00656   4
   5  -3  10 144.627 12.5091   2
   5  -3  10 151.130 13.9501   1
  -6   3 -10 294.859 18.1989   3
   6  -3  10 300.515 18.5434   1
   6  -3  10 277.647 16.2366   2
  -7   3 -10 8.36438 7.13310   3
   7  -3  10 -2.1041 4.71612   2
   7  -3  10 -3.8503 7.05402   1
  -8   3 -10 2.95882 8.13761   3
   8  -3  10 15.6933 9.53532   1
  -9   3 -10 6.44047 9.05544   3
   9  -3  10 10.6546 10.1208   1
   9   2 -10 14.5557 8.55939   4
  -9  -2  10 7.14137 9.31686   3
   8   2 -10 191.635 18.7364   4
  -8  -2  10 195.918 17.5428   3
   7   2 -10 33.8850 9.45711   4
  -7  -2  10 52.9320 10.8134   3
  -7  -2  10 40.3123 8.39017   2
   6   2 -10 125.506 14.5257   4
  -6  -2  10 140.301 12.1916   2
  -6  -2  10 137.206 14.7430   3
   5   2 -10 1.30187 6.27680   4
  -5  -2  10 8.23501 6.30814   3
  -5  -2  10 5.42740 5.92950   2
   4   2 -10 185.400 15.1359   4
  -4  -2  10 191.782 13.5954   2
  -4  -2  10 196.277 14.3983   3
   3   2 -10 10.1106 6.72832   4
  -3  -2  10 13.4340 6.39411   3
  -3  -2  10 6.11387 5.68943   2
   2   2 -10 725.605 27.1349   4
  -2  -2  10 690.700 26.1816   2
  -2  -2  10 699.887 25.7632   3
   1   2 -10 199.455 14.1636   4
  -1  -2  10 197.090 13.1933   2
  -1  -2  10 159.863 13.0975   3
   0   2 -10 604.473 20.8989   3
   0   2 -10 608.417 22.7115   4
   0  -2  10 592.385 14.2805   1
   0  -2  10 593.118 23.9070   2
  -1   2 -10 1104.00 31.7204   4
  -1   2 -10 1097.45 31.3157   3
   1  -2  10 1087.90 25.8073   1
   1  -2  10 1077.54 35.6265   2
  -2   2 -10 423.483 17.3078   3
  -2   2 -10 424.330 17.7340   4
   2  -2  10 433.758 14.8379   1
   2  -2  10 411.476 19.6896   2
  -3   2 -10 202.054 11.8956   4
  -3   2 -10 179.998 11.9301   3
   3  -2  10 225.554 14.4749   2
   3  -2  10 211.821 11.5487   1
  -4   2 -10 131.247 9.77448   4
  -4   2 -10 103.261 10.5704   3
   4  -2  10 124.835 10.8269   1
   4  -2  10 119.445 11.8082   2
  -5   2 -10 25.6572 5.32634   4
  -5   2 -10 18.0793 6.95371   3
   5  -2  10 24.5851 6.68463   2
   5  -2  10 25.7723 7.47625   1
  -6   2 -10 605.563 25.1454   3
  -6   2 -10 602.992 19.5508   4
   6  -2  10 595.910 24.0411   1
   6  -2  10 597.498 23.7589   2
  -7   2 -10 84.1256 8.37681   4
  -7   2 -10 74.5501 11.2744   3
   7  -2  10 104.912 13.1261   1
   7  -2  10 99.6316 10.8323   2
  -8   2 -10 546.376 26.2996   3
   8  -2  10 536.403 25.6735   1
  -9   2 -10 28.0975 10.4503   3
   9  -2  10 59.0452 13.0963   1
 -10   2 -10 230.132 19.8126   3
  10  -2  10 193.478 20.9382   1
   9   1 -10 12.5476 8.51513   4
  -9  -1  10 21.3476 9.65958   3
   8   1 -10 8.73385 7.60764   4
  -8  -1  10 16.2282 8.78977   3
   7   1 -10 3.13059 6.46707   4
  -7  -1  10 5.92840 7.21556   3
  -7  -1  10 1.55409 5.79374   2
   6   1 -10 310.429 19.5822   4
  -6  -1  10 350.992 18.1921   2
  -6  -1  10 339.599 19.6570   3
   5   1 -10 60.5026 10.6487   4
  -5  -1  10 63.9937 10.3915   3
  -5  -1  10 66.9590 9.78025   2
   4   1 -10 116.982 7.98093   1
   4   1 -10 120.514 14.0638   4
  -4  -1  10 113.022 12.3168   3
  -4  -1  10 127.281 12.1974   2
   3   1 -10 309.557 18.4463   4
   3   1 -10 312.034 10.2235   1
  -3  -1  10 308.543 16.2161   3
  -3  -1  10 296.438 16.3117   2
   2   1 -10 77.9465 4.51644   1
   2   1 -10 57.6260 9.99577   4
  -2  -1  10 60.6112 8.73472   3
  -2  -1  10 71.2558 9.24648   2
   1   1 -10 847.638 29.1949   4
  -1  -1  10 867.768 27.3887   3
  -1  -1  10 856.482 29.6247   2
  -1  -1  10 893.287 19.2514   1
   0   1 -10 13.3428 5.87605   4
   0  -1  10 5.71044 5.14855   3
   0  -1  10 11.2244 2.36175   1
   0  -1  10 10.4390 5.44784   2
  -1   1 -10 75.4416 7.66084   3
  -1   1 -10 86.9903 9.85176   4
   1  -1  10 82.8201 9.76704   2
   1  -1  10 84.7013 5.65217   1
  -2   1 -10 87.4897 7.70882   3
  -2   1 -10 92.9492 9.72372   4
   2  -1  10 84.2109 9.91660   2
   2  -1  10 86.1726 6.58355   1
  -3   1 -10 45.8599 6.74957   3
  -3   1 -10 51.7142 7.27793   4
   3  -1  10 55.0580 6.87243   1
   3  -1  10 48.7832 8.07055   2
  -4   1 -10 5.12406 4.65508   3
  -4   1 -10 1.65137 4.13583   4
   4  -1  10 7.57085 4.91793   2
   4  -1  10 -1.0129 4.03647   1
  -5   1 -10 78.1816 9.36923   3
  -5   1 -10 82.9143 8.70224   4
   5  -1  10 90.6443 10.1838   2
   5  -1  10 82.8460 9.85464   1
  -6   1 -10 53.3431 9.09578   3
  -6   1 -10 40.6558 6.73765   4
   6  -1  10 41.9174 8.54737   1
   6  -1  10 42.6079 7.35427   2
  -7   1 -10 20.7732 5.52532   4
  -7   1 -10 36.5285 8.97036   3
   7  -1  10 44.3631 7.21151   2
   7  -1  10 30.1648 8.56451   1
  -8   1 -10 0.71704 7.16618   3
  -8   1 -10 4.13516 4.30862   4
   8  -1  10 0.09720 7.11758   1
  -9   1 -10 -3.4132 6.75463   3
   9  -1  10 1.48780 7.80303   1
 -10   1 -10 14.5202 8.73989   3
  10  -1  10 5.86182 9.31896   1
 -11   1 -10 27.9603 10.4134   3
  11  -1  10 31.5306 12.8294   1
   9   0 -10 206.438 17.8624   4
  -9   0  10 183.765 19.2997   3
   8   0 -10 16.8977 8.13274   4
  -8   0  10 21.7122 8.97332   3
   7   0 -10 412.369 22.1085   4
  -7   0  10 382.517 21.2844   3
  -7   0  10 375.024 19.6369   2
   6   0 -10 59.8206 10.4205   4
   6   0 -10 38.4301 8.37515   1
  -6   0  10 64.7189 10.9074   3
  -6   0  10 53.1695 8.94733   2
   5   0 -10 575.591 25.2454   4
   5   0 -10 556.013 20.7421   1
  -5   0  10 591.234 23.8962   3
  -5   0  10 569.646 23.5756   2
   4   0 -10 69.8042 8.17334   1
   4   0 -10 61.8471 10.4056   4
  -4   0  10 93.9441 10.8583   3
  -4   0  10 69.4335 9.74346   2
   3   0 -10 47.7400 6.20807   1
   3   0 -10 49.7050 9.33765   4
  -3   0  10 45.3695 7.98021   3
  -3   0  10 44.7519 8.39345   2
   2   0 -10 42.1379 5.17632   1
   2   0 -10 38.6240 8.90446   4
  -2   0  10 54.8783 7.94350   3
  -2   0  10 50.0208 8.33183   2
   1   0 -10 122.239 12.7011   4
   1   0 -10 140.142 7.11039   1
  -1   0  10 130.469 10.0140   3
  -1   0  10 120.512 11.4154   2
   0   0 -10 749.332 25.9361   4
   0   0  10 745.426 23.5578   3
   0   0  10 766.786 18.9455   1
   0   0  10 752.786 26.8330   2
  -1   0 -10 188.027 12.8614   4
  -1   0 -10 160.573 8.49043   3
   1   0  10 162.631 7.49602   1
   1   0  10 145.356 11.1794   2
  -2   0 -10 18.8854 5.91254   4
  -2   0 -10 11.8416 3.66304   3
   2   0  10 10.9610 3.42637   1
   2   0  10 11.6839 5.30890   2
  -3   0 -10 2248.33 51.8819   4
  -3   0 -10 2287.66 53.3187   3
   3   0  10 2210.48 60.6114   2
   3   0  10 2282.91 51.2104   1
  -4   0 -10 173.217 10.5888   3
  -4   0 -10 161.058 11.1180   4
   4   0  10 156.870 11.1597   2
   4   0  10 170.486 10.7602   1
  -5   0 -10 2516.15 56.7560   4
  -5   0 -10 2509.04 61.0972   3
   5   0  10 2541.05 60.0400   1
   5   0  10 2576.70 66.9819   2
  -6   0 -10 121.147 10.9195   4
  -6   0 -10 103.769 11.0392   3
   6   0  10 136.333 13.0501   1
   6   0  10 141.168 10.5953   2
  -7   0 -10 92.3714 9.70595   4
  -7   0 -10 95.0733 11.3333   3
   7   0  10 104.112 9.02370   2
   7   0  10 79.5375 10.9588   1
  -8   0 -10 29.6546 8.42317   3
  -8   0 -10 17.8074 5.91255   4
   8   0  10 24.1873 7.87631   1
  -9   0 -10 115.691 11.6838   4
  -9   0 -10 120.734 13.5142   3
 -10   0 -10 113.141 14.3925   3
  10   0  10 120.491 16.2178   1
 -11   0 -10 76.5871 12.9518   3
  11   0  10 94.2415 15.6585   1
   8  -1 -10 4.10590 7.59597   4
  -8   1  10 -10.230 6.65845   3
   7  -1 -10 8.09894 7.11983   4
   7  -1 -10 -2.2213 7.06777   1
  -7   1  10 -1.0763 5.68064   2
  -7   1  10 -4.5967 6.51892   3
   6  -1 -10 101.151 12.9962   4
   6  -1 -10 95.9446 12.4582   1
  -6   1  10 112.147 11.9443   2
  -6   1  10 86.7405 11.9031   3
   5  -1 -10 -0.3006 5.96534   4
   5  -1 -10 10.4017 6.18685   1
  -5   1  10 14.4208 6.27427   2
  -5   1  10 -0.9202 5.82025   3
   4  -1 -10 120.350 13.0713   4
   4  -1 -10 117.489 11.5034   1
  -4   1  10 116.825 12.1261   2
  -4   1  10 122.836 12.1888   3
   3  -1 -10 213.434 15.2719   4
   3  -1 -10 230.092 12.6211   1
  -3   1  10 241.766 14.6346   2
  -3   1  10 219.586 12.9087   3
   2  -1 -10 20.7113 7.32785   4
   2  -1 -10 33.8362 6.11278   1
  -2   1  10 29.4222 6.99257   2
  -2   1  10 37.1379 6.60479   3
   1  -1 -10 36.9035 5.42803   1
   1  -1 -10 27.7188 7.48088   4
  -1   1  10 16.1014 6.05159   2
  -1   1  10 27.2986 5.44762   3
   0  -1 -10 128.067 11.2121   4
   0  -1 -10 94.9723 7.31012   1
   0   1  10 101.286 10.4171   2
   0   1  10 108.387 8.19539   3
  -1  -1 -10 9.57271 3.70875   1
  -1  -1 -10 13.0706 3.15500   3
  -1  -1 -10 15.5084 5.78830   4
   1   1  10 11.6246 5.51885   2
  -2  -1 -10 69.7352 8.83696   4
  -2  -1 -10 54.4974 5.34595   3
   2   1  10 46.5330 7.55576   2
   2   1  10 60.7834 6.16328   1
  -3  -1 -10 2.53915 4.36620   4
  -3  -1 -10 2.14929 2.78227   3
   3   1  10 2.79951 3.16174   1
   3   1  10 0.66023 4.28791   2
  -4  -1 -10 212.262 12.5489   4
  -4  -1 -10 211.448 10.2071   3
   4   1  10 217.774 11.2309   1
   4   1  10 218.151 12.4778   2
  -5  -1 -10 213.133 11.5852   3
  -5  -1 -10 212.244 12.7017   4
   5   1  10 219.114 12.7020   1
   5   1  10 189.070 11.8317   2
  -6  -1 -10 3.17891 4.78634   3
  -6  -1 -10 5.29424 4.79545   4
   6   1  10 0.77140 3.83917   2
   6   1  10 1.90338 4.84104   1
  -7  -1 -10 -7.1462 3.69085   4
  -7  -1 -10 -1.9128 5.13253   3
   7   1  10 2.23791 4.11227   2
   7   1  10 -1.2199 4.96708   1
  -8  -1 -10 376.991 17.6567   4
  -8  -1 -10 368.323 18.4464   3
   8   1  10 420.768 20.5930   1
  -9  -1 -10 69.7674 9.38975   4
  -9  -1 -10 67.5515 11.1730   3
   9   1  10 72.4100 11.8856   1
 -10  -1 -10 9.56080 7.72188   3
 -10  -1 -10 22.4042 6.81638   4
  10   1  10 23.0764 9.40012   1
 -11  -1 -10 49.3846 8.96000   4
 -11  -1 -10 78.5846 12.7045   3
  11   1  10 74.5662 13.7981   1
  12   1  10 52.7758 14.3686   1
   8  -2 -10 7.52934 9.08961   1
   8  -2 -10 3.16603 7.25115   4
  -8   2  10 10.3576 8.38459   3
   7  -2 -10 76.8042 12.0135   4
   7  -2 -10 68.6798 12.7317   1
  -7   2  10 105.766 12.2393   2
  -7   2  10 96.2000 13.4019   3
   6  -2 -10 24.3024 8.33956   4
   6  -2 -10 25.3900 9.18623   1
  -6   2  10 18.8945 7.12627   2
  -6   2  10 33.0993 8.99645   3
   5  -2 -10 134.553 14.0993   1
   5  -2 -10 146.905 14.7960   4
  -5   2  10 155.361 12.5120   3
  -5   2  10 142.176 13.6197   2
   4  -2 -10 183.464 14.6188   1
   4  -2 -10 217.623 15.3343   4
  -4   2  10 191.436 13.1220   3
  -4   2  10 192.361 13.6266   2
   3  -2 -10 1161.53 34.6159   1
   3  -2 -10 1225.39 36.1725   4
  -3   2  10 1146.75 37.5809   2
  -3   2  10 1185.60 33.5024   3
   2  -2 -10 1041.29 29.7925   1
   2  -2 -10 1043.89 31.9110   4
  -2   2  10 1012.99 33.6546   2
  -2   2  10 944.208 28.0607   3
   1  -2 -10 81.8472 8.67382   1
   1  -2 -10 108.597 11.6380   4
  -1   2  10 84.3182 7.37438   3
  -1   2  10 75.5612 9.46028   2
   0  -2 -10 244.234 11.6329   1
   0  -2 -10 223.748 13.8596   4
   0   2  10 251.604 13.9590   2
   0   2  10 253.289 10.5378   3
  -1  -2 -10 163.651 9.73456   1
  -1  -2 -10 162.999 12.4324   4
  -1  -2 -10 174.425 6.80980   3
   1   2  10 184.641 12.0126   2
  -2  -2 -10 1214.43 33.5995   4
  -2  -2 -10 1223.17 31.2574   1
  -2  -2 -10 1283.50 28.3660   3
   2   2  10 1232.97 37.2231   2
  -3  -2 -10 67.9864 4.85334   3
  -3  -2 -10 56.8000 7.95589   4
   3   2  10 71.5004 8.42501   2
   3   2  10 59.6642 6.74139   1
  -4  -2 -10 467.240 18.6470   4
  -4  -2 -10 490.825 15.1406   3
   4   2  10 484.474 18.9179   2
   4   2  10 476.359 17.3686   1
  -5  -2 -10 97.0715 7.92184   3
  -5  -2 -10 90.9191 9.82621   4
   5   2  10 115.810 10.3147   2
   5   2  10 107.745 9.21718   1
  -6  -2 -10 432.220 18.1672   4
  -6  -2 -10 444.295 16.9053   3
   6   2  10 402.404 16.9539   2
   6   2  10 426.203 18.4283   1
  -7  -2 -10 751.158 25.3513   4
  -7  -2 -10 716.456 24.2185   3
   7   2  10 733.671 23.5177   2
   7   2  10 700.395 25.7485   1
  -8  -2 -10 426.457 18.8179   3
  -8  -2 -10 410.689 18.8140   4
   8   2  10 440.502 20.9200   1
  -9  -2 -10 36.2791 7.92243   3
  -9  -2 -10 22.8294 6.75581   4
   9   2  10 29.0878 8.34304   1
 -10  -2 -10 57.5098 10.1264   3
 -10  -2 -10 54.9254 9.25747   4
  10   2  10 70.6383 12.0502   1
 -11  -2 -10 5.13841 7.57375   3
 -11  -2 -10 0.87653 5.69517   4
  11   2  10 12.8726 8.86045   1
 -12  -2 -10 28.5477 8.51632   4
 -12  -2 -10 35.1752 10.3914   3
  12   2  10 64.5906 13.8048   1
   8  -3 -10 0.55581 8.57380   1
  -8   3  10 -7.1325 7.25945   3
   7  -3 -10 60.8712 10.7483   4
   7  -3 -10 89.8889 14.4762   1
  -7   3  10 78.6052 11.2329   2
  -7   3  10 67.6576 11.7382   3
   6  -3 -10 31.6025 8.61048   4
   6  -3 -10 27.6546 9.95356   1
  -6   3  10 7.08650 7.07205   3
  -6   3  10 10.5247 6.79757   2
   5  -3 -10 63.9515 10.1714   4
   5  -3 -10 61.8209 11.1815   1
  -5   3  10 66.4257 9.87390   2
  -5   3  10 58.8569 9.90789   3
   4  -3 -10 -9.2727 4.82388   4
   4  -3 -10 -3.3866 6.36806   1
  -4   3  10 0.92028 5.31529   3
  -4   3  10 -2.0828 5.17235   2
   3  -3 -10 6.59917 5.90245   4
   3  -3 -10 10.1786 7.13722   1
  -3   3  10 3.46049 5.26197   2
  -3   3  10 7.16346 5.15033   3
   2  -3 -10 -5.0957 5.07183   4
   2  -3 -10 1.13010 5.59800   1
  -2   3  10 -2.9954 4.65024   2
  -2   3  10 3.12865 4.12451   3
   1  -3 -10 198.295 13.3980   1
   1  -3 -10 191.576 13.5323   4
  -1   3  10 170.384 9.24759   3
  -1   3  10 184.741 13.0510   2
   0  -3 -10 1.33081 5.05033   4
   0  -3 -10 -2.4345 4.34080   1
   0   3  10 1.76126 4.67398   2
   0   3  10 -0.6698 2.79324   3
  -1  -3 -10 -4.5484 3.89145   1
  -1  -3 -10 26.5601 6.64625   4
   1   3  10 2.31019 4.35969   2
  -2  -3 -10 92.2990 9.30050   1
  -2  -3 -10 86.7618 10.0253   4
   2   3  10 93.2096 9.69142   2
  -3  -3 -10 122.998 10.5269   4
  -3  -3 -10 130.616 4.76935   3
   3   3  10 124.925 10.1432   2
  -4  -3 -10 382.747 16.6700   4
  -4  -3 -10 372.584 11.4462   3
   4   3  10 374.935 16.6306   2
   4   3  10 386.313 15.7117   1
  -5  -3 -10 1720.79 44.3486   4
  -5  -3 -10 1782.45 41.2859   3
   5   3  10 1768.65 44.7778   1
   5   3  10 1794.77 48.2471   2
  -6  -3 -10 129.797 11.2777   4
  -6  -3 -10 145.237 9.31124   3
   6   3  10 122.717 10.9548   1
   6   3  10 144.057 9.97740   2
  -7  -3 -10 62.2795 8.99492   4
  -7  -3 -10 49.1895 7.12879   3
   7   3  10 38.5257 7.90513   1
   7   3  10 65.8251 7.62139   2
  -8  -3 -10 779.515 26.2272   3
  -8  -3 -10 812.318 27.8196   4
   8   3  10 792.726 28.8116   1
  -9  -3 -10 -2.7569 5.21028   3
  -9  -3 -10 -4.3613 4.42207   4
   9   3  10 -3.3104 5.30491   1
 -10  -3 -10 45.4215 9.11929   4
 -10  -3 -10 30.7345 8.26448   3
  10   3  10 22.5244 8.10795   1
 -11  -3 -10 42.7236 9.31716   4
 -11  -3 -10 30.4727 8.73727   3
  11   3  10 53.1383 12.1211   1
 -12  -3 -10 0.75526 7.25081   3
 -12  -3 -10 6.09601 6.46717   4
  12   3  10 10.4282 9.54160   1
   7  -4 -10 -2.6072 8.47403   1
  -7   4  10 8.28818 6.51473   2
  -7   4  10 -6.4924 7.14367   3
   6  -4 -10 60.9759 11.0752   4
   6  -4 -10 28.4876 10.7964   1
  -6   4  10 68.3752 11.0419   2
  -6   4  10 67.5392 11.3172   3
   5  -4 -10 130.461 13.1823   4
   5  -4 -10 147.914 16.9355   1
  -5   4  10 140.495 13.8837   2
  -5   4  10 159.053 14.7069   3
   4  -4 -10 15.0906 8.57232   1
   4  -4 -10 32.4209 7.71432   4
  -4   4  10 18.4257 6.98360   3
  -4   4  10 21.2172 7.30703   2
   3  -4 -10 35.2661 7.49638   4
   3  -4 -10 21.0864 8.63413   1
  -3   4  10 31.1874 7.56431   2
  -3   4  10 30.3130 7.04417   3
   2  -4 -10 12.6309 7.38121   1
   2  -4 -10 4.83881 5.64523   4
  -2   4  10 4.69819 4.97536   2
  -2   4  10 -1.6858 4.02269   3
   1  -4 -10 302.470 17.2198   1
   1  -4 -10 319.077 15.9126   4
  -1   4  10 317.585 12.0278   3
  -1   4  10 304.253 16.4167   2
   0  -4 -10 1439.92 37.6636   4
   0  -4 -10 1435.30 39.7578   1
   0   4  10 1435.37 43.5052   2
   0   4  10 1472.34 32.9585   3
  -1  -4 -10 878.545 26.6193   4
  -1  -4 -10 864.609 27.4905   1
   1   4  10 869.524 29.9745   2
  -2  -4 -10 187.037 12.2768   1
  -2  -4 -10 187.192 12.0509   4
   2   4  10 209.634 12.8823   2
  -3  -4 -10 5.44762 4.80172   4
  -3  -4 -10 1.65196 4.61512   1
   3   4  10 5.88324 4.71429   2
  -4  -4 -10 94.4976 10.2027   4
   4   4  10 94.6391 9.77142   1
   4   4  10 77.0283 8.53419   2
  -5  -4 -10 249.262 9.32901   3
  -5  -4 -10 229.130 13.9493   4
   5   4  10 238.771 13.2665   1
   5   4  10 263.060 13.3277   2
  -6  -4 -10 32.1415 5.33076   3
  -6  -4 -10 49.0331 8.65982   4
   6   4  10 47.0802 7.13359   2
   6   4  10 54.1223 8.73173   1
  -7  -4 -10 50.2593 8.68787   4
  -7  -4 -10 69.7912 7.87973   3
   7   4  10 60.3720 8.76842   1
   7   4  10 85.0679 8.42193   2
  -8  -4 -10 550.701 20.0589   3
  -8  -4 -10 547.042 22.7108   4
   8   4  10 510.070 22.6492   1
  -9  -4 -10 188.322 14.5754   4
  -9  -4 -10 191.919 13.1389   3
   9   4  10 225.823 16.1298   1
 -10  -4 -10 318.536 18.8631   4
 -10  -4 -10 282.192 16.0897   3
  10   4  10 288.192 19.0552   1
 -11  -4 -10 1.54810 6.28847   4
 -11  -4 -10 2.40861 6.68180   3
  11   4  10 -3.8238 6.66487   1
 -12  -4 -10 104.228 13.6694   3
 -12  -4 -10 83.7809 12.4628   4
  12   4  10 122.853 16.0082   1
   6  -5 -10 56.5578 13.2791   1
  -6   5  10 41.5467 9.30035   2
   5  -5 -10 26.8965 10.5536   1
  -5   5  10 24.9912 7.73584   2
  -5   5  10 14.6264 11.9789   3
   4  -5 -10 12.3088 9.02283   1
   4  -5 -10 23.5345 7.12198   4
  -4   5  10 20.8463 6.92351   2
  -4   5  10 34.5776 8.01648   3
   3  -5 -10 26.1645 10.1928   1
   3  -5 -10 38.9709 7.58466   4
  -3   5  10 30.6599 7.03638   3
  -3   5  10 40.6281 8.09803   2
   2  -5 -10 146.774 16.4844   1
   2  -5 -10 138.407 11.5593   4
  -2   5  10 143.322 10.1958   3
  -2   5  10 158.703 13.0981   2
   1  -5 -10 -4.3087 6.67024   1
   1  -5 -10 6.48507 5.34891   4
  -1   5  10 4.18114 5.21847   2
  -1   5  10 0.17038 4.27491   3
   0  -5 -10 144.098 10.9921   4
   0  -5 -10 137.536 13.7047   1
   0   5  10 138.754 11.6084   2
  -1  -5 -10 1536.57 42.7574   1
  -1  -5 -10 1548.59 39.5221   4
   1   5  10 1586.83 46.6600   2
  -2  -5 -10 192.657 13.6795   1
  -2  -5 -10 189.141 12.1377   4
   2   5  10 194.965 13.0061   2
  -3  -5 -10 117.102 10.2032   4
  -3  -5 -10 121.114 12.1904   1
   3   5  10 133.606 10.6969   2
  -4  -5 -10 216.824 13.1604   4
  -4  -5 -10 216.792 14.0686   1
   4   5  10 203.888 12.7441   2
  -5  -5 -10 270.028 15.3583   4
  -5  -5 -10 285.813 8.56296   3
   5   5  10 247.542 14.2726   1
   5   5  10 260.190 13.8555   2
  -6  -5 -10 60.7641 5.88140   3
  -6  -5 -10 51.6078 8.69620   4
   6   5  10 41.1779 7.38200   1
   6   5  10 56.9783 7.70703   2
  -7  -5 -10 202.429 10.6767   3
  -7  -5 -10 190.146 14.0278   4
   7   5  10 213.265 14.1904   1
   7   5  10 214.017 11.8049   2
  -8  -5 -10 134.313 13.5488   4
  -8  -5 -10 115.795 9.73696   3
   8   5  10 133.691 13.9676   1
  -9  -5 -10 59.8457 8.35382   3
  -9  -5 -10 41.5681 8.76648   4
   9   5  10 42.8714 8.85728   1
 -10  -5 -10 11.8933 6.84959   4
 -10  -5 -10 6.08688 5.69377   3
  10   5  10 4.64702 6.61864   1
 -11  -5 -10 80.2713 11.2750   3
 -11  -5 -10 78.2796 11.9614   4
  11   5  10 101.727 13.7989   1
 -12  -5 -10 2.74491 6.45597   4
 -12  -5 -10 10.8871 7.04520   3
  12   5  10 3.04936 7.09075   1
   6  -6 -10 86.0849 15.9201   1
  -6   6  10 79.2080 12.1227   2
   5  -6 -10 43.3768 12.3797   1
  -5   6  10 33.4554 8.46338   2
   4  -6 -10 7.96354 9.40338   1
  -4   6  10 8.87520 6.09076   2
   3  -6 -10 152.532 18.2445   1
   3  -6 -10 171.233 12.0813   4
  -3   6  10 162.032 13.8208   2
   2  -6 -10 133.010 16.6855   1
   2  -6 -10 134.219 10.7518   4
  -2   6  10 135.020 13.9312   2
   1  -6 -10 87.7216 13.1390   1
   1  -6 -10 91.3657 9.63793   4
  -1   6  10 82.7828 10.8024   2
   0  -6 -10 6.87939 4.99064   4
   0  -6 -10 17.4954 7.82226   1
   0   6  10 5.01470 5.28392   2
  -1  -6 -10 52.5608 9.92175   1
  -1  -6 -10 31.8969 6.65791   4
   1   6  10 32.8198 7.60411   2
  -2  -6 -10 281.813 17.0474   1
  -2  -6 -10 281.497 14.5209   4
   2   6  10 294.447 16.4124   2
  -3  -6 -10 603.202 21.7986   4
  -3  -6 -10 589.104 23.8916   1
   3   6  10 587.167 23.2336   2
  -4  -6 -10 19.6207 7.32157   1
  -4  -6 -10 26.5881 7.10282   4
   4   6  10 15.8751 5.82561   2
  -5  -6 -10 1252.96 35.3287   4
  -5  -6 -10 1225.04 36.8142   1
   5   6  10 1219.86 37.4172   2
  -6  -6 -10 1.96391 5.49644   4
   6   6  10 3.37134 5.04113   1
   6   6  10 1.76642 4.45656   2
  -7  -6 -10 761.644 22.0388   3
  -7  -6 -10 752.526 27.2939   4
   7   6  10 762.615 24.9013   2
   7   6  10 750.440 27.2897   1
  -8  -6 -10 158.595 10.1069   3
  -8  -6 -10 175.956 13.8562   4
   8   6  10 152.365 12.8893   1
  -9  -6 -10 68.8881 8.43855   3
  -9  -6 -10 76.2706 11.1181   4
   9   6  10 60.6490 10.1611   1
 -10  -6 -10 61.9863 9.30493   3
 -10  -6 -10 72.7956 11.8509   4
  10   6  10 52.6265 10.1618   1
 -11  -6 -10 198.838 14.5656   3
 -11  -6 -10 243.938 17.6143   4
  11   6  10 216.830 17.2026   1
 -12  -6 -10 317.476 18.8990   3
 -12  -6 -10 289.343 19.9963   4
  12   6  10 294.911 20.6536   1
   5  -7 -10 22.6126 11.9100   1
  -5   7  10 0.12151 6.10444   2
   4  -7 -10 30.8160 12.5180   1
  -4   7  10 14.7208 7.24717   2
   3  -7 -10 4.43601 9.18281   1
  -3   7  10 5.19068 6.02737   2
   2  -7 -10 296.661 22.3776   1
  -2   7  10 319.137 18.9062   2
   1  -7 -10 7.14609 5.11558   4
   1  -7 -10 3.15001 8.71713   1
  -1   7  10 12.5751 6.23108   2
   0  -7 -10 20.3691 5.63970   4
   0  -7 -10 38.9542 10.2007   1
   0   7  10 29.6249 7.52206   2
  -1  -7 -10 365.986 21.0606   1
  -1  -7 -10 390.951 16.2953   4
   1   7  10 339.104 18.8764   2
  -2  -7 -10 138.723 14.8016   1
  -2  -7 -10 124.187 10.5983   4
   2   7  10 109.338 11.9860   2
  -3  -7 -10 87.4824 11.8866   1
  -3  -7 -10 99.3570 10.3466   4
   3   7  10 100.171 11.2887   2
  -4  -7 -10 39.7652 7.65920   4
  -4  -7 -10 31.4503 8.29263   1
   4   7  10 33.4438 7.34220   2
  -5  -7 -10 108.489 12.8659   1
  -5  -7 -10 94.9743 10.7918   4
   5   7  10 85.6329 9.76183   2
  -6  -7 -10 11.2142 6.12620   4
   6   7  10 -0.9953 3.95976   2
   6   7  10 3.03726 4.71365   1
  -7  -7 -10 8.70320 5.66750   4
   7   7  10 0.76814 4.31431   2
   7   7  10 2.65053 5.18142   1
  -8  -7 -10 51.9178 9.47858   4
   8   7  10 37.5491 8.63004   1
  -9  -7 -10 5.12210 5.88802   4
   9   7  10 6.73130 5.88216   1
 -10  -7 -10 48.1356 10.3871   4
  10   7  10 41.9378 9.20747   1
  11   7  10 18.8215 8.12092   1
 -12  -7 -10 14.0549 8.37393   4
  12   7  10 23.8181 10.0144   1
   4  -8 -10 29.0949 11.8566   1
  -4   8  10 28.9943 8.73061   2
   3  -8 -10 130.727 18.3226   1
  -3   8  10 113.561 14.5257   2
   2  -8 -10 84.8342 15.1095   1
  -2   8  10 76.2615 12.1199   2
   1  -8 -10 40.8704 12.5029   1
  -1   8  10 48.7499 9.79850   2
   0  -8 -10 266.385 21.8640   1
   0  -8 -10 252.092 13.2459   4
   0   8  10 279.443 18.3703   2
  -1  -8 -10 45.1083 10.9626   1
  -1  -8 -10 35.3199 6.80538   4
   1   8  10 31.5602 8.09745   2
  -2  -8 -10 561.488 26.7344   1
  -2  -8 -10 584.371 21.0171   4
   2   8  10 605.236 25.6715   2
  -3  -8 -10 47.6522 7.88842   4
  -3  -8 -10 44.1796 10.0438   1
   3   8  10 44.9150 8.34631   2
  -4  -8 -10 705.557 28.8715   1
  -4  -8 -10 774.781 25.7804   4
   4   8  10 762.182 28.7351   2
  -5  -8 -10 48.1071 8.56611   4
  -5  -8 -10 45.2958 10.1000   1
   5   8  10 51.3392 8.26908   2
  -6  -8 -10 227.827 16.4029   1
  -6  -8 -10 224.952 14.9486   4
   6   8  10 233.071 13.8747   2
  -7  -8 -10 75.2716 10.6980   4
   7   8  10 71.8097 9.06485   2
   7   8  10 73.1310 10.3742   1
  -8  -8 -10 90.0460 12.3787   4
   8   8  10 99.5229 12.0394   1
  -9  -8 -10 614.048 26.4502   4
   9   8  10 555.737 25.3056   1
 -10  -8 -10 156.670 16.7251   4
  10   8  10 173.990 17.8721   1
 -11  -8 -10 6.40669 7.35998   4
  11   8  10 6.24515 6.70959   1
 -12  -8 -10 16.8253 8.62917   4
  12   8  10 18.5722 8.59146   1
   3  -9 -10 13.5603 11.2946   1
  -3   9  10 4.60584 6.80541   2
   2  -9 -10 -0.8224 10.4125   1
  -2   9  10 12.4993 7.29481   2
   1  -9 -10 0.89835 9.62597   1
  -1   9  10 9.26534 7.56058   2
   0  -9 -10 39.0024 12.1690   1
   0   9  10 55.9658 10.2669   2
  -1  -9 -10 102.087 9.88356   4
  -1  -9 -10 102.024 15.7085   1
   1   9  10 106.569 13.1291   2
  -2  -9 -10 71.1245 12.9747   1
  -2  -9 -10 97.7600 10.0323   4
   2   9  10 102.587 12.6660   2
  -3  -9 -10 38.4494 9.80369   1
  -3  -9 -10 46.9912 7.79761   4
   3   9  10 45.1961 9.16448   2
  -4  -9 -10 77.3962 9.56090   4
  -4  -9 -10 71.4019 12.2720   1
   4   9  10 64.6915 10.0256   2
  -5  -9 -10 292.972 16.1551   4
  -5  -9 -10 253.202 18.6160   1
   5   9  10 263.387 16.8185   2
  -6  -9 -10 138.216 13.5786   4
  -6  -9 -10 129.426 14.6708   1
   6   9  10 140.803 12.4033   2
  -7  -9 -10 38.1897 8.50289   4
   7   9  10 37.5547 7.04272   2
   7   9  10 25.3284 7.23337   1
  -8  -9 -10 115.114 13.0054   4
   8   9  10 98.1407 12.5330   1
  -9  -9 -10 3.28923 6.38884   4
   9   9  10 -2.8343 5.23193   1
 -10  -9 -10 126.908 15.6261   4
  10   9  10 97.1773 13.1719   1
 -11  -9 -10 -1.3497 7.02798   4
  11   9  10 7.08031 6.49181   1
 -12  -9 -10 54.9077 12.1857   4
  12   9  10 90.7227 14.1768   1
   2 -10 -10 2.82379 9.76662   1
  -2  10  10 19.6084 8.97459   2
   1 -10 -10 151.615 19.7630   1
  -1  10  10 164.722 17.4418   2
   0 -10 -10 -10.080 7.85903   1
   0  10  10 16.0984 7.78810   2
  -1 -10 -10 161.736 19.1054   1
   1  10  10 236.796 18.4592   2
  -2 -10 -10 311.902 23.4318   1
   2  10  10 308.640 20.4901   2
  -3 -10 -10 168.128 18.8365   1
  -3 -10 -10 132.952 11.4164   4
   3  10  10 118.170 14.2164   2
  -4 -10 -10 66.9220 12.3484   1
  -4 -10 -10 59.0029 9.05190   4
   4  10  10 72.0153 11.3447   2
  -5 -10 -10 25.4109 7.23480   4
  -5 -10 -10 31.1013 9.73748   1
   5  10  10 16.3185 6.57131   2
  -6 -10 -10 176.746 14.1682   4
  -6 -10 -10 149.276 16.7129   1
   6  10  10 183.116 14.3346   2
  -7 -10 -10 209.387 15.5943   4
   7  10  10 223.946 16.4600   1
   7  10  10 222.678 14.9673   2
  -8 -10 -10 83.7624 12.0917   4
   8  10  10 87.0834 12.2129   1
  -9 -10 -10 52.7154 10.8265   4
   9  10  10 26.0695 8.38582   1
 -10 -10 -10 10.3371 8.14495   4
 -11 -10 -10 163.134 18.1003   4
  11  10  10 201.979 17.6152   1
   0 -11 -10 -0.4904 9.48952   1
   0  11  10 6.68890 7.69878   2
  -1 -11 -10 26.7614 11.9279   1
   1  11  10 20.5907 8.72243   2
  -2 -11 -10 55.6937 13.4449   1
   2  11  10 101.739 14.2726   2
  -3 -11 -10 278.678 22.2570   1
   3  11  10 328.130 20.7405   2
  -4 -11 -10 16.8270 9.88137   1
  -4 -11 -10 28.1131 7.07858   4
   4  11  10 45.4369 9.93536   2
  -5 -11 -10 79.9746 10.5995   4
  -5 -11 -10 99.8459 14.6954   1
   5  11  10 110.161 13.6483   2
  -6 -11 -10 56.0789 11.9137   1
  -6 -11 -10 62.8349 10.2096   4
   6  11  10 63.9320 10.1413   2
  -7 -11 -10 -3.9972 5.73641   4
  -7 -11 -10 1.80256 7.60255   1
   7  11  10 8.54634 5.74024   2
  -8 -11 -10 6.09589 6.89397   4
   8  11  10 12.4833 6.86472   1
  -9 -11 -10 94.1698 13.4405   4
   9  11  10 95.9314 13.2858   1
 -10 -11 -10 -1.6481 7.37524   4
  10  11  10 11.8326 7.20395   1
  11  11  10 3.98419 6.60547   1
  -2 -12 -10 10.2326 10.5848   1
   2  12  10 28.8688 9.72598   2
  -3 -12 -10 38.2384 12.1581   1
   3  12  10 43.6583 10.5834   2
  -4 -12 -10 133.695 18.0878   1
   4  12  10 134.889 16.1986   2
  -5 -12 -10 227.061 21.8846   1
   5  12  10 253.690 18.8829   2
  -6 -12 -10 81.4863 11.4993   4
  -6 -12 -10 67.4293 13.8775   1
   6  12  10 80.4841 12.0654   2
  -7 -12 -10 98.1705 15.1975   1
  -7 -12 -10 122.034 13.8639   4
   7  12  10 92.9806 12.8760   2
  -8 -12 -10 3.40761 7.42171   4
   8  12  10 8.49638 6.90600   1
  -9 -12 -10 63.5199 12.0383   4
   9  12  10 85.6916 12.7071   1
   6  10 -11 9.41250 7.37309   4
   5  10 -11 51.6121 10.9580   3
   5  10 -11 50.3978 10.2082   4
  -5 -10  11 40.1965 11.1774   2
   4  10 -11 7.70562 6.27930   3
  -4 -10  11 12.0436 9.37090   2
   3  10 -11 21.3605 7.90396   3
  -3 -10  11 9.73426 9.69352   2
   2  10 -11 41.0435 9.90337   3
  -2 -10  11 11.2387 10.0459   2
   1  10 -11 7.04289 7.29721   3
  -1 -10  11 3.09523 9.13997   2
   0  10 -11 52.5523 10.7890   3
   0 -10  11 42.9523 13.0062   2
  -1  10 -11 41.6542 10.8059   3
   7   9 -11 176.131 18.1594   4
  -7  -9  11 193.294 20.9972   3
  -7  -9  11 168.265 17.7122   2
   6   9 -11 1.78307 6.17740   4
  -6  -9  11 -4.8524 6.82501   2
  -6  -9  11 1.41220 8.66262   3
   5   9 -11 34.6817 8.89059   4
  -5  -9  11 -5.9184 6.90803   2
  -5  -9  11 3.29721 8.99898   3
   4   9 -11 -2.5070 5.48703   3
   4   9 -11 4.82479 6.31492   4
  -4  -9  11 2.93179 7.98783   2
   3   9 -11 186.791 15.7339   3
   3   9 -11 165.586 14.3933   4
  -3  -9  11 178.403 19.8902   2
   2   9 -11 244.668 17.3237   3
  -2  -9  11 244.868 20.2510   2
   1   9 -11 13.7193 7.61131   3
  -1  -9  11 38.6697 11.7943   2
   0   9 -11 143.922 15.7372   3
   0  -9  11 176.948 19.8081   2
  -1   9 -11 20.9557 9.24369   3
   1  -9  11 12.1777 9.79865   2
  -2   9 -11 118.696 14.7316   3
   2  -9  11 120.968 17.2071   2
  -3   9 -11 18.3132 8.50511   3
   3  -9  11 36.4156 11.6235   2
   8   8 -11 6.64319 7.35517   4
  -8  -8  11 8.21676 8.99315   3
   7   8 -11 7.09762 7.59169   4
  -7  -8  11 13.1055 9.92696   3
  -7  -8  11 -5.9729 6.41094   2
   6   8 -11 13.5862 7.78451   4
  -6  -8  11 25.9202 10.7153   3
  -6  -8  11 13.4982 8.74087   2
   5   8 -11 28.5831 8.26511   4
  -5  -8  11 18.2760 9.09685   2
  -5  -8  11 13.7037 8.88922   3
   4   8 -11 72.5219 11.1878   4
  -4  -8  11 65.0697 11.9271   2
  -4  -8  11 62.2726 12.5171   3
   3   8 -11 45.9561 9.33225   4
   3   8 -11 43.5653 9.93990   3
  -3  -8  11 33.6116 10.1225   2
   2   8 -11 65.8753 10.9772   3
   2   8 -11 69.6698 9.96209   4
  -2  -8  11 86.7115 13.5781   2
   1   8 -11 106.768 13.3376   3
  -1  -8  11 93.3784 14.5818   2
   0   8 -11 220.488 16.7383   3
   0  -8  11 201.036 19.8040   2
  -1   8 -11 78.5548 11.9370   3
   1  -8  11 61.2497 12.7146   2
  -2   8 -11 -2.0701 6.03997   3
   2  -8  11 -1.8955 7.42749   2
  -3   8 -11 56.3663 11.2054   3
   3  -8  11 61.2384 12.5989   2
  -4   8 -11 17.9065 8.43510   3
   4  -8  11 25.3612 10.1505   2
   8   7 -11 6.48214 7.54082   4
  -8  -7  11 -4.7293 8.29579   3
   7   7 -11 48.1493 11.3037   4
  -7  -7  11 48.5044 12.2885   3
  -7  -7  11 45.7017 10.2452   2
   6   7 -11 76.3469 12.3288   4
  -6  -7  11 97.9429 13.3134   2
  -6  -7  11 86.5305 14.2872   3
   5   7 -11 598.317 26.5238   4
  -5  -7  11 581.273 28.6324   3
  -5  -7  11 666.169 29.2497   2
   4   7 -11 101.951 12.9191   4
  -4  -7  11 112.394 15.3550   3
  -4  -7  11 114.095 14.2881   2
   3   7 -11 121.118 13.4866   4
   3   7 -11 120.702 12.8595   3
  -3  -7  11 139.485 15.7267   2
   2   7 -11 1.20063 5.27213   3
   2   7 -11 12.8288 7.01020   4
  -2  -7  11 0.51520 6.64631   2
   1   7 -11 31.9978 8.21403   4
   1   7 -11 43.5348 9.13433   3
  -1  -7  11 39.7794 10.5675   2
   0   7 -11 18.7869 7.97899   4
   0   7 -11 10.2750 7.20869   3
   0  -7  11 11.3485 7.56322   2
  -1   7 -11 296.251 18.7690   3
   1  -7  11 324.519 22.0343   2
  -2   7 -11 29.4731 8.61786   3
   2  -7  11 4.66596 8.10680   2
  -3   7 -11 365.851 21.6168   3
   3  -7  11 420.333 24.6204   2
  -4   7 -11 19.9301 8.80549   3
   4  -7  11 3.10215 7.83379   1
   4  -7  11 8.80706 7.86866   2
  -5   7 -11 243.512 19.4866   3
   5  -7  11 205.586 19.7548   2
   5  -7  11 232.654 18.7112   1
  -6   7 -11 11.9367 9.24330   3
   6  -7  11 7.20380 6.98853   2
   6  -7  11 -11.166 7.36102   1
   9   6 -11 2.55793 7.06891   4
  -9  -6  11 1.58412 8.72365   3
   8   6 -11 33.7907 10.1303   4
  -8  -6  11 33.8635 11.7578   3
   7   6 -11 15.9509 8.56113   4
  -7  -6  11 36.6995 10.6131   3
  -7  -6  11 28.3044 8.81253   2
   6   6 -11 34.5545 9.69950   4
  -6  -6  11 39.9692 9.29672   2
  -6  -6  11 31.2832 11.0803   3
   5   6 -11 7.91346 6.62854   4
  -5  -6  11 8.64794 6.97692   2
  -5  -6  11 0.82743 7.41519   3
   4   6 -11 334.430 19.4651   4
  -4  -6  11 340.348 20.3416   2
  -4  -6  11 325.850 21.1021   3
   3   6 -11 29.5309 8.15510   4
  -3  -6  11 13.9592 7.91205   2
  -3  -6  11 32.1531 10.0835   3
   2   6 -11 69.8200 10.1503   3
   2   6 -11 71.2069 10.8925   4
  -2  -6  11 37.5605 9.80303   2
   1   6 -11 85.2436 11.4943   4
   1   6 -11 51.0950 8.95549   3
  -1  -6  11 93.3753 13.2664   2
   0   6 -11 73.8691 10.2630   3
   0   6 -11 120.521 11.8699   4
   0  -6  11 74.6844 11.8797   2
  -1   6 -11 159.800 13.9434   3
  -1   6 -11 202.146 12.9834   4
   1  -6  11 199.596 17.0431   2
  -2   6 -11 25.6319 7.58415   3
   2  -6  11 28.8694 9.06402   2
  -3   6 -11 -0.2073 5.59678   3
   3  -6  11 0.41883 6.86276   2
   3  -6  11 -8.9707 5.19892   1
  -4   6 -11 32.5645 8.94242   3
   4  -6  11 38.8892 9.18696   1
   4  -6  11 40.6354 9.98919   2
  -5   6 -11 33.2593 9.29485   3
   5  -6  11 33.7995 9.83004   1
   5  -6  11 32.9741 9.27086   2
  -6   6 -11 49.6520 11.1820   3
   6  -6  11 58.6387 11.4253   2
   6  -6  11 34.7207 10.6509   1
  -7   6 -11 -3.8576 7.84423   3
   7  -6  11 -0.2086 9.08945   1
   7  -6  11 6.11235 6.83051   2
   9   5 -11 24.1619 9.44184   4
  -9  -5  11 4.20167 9.05672   3
   8   5 -11 14.8815 8.32887   4
  -8  -5  11 14.9764 9.35979   3
   7   5 -11 69.9714 12.4493   4
  -7  -5  11 50.7293 9.64367   2
  -7  -5  11 73.2861 13.2248   3
   6   5 -11 89.2062 13.3899   4
  -6  -5  11 89.0057 13.5569   3
  -6  -5  11 96.7228 12.2178   2
   5   5 -11 21.2903 7.82930   4
  -5  -5  11 13.1199 8.06698   3
  -5  -5  11 19.7216 7.00792   2
   4   5 -11 108.598 13.6083   4
  -4  -5  11 106.378 13.4656   3
  -4  -5  11 106.375 12.9591   2
   3   5 -11 104.780 13.3955   4
  -3  -5  11 108.516 12.8818   2
  -3  -5  11 134.966 15.4786   3
   2   5 -11 1187.93 36.7773   4
  -2  -5  11 1107.31 38.6147   3
  -2  -5  11 1103.71 39.5565   2
   1   5 -11 9.59898 6.89405   4
   1   5 -11 13.0813 6.31551   3
  -1  -5  11 11.2340 7.02956   2
   0   5 -11 740.632 27.7827   3
   0   5 -11 742.898 26.2976   4
   0  -5  11 748.960 30.9559   2
  -1   5 -11 33.5553 7.48846   3
  -1   5 -11 22.7146 7.04855   4
   1  -5  11 22.9699 7.96049   2
  -2   5 -11 467.933 21.5403   3
  -2   5 -11 426.638 17.3096   4
   2  -5  11 430.404 22.6883   2
   2  -5  11 398.319 17.0473   1
  -3   5 -11 17.5011 6.80263   3
   3  -5  11 4.24465 5.81973   1
   3  -5  11 14.2284 8.20549   2
  -4   5 -11 8.34167 6.65756   3
   4  -5  11 12.4997 6.67302   1
   4  -5  11 12.0106 7.36657   2
  -5   5 -11 239.414 17.5430   3
   5  -5  11 196.851 16.6624   1
   5  -5  11 232.842 17.4756   2
  -6   5 -11 212.341 17.5149   3
   6  -5  11 225.364 17.0354   2
   6  -5  11 211.728 18.8367   1
  -7   5 -11 291.625 21.1223   3
   7  -5  11 289.176 20.9777   1
   7  -5  11 327.131 19.9743   2
  -8   5 -11 33.8799 11.5916   3
   8  -5  11 42.1933 12.3205   1
   9   4 -11 4.25598 8.22968   4
  -9  -4  11 0.03313 8.87605   3
   8   4 -11 10.8860 7.89618   4
  -8  -4  11 31.5252 10.8173   3
   7   4 -11 15.2661 7.98952   4
  -7  -4  11 3.17857 6.39325   2
  -7  -4  11 -0.1991 6.92452   3
   6   4 -11 5.39315 7.30644   4
  -6  -4  11 8.39201 7.95029   3
  -6  -4  11 7.78752 6.46736   2
   5   4 -11 80.7686 12.6201   4
  -5  -4  11 69.2411 10.5085   2
  -5  -4  11 88.4268 12.9019   3
   4   4 -11 37.0984 9.54982   4
  -4  -4  11 52.5109 9.66707   2
  -4  -4  11 36.6678 9.75782   3
   3   4 -11 296.254 18.8123   4
  -3  -4  11 295.874 18.4163   2
  -3  -4  11 274.370 17.8154   3
   2   4 -11 541.807 24.1687   4
  -2  -4  11 481.995 23.2164   2
  -2  -4  11 530.495 24.6475   3
   1   4 -11 87.0652 10.1071   3
   1   4 -11 107.700 12.3976   4
  -1  -4  11 83.1176 11.4254   2
   0   4 -11 166.591 14.9025   4
   0   4 -11 145.925 11.8436   3
   0  -4  11 160.910 15.1005   2
  -1   4 -11 241.005 14.4896   4
  -1   4 -11 234.107 14.4957   3
   1  -4  11 192.325 15.5424   2
   1  -4  11 233.142 10.6008   1
  -2   4 -11 -2.0897 4.78463   3
  -2   4 -11 -2.5152 4.57239   4
   2  -4  11 -3.7407 5.08808   2
   2  -4  11 3.81348 4.57949   1
  -3   4 -11 61.5838 10.0185   3
  -3   4 -11 59.3444 8.00053   4
   3  -4  11 45.8928 7.74587   1
   3  -4  11 42.4042 9.19274   2
  -4   4 -11 34.5069 8.61727   3
  -4   4 -11 28.5161 5.89420   4
   4  -4  11 43.1024 9.34683   2
   4  -4  11 32.5799 7.84425   1
  -5   4 -11 115.484 13.4780   3
   5  -4  11 114.392 12.8956   1
   5  -4  11 119.265 13.2095   2
  -6   4 -11 53.9090 10.5078   3
   6  -4  11 65.4448 10.5083   2
   6  -4  11 40.4086 9.74245   1
  -7   4 -11 17.3503 8.81504   3
   7  -4  11 20.4918 9.66085   1
   7  -4  11 25.4612 7.33003   2
  -8   4 -11 8.81557 8.89549   3
   8  -4  11 26.8933 11.9189   1
  -9   4 -11 -16.077 7.81673   3
   9  -4  11 -5.4256 9.84732   1
   9   3 -11 149.999 17.6750   4
  -9  -3  11 163.574 19.1627   3
   8   3 -11 219.706 18.6763   4
  -8  -3  11 218.652 19.0529   3
   7   3 -11 63.2566 12.1705   4
  -7  -3  11 69.1694 12.1499   3
  -7  -3  11 64.3388 10.2916   2
   6   3 -11 11.2189 7.48264   4
  -6  -3  11 7.77594 6.07375   2
  -6  -3  11 -0.6979 6.82430   3
   5   3 -11 263.065 18.6625   4
  -5  -3  11 243.136 17.1426   3
  -5  -3  11 223.536 15.8400   2
   4   3 -11 63.5289 11.0776   4
  -4  -3  11 61.2651 10.3620   3
  -4  -3  11 44.9784 9.00087   2
   3   3 -11 255.423 18.0194   4
  -3  -3  11 241.925 16.4995   3
  -3  -3  11 255.908 15.7458   2
   2   3 -11 4.58507 6.72787   4
  -2  -3  11 7.08545 6.34381   2
  -2  -3  11 27.8351 7.99790   3
   1   3 -11 780.842 28.7010   4
  -1  -3  11 821.495 30.1362   2
  -1  -3  11 773.755 28.9323   3
   0   3 -11 904.940 28.5745   3
   0   3 -11 823.882 28.9024   4
   0  -3  11 826.761 31.3174   2
  -1   3 -11 54.2638 8.41236   3
  -1   3 -11 43.1670 8.48234   4
   1  -3  11 43.3914 8.76371   2
   1  -3  11 51.0365 5.77550   1
  -2   3 -11 520.309 20.2700   4
  -2   3 -11 556.747 21.3204   3
   2  -3  11 517.257 23.3828   2
   2  -3  11 517.025 17.5598   1
  -3   3 -11 44.1377 7.27575   4
  -3   3 -11 36.6786 7.93613   3
   3  -3  11 38.9191 6.79331   1
   3  -3  11 65.6531 10.2526   2
  -4   3 -11 602.312 24.6346   3
  -4   3 -11 662.939 20.9649   4
   4  -3  11 609.681 26.3157   2
   4  -3  11 630.204 22.6531   1
  -5   3 -11 68.0001 7.67611   4
  -5   3 -11 47.1189 9.24407   3
   5  -3  11 61.0329 9.68642   1
   5  -3  11 64.5812 10.2809   2
  -6   3 -11 14.2683 7.11155   3
   6  -3  11 10.8301 7.70175   1
   6  -3  11 6.88400 5.76028   2
  -7   3 -11 16.0476 7.77094   3
   7  -3  11 7.30141 7.68128   1
   7  -3  11 10.4034 5.89128   2
  -8   3 -11 0.29092 8.23421   3
   8  -3  11 8.15928 8.78595   1
  -9   3 -11 297.043 21.9330   3
   9  -3  11 310.314 22.8970   1
   9   2 -11 34.2448 11.0921   4
  -9  -2  11 21.6928 10.2659   3
   8   2 -11 7.22000 7.49659   4
  -8  -2  11 5.74719 8.43189   3
   7   2 -11 21.2982 8.46608   4
  -7  -2  11 24.2508 8.92462   3
  -7  -2  11 8.03866 6.54284   2
   6   2 -11 46.5087 10.2020   4
  -6  -2  11 54.5133 10.7049   3
  -6  -2  11 70.9906 10.3375   2
   5   2 -11 25.1587 8.65644   4
  -5  -2  11 18.0686 7.59922   3
  -5  -2  11 12.7387 6.66709   2
   4   2 -11 18.7710 7.99227   4
  -4  -2  11 40.6736 8.75968   3
  -4  -2  11 22.2800 7.29577   2
   3   2 -11 123.885 14.1502   4
  -3  -2  11 125.726 13.1648   2
  -3  -2  11 151.732 14.3032   3
   2   2 -11 274.160 17.6861   4
  -2  -2  11 256.386 15.8703   3
  -2  -2  11 269.773 16.0263   2
   1   2 -11 10.6420 7.57403   4
  -1  -2  11 12.5283 6.21852   2
  -1  -2  11 5.05762 6.45630   3
   0   2 -11 559.414 20.4429   3
   0   2 -11 519.604 22.3572   4
   0  -2  11 549.560 13.3304   1
   0  -2  11 530.494 23.4538   2
  -1   2 -11 496.103 21.0834   4
  -1   2 -11 523.474 19.4607   3
   1  -2  11 511.683 14.7357   1
   1  -2  11 487.205 22.2011   2
  -2   2 -11 52.6602 8.64955   4
  -2   2 -11 63.3803 8.18408   3
   2  -2  11 56.2523 9.43082   2
   2  -2  11 57.1711 6.43038   1
  -3   2 -11 317.104 15.7437   3
  -3   2 -11 355.027 15.7331   4
   3  -2  11 302.997 17.6942   2
   3  -2  11 324.992 14.2172   1
  -4   2 -11 35.5729 6.42398   4
  -4   2 -11 30.5216 7.12381   3
   4  -2  11 30.3914 7.54382   2
   4  -2  11 38.5712 7.35127   1
  -5   2 -11 9.89488 6.26127   3
  -5   2 -11 -3.3498 3.72763   4
   5  -2  11 4.62911 5.38219   2
   5  -2  11 14.1638 6.46965   1
  -6   2 -11 12.4327 6.51702   3
  -6   2 -11 -3.0635 3.80361   4
   6  -2  11 1.08992 5.57284   1
   6  -2  11 2.32244 5.03229   2
  -7   2 -11 104.360 13.2529   3
  -7   2 -11 99.7635 10.8264   4
   7  -2  11 85.3224 12.4714   1
   7  -2  11 92.6495 10.3417   2
  -8   2 -11 22.3694 8.99780   3
   8  -2  11 21.7594 9.02144   1
  -9   2 -11 -0.6896 8.08915   3
   9  -2  11 -4.6463 8.10255   1
 -10   2 -11 10.9366 9.38619   3
  10  -2  11 1.69345 9.96002   1
   9   1 -11 3.38328 8.01942   4
  -9  -1  11 0.29786 8.66725   3
   8   1 -11 113.469 15.0620   4
  -8  -1  11 150.672 17.6419   3
   7   1 -11 32.0090 9.21674   4
  -7  -1  11 20.2274 8.62519   3
  -7  -1  11 29.5968 8.19647   2
   6   1 -11 224.904 17.8141   4
  -6  -1  11 227.339 16.0440   2
  -6  -1  11 256.468 17.9389   3
   5   1 -11 306.700 19.7451   4
  -5  -1  11 305.925 17.5302   2
  -5  -1  11 314.987 18.2477   3
   4   1 -11 172.987 16.8799   4
  -4  -1  11 150.750 13.0160   3
  -4  -1  11 149.969 12.8401   2
   3   1 -11 881.612 32.5026   4
  -3  -1  11 927.554 30.4290   3
  -3  -1  11 930.874 32.2580   2
   2   1 -11 54.7431 4.66884   1
   2   1 -11 47.9053 9.89127   4
  -2  -1  11 40.1127 8.07958   3
  -2  -1  11 55.7288 8.97988   2
   1   1 -11 146.333 14.2207   4
  -1  -1  11 144.136 12.3373   2
  -1  -1  11 137.255 11.6496   3
  -1  -1  11 144.614 5.45090   1
   0   1 -11 419.163 20.2794   4
   0  -1  11 401.179 19.5413   2
   0  -1  11 435.224 11.7512   1
   0  -1  11 398.323 17.8265   3
  -1   1 -11 405.787 19.1304   4
  -1   1 -11 410.159 16.1575   3
   1  -1  11 408.766 19.0653   2
   1  -1  11 431.342 13.0106   1
  -2   1 -11 627.259 21.0696   3
  -2   1 -11 627.431 23.0588   4
   2  -1  11 608.035 24.5300   2
   2  -1  11 659.282 18.8492   1
  -3   1 -11 1343.20 36.6624   3
  -3   1 -11 1348.68 35.8768   4
   3  -1  11 1310.18 33.5471   1
   3  -1  11 1283.14 40.5976   2
  -4   1 -11 153.885 11.1764   4
  -4   1 -11 164.465 11.4437   3
   4  -1  11 172.428 11.0599   1
   4  -1  11 141.019 12.2521   2
  -5   1 -11 92.8882 10.8199   3
  -5   1 -11 94.0125 9.38832   4
   5  -1  11 75.8226 9.71520   2
   5  -1  11 82.9852 10.0620   1
  -6   1 -11 122.835 10.1111   4
  -6   1 -11 128.973 12.9892   3
   6  -1  11 132.922 12.3404   2
   6  -1  11 137.156 12.1820   1
  -7   1 -11 489.849 18.7058   4
  -7   1 -11 507.580 23.2543   3
   7  -1  11 474.788 20.5566   2
   7  -1  11 501.919 22.8687   1
  -8   1 -11 35.3092 6.62564   4
  -8   1 -11 40.6841 9.27725   3
   8  -1  11 26.5050 9.16557   1
  -9   1 -11 13.3534 8.37105   3
   9  -1  11 19.4984 9.40476   1
 -10   1 -11 7.98972 8.34945   3
  10  -1  11 9.31454 9.45569   1
   8   0 -11 131.390 15.7605   4
  -8   0  11 110.127 14.7787   3
   7   0 -11 42.3316 9.85047   4
  -7   0  11 32.3090 9.35056   3
  -7   0  11 34.7518 8.57780   2
   6   0 -11 33.2975 9.34072   4
  -6   0  11 19.5283 7.62128   2
  -6   0  11 16.4783 8.09504   3
   5   0 -11 5.43756 6.79399   4
  -5   0  11 5.73303 6.23846   2
  -5   0  11 2.48781 6.14246   3
   4   0 -11 182.342 10.7842   1
   4   0 -11 164.500 16.0425   4
  -4   0  11 197.362 14.1208   2
  -4   0  11 211.257 14.2607   3
   3   0 -11 345.654 13.2365   1
   3   0 -11 335.245 19.4238   4
  -3   0  11 333.597 17.9880   2
  -3   0  11 343.497 17.1216   3
   2   0 -11 322.108 11.5203   1
   2   0 -11 310.745 18.5710   4
  -2   0  11 325.483 15.6574   3
  -2   0  11 314.585 17.6379   2
   1   0 -11 6.31710 3.15820   1
   1   0 -11 10.2651 6.83579   4
  -1   0  11 9.71125 6.01127   2
  -1   0  11 15.0797 5.79615   3
   0   0 -11 46.8211 8.80092   4
   0   0  11 38.9116 6.57534   3
   0   0  11 54.7453 8.85131   2
   0   0  11 50.6665 4.76713   1
  -1   0 -11 23.1872 4.61940   3
  -1   0 -11 22.7555 7.05159   4
   1   0  11 27.4891 4.05207   1
   1   0  11 28.6199 6.96765   2
  -2   0 -11 422.722 18.0837   4
  -2   0 -11 415.421 15.1349   3
   2   0  11 412.401 14.0444   1
   2   0  11 408.078 18.9761   2
  -3   0 -11 139.757 11.2209   4
  -3   0 -11 150.974 9.27423   3
   3   0  11 136.942 11.4897   2
   3   0  11 134.977 9.05491   1
  -4   0 -11 91.5767 9.91387   4
  -4   0 -11 93.3851 9.35576   3
   4   0  11 90.0609 10.2698   2
   4   0  11 97.6587 9.45807   1
  -5   0 -11 4.13072 5.13655   3
  -5   0 -11 -0.7476 4.34647   4
   5   0  11 4.21312 4.87365   1
   5   0  11 6.36610 5.05741   2
  -6   0 -11 -0.8060 5.22574   3
  -6   0 -11 -1.7717 4.20893   4
   6   0  11 -1.7088 4.23551   2
   6   0  11 5.03186 5.21120   1
  -7   0 -11 55.1677 9.28160   3
  -7   0 -11 35.1203 7.02571   4
   7   0  11 36.5620 8.40426   1
   7   0  11 39.7617 6.82826   2
  -8   0 -11 269.940 17.8356   3
  -8   0 -11 302.969 15.3354   4
   8   0  11 306.069 18.2499   1
  -9   0 -11 107.816 11.0533   4
  -9   0 -11 120.109 14.0193   3
   9   0  11 127.334 14.7330   1
 -10   0 -11 18.6060 8.45142   3
  10   0  11 16.2003 9.66068   1
 -11   0 -11 83.0514 13.8951   3
  11   0  11 103.401 16.4004   1
   8  -1 -11 22.6985 9.55481   4
  -8   1  11 25.2103 9.84373   3
   7  -1 -11 14.8762 8.22422   4
  -7   1  11 20.2660 7.51196   2
  -7   1  11 30.9144 10.0091   3
   6  -1 -11 124.460 14.7749   4
   6  -1 -11 134.370 17.3687   1
  -6   1  11 146.542 14.7826   3
  -6   1  11 130.653 13.4108   2
   5  -1 -11 17.1160 6.94616   1
   5  -1 -11 20.7475 7.98918   4
  -5   1  11 22.4569 7.45565   2
   4  -1 -11 473.088 23.3770   4
   4  -1 -11 496.065 19.8903   1
  -4   1  11 517.242 21.0809   3
  -4   1  11 519.397 22.9320   2
   3  -1 -11 8.48956 4.75873   1
   3  -1 -11 7.29494 6.74471   4
  -3   1  11 6.62201 5.39660   3
  -3   1  11 17.6350 6.65889   2
   2  -1 -11 299.503 12.9498   1
   2  -1 -11 309.559 18.3475   4
  -2   1  11 283.910 16.6077   2
  -2   1  11 286.291 14.0167   3
   1  -1 -11 288.099 16.6906   4
   1  -1 -11 282.583 11.7794   1
  -1   1  11 288.377 16.3543   2
  -1   1  11 254.726 13.2072   3
   0  -1 -11 1997.85 50.5398   4
   0  -1 -11 1996.08 44.5908   1
   0   1  11 1984.89 56.1003   2
   0   1  11 1993.62 47.8599   3
  -1  -1 -11 14.5627 6.34409   4
  -1  -1 -11 24.8793 4.18291   3
   1   1  11 27.4109 4.32571   1
   1   1  11 28.0226 6.65734   2
  -2  -1 -11 126.225 7.29671   3
  -2  -1 -11 127.148 12.0163   4
   2   1  11 125.079 7.69351   1
   2   1  11 120.394 11.5200   2
  -3  -1 -11 458.449 15.3080   3
  -3  -1 -11 450.738 18.8588   4
   3   1  11 459.157 19.5397   2
   3   1  11 465.587 16.1068   1
  -4  -1 -11 609.897 21.8960   4
  -4  -1 -11 604.412 19.4157   3
   4   1  11 632.029 20.6082   1
   4   1  11 617.100 23.0973   2
  -5  -1 -11 310.757 14.1430   3
  -5  -1 -11 327.641 16.0838   4
   5   1  11 299.653 14.8973   1
   5   1  11 321.626 15.9399   2
  -6  -1 -11 502.800 19.4102   3
  -6  -1 -11 471.990 19.4256   4
   6   1  11 477.224 20.3135   1
   6   1  11 472.408 19.7824   2
  -7  -1 -11 333.647 16.3825   4
  -7  -1 -11 344.763 17.0428   3
   7   1  11 348.093 15.6807   2
   7   1  11 328.488 18.0677   1
  -8  -1 -11 228.693 14.5504   4
  -8  -1 -11 228.238 15.3599   3
   8   1  11 250.278 16.3886   1
  -9  -1 -11 188.297 13.2296   4
  -9  -1 -11 189.053 15.3569   3
   9   1  11 213.502 16.5910   1
 -10  -1 -11 67.1609 11.7914   3
 -10  -1 -11 54.2053 8.87535   4
  10   1  11 69.1698 12.6581   1
 -11  -1 -11 2.70126 7.87904   3
 -11  -1 -11 8.94739 7.10640   4
  11   1  11 2.99583 9.05359   1
   8  -2 -11 48.4320 11.1946   4
  -8   2  11 36.3187 10.6812   3
   7  -2 -11 122.733 14.9013   4
   7  -2 -11 109.104 21.9988   1
  -7   2  11 125.669 15.0969   3
  -7   2  11 127.254 13.8137   2
   6  -2 -11 100.302 12.7934   4
   6  -2 -11 101.893 13.3965   1
  -6   2  11 112.748 12.9219   2
  -6   2  11 112.689 13.3500   3
   5  -2 -11 75.6428 11.5939   4
   5  -2 -11 78.1913 10.9564   1
  -5   2  11 72.2638 10.7738   3
  -5   2  11 63.1686 10.1061   2
   4  -2 -11 28.0552 8.53612   4
   4  -2 -11 21.7096 7.49294   1
  -4   2  11 29.9474 8.11628   2
  -4   2  11 33.0622 7.64656   3
   3  -2 -11 53.4608 10.1301   4
   3  -2 -11 78.3168 9.83540   1
  -3   2  11 77.5145 10.6140   2
  -3   2  11 72.9582 9.10276   3
   2  -2 -11 112.663 12.9124   4
   2  -2 -11 98.9318 10.4071   1
  -2   2  11 92.0077 8.94398   3
  -2   2  11 98.1584 11.5551   2
   1  -2 -11 180.266 14.3991   4
   1  -2 -11 177.545 11.0337   1
  -1   2  11 190.720 13.8334   2
  -1   2  11 194.479 10.5206   3
   0  -2 -11 1020.10 27.6845   1
   0  -2 -11 1005.33 31.4263   4
   0   2  11 1004.20 33.5458   2
   0   2  11 975.846 26.0610   3
  -1  -2 -11 5.98018 2.35011   3
  -1  -2 -11 8.83405 5.86422   4
  -1  -2 -11 8.65004 4.39088   1
   1   2  11 8.20687 5.70075   2
  -2  -2 -11 66.3197 4.59806   3
  -2  -2 -11 59.9276 8.73585   4
   2   2  11 75.1012 7.60930   1
   2   2  11 72.3085 9.21323   2
  -3  -2 -11 137.165 12.6908   4
  -3  -2 -11 113.154 6.33649   3
   3   2  11 134.685 10.7924   2
   3   2  11 114.201 8.48502   1
  -4  -2 -11 125.458 7.43644   3
  -4  -2 -11 138.381 11.1410   4
   4   2  11 103.167 9.05783   1
   4   2  11 115.389 10.8359   2
  -5  -2 -11 69.2626 7.03872   3
  -5  -2 -11 55.8189 8.40016   4
   5   2  11 78.4981 9.06436   2
   5   2  11 59.2409 8.06578   1
  -6  -2 -11 1.68478 5.27339   4
  -6  -2 -11 10.0679 4.99457   3
   6   2  11 3.14711 4.84982   1
   6   2  11 9.57825 4.94295   2
  -7  -2 -11 8.19662 5.50258   4
  -7  -2 -11 16.0377 6.08996   3
   7   2  11 18.2587 5.41321   2
   7   2  11 26.8119 6.97070   1
  -8  -2 -11 31.0858 7.64686   3
  -8  -2 -11 28.6724 7.41139   4
   8   2  11 36.4949 8.32733   1
  -9  -2 -11 7.55932 6.31630   3
  -9  -2 -11 11.5090 6.48972   4
   9   2  11 16.2183 7.69102   1
 -10  -2 -11 141.103 14.4326   3
 -10  -2 -11 128.658 13.1997   4
  10   2  11 117.698 14.9947   1
 -11  -2 -11 43.0727 9.01937   4
 -11  -2 -11 39.0175 10.1305   3
  11   2  11 28.2531 10.2561   1
 -12  -2 -11 -1.0881 7.16808   3
 -12  -2 -11 5.05474 6.03049   4
  12   2  11 15.5014 9.76032   1
   7  -3 -11 201.131 19.8173   1
   7  -3 -11 253.875 18.6896   4
  -7   3  11 239.912 17.6242   2
  -7   3  11 260.217 18.7898   3
   6  -3 -11 41.2182 10.6073   1
  -6   3  11 40.6513 9.63908   3
  -6   3  11 35.7471 8.99725   2
   5  -3 -11 12.5089 7.07738   4
   5  -3 -11 15.6049 7.89431   1
  -5   3  11 9.58022 7.02220   3
  -5   3  11 10.6668 6.66123   2
   4  -3 -11 49.4672 10.0336   1
   4  -3 -11 60.8375 10.4209   4
  -4   3  11 35.9897 8.02466   3
  -4   3  11 44.2791 8.93028   2
   3  -3 -11 525.466 23.1490   1
   3  -3 -11 584.714 23.8901   4
  -3   3  11 558.464 20.6181   3
  -3   3  11 531.639 23.4191   2
   2  -3 -11 47.8135 8.84894   4
   2  -3 -11 38.9197 8.25626   1
  -2   3  11 41.7010 8.27244   2
  -2   3  11 39.7911 6.72905   3
   1  -3 -11 611.272 22.4416   1
   1  -3 -11 629.072 24.0807   4
  -1   3  11 636.279 25.3182   2
  -1   3  11 636.333 19.3179   3
   0  -3 -11 -1.7070 4.80621   1
   0  -3 -11 16.5556 6.47135   4
   0   3  11 5.07019 3.43122   3
   0   3  11 -1.3861 4.79621   2
  -1  -3 -11 343.359 15.6960   1
  -1  -3 -11 366.377 17.6352   4
  -1  -3 -11 406.123 10.0611   3
   1   3  11 402.008 18.6960   2
  -2  -3 -11 808.839 25.0148   1
  -2  -3 -11 839.173 27.1606   4
   2   3  11 824.208 28.5968   2
  -3  -3 -11 280.258 14.9727   4
  -3  -3 -11 291.176 8.15419   3
   3   3  11 305.357 13.4115   1
   3   3  11 279.941 15.3731   2
  -4  -3 -11 737.769 18.5181   3
  -4  -3 -11 685.322 24.3813   4
   4   3  11 728.357 25.7123   2
   4   3  11 715.477 23.1827   1
  -5  -3 -11 9.74615 5.69921   4
  -5  -3 -11 1.55242 3.32334   3
   5   3  11 10.1995 4.83720   1
   5   3  11 5.54713 5.16530   2
  -6  -3 -11 124.423 8.76758   3
  -6  -3 -11 137.647 12.1658   4
   6   3  11 136.098 10.6202   2
   6   3  11 145.538 11.7680   1
  -7  -3 -11 147.589 10.4626   3
  -7  -3 -11 148.535 12.1301   4
   7   3  11 129.018 12.6824   1
   7   3  11 150.318 10.5194   2
  -8  -3 -11 3.87694 5.11479   3
  -8  -3 -11 11.4102 5.77421   4
   8   3  11 1.18296 5.24293   1
  -9  -3 -11 432.139 19.3113   3
  -9  -3 -11 431.886 20.6888   4
   9   3  11 449.360 22.1940   1
 -10  -3 -11 2.70965 6.16375   3
 -10  -3 -11 2.35062 5.40273   4
  10   3  11 3.78590 6.74269   1
 -11  -3 -11 593.457 25.5180   3
 -11  -3 -11 578.151 25.3833   4
  11   3  11 643.491 29.2500   1
 -12  -3 -11 26.7220 8.48722   4
 -12  -3 -11 32.8142 9.95328   3
  12   3  11 19.9515 9.79332   1
   7  -4 -11 -1.5821 8.93806   1
  -7   4  11 38.0409 9.37481   2
   6  -4 -11 -0.3308 8.14728   1
   6  -4 -11 6.93261 7.44591   4
  -6   4  11 1.45211 6.58877   2
   5  -4 -11 192.358 15.3079   4
   5  -4 -11 181.483 18.7267   1
  -5   4  11 161.254 15.5411   2
  -5   4  11 186.024 14.2349   3
   4  -4 -11 67.1478 10.3179   4
   4  -4 -11 79.1405 13.1361   1
  -4   4  11 56.6528 9.10057   3
  -4   4  11 83.3337 11.1954   2
   3  -4 -11 94.0617 12.8379   1
   3  -4 -11 116.318 12.5676   4
  -3   4  11 113.491 12.4458   2
  -3   4  11 91.2039 9.81220   3
   2  -4 -11 59.4509 9.57133   4
   2  -4 -11 60.2428 10.3154   1
  -2   4  11 39.1482 8.66779   2
  -2   4  11 49.6594 6.85810   3
   1  -4 -11 3.47069 5.79802   4
   1  -4 -11 0.86073 5.91784   1
  -1   4  11 2.03717 3.58523   3
  -1   4  11 -0.0881 5.24951   2
   0  -4 -11 327.536 16.5753   4
   0  -4 -11 338.029 17.0447   1
   0   4  11 309.524 17.2467   2
  -1  -4 -11 66.2711 9.09307   4
  -1  -4 -11 55.7284 8.39072   1
   1   4  11 45.3533 8.13616   2
  -2  -4 -11 -3.9378 4.76666   1
  -2  -4 -11 6.74963 5.37018   4
   2   4  11 10.2410 5.34405   2
  -3  -4 -11 768.956 25.7879   4
  -3  -4 -11 829.660 26.3867   1
   3   4  11 813.707 28.2494   2
  -4  -4 -11 145.294 12.2858   4
   4   4  11 178.950 11.8179   2
   4   4  11 159.145 10.5350   1
  -5  -4 -11 138.266 6.70641   3
  -5  -4 -11 138.284 11.8384   4
   5   4  11 127.581 10.3048   1
   5   4  11 139.325 11.1357   2
  -6  -4 -11 368.310 13.2265   3
  -6  -4 -11 356.359 17.6583   4
   6   4  11 364.418 16.4157   2
   6   4  11 309.076 16.1897   1
  -7  -4 -11 48.1353 8.84039   4
  -7  -4 -11 35.5775 6.08594   3
   7   4  11 33.4546 6.60129   2
   7   4  11 37.3756 8.01184   1
  -8  -4 -11 2.86006 5.25832   4
  -8  -4 -11 4.41430 4.81960   3
   8   4  11 -2.9793 4.61172   1
  -9  -4 -11 -2.9580 4.88959   4
  -9  -4 -11 -2.8313 4.93043   3
   9   4  11 3.68674 5.62591   1
 -10  -4 -11 33.9775 7.86884   3
 -10  -4 -11 46.9727 9.30850   4
  10   4  11 41.8909 9.56838   1
 -11  -4 -11 12.1847 7.01179   3
 -11  -4 -11 23.6663 7.61433   4
  11   4  11 29.8179 9.53581   1
 -12  -4 -11 8.37541 6.76931   4
 -12  -4 -11 0.13302 6.76383   3
  12   4  11 10.8798 8.65419   1
   6  -5 -11 79.7522 14.7498   1
  -6   5  11 107.262 13.5985   2
   5  -5 -11 38.9159 11.8692   1
  -5   5  11 43.0745 9.45883   2
   4  -5 -11 388.962 18.3097   4
   4  -5 -11 335.261 23.3774   1
  -4   5  11 382.346 21.1129   2
   3  -5 -11 156.219 12.6842   4
   3  -5 -11 171.002 17.9016   1
  -3   5  11 142.748 14.5934   2
   2  -5 -11 0.50724 6.83154   1
   2  -5 -11 -1.5962 5.28514   4
  -2   5  11 12.1413 6.19970   2
   1  -5 -11 206.110 13.5934   4
   1  -5 -11 205.288 16.7750   1
  -1   5  11 226.416 15.0494   2
   0  -5 -11 8.38406 5.56578   4
   0  -5 -11 19.7835 7.52981   1
   0   5  11 4.44601 5.44388   2
  -1  -5 -11 802.282 26.0928   4
  -1  -5 -11 792.196 28.0081   1
   1   5  11 799.285 29.1757   2
  -2  -5 -11 -0.2589 4.97354   4
  -2  -5 -11 -2.4562 5.38923   1
   2   5  11 2.07459 5.01640   2
  -3  -5 -11 178.125 13.5198   1
  -3  -5 -11 218.005 13.7110   4
   3   5  11 202.577 13.8140   2
  -4  -5 -11 513.293 21.2683   1
  -4  -5 -11 472.498 20.2074   4
   4   5  11 475.504 20.5989   2
  -5  -5 -11 178.765 13.1250   4
   5   5  11 168.927 12.0222   1
   5   5  11 155.448 11.5930   2
  -6  -5 -11 466.137 20.5262   4
   6   5  11 473.212 20.1450   1
   6   5  11 456.976 19.0285   2
  -7  -5 -11 6.35190 6.25703   4
  -7  -5 -11 -0.0290 3.53093   3
   7   5  11 8.71772 5.21776   2
   7   5  11 12.6114 5.66279   1
  -8  -5 -11 311.571 14.0081   3
  -8  -5 -11 335.561 17.9591   4
   8   5  11 299.459 17.5648   1
  -9  -5 -11 171.660 14.6797   4
  -9  -5 -11 174.404 11.9717   3
   9   5  11 187.027 14.8579   1
 -10  -5 -11 60.8156 9.43816   3
 -10  -5 -11 71.2850 11.1262   4
  10   5  11 59.9051 10.7635   1
 -11  -5 -11 8.17595 6.87741   4
 -11  -5 -11 15.4435 7.09415   3
  11   5  11 19.3830 8.84307   1
 -12  -5 -11 -3.9717 6.34763   3
 -12  -5 -11 15.1655 7.55896   4
  12   5  11 23.3268 8.87700   1
   5  -6 -11 -5.5255 8.90728   1
  -5   6  11 11.5898 6.87781   2
   4  -6 -11 69.2151 13.7899   1
  -4   6  11 55.1737 10.3964   2
   3  -6 -11 13.2550 6.11264   4
   3  -6 -11 16.6157 9.97218   1
  -3   6  11 13.8868 7.15009   2
   2  -6 -11 115.179 15.2098   1
   2  -6 -11 114.567 11.5235   4
  -2   6  11 111.718 13.1307   2
   1  -6 -11 137.101 11.6508   4
   1  -6 -11 154.106 17.0767   1
  -1   6  11 127.572 13.4530   2
   0  -6 -11 40.5918 7.64717   4
   0  -6 -11 61.4146 11.1264   1
   0   6  11 59.4508 9.47427   2
  -1  -6 -11 -4.0549 4.49527   4
  -1  -6 -11 1.21524 6.02196   1
   1   6  11 1.41556 5.29120   2
  -2  -6 -11 9.42261 5.20655   4
  -2  -6 -11 9.44373 6.58427   1
   2   6  11 3.87678 5.15207   2
  -3  -6 -11 231.773 14.3034   4
  -3  -6 -11 228.738 15.4897   1
   3   6  11 259.394 15.3112   2
  -4  -6 -11 433.247 20.6480   1
  -4  -6 -11 456.027 19.1802   4
   4   6  11 420.885 19.6929   2
  -5  -6 -11 35.4707 8.73632   1
  -5  -6 -11 43.3413 8.24609   4
   5   6  11 31.4515 6.93328   2
  -6  -6 -11 194.224 14.1585   4
   6   6  11 189.658 13.5225   1
   6   6  11 197.490 12.7522   2
  -7  -6 -11 159.197 13.4872   4
   7   6  11 157.774 12.8990   1
   7   6  11 141.934 11.0514   2
  -8  -6 -11 95.0535 12.2619   4
   8   6  11 109.703 12.7357   1
  -9  -6 -11 75.9170 11.1984   4
   9   6  11 88.5201 11.8980   1
 -10  -6 -11 115.682 13.7078   4
  10   6  11 88.5261 12.2462   1
 -11  -6 -11 248.963 26.4287   3
 -11  -6 -11 217.431 17.1993   4
  11   6  11 227.279 18.0719   1
  12   6  11 8.87935 7.63084   1
   4  -7 -11 53.3164 13.7029   1
  -4   7  11 49.2040 10.4472   2
   3  -7 -11 49.4418 12.7062   1
  -3   7  11 40.1992 9.38074   2
   2  -7 -11 460.231 21.7508   4
   2  -7 -11 375.312 24.6705   1
  -2   7  11 364.382 20.9446   2
   1  -7 -11 74.3970 13.5931   1
   1  -7 -11 82.8987 9.31939   4
  -1   7  11 65.5661 10.5996   2
   0  -7 -11 127.701 15.5757   1
   0  -7 -11 138.085 10.9201   4
   0   7  11 140.055 14.4760   2
  -1  -7 -11 179.943 12.3291   4
  -1  -7 -11 122.886 14.6682   1
   1   7  11 157.836 14.0395   2
  -2  -7 -11 217.114 16.6326   1
  -2  -7 -11 225.628 13.6948   4
   2   7  11 255.998 16.0711   2
  -3  -7 -11 118.682 11.5049   4
  -3  -7 -11 90.0000 11.7538   1
   3   7  11 119.293 12.0852   2
  -4  -7 -11 5.71093 5.11516   4
  -4  -7 -11 11.8582 7.78649   1
   4   7  11 14.9518 6.05279   2
  -5  -7 -11 20.3173 7.91159   1
  -5  -7 -11 6.60370 5.78579   4
   5   7  11 6.69934 5.18894   2
  -6  -7 -11 475.726 21.0025   4
   6   7  11 471.661 20.1839   2
   6   7  11 451.556 20.6428   1
  -7  -7 -11 279.403 16.8217   4
   7   7  11 289.821 17.0267   1
   7   7  11 311.525 15.6100   2
  -8  -7 -11 248.291 16.6404   4
   8   7  11 245.524 16.0976   1
  -9  -7 -11 37.0440 8.94443   4
   9   7  11 21.8250 7.46677   1
 -10  -7 -11 104.044 13.4783   4
  10   7  11 95.3081 13.3843   1
 -11  -7 -11 105.381 14.3273   4
  11   7  11 112.821 14.3442   1
 -12  -7 -11 166.182 18.2028   4
  12   7  11 170.045 18.2467   1
   3  -8 -11 47.9209 13.3474   1
  -3   8  11 45.9807 9.98786   2
   2  -8 -11 -4.4048 9.00195   1
  -2   8  11 5.31045 6.83264   2
   1  -8 -11 38.3078 11.2150   1
  -1   8  11 27.6737 8.57747   2
   0  -8 -11 260.968 20.7056   1
   0  -8 -11 282.406 14.4367   4
   0   8  11 258.645 17.9367   2
  -1  -8 -11 66.2311 8.78183   4
  -1  -8 -11 81.0019 13.3266   1
   1   8  11 69.5849 10.7615   2
  -2  -8 -11 79.6159 12.3307   1
  -2  -8 -11 93.1903 10.1157   4
   2   8  11 87.7482 11.5712   2
  -3  -8 -11 1.85247 6.62300   1
  -3  -8 -11 9.00888 5.22501   4
   3   8  11 8.26235 5.32983   2
  -4  -8 -11 6.44395 5.63917   4
  -4  -8 -11 7.40195 7.34544   1
   4   8  11 -3.2552 4.56737   2
  -5  -8 -11 16.9368 7.66613   1
  -5  -8 -11 6.28337 6.01303   4
   5   8  11 13.1882 5.92641   2
  -6  -8 -11 369.903 19.1549   4
  -6  -8 -11 365.534 20.7781   1
   6   8  11 368.416 18.4015   2
  -7  -8 -11 52.4509 9.66040   4
   7   8  11 52.2771 8.20347   2
   7   8  11 62.6779 10.0729   1
   8   8  11 84.4471 11.5959   1
  -9  -8 -11 123.879 13.8793   4
   9   8  11 123.659 14.6569   1
 -10  -8 -11 -4.8461 5.81655   4
  10   8  11 -5.6151 5.29583   1
 -11  -8 -11 29.5757 9.41158   4
  11   8  11 17.6096 8.26582   1
 -12  -8 -11 34.9366 10.5609   4
  12   8  11 46.3651 10.8927   1
   2  -9 -11 3.14747 10.1220   1
  -2   9  11 6.63906 7.22914   2
   1  -9 -11 61.9304 13.6020   1
  -1   9  11 80.7328 12.6315   2
   0  -9 -11 21.8586 10.7421   1
   0   9  11 43.9727 10.0458   2
  -1  -9 -11 113.125 10.7109   4
  -1  -9 -11 113.698 15.9691   1
   1   9  11 147.977 15.6984   2
  -2  -9 -11 4.34702 4.96644   4
  -2  -9 -11 4.21151 7.74128   1
   2   9  11 15.3106 6.92723   2
  -3  -9 -11 229.757 19.7168   1
  -3  -9 -11 292.363 15.6745   4
   3   9  11 265.831 17.8880   2
  -4  -9 -11 307.478 20.5185   1
  -4  -9 -11 292.835 16.0156   4
   4   9  11 333.808 19.1852   2
  -5  -9 -11 300.854 17.0586   4
  -5  -9 -11 280.562 19.6203   1
   5   9  11 326.273 18.2594   2
  -6  -9 -11 97.1776 13.3857   1
  -6  -9 -11 128.941 13.3441   4
   6   9  11 143.999 12.3347   2
  -7  -9 -11 10.7715 6.73896   4
   7   9  11 11.0414 5.54127   2
   7   9  11 2.81257 5.26324   1
  -8  -9 -11 12.7436 7.17967   4
   8   9  11 8.73402 6.42861   1
  -9  -9 -11 200.600 17.0343   4
   9   9  11 234.211 16.9197   1
 -10  -9 -11 34.8494 9.77156   4
  10   9  11 36.9115 9.18816   1
 -11  -9 -11 305.253 21.6135   4
  11   9  11 345.291 21.8630   1
  12   9  11 13.3697 8.04879   1
   1 -10 -11 6.04687 10.5203   1
  -1  10  11 7.53398 7.85602   2
   0 -10 -11 80.6348 15.6206   1
   0  10  11 75.4360 12.7629   2
  -1 -10 -11 2.66255 9.54965   1
   1  10  11 12.7869 7.73253   2
  -2 -10 -11 64.9630 13.3660   1
   2  10  11 80.5264 12.4990   2
  -3 -10 -11 2.91323 5.13606   4
  -3 -10 -11 -13.259 7.00887   1
   3  10  11 2.21750 6.23153   2
  -4 -10 -11 43.4527 11.2414   1
  -4 -10 -11 63.2454 9.29415   4
   4  10  11 76.6886 11.9116   2
  -5 -10 -11 -8.3352 6.72885   1
  -5 -10 -11 2.67788 5.45724   4
   5  10  11 -1.8954 5.02544   2
  -6 -10 -11 27.1077 7.63537   4
  -6 -10 -11 19.5299 9.07647   1
   6  10  11 30.0762 7.52418   2
  -7 -10 -11 2.85317 6.12102   4
   7  10  11 6.74039 6.32413   1
   7  10  11 2.37082 5.05047   2
  -8 -10 -11 138.125 14.9681   4
   8  10  11 121.707 14.7140   1
  -9 -10 -11 -1.2694 6.77407   4
   9  10  11 3.24678 5.77755   1
 -10 -10 -11 6.21919 7.61690   4
  10  10  11 1.56663 5.93600   1
 -11 -10 -11 44.8310 11.2486   4
  11  10  11 30.4783 9.45927   1
   0 -11 -11 13.3472 10.7268   1
   0  11  11 6.13187 8.27250   2
  -1 -11 -11 12.3685 10.7022   1
   1  11  11 43.1773 10.5224   2
  -2 -11 -11 7.78947 10.1094   1
   2  11  11 14.8038 7.37515   2
  -3 -11 -11 153.738 18.6188   1
   3  11  11 222.051 17.4656   2
  -4 -11 -11 11.6867 9.53769   1
  -4 -11 -11 23.5338 7.04870   4
   4  11  11 11.6768 7.33055   2
  -5 -11 -11 -2.1438 5.35799   4
  -5 -11 -11 -2.9876 7.13662   1
   5  11  11 9.88076 6.68955   2
  -6 -11 -11 240.650 16.6451   4
  -6 -11 -11 232.070 20.0097   1
   6  11  11 254.871 17.6307   2
  -7 -11 -11 50.9671 11.6278   1
  -7 -11 -11 70.4129 11.2504   4
   7  11  11 59.4091 9.78768   2
  -8 -11 -11 666.696 28.1737   4
   8  11  11 624.288 28.3747   1
  -9 -11 -11 -5.7354 6.63490   4
   9  11  11 13.0952 7.59328   1
 -10 -11 -11 83.7144 13.6263   4
  10  11  11 80.7608 12.8410   1
  -3 -12 -11 20.3272 11.5586   1
   3  12  11 20.4580 8.38712   2
  -4 -12 -11 6.64810 9.87235   1
   4  12  11 11.7571 8.09624   2
  -5 -12 -11 23.1001 10.6755   1
   5  12  11 25.6997 8.85645   2
  -6 -12 -11 3.40925 8.47404   1
  -6 -12 -11 8.14965 6.97720   4
   6  12  11 10.7986 7.39935   2
  -7 -12 -11 6.92569 9.04577   1
  -7 -12 -11 19.4578 8.15145   4
   7  12  11 21.9166 7.64298   2
  -8 -12 -11 104.100 13.9385   4
   8  12  11 79.7593 13.0859   1
  -9 -12 -11 1.88069 7.90083   4
   9  12  11 -1.6205 5.96811   1
   4  10 -12 16.5094 7.65216   3
  -4 -10  12 13.1303 9.57034   2
   3  10 -12 14.1965 7.44578   3
  -3 -10  12 19.7879 10.1616   2
   2  10 -12 17.0619 8.21724   3
  -2 -10  12 23.6289 10.9584   2
   1  10 -12 25.6222 8.75707   3
  -1 -10  12 37.0474 12.2965   2
   6   9 -12 26.2767 8.90725   4
  -6  -9  12 27.7018 12.3168   3
  -6  -9  12 34.9125 10.3902   2
   5   9 -12 74.2717 11.8100   4
   5   9 -12 52.7929 9.91919   3
  -5  -9  12 58.6906 12.8419   2
   4   9 -12 30.7638 9.11693   4
   4   9 -12 8.44262 6.91580   3
  -4  -9  12 17.9914 9.28471   2
   3   9 -12 -4.5283 5.99872   3
  -3  -9  12 -5.6101 7.73418   2
   2   9 -12 43.1429 9.95522   3
  -2  -9  12 37.5023 10.9431   2
   1   9 -12 37.6590 9.77702   3
  -1  -9  12 25.3669 10.9142   2
   0   9 -12 22.0811 8.80646   3
   0  -9  12 -4.6669 8.51187   2
  -1   9 -12 52.9238 11.6034   3
   1  -9  12 72.7105 14.1640   2
  -2   9 -12 3.37338 7.20810   3
   2  -9  12 -0.1404 7.65579   2
   7   8 -12 119.495 15.3199   4
  -7  -8  12 130.328 15.6806   2
  -7  -8  12 77.6333 14.4223   3
   6   8 -12 160.315 16.7896   4
  -6  -8  12 164.003 18.7462   3
  -6  -8  12 164.806 17.5246   2
   5   8 -12 107.523 14.0172   4
  -5  -8  12 91.3793 13.6953   2
  -5  -8  12 112.209 16.3796   3
   4   8 -12 9.59525 6.75990   4
   4   8 -12 -0.4877 5.79894   3
  -4  -8  12 9.39099 8.13230   2
   3   8 -12 374.563 21.3154   3
   3   8 -12 367.957 20.4415   4
  -3  -8  12 395.109 23.9828   2
   2   8 -12 10.7344 6.39122   3
   2   8 -12 21.9704 7.67018   4
  -2  -8  12 22.3445 9.81538   2
   1   8 -12 231.248 17.4180   3
  -1  -8  12 234.777 22.2806   2
   0   8 -12 9.49635 7.06422   3
   0  -8  12 2.33163 8.35139   2
  -1   8 -12 21.5276 8.12420   3
   1  -8  12 33.8304 11.2925   2
  -2   8 -12 65.6181 11.7673   3
   2  -8  12 68.7502 13.3136   2
  -3   8 -12 12.6635 8.23557   3
   3  -8  12 4.84190 8.10964   2
  -4   8 -12 122.902 15.5466   3
   4  -8  12 157.356 18.1334   2
   8   7 -12 4.41978 7.71592   4
  -8  -7  12 5.65381 9.99051   3
   7   7 -12 17.7098 8.40606   4
  -7  -7  12 26.9602 10.6770   3
  -7  -7  12 20.4913 9.08646   2
   6   7 -12 13.0563 8.01257   4
  -6  -7  12 3.57354 7.74230   2
  -6  -7  12 8.31566 8.96120   3
   5   7 -12 25.5335 8.98968   4
  -5  -7  12 29.3151 10.3532   3
  -5  -7  12 24.7688 9.19293   2
   4   7 -12 -2.8825 6.08174   4
  -4  -7  12 -8.8707 7.35925   3
  -4  -7  12 1.98570 7.28594   2
   3   7 -12 6.23541 5.79650   3
   3   7 -12 6.04802 6.72138   4
  -3  -7  12 -0.5214 7.00171   2
   2   7 -12 178.287 14.7401   4
   2   7 -12 176.488 14.5931   3
  -2  -7  12 170.944 17.3247   2
   1   7 -12 14.5933 6.97864   4
   1   7 -12 9.92167 6.51817   3
  -1  -7  12 -5.3205 6.40429   2
   0   7 -12 4.59255 5.91251   3
   0  -7  12 3.20700 7.50645   2
  -1   7 -12 130.792 14.9478   3
   1  -7  12 125.283 15.9255   2
  -2   7 -12 32.7751 9.54499   3
   2  -7  12 35.5930 10.1847   2
  -3   7 -12 11.9814 7.42401   3
   3  -7  12 -4.4138 7.48876   2
  -4   7 -12 19.2581 8.38326   3
   4  -7  12 23.2800 9.57443   2
  -5   7 -12 13.7575 8.37193   3
   5  -7  12 0.07860 7.30118   2
   8   6 -12 147.804 17.3914   4
  -8  -6  12 144.520 17.8307   3
   7   6 -12 98.4791 14.1079   4
  -7  -6  12 105.742 15.4511   3
  -7  -6  12 105.245 13.4823   2
   6   6 -12 122.518 15.2287   4
  -6  -6  12 103.747 13.4244   2
  -6  -6  12 118.150 15.7835   3
   5   6 -12 32.5605 9.45612   4
  -5  -6  12 55.8772 12.0304   3
  -5  -6  12 28.2666 8.66735   2
   4   6 -12 318.361 20.0475   4
  -4  -6  12 298.092 20.7262   3
  -4  -6  12 308.618 19.5946   2
   3   6 -12 64.8718 11.2028   4
  -3  -6  12 39.3058 10.5939   3
  -3  -6  12 66.1417 11.0834   2
   2   6 -12 320.021 19.2923   4
   2   6 -12 334.630 19.0569   3
  -2  -6  12 335.819 21.1486   2
   1   6 -12 328.241 18.7845   4
   1   6 -12 291.621 17.9485   3
  -1  -6  12 311.045 20.7257   2
   0   6 -12 114.142 12.8462   4
   0   6 -12 88.9312 11.4846   3
   0  -6  12 105.270 13.9811   2
  -1   6 -12 101.817 12.9238   3
  -1   6 -12 96.5581 11.1092   4
   1  -6  12 109.792 15.3860   2
  -2   6 -12 27.8436 7.14283   3
   2  -6  12 43.8172 10.1387   2
  -3   6 -12 8.07001 6.50511   3
   3  -6  12 -2.0463 6.96525   2
  -4   6 -12 186.625 15.8503   3
   4  -6  12 176.656 15.1573   1
   4  -6  12 188.910 18.4407   2
  -5   6 -12 0.20597 6.91956   3
   5  -6  12 2.54329 7.61112   1
   5  -6  12 10.1674 7.75845   2
  -6   6 -12 87.6228 13.4795   3
   6  -6  12 117.049 15.2206   1
   6  -6  12 114.743 14.3157   2
   8   5 -12 6.62775 7.32488   4
  -8  -5  12 8.30238 8.58895   3
   7   5 -12 6.26836 8.02299   4
  -7  -5  12 -11.582 7.44898   3
  -7  -5  12 15.2623 6.86300   2
   6   5 -12 39.6614 10.6077   4
  -6  -5  12 70.1691 13.2707   3
  -6  -5  12 52.8134 10.3405   2
   5   5 -12 8.31423 7.29403   4
  -5  -5  12 -7.2840 7.16223   3
  -5  -5  12 6.33191 6.73887   2
   4   5 -12 25.4827 8.67196   4
  -4  -5  12 30.5260 10.0289   3
  -4  -5  12 32.2113 8.50394   2
   3   5 -12 25.8564 8.70368   4
  -3  -5  12 12.1354 7.10592   2
  -3  -5  12 27.9480 9.81396   3
   2   5 -12 17.6124 7.78808   4
  -2  -5  12 1.62200 6.50541   2
  -2  -5  12 14.4664 8.17490   3
   1   5 -12 290.256 17.0676   3
   1   5 -12 279.861 18.1725   4
  -1  -5  12 283.071 19.0233   2
   0   5 -12 25.5033 8.30788   4
   0   5 -12 38.8172 8.03863   3
   0  -5  12 40.7046 9.37646   2
  -1   5 -12 69.6338 10.7799   3
  -1   5 -12 79.1322 10.5374   4
   1  -5  12 51.2454 10.6152   2
  -2   5 -12 87.1997 9.88422   4
  -2   5 -12 108.419 12.4402   3
   2  -5  12 107.499 13.6712   2
  -3   5 -12 36.6453 8.79473   3
   3  -5  12 53.5793 11.0417   2
   3  -5  12 61.5420 8.84787   1
  -4   5 -12 254.530 17.2985   3
   4  -5  12 238.411 15.6773   1
   4  -5  12 280.399 19.4443   2
  -5   5 -12 8.36745 7.45951   3
   5  -5  12 10.4396 7.51356   2
   5  -5  12 2.31555 7.14237   1
  -6   5 -12 42.4033 10.3187   3
   6  -5  12 55.4482 10.5412   2
   6  -5  12 51.8271 11.2085   1
  -7   5 -12 24.7746 9.92639   3
   7  -5  12 24.9106 10.2477   1
   7  -5  12 32.1422 8.74759   2
   8   4 -12 10.4873 8.48775   4
  -8  -4  12 -2.4351 8.39717   3
   7   4 -12 322.334 21.3235   4
  -7  -4  12 287.894 18.6833   2
  -7  -4  12 257.800 20.3577   3
   6   4 -12 158.077 17.1270   4
  -6  -4  12 162.258 14.4807   2
  -6  -4  12 150.360 16.4410   3
   5   4 -12 85.4137 12.8992   4
  -5  -4  12 84.3978 11.7167   2
  -5  -4  12 83.7632 13.1075   3
   4   4 -12 26.0549 8.75618   4
  -4  -4  12 26.2602 9.29849   3
  -4  -4  12 20.0712 8.00407   2
   3   4 -12 23.0145 8.66301   4
  -3  -4  12 23.1540 8.42115   3
  -3  -4  12 23.3120 7.91226   2
   2   4 -12 22.3521 8.60740   4
  -2  -4  12 15.6496 7.53043   3
  -2  -4  12 14.7999 7.36012   2
   1   4 -12 129.190 14.1669   4
   1   4 -12 128.431 11.4538   3
  -1  -4  12 96.5171 12.1154   2
   0   4 -12 11.0506 6.91392   4
   0   4 -12 11.4883 5.95479   3
   0  -4  12 7.36862 6.18658   2
  -1   4 -12 789.021 27.3217   4
  -1   4 -12 753.117 27.8748   3
   1  -4  12 762.101 30.5522   2
  -2   4 -12 527.101 22.8122   3
  -2   4 -12 555.145 21.1708   4
   2  -4  12 554.050 18.7729   1
   2  -4  12 568.574 25.9401   2
  -3   4 -12 608.223 25.0205   3
  -3   4 -12 574.682 20.4314   4
   3  -4  12 564.460 21.1088   1
   3  -4  12 607.584 27.0038   2
  -4   4 -12 -0.4883 5.34764   3
  -4   4 -12 0.20226 4.58542   4
   4  -4  12 3.12723 5.53752   1
   4  -4  12 -1.9096 5.59724   2
  -5   4 -12 8.37461 6.74272   3
   5  -4  12 2.59519 6.15717   1
   5  -4  12 19.3045 7.54676   2
  -6   4 -12 18.2845 8.12544   3
   6  -4  12 7.82383 6.96599   2
   6  -4  12 2.75100 6.86277   1
  -7   4 -12 194.532 19.2534   3
   7  -4  12 201.036 15.5070   2
   7  -4  12 203.030 18.7713   1
  -8   4 -12 16.2298 9.72215   3
   8  -4  12 4.51555 9.81748   1
   8   3 -12 149.637 17.8918   4
  -8  -3  12 131.484 17.1246   3
   7   3 -12 51.4347 11.3275   4
  -7  -3  12 57.6792 10.4005   2
  -7  -3  12 53.8052 12.1356   3
   6   3 -12 -5.8431 5.89584   4
  -6  -3  12 -6.5339 5.03593   2
  -6  -3  12 3.88349 7.77271   3
   5   3 -12 708.072 30.1586   4
  -5  -3  12 653.030 27.9514   2
  -5  -3  12 710.776 29.1110   3
   4   3 -12 147.346 16.0656   4
  -4  -3  12 179.997 15.2606   3
  -4  -3  12 167.368 13.9970   2
   3   3 -12 0.01522 6.60633   4
  -3  -3  12 -6.3069 5.28710   3
  -3  -3  12 -6.1958 5.53583   2
   2   3 -12 59.1006 11.5803   4
  -2  -3  12 36.0124 9.29019   3
  -2  -3  12 40.8740 8.83461   2
   1   3 -12 23.0536 8.66881   4
  -1  -3  12 9.04324 6.99082   3
  -1  -3  12 13.3326 6.90382   2
   0   3 -12 36.1406 7.25604   3
   0   3 -12 45.8198 9.78401   4
   0  -3  12 43.6786 9.06090   2
  -1   3 -12 274.957 16.6552   4
  -1   3 -12 272.669 14.7625   3
   1  -3  12 250.150 17.5045   2
  -2   3 -12 11.9481 5.47434   3
  -2   3 -12 5.96159 6.09436   4
   2  -3  12 15.5574 6.78833   2
   2  -3  12 17.4851 5.05988   1
  -3   3 -12 5.45757 5.62251   3
  -3   3 -12 12.9044 5.49411   4
   3  -3  12 4.83328 4.93005   1
   3  -3  12 16.2252 6.79502   2
  -4   3 -12 0.41324 4.60611   4
  -4   3 -12 3.73793 5.50661   3
   4  -3  12 7.76245 5.42156   1
   4  -3  12 12.8532 6.64203   2
  -5   3 -12 56.6771 9.88017   3
  -5   3 -12 50.7844 7.13592   4
   5  -3  12 58.1384 9.99633   2
   5  -3  12 57.3337 9.47381   1
  -6   3 -12 52.0204 10.3706   3
   6  -3  12 27.7562 7.89411   2
   6  -3  12 50.7875 9.95494   1
  -7   3 -12 126.553 15.4994   3
   7  -3  12 111.574 12.6091   2
   7  -3  12 106.492 13.7382   1
  -8   3 -12 27.3201 10.5023   3
   8  -3  12 41.3201 11.0771   1
  -9   3 -12 -11.698 7.94623   3
   9  -3  12 -11.527 8.70369   1
   8   2 -12 33.3725 10.5574   4
  -8  -2  12 48.2715 11.7474   3
   7   2 -12 23.4575 9.58402   4
  -7  -2  12 20.0773 8.43885   2
  -7  -2  12 29.5370 9.99048   3
   6   2 -12 107.962 14.3150   4
  -6  -2  12 82.5825 11.4241   2
  -6  -2  12 110.846 14.6157   3
   5   2 -12 223.684 17.6103   4
  -5  -2  12 250.903 16.8411   2
  -5  -2  12 254.748 18.0175   3
   4   2 -12 422.243 22.8916   4
  -4  -2  12 389.294 20.6493   2
  -4  -2  12 393.828 20.2222   3
   3   2 -12 97.2174 13.9985   4
  -3  -2  12 61.1159 10.0526   2
  -3  -2  12 69.0609 10.7468   3
   2   2 -12 23.9499 8.54667   4
  -2  -2  12 32.3943 8.18429   3
  -2  -2  12 40.2456 8.57444   2
   1   2 -12 473.486 23.5151   4
  -1  -2  12 441.954 20.5856   3
  -1  -2  12 418.640 20.6746   2
   0   2 -12 155.833 10.8277   3
   0   2 -12 168.076 15.4721   4
   0  -2  12 130.761 13.2802   2
  -1   2 -12 50.9239 7.41483   3
  -1   2 -12 33.2297 8.45278   4
   1  -2  12 51.3989 9.15261   2
   1  -2  12 42.5283 4.82191   1
  -2   2 -12 35.8729 8.07661   4
  -2   2 -12 40.2810 7.13611   3
   2  -2  12 35.2703 5.66510   1
   2  -2  12 40.2593 8.68692   2
  -3   2 -12 15.9189 5.90748   3
  -3   2 -12 8.48821 5.95762   4
   3  -2  12 10.8913 6.37317   2
   3  -2  12 9.83401 4.85958   1
  -4   2 -12 997.938 29.4685   4
  -4   2 -12 1032.86 32.7283   3
   4  -2  12 993.773 34.9033   2
   4  -2  12 994.127 29.4305   1
  -5   2 -12 181.230 13.8966   3
  -5   2 -12 171.076 11.7163   4
   5  -2  12 217.251 14.8471   2
   5  -2  12 188.837 13.6579   1
  -6   2 -12 756.820 23.7556   4
  -6   2 -12 741.198 28.5435   3
   6  -2  12 714.659 28.3470   2
   6  -2  12 741.661 27.2757   1
  -7   2 -12 -7.6123 5.83746   3
   7  -2  12 -0.9600 4.99418   2
   7  -2  12 10.0225 7.96951   1
  -8   2 -12 93.4435 13.4205   3
   8  -2  12 72.5260 12.4369   1
  -9   2 -12 18.3781 9.96136   3
   9  -2  12 13.0363 9.88796   1
 -10   2 -12 23.6354 10.6716   3
  10  -2  12 9.40318 9.92882   1
   8   1 -12 150.946 17.6643   4
  -8  -1  12 173.081 18.3648   3
   7   1 -12 77.9827 13.0412   4
  -7  -1  12 85.0620 11.6613   2
  -7  -1  12 60.6725 11.9817   3
   6   1 -12 47.6710 10.6312   4
  -6  -1  12 43.1673 10.2616   3
  -6  -1  12 53.3481 9.67903   2
   5   1 -12 182.115 17.7338   4
  -5  -1  12 227.131 16.1518   2
  -5  -1  12 178.091 14.8982   3
   4   1 -12 7.42078 6.86608   4
  -4  -1  12 9.79864 6.44474   3
  -4  -1  12 -0.8241 5.67987   2
   3   1 -12 163.893 16.9896   4
  -3  -1  12 183.406 14.9719   2
  -3  -1  12 184.091 14.2600   3
   2   1 -12 42.0736 10.0378   4
  -2  -1  12 40.5250 8.79202   3
  -2  -1  12 34.1997 8.42594   2
   1   1 -12 40.4777 9.88237   4
  -1  -1  12 45.6624 8.84446   2
  -1  -1  12 46.9127 8.86778   3
   0   1 -12 103.790 13.5086   4
   0   1 -12 92.3943 8.17632   3
   0  -1  12 73.4108 10.3814   2
   0  -1  12 98.5569 5.34368   1
  -1   1 -12 121.030 9.18496   3
  -1   1 -12 125.520 12.8591   4
   1  -1  12 118.718 12.3861   2
   1  -1  12 121.194 6.89603   1
  -2   1 -12 25.5897 7.45798   4
  -2   1 -12 29.2092 5.95356   3
   2  -1  12 26.8087 4.79053   1
   2  -1  12 20.3299 7.12366   2
  -3   1 -12 522.229 20.1433   3
  -3   1 -12 538.023 21.3704   4
   3  -1  12 529.186 18.3011   1
   3  -1  12 538.629 23.2875   2
  -4   1 -12 38.7202 7.32945   3
  -4   1 -12 32.0533 7.12102   4
   4  -1  12 30.8461 6.38104   1
   4  -1  12 31.8664 7.72235   2
  -5   1 -12 12.5029 5.69338   4
  -5   1 -12 15.2308 6.66384   3
   5  -1  12 17.5105 6.09117   1
   5  -1  12 26.6546 6.97162   2
  -6   1 -12 156.462 12.9310   3
  -6   1 -12 168.282 11.6778   4
   6  -1  12 135.820 12.9762   1
   6  -1  12 156.092 12.5922   2
  -7   1 -12 14.9867 5.44001   4
  -7   1 -12 6.59866 7.12402   3
   7  -1  12 7.93072 5.67901   2
   7  -1  12 0.29107 6.16070   1
  -8   1 -12 8.11731 7.39644   3
  -8   1 -12 8.56846 5.05283   4
   8  -1  12 7.97010 7.66366   1
  -9   1 -12 36.3616 10.7302   3
   9  -1  12 26.9043 10.6294   1
 -10   1 -12 77.1078 13.4558   3
  10  -1  12 117.390 16.3055   1
   8   0 -12 99.0770 14.9227   4
  -8   0  12 82.6482 13.9032   3
   7   0 -12 24.3173 9.70048   4
  -7   0  12 15.5162 8.63872   3
  -7   0  12 9.76941 7.75405   2
   6   0 -12 106.039 14.4903   4
  -6   0  12 78.4141 11.3028   2
  -6   0  12 77.9352 12.0053   3
   5   0 -12 156.084 16.3421   4
  -5   0  12 139.480 14.0153   2
  -5   0  12 128.001 13.9132   3
   4   0 -12 180.824 15.9092   4
  -4   0  12 210.876 14.3983   3
  -4   0  12 176.093 14.4853   2
   3   0 -12 96.6640 13.2541   4
  -3   0  12 100.640 12.2546   2
  -3   0  12 90.2954 10.7994   3
   2   0 -12 914.481 22.5511   1
   2   0 -12 853.534 32.3558   4
  -2   0  12 855.055 28.4105   3
  -2   0  12 872.062 32.1436   2
   1   0 -12 295.501 18.1006   4
   1   0 -12 272.975 10.2944   1
  -1   0  12 267.761 16.5530   2
  -1   0  12 271.596 14.8397   3
   0   0 -12 10.9712 6.82156   4
   0   0  12 8.88784 6.17779   2
   0   0  12 -2.7003 4.67261   3
   0   0  12 10.6479 2.87861   1
  -1   0 -12 398.873 14.9130   3
  -1   0 -12 367.566 18.7632   4
   1   0  12 403.006 13.2445   1
   1   0  12 360.479 18.9626   2
  -2   0 -12 51.1540 6.60491   3
  -2   0 -12 60.7085 9.32229   4
   2   0  12 75.3748 7.00682   1
   2   0  12 62.3658 9.77176   2
  -3   0 -12 978.399 30.4620   4
  -3   0 -12 978.240 27.9046   3
   3   0  12 896.769 32.3650   2
   3   0  12 1004.53 27.0792   1
  -4   0 -12 31.1726 6.17195   3
  -4   0 -12 28.8596 7.16346   4
   4   0  12 37.1198 6.54323   1
   4   0  12 41.0959 8.04215   2
  -5   0 -12 26.1770 6.92384   4
  -5   0 -12 23.4852 6.30850   3
   5   0  12 23.5666 6.82359   2
   5   0  12 23.9657 6.41182   1
  -6   0 -12 178.128 12.5495   4
  -6   0 -12 183.747 13.1161   3
   6   0  12 198.991 13.5273   1
   6   0  12 188.964 13.2748   2
  -7   0 -12 34.9265 7.01896   4
  -7   0 -12 37.7950 8.48651   3
   7   0  12 34.6458 6.92226   2
   7   0  12 37.0309 8.52160   1
  -8   0 -12 749.338 29.3624   3
  -8   0 -12 801.364 26.4470   4
   8   0  12 787.093 29.9969   1
  -9   0 -12 14.5496 5.58818   4
  -9   0 -12 12.8315 7.94522   3
   9   0  12 10.2366 8.23693   1
 -10   0 -12 184.673 17.7210   3
  10   0  12 167.683 18.5065   1
 -11   0 -12 53.8187 12.2410   3
  11   0  12 46.5502 13.4310   1
   8  -1 -12 12.4769 8.58009   4
  -8   1  12 -5.4212 7.19379   3
   7  -1 -12 -2.5062 7.11393   4
  -7   1  12 8.15336 7.97633   3
  -7   1  12 5.99852 7.26793   2
   6  -1 -12 14.3896 8.05551   4
  -6   1  12 17.1667 7.62016   2
  -6   1  12 14.5342 7.61890   3
   5  -1 -12 -2.7043 6.63519   4
  -5   1  12 -3.9559 6.08191   2
  -5   1  12 0.35246 6.42869   3
   4  -1 -12 23.5721 6.26254   1
   4  -1 -12 26.4778 8.87110   4
  -4   1  12 32.9175 8.03378   3
  -4   1  12 32.8365 8.32864   2
   3  -1 -12 37.3688 9.72038   4
   3  -1 -12 39.2205 6.87466   1
  -3   1  12 48.2934 8.20231   3
  -3   1  12 39.4467 9.06662   2
   2  -1 -12 139.538 14.6388   4
   2  -1 -12 131.995 9.06923   1
  -2   1  12 123.345 13.0412   2
  -2   1  12 131.980 11.0599   3
   1  -1 -12 -2.7079 6.56542   4
   1  -1 -12 4.20434 3.77022   1
  -1   1  12 -7.7736 4.34095   3
  -1   1  12 13.4531 6.33613   2
   0  -1 -12 26.1398 4.93794   1
   0  -1 -12 23.5429 7.78663   4
   0   1  12 19.6788 6.97720   2
   0   1  12 20.8906 5.34844   3
  -1  -1 -12 40.1021 8.75226   4
  -1  -1 -12 42.1568 5.35161   3
   1   1  12 41.8113 8.40241   2
   1   1  12 52.0767 5.75260   1
  -2  -1 -12 39.7147 5.35362   3
  -2  -1 -12 33.8515 8.05470   4
   2   1  12 30.7770 5.05538   1
   2   1  12 31.0942 7.63617   2
  -3  -1 -12 510.516 20.8065   4
  -3  -1 -12 474.169 16.1762   3
   3   1  12 491.464 21.3878   2
   3   1  12 489.349 17.0406   1
  -4  -1 -12 16.3099 6.18262   4
  -4  -1 -12 13.5630 4.60860   3
   4   1  12 13.9367 6.05729   2
   4   1  12 20.3789 5.24944   1
  -5  -1 -12 6.33794 4.55958   3
  -5  -1 -12 -6.9708 4.96178   4
   5   1  12 3.12083 5.33542   2
   5   1  12 4.15247 4.52758   1
  -6  -1 -12 1059.48 31.8877   3
  -6  -1 -12 1078.13 32.1975   4
   6   1  12 1109.21 33.2297   1
   6   1  12 1068.15 34.5447   2
  -7  -1 -12 39.2000 7.64551   4
  -7  -1 -12 25.5405 7.11069   3
   7   1  12 30.8835 8.07510   1
   7   1  12 48.5490 7.79409   2
  -8  -1 -12 1.49848 5.14204   4
  -8  -1 -12 8.74569 6.76344   3
   8   1  12 -0.4360 5.68018   1
  -9  -1 -12 149.115 12.9073   4
  -9  -1 -12 121.760 13.1128   3
   9   1  12 146.787 15.2880   1
 -10  -1 -12 7.85595 7.52411   3
 -10  -1 -12 15.8798 6.78817   4
  10   1  12 10.6484 8.95729   1
 -11  -1 -12 7.46004 8.23140   3
  11   1  12 -7.6625 8.27418   1
   7  -2 -12 119.343 15.0319   4
  -7   2  12 124.417 14.1279   2
  -7   2  12 134.671 15.2630   3
   6  -2 -12 15.4769 8.13330   4
  -6   2  12 10.3489 7.43912   2
  -6   2  12 -4.0626 6.55900   3
   5  -2 -12 333.112 18.7096   1
  -5   2  12 374.258 20.6097   2
  -5   2  12 372.284 19.1159   3
   4  -2 -12 358.692 18.1004   1
   4  -2 -12 359.406 20.6691   4
  -4   2  12 372.645 17.9716   3
  -4   2  12 339.070 19.4899   2
   3  -2 -12 -0.3843 5.07307   1
   3  -2 -12 0.73281 6.28791   4
  -3   2  12 1.11814 5.68369   2
  -3   2  12 7.07161 5.60721   3
   2  -2 -12 11.3572 7.30034   4
   2  -2 -12 15.7465 5.49940   1
  -2   2  12 -1.5741 4.85271   3
  -2   2  12 6.29280 6.04201   2
   1  -2 -12 25.3029 6.17126   1
   1  -2 -12 12.5823 7.39486   4
  -1   2  12 17.8933 5.45765   3
  -1   2  12 8.11336 6.34001   2
   0  -2 -12 366.454 18.8637   4
   0  -2 -12 383.030 15.3550   1
   0   2  12 421.621 20.3627   2
   0   2  12 370.011 14.3124   3
  -1  -2 -12 1103.59 30.4523   1
  -1  -2 -12 1163.31 35.6088   4
  -1  -2 -12 1204.54 28.6675   3
   1   2  12 1229.80 38.6569   2
  -2  -2 -12 18.7589 7.09576   4
  -2  -2 -12 19.8850 3.49708   3
   2   2  12 13.1006 4.06221   1
   2   2  12 16.7444 6.60319   2
  -3  -2 -12 667.962 24.5567   4
  -3  -2 -12 707.368 18.8639   3
   3   2  12 689.368 21.6161   1
   3   2  12 684.294 26.1865   2
  -4  -2 -12 9.93859 3.61472   3
  -4  -2 -12 7.13188 5.10941   4
   4   2  12 4.41305 5.43671   2
   4   2  12 8.39759 4.48436   1
  -5  -2 -12 1195.41 34.8687   4
  -5  -2 -12 1147.14 30.6625   3
   5   2  12 1167.25 33.2811   1
   5   2  12 1142.39 36.2671   2
  -6  -2 -12 9.69820 6.02101   4
  -6  -2 -12 5.70543 4.44116   3
   6   2  12 11.8176 5.28618   2
   6   2  12 0.23456 4.84428   1
  -7  -2 -12 171.595 11.9267   3
  -7  -2 -12 176.651 13.1626   4
   7   2  12 181.888 12.1172   2
   7   2  12 184.695 14.0223   1
  -8  -2 -12 16.8127 6.45047   4
  -8  -2 -12 32.8399 7.14138   3
   8   2  12 19.0391 7.22154   1
  -9  -2 -12 234.861 15.6668   4
  -9  -2 -12 228.187 14.8737   3
   9   2  12 233.655 16.8297   1
 -10  -2 -12 31.6739 8.78284   3
 -10  -2 -12 30.7889 7.98204   4
  10   2  12 24.2730 8.69605   1
 -11  -2 -12 47.5574 10.4634   3
 -11  -2 -12 48.5864 9.26484   4
  11   2  12 77.1546 13.6095   1
   7  -3 -12 3.03877 8.40844   4
  -7   3  12 -0.4033 7.46925   2
   6  -3 -12 0.77691 7.45059   4
   6  -3 -12 -1.6271 7.29310   1
  -6   3  12 13.3150 7.58020   2
  -6   3  12 0.68819 8.03499   3
   5  -3 -12 68.2307 11.6834   1
   5  -3 -12 56.2158 10.6313   4
  -5   3  12 74.2233 11.2120   3
  -5   3  12 58.9864 10.5100   2
   4  -3 -12 -1.0221 6.17264   4
   4  -3 -12 19.7219 7.82156   1
  -4   3  12 -5.0129 5.16750   3
  -4   3  12 7.27240 6.03060   2
   3  -3 -12 171.870 15.3481   4
   3  -3 -12 188.410 14.5061   1
  -3   3  12 222.814 15.3356   2
  -3   3  12 201.952 13.0362   3
   2  -3 -12 88.8568 10.6192   1
   2  -3 -12 80.6096 11.4421   4
  -2   3  12 66.4843 10.4323   2
  -2   3  12 96.5844 9.25199   3
   1  -3 -12 70.3841 10.8535   4
   1  -3 -12 83.9541 10.2235   1
  -1   3  12 87.8498 7.91448   3
  -1   3  12 97.7129 11.5794   2
   0  -3 -12 12.3931 7.06071   4
   0  -3 -12 15.7170 5.64875   1
   0   3  12 11.1117 6.24815   2
   0   3  12 17.0592 4.31333   3
  -1  -3 -12 12.4990 5.30340   1
  -1  -3 -12 22.0760 3.43702   3
  -1  -3 -12 14.1260 6.66068   4
   1   3  12 13.7911 6.54531   2
  -2  -3 -12 175.811 11.8149   1
  -2  -3 -12 208.289 14.1255   4
   2   3  12 204.954 14.4470   2
  -3  -3 -12 426.705 19.1052   4
  -3  -3 -12 425.544 11.1554   3
   3   3  12 455.941 17.0013   1
   3   3  12 429.433 19.9095   2
  -4  -3 -12 63.3759 9.26774   4
  -4  -3 -12 59.1775 5.11552   3
   4   3  12 69.3933 9.36212   2
   4   3  12 74.2126 8.47587   1
  -5  -3 -12 138.108 12.2367   4
  -5  -3 -12 128.623 7.71786   3
   5   3  12 138.851 10.6668   1
   5   3  12 145.619 12.1435   2
  -6  -3 -12 282.000 12.4280   3
  -6  -3 -12 278.209 16.0792   4
   6   3  12 257.968 14.5507   2
   6   3  12 263.790 15.0174   1
  -7  -3 -12 179.403 11.0170   3
  -7  -3 -12 165.049 13.2824   4
   7   3  12 161.219 12.7430   1
   7   3  12 170.475 11.7037   2
  -8  -3 -12 286.358 16.8862   4
  -8  -3 -12 327.249 15.3183   3
   8   3  12 294.202 17.5022   1
  -9  -3 -12 -2.1625 5.44144   4
  -9  -3 -12 8.56854 5.71401   3
   9   3  12 11.0616 6.77255   1
 -10  -3 -12 170.156 14.2633   3
 -10  -3 -12 168.003 14.5110   4
  10   3  12 158.821 16.9408   1
 -11  -3 -12 13.5276 7.32400   4
 -11  -3 -12 -1.4785 6.20497   3
  11   3  12 11.9074 8.12431   1
 -12  -3 -12 -6.0522 6.61658   3
 -12  -3 -12 3.97769 6.11592   4
  12   3  12 0.92494 8.35324   1
   6  -4 -12 28.4989 9.63833   4
   6  -4 -12 13.6286 9.46481   1
  -6   4  12 20.1083 8.47618   2
   5  -4 -12 25.3025 8.40343   4
   5  -4 -12 16.4014 8.89572   1
  -5   4  12 25.6563 8.46172   2
   4  -4 -12 1.50817 6.38727   4
   4  -4 -12 -5.0409 6.53014   1
  -4   4  12 -1.3538 5.43344   2
   3  -4 -12 87.7097 11.3521   4
   3  -4 -12 103.040 12.9559   1
  -3   4  12 76.0270 11.3639   2
   2  -4 -12 751.178 26.4189   4
   2  -4 -12 672.493 26.9844   1
  -2   4  12 701.205 28.5460   2
   1  -4 -12 99.6158 11.8389   1
   1  -4 -12 111.674 12.1265   4
  -1   4  12 87.4987 11.3792   2
   0  -4 -12 353.226 17.5429   4
   0  -4 -12 327.474 16.7992   1
   0   4  12 373.189 19.4948   2
  -1  -4 -12 15.8231 6.40702   4
  -1  -4 -12 0.60346 4.94030   1
   1   4  12 -2.1476 5.10989   2
  -2  -4 -12 250.367 15.1846   4
  -2  -4 -12 260.551 14.5829   1
   2   4  12 244.775 15.3285   2
  -3  -4 -12 16.8609 6.46456   4
  -3  -4 -12 3.90576 5.25122   1
   3   4  12 11.7867 5.91469   2
  -4  -4 -12 226.497 14.3406   4
   4   4  12 224.732 12.9597   1
   4   4  12 239.374 14.4993   2
  -5  -4 -12 35.8919 7.71796   4
   5   4  12 63.5298 8.56010   1
   5   4  12 64.5653 9.05079   2
  -6  -4 -12 783.952 28.0497   4
  -6  -4 -12 750.525 21.3746   3
   6   4  12 820.023 27.3943   1
   6   4  12 808.544 27.6719   2
  -7  -4 -12 73.6835 7.67046   3
  -7  -4 -12 97.7955 11.8048   4
   7   4  12 68.2693 8.71015   2
   7   4  12 79.4064 10.3919   1
  -8  -4 -12 421.095 16.9815   3
  -8  -4 -12 441.202 20.7260   4
   8   4  12 454.762 21.3753   1
  -9  -4 -12 16.2112 6.61042   3
  -9  -4 -12 11.8524 6.61517   4
   9   4  12 15.2254 7.46463   1
 -10  -4 -12 42.3853 9.24313   4
 -10  -4 -12 59.1262 9.40640   3
  10   4  12 54.2652 10.5631   1
 -11  -4 -12 45.1914 9.35323   3
 -11  -4 -12 40.4055 9.71001   4
  11   4  12 43.0515 10.6446   1
 -12  -4 -12 115.071 14.1017   3
 -12  -4 -12 123.845 15.2160   4
  12   4  12 133.590 16.8077   1
   6  -5 -12 49.7080 13.1379   1
  -6   5  12 25.2838 8.92358   2
   5  -5 -12 42.8150 12.3221   1
  -5   5  12 40.0604 9.66162   2
   4  -5 -12 17.0906 9.68996   1
   4  -5 -12 20.5877 7.64102   4
  -4   5  12 29.3546 8.62247   2
   3  -5 -12 2.08515 5.49059   4
   3  -5 -12 -2.6953 7.25317   1
  -3   5  12 13.5394 7.03087   2
   2  -5 -12 31.4324 7.84978   4
   2  -5 -12 26.2618 9.38208   1
  -2   5  12 18.7494 7.74645   2
   1  -5 -12 505.933 21.5313   4
   1  -5 -12 548.908 24.0514   1
  -1   5  12 555.847 24.7865   2
   0  -5 -12 -1.5611 5.09286   4
   0  -5 -12 -4.4316 5.83357   1
   0   5  12 1.02635 5.37030   2
  -1  -5 -12 38.9426 7.95019   4
  -1  -5 -12 40.1501 8.46053   1
   1   5  12 42.9966 8.71343   2
  -2  -5 -12 35.8949 7.62240   4
  -2  -5 -12 22.2070 7.37446   1
   2   5  12 59.5068 9.32477   2
  -3  -5 -12 289.863 16.0143   4
  -3  -5 -12 267.596 16.4172   1
   3   5  12 276.978 16.6437   2
  -4  -5 -12 326.689 17.1259   4
  -4  -5 -12 296.438 16.5178   1
   4   5  12 307.533 16.9082   2
  -5  -5 -12 317.485 17.3353   4
   5   5  12 311.601 16.1255   1
   5   5  12 297.972 16.4023   2
  -6  -5 -12 71.1054 10.3051   4
   6   5  12 85.0388 10.7113   1
   6   5  12 104.814 10.8978   2
  -7  -5 -12 150.233 14.1506   4
   7   5  12 127.144 13.0777   1
   7   5  12 127.215 11.4394   2
  -8  -5 -12 204.582 15.0636   4
   8   5  12 206.783 15.1224   1
  -9  -5 -12 109.130 14.9399   3
  -9  -5 -12 89.1361 11.9882   4
   9   5  12 86.7548 12.0280   1
 -10  -5 -12 5.25894 6.28259   3
 -10  -5 -12 18.5191 7.63608   4
  10   5  12 29.3153 8.80466   1
 -11  -5 -12 8.00440 7.18335   4
 -11  -5 -12 10.7151 7.37428   3
  11   5  12 26.8660 9.06980   1
 -12  -5 -12 0.25743 6.65537   4
  12   5  12 15.1696 8.81745   1
   5  -6 -12 16.7452 10.8104   1
  -5   6  12 22.4136 8.55329   2
   4  -6 -12 25.6308 11.0663   1
  -4   6  12 48.1890 9.92819   2
   3  -6 -12 16.3381 7.19107   4
   3  -6 -12 12.4147 9.34194   1
  -3   6  12 18.7079 7.69704   2
   2  -6 -12 16.1009 6.89909   4
   2  -6 -12 12.7716 8.90789   1
  -2   6  12 33.7296 8.41996   2
   1  -6 -12 45.2708 10.7806   1
   1  -6 -12 53.4841 8.75346   4
  -1   6  12 51.9054 9.51665   2
   0  -6 -12 133.870 14.8798   1
   0  -6 -12 142.477 12.1723   4
   0   6  12 157.437 13.5041   2
  -1  -6 -12 315.183 16.2553   4
  -1  -6 -12 339.279 19.4604   1
   1   6  12 343.886 19.0520   2
  -2  -6 -12 43.3873 7.90020   4
  -2  -6 -12 33.8671 8.66471   1
   2   6  12 39.9073 8.01700   2
  -3  -6 -12 454.679 21.9171   1
  -3  -6 -12 446.750 19.4737   4
   3   6  12 478.565 21.5768   2
  -4  -6 -12 6.84241 5.80857   4
  -4  -6 -12 7.61602 7.06612   1
   4   6  12 7.66391 5.85015   2
  -5  -6 -12 531.016 22.1183   4
   5   6  12 544.814 22.7299   2
   5   6  12 515.264 21.9470   1
  -6  -6 -12 8.81905 6.23199   4
   6   6  12 10.3395 5.63153   1
   6   6  12 18.1485 6.36764   2
  -7  -6 -12 10.6356 6.65888   4
   7   6  12 12.6926 5.76682   2
   7   6  12 8.93545 5.90387   1
  -8  -6 -12 129.953 14.1100   4
   8   6  12 135.299 14.1908   1
  -9  -6 -12 133.096 14.3085   4
   9   6  12 108.660 12.8211   1
 -10  -6 -12 666.357 27.9184   4
  10   6  12 704.034 29.3314   1
 -11  -6 -12 33.1467 9.64486   4
  11   6  12 33.5708 9.35772   1
 -12  -6 -12 22.6595 8.77670   4
  12   6  12 38.1157 10.2067   1
   4  -7 -12 20.3172 11.4774   1
  -4   7  12 23.2163 8.25932   2
   3  -7 -12 10.2619 9.85912   1
  -3   7  12 15.4762 7.32113   2
   2  -7 -12 23.8303 10.9545   1
   2  -7 -12 30.6080 7.85652   4
  -2   7  12 30.9989 9.37883   2
   1  -7 -12 8.75858 5.99964   4
   1  -7 -12 15.2685 9.48001   1
  -1   7  12 20.4381 7.78079   2
   0  -7 -12 189.980 18.5093   1
   0  -7 -12 220.429 13.9340   4
   0   7  12 197.790 15.7024   2
  -1  -7 -12 393.499 21.7113   1
  -1  -7 -12 356.766 16.9834   4
   1   7  12 375.976 20.3874   2
  -2  -7 -12 19.4282 8.05805   1
  -2  -7 -12 42.2867 7.72835   4
   2   7  12 41.1209 8.61329   2
  -3  -7 -12 254.316 17.4284   1
  -3  -7 -12 251.060 15.0006   4
   3   7  12 229.846 15.6874   2
  -4  -7 -12 113.527 11.8422   4
  -4  -7 -12 116.296 13.7703   1
   4   7  12 116.111 12.3626   2
  -5  -7 -12 5.77897 5.75220   4
  -5  -7 -12 -2.9234 6.08418   1
   5   7  12 2.03554 5.26202   2
  -6  -7 -12 12.6602 6.45341   4
   6   7  12 2.65885 4.97693   1
   6   7  12 6.26421 5.19999   2
  -7  -7 -12 1.27161 5.62644   4
   7   7  12 7.42037 5.25512   2
   7   7  12 -2.1745 4.97659   1
  -8  -7 -12 78.1203 11.4040   4
   8   7  12 89.2307 11.7636   1
  -9  -7 -12 21.9620 8.44093   4
   9   7  12 29.3013 8.79088   1
 -10  -7 -12 -3.0075 6.08945   4
  10   7  12 2.43680 6.56327   1
 -11  -7 -12 106.004 14.7152   4
  11   7  12 81.6243 13.5648   1
 -12  -7 -12 7.93374 7.66512   4
  12   7  12 5.14982 6.97406   1
   3  -8 -12 12.0223 10.2557   1
  -3   8  12 25.3140 8.81361   2
   2  -8 -12 94.2545 16.4769   1
  -2   8  12 75.5039 12.4943   2
   1  -8 -12 -1.7723 8.35707   1
  -1   8  12 16.8806 7.75607   2
   0  -8 -12 31.4241 10.6079   1
   0  -8 -12 32.2181 7.14386   4
   0   8  12 34.9726 8.59357   2
  -1  -8 -12 1.36160 5.37355   4
  -1  -8 -12 6.15026 7.98348   1
   1   8  12 10.0146 6.72101   2
  -2  -8 -12 237.009 14.4406   4
  -2  -8 -12 238.386 18.1513   1
   2   8  12 236.313 16.4874   2
  -3  -8 -12 519.502 25.5624   1
  -3  -8 -12 571.759 22.3575   4
   3   8  12 606.451 25.9011   2
  -4  -8 -12 -1.0443 6.41207   1
  -4  -8 -12 0.75473 5.10109   4
   4   8  12 0.85910 5.06859   2
  -5  -8 -12 443.310 22.8278   1
  -5  -8 -12 425.930 19.9536   4
   5   8  12 368.364 20.0399   2
  -6  -8 -12 5.00627 5.59579   4
   6   8  12 8.01833 5.40321   2
  -7  -8 -12 940.937 32.5014   4
   7   8  12 969.477 34.3399   1
   7   8  12 941.175 32.3741   2
  -8  -8 -12 -0.7717 5.96544   4
   8   8  12 7.62570 5.87330   1
  -9  -8 -12 33.7438 9.23455   4
   9   8  12 40.0229 9.42136   1
 -10  -8 -12 5.43590 7.06055   4
  10   8  12 -3.3443 5.73064   1
 -11  -8 -12 11.7202 8.24881   4
  11   8  12 9.33515 7.50072   1
 -12  -8 -12 141.659 17.1340   4
  12   8  12 134.844 16.4716   1
   2  -9 -12 -1.8297 9.78981   1
  -2   9  12 13.4527 7.62122   2
   1  -9 -12 10.7838 9.96676   1
  -1   9  12 21.5677 8.77309   2
   0  -9 -12 11.2923 9.32215   1
   0   9  12 27.0952 8.91696   2
  -1  -9 -12 17.9932 6.17877   4
  -1  -9 -12 16.3385 9.13098   1
   1   9  12 21.9811 8.56164   2
  -2  -9 -12 5.30470 5.45724   4
  -2  -9 -12 5.85405 8.02460   1
   2   9  12 9.13066 6.29369   2
  -3  -9 -12 14.6511 6.12751   4
  -3  -9 -12 20.0105 9.26325   1
   3   9  12 18.6299 7.79074   2
  -4  -9 -12 117.111 12.1770   4
  -4  -9 -12 112.087 15.8222   1
   4   9  12 125.958 14.0604   2
  -5  -9 -12 10.6086 6.37331   4
  -5  -9 -12 6.13068 7.45847   1
   5   9  12 14.3275 6.39563   2
  -6  -9 -12 66.9359 11.9876   1
  -6  -9 -12 81.6583 11.2514   4
   6   9  12 61.8956 9.89559   2
  -7  -9 -12 6.32190 6.26525   4
   7   9  12 19.2371 7.14599   1
   7   9  12 16.3960 6.33605   2
  -8  -9 -12 17.1922 7.56454   4
   8   9  12 17.3451 7.15106   1
  -9  -9 -12 1.74652 6.09197   4
   9   9  12 -8.2832 5.03972   1
 -10  -9 -12 80.1638 12.6711   4
  10   9  12 86.3037 12.5848   1
 -11  -9 -12 4.14978 7.60400   4
  11   9  12 3.17120 6.60307   1
   1 -10 -12 55.9724 14.4240   1
  -1  10  12 51.4582 11.5759   2
   0 -10 -12 296.713 25.3625   1
   0  10  12 332.860 22.0827   2
  -1 -10 -12 6.76061 9.55755   1
   1  10  12 3.38899 6.78173   2
  -2 -10 -12 84.1903 14.9889   1
   2  10  12 99.4826 14.0449   2
  -3 -10 -12 128.173 16.2027   1
  -3 -10 -12 147.285 12.4731   4
   3  10  12 132.740 15.4320   2
  -4 -10 -12 103.745 14.7929   1
  -4 -10 -12 145.651 13.5089   4
   4  10  12 125.469 14.4007   2
  -5 -10 -12 53.1196 9.17906   4
  -5 -10 -12 42.8914 11.1660   1
   5  10  12 58.0810 10.5447   2
  -6 -10 -12 224.580 18.7866   1
  -6 -10 -12 219.777 15.5509   4
   6  10  12 221.459 15.9184   2
  -7 -10 -12 79.9043 11.5954   4
   7  10  12 79.6880 12.0056   1
   7  10  12 72.2060 10.5036   2
  -8 -10 -12 72.0607 11.9835   4
   8  10  12 72.5915 12.3138   1
  -9 -10 -12 98.5105 13.8448   4
   9  10  12 97.5887 13.6621   1
 -10 -10 -12 174.638 17.9734   4
  10  10  12 204.908 17.7587   1
 -11 -10 -12 19.2731 9.60008   4
  11  10  12 25.0578 9.34665   1
  -1 -11 -12 24.4177 12.2059   1
   1  11  12 45.3301 10.7861   2
  -2 -11 -12 -7.3243 8.92186   1
   2  11  12 5.13547 7.53275   2
  -3 -11 -12 9.82955 9.39694   1
   3  11  12 5.64185 7.41206   2
  -4 -11 -12 -0.8160 5.43461   4
  -4 -11 -12 -3.8197 7.81926   1
   4  11  12 15.9542 8.14902   2
  -5 -11 -12 57.9368 9.98078   4
  -5 -11 -12 25.1232 11.1175   1
   5  11  12 42.8854 9.39264   2
  -6 -11 -12 91.7949 14.8964   1
  -6 -11 -12 158.724 15.4227   4
   6  11  12 121.897 14.1145   2
  -7 -11 -12 40.2727 11.3728   1
  -7 -11 -12 41.9567 9.59098   4
   7  11  12 51.2857 9.38357   2
  -8 -11 -12 47.9470 10.4681   4
   8  11  12 14.0757 7.48014   1
  -9 -11 -12 5.65861 7.77424   4
   9  11  12 19.9663 8.19541   1
 -10 -11 -12 21.1367 9.47802   4
  10  11  12 21.7525 8.64281   1
  -4 -12 -12 41.8965 12.9948   1
   4  12  12 62.2456 12.4207   2
  -5 -12 -12 29.0637 10.9542   1
   5  12  12 20.4982 8.98797   2
  -6 -12 -12 26.7162 11.6029   1
  -6 -12 -12 24.6605 7.93882   4
   6  12  12 34.0119 8.88046   2
  -7 -12 -12 45.7848 12.4521   1
  -7 -12 -12 57.3579 10.4595   4
   7  12  12 55.5634 10.0465   2
  -8 -12 -12 48.2427 10.4386   4
   8  12  12 45.5510 10.4163   1
   5   9 -13 64.6712 11.8961   4
   5   9 -13 67.0965 11.7385   3
  -5  -9  13 63.0212 12.8932   2
   4   9 -13 316.573 20.8656   3
   4   9 -13 322.013 20.1892   4
  -4  -9  13 361.016 24.3788   2
   3   9 -13 47.2975 10.0574   3
  -3  -9  13 40.7192 11.5774   2
   2   9 -13 196.923 16.8422   3
  -2  -9  13 203.567 21.1657   2
   1   9 -13 6.52944 7.18518   3
  -1  -9  13 4.46761 9.55964   2
   0   9 -13 76.4472 12.4829   3
   0  -9  13 77.1032 14.9218   2
  -1   9 -13 1.03439 7.35732   3
   1  -9  13 2.64335 8.62855   2
   6   8 -13 25.0574 9.07316   4
  -6  -8  13 9.47278 10.2173   3
  -6  -8  13 26.7871 9.89028   2
   5   8 -13 16.4202 8.71082   4
  -5  -8  13 -6.7327 7.34569   2
  -5  -8  13 3.75156 9.80698   3
   4   8 -13 -4.1859 6.67300   4
   4   8 -13 -0.3372 5.92369   3
  -4  -8  13 -7.9001 7.17624   2
   3   8 -13 50.6429 10.0566   4
   3   8 -13 33.9972 9.31479   3
  -3  -8  13 44.4891 11.7718   2
   2   8 -13 -6.5509 5.29579   3
   2   8 -13 5.50775 7.06930   4
  -2  -8  13 -3.1584 7.39680   2
   1   8 -13 44.3831 10.0726   3
  -1  -8  13 44.1127 11.4011   2
   0   8 -13 26.2594 8.31230   3
   0  -8  13 21.6763 10.4230   2
  -1   8 -13 14.3397 8.07583   3
   1  -8  13 11.5140 9.20616   2
  -2   8 -13 137.662 15.9862   3
   2  -8  13 177.147 19.7479   2
  -3   8 -13 177.814 18.4497   3
   3  -8  13 198.362 20.6852   2
   7   7 -13 107.403 15.0554   4
  -7  -7  13 121.100 17.4776   3
  -7  -7  13 92.5796 13.6977   2
   6   7 -13 56.6539 11.9028   4
  -6  -7  13 51.2780 11.1876   2
  -6  -7  13 71.8173 13.8579   3
   5   7 -13 24.8595 8.95701   4
  -5  -7  13 21.3691 8.83524   2
  -5  -7  13 13.8821 10.4333   3
   4   7 -13 -1.5053 6.37524   4
  -4  -7  13 -7.1137 7.82435   3
  -4  -7  13 0.63428 7.11962   2
   3   7 -13 10.0833 7.28205   4
   3   7 -13 8.60757 6.24967   3
  -3  -7  13 13.0804 8.51932   2
   2   7 -13 146.108 15.5187   4
   2   7 -13 158.870 16.2712   3
  -2  -7  13 134.333 16.2247   2
   1   7 -13 181.178 15.2508   4
   1   7 -13 200.975 15.8813   3
  -1  -7  13 240.741 18.9621   2
   0   7 -13 107.810 13.6123   3
   0  -7  13 117.623 15.6223   2
  -1   7 -13 246.177 18.2289   3
   1  -7  13 275.637 21.2410   2
  -2   7 -13 111.944 14.5684   3
   2  -7  13 135.776 17.3475   2
  -3   7 -13 39.2487 10.1150   3
   3  -7  13 39.3287 11.2252   2
  -4   7 -13 19.5794 8.44675   3
   4  -7  13 11.7148 8.94696   2
  -5   7 -13 5.94296 7.48785   3
   5  -7  13 13.0763 8.88399   2
   7   6 -13 -1.5337 7.00388   4
  -7  -6  13 -4.8998 6.30261   2
  -7  -6  13 -9.5556 8.32966   3
   6   6 -13 102.300 14.7164   4
  -6  -6  13 112.670 14.5865   2
  -6  -6  13 108.542 15.9236   3
   5   6 -13 23.7756 9.16586   4
  -5  -6  13 12.7737 9.31100   3
  -5  -6  13 18.3030 8.52810   2
   4   6 -13 179.240 18.0978   4
  -4  -6  13 146.678 17.1251   3
  -4  -6  13 162.931 16.8582   2
   3   6 -13 2.97331 7.09306   4
  -3  -6  13 9.11905 7.47313   2
  -3  -6  13 -1.7417 7.41919   3
   2   6 -13 231.138 17.4576   4
   2   6 -13 226.591 16.3077   3
  -2  -6  13 235.226 18.3603   2
   1   6 -13 355.821 19.9394   4
   1   6 -13 397.706 20.5603   3
  -1  -6  13 329.824 21.4808   2
   0   6 -13 58.6276 9.85609   4
   0   6 -13 64.0593 10.8797   3
   0  -6  13 74.0653 12.6671   2
  -1   6 -13 21.0085 7.39665   4
  -1   6 -13 33.7726 8.64033   3
   1  -6  13 19.8356 8.62932   2
  -2   6 -13 22.8691 8.16086   3
   2  -6  13 19.6025 8.83805   2
  -3   6 -13 31.8963 8.58203   3
   3  -6  13 27.3822 9.67009   2
  -4   6 -13 7.09684 6.96552   3
   4  -6  13 9.07453 7.15162   2
  -5   6 -13 5.69842 7.46592   3
   5  -6  13 12.6178 8.53718   2
  -6   6 -13 5.42830 8.32394   3
   6  -6  13 3.68961 10.1703   1
   6  -6  13 8.22344 8.45371   2
   8   5 -13 40.6660 11.1152   4
  -8  -5  13 44.5403 12.3609   3
   7   5 -13 111.599 15.4140   4
  -7  -5  13 137.804 17.7090   3
  -7  -5  13 89.6773 12.6539   2
   6   5 -13 48.3048 11.3416   4
  -6  -5  13 63.8179 11.4275   2
  -6  -5  13 76.9625 13.9536   3
   5   5 -13 145.161 16.1975   4
  -5  -5  13 174.572 18.1496   3
  -5  -5  13 157.363 15.8821   2
   4   5 -13 106.787 14.6208   4
  -4  -5  13 103.215 14.4477   3
  -4  -5  13 84.5209 12.3176   2
   3   5 -13 14.4353 8.25816   4
  -3  -5  13 3.44959 6.54094   2
  -3  -5  13 7.33851 7.54755   3
   2   5 -13 65.7954 9.83986   3
   2   5 -13 61.1072 10.9812   4
  -2  -5  13 41.7466 9.70124   2
   1   5 -13 93.0958 11.7675   3
   1   5 -13 92.7413 12.8101   4
  -1  -5  13 82.5205 11.9665   2
   0   5 -13 90.9843 11.8269   3
   0   5 -13 94.2613 12.3327   4
   0  -5  13 76.7519 11.9569   2
  -1   5 -13 215.913 15.3162   3
  -1   5 -13 236.363 15.5595   4
   1  -5  13 201.220 16.8415   2
  -2   5 -13 8.01628 6.44753   4
  -2   5 -13 6.62156 6.27902   3
   2  -5  13 8.86019 7.54207   2
  -3   5 -13 611.995 26.6343   3
   3  -5  13 672.379 29.7865   2
  -4   5 -13 48.2920 9.63682   3
   4  -5  13 47.3203 10.1726   2
  -5   5 -13 614.802 28.2418   3
   5  -5  13 616.077 25.9898   1
   5  -5  13 626.142 28.7542   2
  -6   5 -13 -0.5006 6.91429   3
   6  -5  13 2.34379 7.15317   2
   6  -5  13 8.23222 7.95698   1
  -7   5 -13 10.7323 8.95427   3
   7  -5  13 7.00039 9.28551   1
   7  -5  13 6.60239 7.01390   2
   8   4 -13 8.99141 8.01636   4
  -8  -4  13 -12.096 7.61543   3
   7   4 -13 35.4662 11.1196   4
  -7  -4  13 56.9890 10.5271   2
  -7  -4  13 43.4996 12.1842   3
   6   4 -13 6.78119 7.71615   4
  -6  -4  13 -0.6542 8.00615   3
  -6  -4  13 -0.5950 6.53145   2
   5   4 -13 51.3631 11.4099   4
  -5  -4  13 51.4816 10.0997   2
  -5  -4  13 24.2957 9.46118   3
   4   4 -13 198.981 17.7263   4
  -4  -4  13 209.021 17.2178   3
  -4  -4  13 216.696 16.8677   2
   3   4 -13 75.7136 12.4533   4
  -3  -4  13 72.1289 12.5009   3
  -3  -4  13 82.7505 12.2997   2
   2   4 -13 54.7937 11.0707   4
  -2  -4  13 58.9445 11.5265   3
  -2  -4  13 64.8515 11.1538   2
   1   4 -13 12.6920 6.30740   3
   1   4 -13 19.9477 9.17559   4
  -1  -4  13 6.32178 6.70163   2
   0   4 -13 105.399 13.1928   4
   0   4 -13 104.817 12.0028   3
   0  -4  13 75.4992 11.4567   2
  -1   4 -13 30.6189 7.77405   3
  -1   4 -13 37.9620 8.73976   4
   1  -4  13 30.0567 8.69281   2
  -2   4 -13 -1.4865 5.20700   3
  -2   4 -13 -2.9848 5.51006   4
   2  -4  13 -12.037 4.93076   2
  -3   4 -13 5.60769 5.58838   3
  -3   4 -13 -0.6737 5.19101   4
   3  -4  13 1.69116 6.31876   2
   3  -4  13 -4.4734 5.33570   1
  -4   4 -13 10.2854 6.44561   3
  -4   4 -13 7.61865 5.77176   4
   4  -4  13 3.03845 5.81308   1
   4  -4  13 0.24509 5.97332   2
  -5   4 -13 1.97301 6.28275   3
   5  -4  13 -4.7626 5.91411   1
   5  -4  13 4.19409 6.77798   2
  -6   4 -13 16.9842 8.54160   3
   6  -4  13 7.33779 7.50508   1
   6  -4  13 22.2147 8.09022   2
  -7   4 -13 3.78841 8.18442   3
   7  -4  13 1.48514 8.42180   1
   7  -4  13 1.28025 6.00345   2
  -8   4 -13 34.4726 11.4352   3
   8  -4  13 18.3704 10.8089   1
   8   3 -13 26.2016 10.4486   4
  -8  -3  13 12.7259 9.93330   3
   7   3 -13 62.2885 12.5734   4
  -7  -3  13 58.6214 10.7086   2
  -7  -3  13 60.5263 13.1176   3
   6   3 -13 -6.3380 6.26303   4
  -6  -3  13 -5.3959 6.79446   3
  -6  -3  13 -4.2649 6.42326   2
   5   3 -13 38.0762 10.1028   4
  -5  -3  13 88.8356 12.2331   2
  -5  -3  13 56.0158 11.2241   3
   4   3 -13 254.043 19.5811   4
  -4  -3  13 249.668 16.7869   2
  -4  -3  13 243.813 17.8137   3
   3   3 -13 154.493 17.2056   4
  -3  -3  13 157.825 15.5227   2
  -3  -3  13 155.181 15.9746   3
   2   3 -13 1103.06 38.1924   4
  -2  -3  13 1098.58 37.9024   3
  -2  -3  13 1183.14 39.9069   2
   1   3 -13 28.6078 9.16415   4
  -1  -3  13 28.6758 8.17054   2
   0   3 -13 402.360 21.4078   4
   0   3 -13 442.461 19.7473   3
   0  -3  13 447.491 22.4184   2
  -1   3 -13 157.855 12.3768   3
  -1   3 -13 158.706 15.4667   4
   1  -3  13 171.235 15.3187   2
  -2   3 -13 520.211 21.8133   3
  -2   3 -13 543.340 21.9230   4
   2  -3  13 503.676 24.1030   2
  -3   3 -13 128.644 13.0717   3
  -3   3 -13 117.956 11.7246   4
   3  -3  13 123.733 13.7215   2
   3  -3  13 125.132 10.0003   1
  -4   3 -13 112.991 12.5903   3
  -4   3 -13 117.938 10.8403   4
   4  -3  13 132.742 11.3169   1
   4  -3  13 136.951 14.0792   2
  -5   3 -13 10.7567 6.97643   3
  -5   3 -13 15.3177 5.52976   4
   5  -3  13 20.7667 7.72528   2
   5  -3  13 5.84148 6.21097   1
  -6   3 -13 44.8811 9.80343   3
   6  -3  13 60.8546 10.4946   1
   6  -3  13 46.0339 9.41690   2
  -7   3 -13 237.186 18.8016   3
   7  -3  13 256.610 18.5273   1
   7  -3  13 278.099 17.1572   2
  -8   3 -13 237.815 19.8366   3
   8  -3  13 267.713 20.3043   1
  -9   3 -13 7.33484 9.39654   3
   9  -3  13 11.2793 10.3565   1
   8   2 -13 0.49341 8.14425   4
  -8  -2  13 19.8796 9.90645   3
   7   2 -13 47.3057 11.7313   4
  -7  -2  13 42.8888 11.2129   3
  -7  -2  13 44.1066 9.94093   2
   6   2 -13 19.4395 9.10326   4
  -6  -2  13 -0.5285 6.56101   2
  -6  -2  13 -1.0476 7.17890   3
   5   2 -13 -0.5895 7.00892   4
  -5  -2  13 -6.8953 6.31144   3
  -5  -2  13 4.39114 6.19547   2
   4   2 -13 5.41504 7.45623   4
  -4  -2  13 1.43717 6.44194   2
  -4  -2  13 -0.6513 6.63051   3
   3   2 -13 52.0301 11.2079   4
  -3  -2  13 68.6278 11.3613   3
  -3  -2  13 73.7157 10.8726   2
   2   2 -13 31.4053 9.62445   4
  -2  -2  13 6.31135 6.76280   3
  -2  -2  13 12.4837 7.57807   2
   1   2 -13 113.410 14.2396   4
  -1  -2  13 91.8330 11.7130   2
  -1  -2  13 84.9927 11.6164   3
   0   2 -13 191.496 12.4292   3
   0   2 -13 187.036 15.8206   4
   0  -2  13 198.582 15.1958   2
  -1   2 -13 4.92370 4.57424   3
  -1   2 -13 5.85077 7.21239   4
   1  -2  13 -1.8770 6.19669   2
  -2   2 -13 50.1082 9.26257   4
  -2   2 -13 34.0635 7.21118   3
   2  -2  13 41.6111 5.83622   1
   2  -2  13 35.0198 8.32798   2
  -3   2 -13 169.397 12.4005   3
  -3   2 -13 160.242 13.3784   4
   3  -2  13 144.108 14.3601   2
   3  -2  13 179.447 10.8140   1
  -4   2 -13 80.0642 9.73401   4
  -4   2 -13 68.0542 9.82591   3
   4  -2  13 78.2519 9.49593   1
   4  -2  13 64.6378 10.2046   2
  -5   2 -13 474.257 22.1736   3
  -5   2 -13 555.914 20.5224   4
   5  -2  13 514.313 23.8314   2
   5  -2  13 520.498 21.2116   1
  -6   2 -13 0.51308 4.30253   4
  -6   2 -13 -2.5239 5.72018   3
   6  -2  13 3.88925 6.00582   1
   6  -2  13 -0.1561 5.28494   2
  -7   2 -13 9.62616 7.52706   3
   7  -2  13 3.60833 5.50807   2
   7  -2  13 3.84080 7.50980   1
  -8   2 -13 88.5446 13.4069   3
   8  -2  13 104.922 14.2267   1
  -9   2 -13 43.6870 11.2101   3
   9  -2  13 41.4802 11.6877   1
   8   1 -13 109.096 15.4805   4
  -8  -1  13 114.874 15.8972   3
   7   1 -13 100.152 14.9031   4
  -7  -1  13 72.7368 12.6326   3
  -7  -1  13 70.0657 11.5315   2
   6   1 -13 1.68162 7.18226   4
  -6  -1  13 -3.8160 6.01519   2
  -6  -1  13 0.31845 7.62648   3
   5   1 -13 427.856 24.0704   4
  -5  -1  13 410.585 21.7790   2
  -5  -1  13 399.406 21.2942   3
   4   1 -13 6.90937 7.00797   4
  -4  -1  13 12.3817 7.27824   3
  -4  -1  13 9.61296 6.67422   2
   3   1 -13 118.296 15.3067   4
  -3  -1  13 122.995 13.4406   2
  -3  -1  13 106.667 12.6313   3
   2   1 -13 91.5560 13.5279   4
  -2  -1  13 134.621 13.3225   3
  -2  -1  13 85.6118 11.7598   2
   1   1 -13 188.176 16.4375   4
  -1  -1  13 189.915 15.2180   2
  -1  -1  13 182.321 14.5088   3
   0   1 -13 842.080 26.4516   3
   0   1 -13 763.172 29.7764   4
   0  -1  13 816.412 30.8122   2
  -1   1 -13 663.281 22.7008   3
  -1   1 -13 671.690 26.3276   4
   1  -1  13 644.553 27.1620   2
   1  -1  13 673.973 18.1910   1
  -2   1 -13 158.014 10.7629   3
  -2   1 -13 161.888 13.4375   4
   2  -1  13 127.842 13.5103   2
   2  -1  13 158.577 8.83591   1
  -3   1 -13 26.8951 6.46447   3
  -3   1 -13 24.6758 7.48620   4
   3  -1  13 27.4702 5.63715   1
   3  -1  13 22.0911 7.51896   2
  -4   1 -13 70.8169 9.35771   3
  -4   1 -13 66.7152 9.91340   4
   4  -1  13 62.7597 9.98221   2
   4  -1  13 84.3417 9.19134   1
  -5   1 -13 287.194 16.2331   3
  -5   1 -13 275.681 15.0211   4
   5  -1  13 241.612 16.0061   2
   5  -1  13 266.751 14.7766   1
  -6   1 -13 26.2084 6.35481   4
  -6   1 -13 35.4082 8.14924   3
   6  -1  13 17.2802 6.69132   2
   6  -1  13 30.8129 7.78477   1
  -7   1 -13 100.688 10.6790   4
  -7   1 -13 101.289 12.9803   3
   7  -1  13 110.422 11.9971   2
   7  -1  13 126.690 13.5308   1
  -8   1 -13 58.0577 11.3671   3
  -8   1 -13 68.4623 9.20575   4
   8  -1  13 49.7607 10.3519   1
  -9   1 -13 112.315 15.1326   3
   9  -1  13 134.617 16.4546   1
 -10   1 -13 66.8157 13.3564   3
  10  -1  13 107.057 16.1751   1
   7   0 -13 96.7111 14.1734   4
  -7   0  13 78.8273 11.8952   2
  -7   0  13 71.4519 12.6067   3
   6   0 -13 35.2326 10.7948   4
  -6   0  13 40.8894 10.1785   3
  -6   0  13 17.7628 8.53015   2
   5   0 -13 26.1135 9.24050   4
  -5   0  13 20.9388 7.98694   3
  -5   0  13 15.1604 7.74859   2
   4   0 -13 22.2869 8.59851   4
  -4   0  13 8.11844 6.64545   2
  -4   0  13 14.5586 7.08557   3
   3   0 -13 -1.6672 7.27674   4
  -3   0  13 15.9130 7.62928   2
  -3   0  13 9.00204 6.19682   3
   2   0 -13 405.536 22.4760   4
  -2   0  13 438.065 21.7114   2
  -2   0  13 409.973 18.9892   3
   1   0 -13 29.0753 8.98724   4
  -1   0  13 26.4598 7.29146   3
  -1   0  13 24.9595 7.76071   2
   0   0 -13 396.531 21.6459   4
   0   0  13 431.657 21.6622   2
   0   0  13 439.912 13.4978   1
  -1   0 -13 998.316 33.5666   4
  -1   0 -13 1083.85 30.0219   3
   1   0  13 1009.40 35.8523   2
   1   0  13 1076.08 26.2182   1
  -2   0 -13 101.435 11.8885   4
  -2   0 -13 113.663 9.01393   3
   2   0  13 114.458 12.4218   2
   2   0  13 102.015 7.38557   1
  -3   0 -13 79.5517 8.33630   3
  -3   0 -13 65.6914 9.98451   4
   3   0  13 77.2592 7.92398   1
   3   0  13 88.3836 11.0993   2
  -4   0 -13 7.54979 6.07278   4
  -4   0 -13 1.23510 4.38150   3
   4   0  13 6.65224 4.41595   1
   4   0  13 -6.5600 4.79119   2
  -5   0 -13 46.9842 8.33265   4
  -5   0 -13 42.2085 7.32806   3
   5   0  13 35.9617 7.42917   1
   5   0  13 34.9699 7.75619   2
  -6   0 -13 57.4293 9.09323   3
  -6   0 -13 62.4565 9.17275   4
   6   0  13 71.7655 9.62747   2
   6   0  13 57.9795 9.11345   1
  -7   0 -13 71.8027 9.36771   4
  -7   0 -13 65.3170 10.2281   3
   7   0  13 78.0149 10.9486   1
   7   0  13 104.012 11.1740   2
  -8   0 -13 67.2233 9.39817   4
  -8   0 -13 56.9392 10.4438   3
   8   0  13 76.2734 11.5236   1
  -9   0 -13 37.9490 7.81476   4
  -9   0 -13 39.8268 10.0619   3
   9   0  13 40.2344 10.4442   1
 -10   0 -13 14.4785 8.64650   3
  10   0  13 1.46454 8.61707   1
   7  -1 -13 56.9469 12.3657   4
  -7   1  13 71.1095 12.0395   3
  -7   1  13 57.6398 11.3893   2
   6  -1 -13 140.118 16.6846   4
  -6   1  13 148.059 15.4174   2
  -6   1  13 120.051 14.5093   3
   5  -1 -13 37.9623 10.2223   4
  -5   1  13 44.6487 9.71114   2
  -5   1  13 54.8982 9.94903   3
   4  -1 -13 21.7247 8.59183   4
  -4   1  13 16.1859 7.72844   2
  -4   1  13 18.9863 7.26096   3
   3  -1 -13 348.833 21.3844   4
  -3   1  13 361.290 20.0107   2
  -3   1  13 337.909 17.2215   3
   2  -1 -13 283.383 12.4921   1
   2  -1 -13 289.777 19.4040   4
  -2   1  13 292.490 18.6416   2
  -2   1  13 276.012 15.0774   3
   1  -1 -13 226.921 10.9507   1
   1  -1 -13 199.912 16.7737   4
  -1   1  13 250.340 16.4790   2
  -1   1  13 232.899 13.4270   3
   0  -1 -13 -1.6543 6.49043   4
   0  -1 -13 1.30219 3.85993   1
   0   1  13 4.90659 5.02440   3
   0   1  13 -2.5161 5.72157   2
  -1  -1 -13 18.4300 7.44993   4
  -1  -1 -13 10.5380 3.61079   3
   1   1  13 2.79311 3.18160   1
   1   1  13 11.9817 6.92521   2
  -2  -1 -13 85.3425 11.4234   4
  -2  -1 -13 93.5970 7.13057   3
   2   1  13 93.2100 7.60367   1
   2   1  13 92.9995 11.2145   2
  -3  -1 -13 641.266 19.7783   3
  -3  -1 -13 613.593 24.0567   4
   3   1  13 576.312 24.8978   2
   3   1  13 650.123 20.2645   1
  -4  -1 -13 180.208 14.1498   4
  -4  -1 -13 197.026 10.9917   3
   4   1  13 214.951 12.1247   1
   4   1  13 179.955 14.0569   2
  -5  -1 -13 639.817 22.2635   3
  -5  -1 -13 657.620 24.6773   4
   5   1  13 699.112 23.5398   1
   5   1  13 702.177 26.3189   2
  -6  -1 -13 24.9875 6.82319   3
  -6  -1 -13 26.1372 7.28222   4
   6   1  13 12.4519 6.16167   2
   6   1  13 26.1197 7.07801   1
  -7  -1 -13 333.441 17.4786   4
  -7  -1 -13 337.559 17.2488   3
   7   1  13 344.415 17.3741   2
   7   1  13 355.470 18.4971   1
  -8  -1 -13 49.5664 8.77054   4
  -8  -1 -13 49.3239 9.30583   3
   8   1  13 50.0265 9.76972   1
  -9  -1 -13 0.74981 5.31700   4
  -9  -1 -13 17.6092 7.69646   3
   9   1  13 17.8381 8.22606   1
 -10  -1 -13 47.2264 8.90931   4
 -10  -1 -13 49.0959 10.6079   3
  10   1  13 37.2960 10.4701   1
 -11  -1 -13 24.3416 9.51386   3
  11   1  13 35.3180 10.6592   1
   7  -2 -13 20.7098 9.85211   4
  -7   2  13 8.72801 8.35406   2
   6  -2 -13 10.6696 8.87692   4
  -6   2  13 9.05252 7.86088   3
  -6   2  13 22.0127 8.57950   2
   5  -2 -13 41.8512 10.4745   4
  -5   2  13 36.7786 9.10991   3
  -5   2  13 46.0561 10.2292   2
   4  -2 -13 222.244 17.9909   4
   4  -2 -13 225.625 14.4290   1
  -4   2  13 236.665 15.4140   3
  -4   2  13 216.018 16.7259   2
   3  -2 -13 68.9494 8.93025   1
   3  -2 -13 44.5633 10.2099   4
  -3   2  13 77.8927 9.50419   3
  -3   2  13 62.2963 10.6227   2
   2  -2 -13 434.626 22.0620   4
   2  -2 -13 421.420 17.5053   1
  -2   2  13 445.832 22.0588   2
  -2   2  13 433.615 17.9177   3
   1  -2 -13 13.4414 5.22913   1
   1  -2 -13 24.4405 8.63774   4
  -1   2  13 30.5852 8.34287   2
  -1   2  13 28.4475 6.37505   3
   0  -2 -13 2.25858 6.26043   4
   0  -2 -13 -0.9414 4.27988   1
   0   2  13 -0.7526 3.84046   3
   0   2  13 9.26248 6.55365   2
  -1  -2 -13 230.129 12.0639   1
  -1  -2 -13 243.314 9.72264   3
  -1  -2 -13 233.236 16.5431   4
   1   2  13 249.545 16.5513   2
  -2  -2 -13 452.061 13.8415   3
  -2  -2 -13 440.166 21.0008   4
   2   2  13 434.171 16.1557   1
   2   2  13 448.284 21.2103   2
  -3  -2 -13 65.3011 10.5888   4
  -3  -2 -13 61.3291 5.68092   3
   3   2  13 56.9348 9.48649   2
   3   2  13 61.3071 7.55153   1
  -4  -2 -13 123.487 7.73385   3
  -4  -2 -13 148.968 13.9963   4
   4   2  13 129.605 9.65283   1
   4   2  13 138.604 12.9058   2
  -5  -2 -13 74.0248 10.2952   4
  -5  -2 -13 84.7882 8.14537   3
   5   2  13 96.8910 10.1866   1
   5   2  13 106.057 11.5771   2
  -6  -2 -13 6.18667 5.64453   4
  -6  -2 -13 4.24608 4.66393   3
   6   2  13 9.44108 5.64218   2
   6   2  13 4.59806 5.10824   1
  -7  -2 -13 87.7891 9.64753   3
  -7  -2 -13 74.4136 10.3485   4
   7   2  13 69.7856 10.1799   1
   7   2  13 71.3128 9.13472   2
  -8  -2 -13 150.260 11.8254   3
  -8  -2 -13 125.012 13.2996   4
   8   2  13 140.219 14.2309   1
  -9  -2 -13 2.08971 5.50711   4
  -9  -2 -13 -1.3247 5.61802   3
   9   2  13 3.77964 6.21802   1
 -10  -2 -13 -2.1182 5.09930   4
 -10  -2 -13 0.14337 6.33573   3
  10   2  13 0.62204 6.86728   1
 -11  -2 -13 134.818 15.2058   3
 -11  -2 -13 87.2093 12.3950   4
  11   2  13 120.336 15.5387   1
   6  -3 -13 -5.5074 6.78014   4
  -6   3  13 5.63086 7.44742   2
   5  -3 -13 1.87526 7.91529   4
   5  -3 -13 6.36296 7.12862   1
  -5   3  13 18.0869 8.26994   2
   4  -3 -13 103.561 13.7058   4
   4  -3 -13 145.377 13.9362   1
  -4   3  13 111.059 13.6575   2
   3  -3 -13 183.940 16.0063   4
   3  -3 -13 165.355 13.6333   1
  -3   3  13 159.253 15.5260   2
   2  -3 -13 214.911 13.7844   1
   2  -3 -13 207.492 16.4100   4
  -2   3  13 214.161 16.0362   2
   1  -3 -13 2.05980 5.18786   1
   1  -3 -13 -5.0914 5.97255   4
  -1   3  13 9.18577 6.52889   2
   0  -3 -13 960.364 28.7847   1
   0  -3 -13 972.768 32.7589   4
   0   3  13 966.866 34.8411   2
  -1  -3 -13 29.1841 8.30567   4
  -1  -3 -13 42.8713 7.51544   1
   1   3  13 37.2478 8.50632   2
  -2  -3 -13 868.972 27.2987   1
  -2  -3 -13 949.073 30.9045   4
   2   3  13 915.884 32.7751   2
  -3  -3 -13 125.897 12.6265   4
   3   3  13 148.413 13.1776   2
   3   3  13 138.687 9.98904   1
  -4  -3 -13 285.702 16.1069   4
   4   3  13 263.943 16.3444   2
   4   3  13 278.221 13.9267   1
  -5  -3 -13 155.460 8.56055   3
  -5  -3 -13 140.967 13.7807   4
   5   3  13 164.029 13.1056   2
   5   3  13 150.495 11.8488   1
  -6  -3 -13 79.2551 7.50115   3
  -6  -3 -13 64.9476 9.92186   4
   6   3  13 83.6616 10.1396   2
   6   3  13 79.6334 10.1646   1
  -7  -3 -13 124.518 9.69803   3
  -7  -3 -13 119.031 12.8882   4
   7   3  13 128.310 12.0015   2
   7   3  13 105.989 11.7901   1
  -8  -3 -13 79.6711 9.21549   3
  -8  -3 -13 61.3589 9.80466   4
   8   3  13 74.9357 10.8275   1
  -9  -3 -13 537.797 23.8820   4
  -9  -3 -13 510.691 21.4056   3
   9   3  13 539.803 24.4478   1
 -10  -3 -13 244.459 17.1898   4
 -10  -3 -13 239.090 15.9205   3
  10   3  13 245.768 18.3643   1
 -11  -3 -13 10.1675 6.98354   4
 -11  -3 -13 6.09434 6.94493   3
  11   3  13 11.0207 8.16891   1
   6  -4 -13 17.9375 11.3777   4
   6  -4 -13 24.8375 15.0854   1
  -6   4  13 26.8453 9.15128   2
   5  -4 -13 7.16606 7.99855   1
   5  -4 -13 4.68220 7.56297   4
  -5   4  13 5.36864 7.25676   2
   4  -4 -13 8.27533 7.59203   1
   4  -4 -13 8.06280 7.75358   4
  -4   4  13 4.06970 6.54516   2
   3  -4 -13 1.00489 6.55275   1
   3  -4 -13 2.04920 7.09890   4
  -3   4  13 15.9779 7.81173   2
   2  -4 -13 36.2786 8.57575   1
   2  -4 -13 23.6524 7.99006   4
  -2   4  13 26.3934 8.34930   2
   1  -4 -13 76.2675 11.2528   4
   1  -4 -13 108.210 11.9857   1
  -1   4  13 105.446 12.5080   2
   0  -4 -13 14.1141 6.38267   1
   0  -4 -13 18.6468 7.15448   4
   0   4  13 19.2303 7.19059   2
  -1  -4 -13 159.292 12.7091   1
  -1  -4 -13 163.945 14.1608   4
   1   4  13 161.195 13.9149   2
  -2  -4 -13 223.840 15.0850   4
  -2  -4 -13 226.718 14.6071   1
   2   4  13 221.340 15.4270   2
  -3  -4 -13 25.9770 7.55635   4
  -3  -4 -13 26.4893 7.14507   1
   3   4  13 29.1330 7.90764   2
  -4  -4 -13 320.321 17.2761   4
   4   4  13 294.214 14.9199   1
   4   4  13 321.261 17.7187   2
  -5  -4 -13 159.436 13.4536   4
   5   4  13 159.131 12.0497   1
   5   4  13 169.004 13.4157   2
  -6  -4 -13 2.61489 6.23317   4
   6   4  13 36.9490 7.87310   1
   6   4  13 12.0446 6.47788   2
  -7  -4 -13 4.09508 5.89744   4
   7   4  13 4.13788 5.57531   2
   7   4  13 0.26354 4.89842   1
  -8  -4 -13 -1.8485 6.20693   3
  -8  -4 -13 6.91966 6.39229   4
   8   4  13 3.67896 5.37915   1
  -9  -4 -13 -0.3622 5.28633   3
  -9  -4 -13 1.28473 6.03044   4
   9   4  13 4.67757 6.59834   1
 -10  -4 -13 -2.1099 5.49675   3
 -10  -4 -13 -0.9757 6.04957   4
  10   4  13 21.6316 8.33927   1
 -11  -4 -13 25.2427 8.21881   3
 -11  -4 -13 28.7568 8.70224   4
  11   4  13 50.4651 11.9586   1
 -12  -4 -13 27.7286 8.86293   4
  12   4  13 36.4132 11.0342   1
   5  -5 -13 148.786 17.2425   1
  -5   5  13 159.385 16.8374   2
   4  -5 -13 62.9510 10.5046   4
   4  -5 -13 64.3318 12.3517   1
  -4   5  13 52.8460 10.6335   2
   3  -5 -13 127.734 15.3099   1
   3  -5 -13 114.635 13.1252   4
  -3   5  13 108.301 13.7127   2
   2  -5 -13 52.0111 9.66406   4
   2  -5 -13 43.9685 9.65322   1
  -2   5  13 33.4885 8.64328   2
   1  -5 -13 305.728 17.3806   4
   1  -5 -13 298.861 17.4894   1
  -1   5  13 260.463 17.5615   2
   0  -5 -13 -0.5689 5.81317   1
   0  -5 -13 3.63590 6.25288   4
   0   5  13 10.2871 6.12363   2
  -1  -5 -13 234.988 15.8358   1
  -1  -5 -13 263.381 16.0515   4
   1   5  13 239.336 16.4829   2
  -2  -5 -13 648.272 24.6283   4
  -2  -5 -13 665.144 25.1022   1
   2   5  13 699.940 27.8598   2
  -3  -5 -13 200.981 14.3659   1
  -3  -5 -13 215.604 14.3922   4
   3   5  13 197.275 14.5912   2
  -4  -5 -13 220.404 15.3346   1
  -4  -5 -13 214.590 14.6122   4
   4   5  13 232.312 15.5618   2
  -5  -5 -13 4.81548 6.00122   4
   5   5  13 1.76638 4.67836   1
   5   5  13 3.31150 5.72141   2
  -6  -5 -13 64.6164 10.3842   4
   6   5  13 71.5885 10.2919   1
   6   5  13 61.5987 9.43560   2
  -7  -5 -13 396.185 20.3202   4
   7   5  13 385.028 19.6927   1
   7   5  13 415.881 18.9680   2
  -8  -5 -13 -7.4568 5.22595   4
   8   5  13 1.90140 5.10508   1
  -9  -5 -13 165.962 16.2291   4
   9   5  13 148.033 15.5778   1
 -10  -5 -13 14.7290 7.63984   4
  10   5  13 4.87979 6.79591   1
 -11  -5 -13 321.216 20.5010   4
  11   5  13 315.476 21.2373   1
 -12  -5 -13 71.1506 12.2425   4
  12   5  13 101.592 14.8712   1
   4  -6 -13 14.0653 9.37216   1
  -4   6  13 5.85156 7.02525   2
   3  -6 -13 29.3332 10.5099   1
   3  -6 -13 35.0349 8.42035   4
  -3   6  13 23.7570 8.60185   2
   2  -6 -13 14.4888 9.00945   1
   2  -6 -13 14.9781 7.00497   4
  -2   6  13 17.6309 7.86977   2
   1  -6 -13 58.4714 11.0905   1
   1  -6 -13 53.2425 8.90400   4
  -1   6  13 60.2058 10.5858   2
   0  -6 -13 39.0629 9.61695   1
   0  -6 -13 49.0164 8.91764   4
   0   6  13 48.9960 9.96623   2
  -1  -6 -13 30.7226 8.50464   1
  -1  -6 -13 28.6178 7.41116   4
   1   6  13 24.5859 8.03527   2
  -2  -6 -13 226.817 14.8666   4
  -2  -6 -13 229.221 15.9514   1
   2   6  13 225.509 16.4015   2
  -3  -6 -13 151.586 13.5712   1
  -3  -6 -13 185.033 13.8622   4
   3   6  13 162.309 13.6470   2
  -4  -6 -13 5.13978 6.41827   1
  -4  -6 -13 7.68110 5.96082   4
   4   6  13 2.12362 5.30637   2
  -5  -6 -13 129.810 13.2405   4
   5   6  13 116.733 12.6755   1
   5   6  13 151.266 12.8911   2
  -6  -6 -13 -2.0054 5.27953   4
   6   6  13 3.34865 5.17529   1
   6   6  13 3.05362 5.57317   2
  -7  -6 -13 73.9645 11.1374   4
   7   6  13 79.9820 11.0452   1
   7   6  13 97.0010 10.8239   2
  -8  -6 -13 11.8689 7.05083   4
   8   6  13 15.0714 6.46645   1
  -9  -6 -13 33.5163 9.06045   4
   9   6  13 29.4144 8.11325   1
 -10  -6 -13 15.2423 7.90652   4
  10   6  13 3.55732 6.77310   1
 -11  -6 -13 -1.2088 6.65939   4
  11   6  13 5.14017 6.95351   1
 -12  -6 -13 -1.0678 6.62719   4
  12   6  13 10.1997 8.07513   1
   3  -7 -13 54.9624 13.5906   1
  -3   7  13 64.5233 11.8333   2
   2  -7 -13 29.8237 10.4728   1
   2  -7 -13 21.7043 7.40026   4
  -2   7  13 15.0313 8.07667   2
   1  -7 -13 140.826 17.0000   1
   1  -7 -13 169.552 13.0659   4
  -1   7  13 137.737 15.1875   2
   0  -7 -13 2.52292 8.07956   1
   0  -7 -13 10.4210 5.97276   4
   0   7  13 5.83184 6.08874   2
  -1  -7 -13 68.6685 11.3794   1
  -1  -7 -13 43.8164 8.29414   4
   1   7  13 45.7519 9.50753   2
  -2  -7 -13 2.02292 6.45196   1
  -2  -7 -13 -9.7585 4.83514   4
   2   7  13 6.38428 5.70166   2
  -3  -7 -13 11.9499 6.36257   4
  -3  -7 -13 11.1955 7.34396   1
   3   7  13 9.78909 6.45833   2
  -4  -7 -13 349.421 20.5899   1
  -4  -7 -13 401.418 19.2784   4
   4   7  13 357.195 19.7639   2
  -5  -7 -13 443.036 21.4457   4
  -5  -7 -13 478.722 23.2035   1
   5   7  13 483.245 22.2808   2
  -6  -7 -13 645.117 26.1161   4
   6   7  13 676.985 26.8419   1
   6   7  13 682.528 26.5078   2
  -7  -7 -13 56.3161 10.1491   4
   7   7  13 53.9625 9.29089   2
   7   7  13 54.8437 9.70074   1
  -8  -7 -13 30.7854 8.60755   4
   8   7  13 8.11401 6.53866   1
  -9  -7 -13 19.9619 7.82086   4
   9   7  13 51.7523 10.3920   1
 -10  -7 -13 139.244 15.6138   4
  10   7  13 126.006 15.1497   1
 -11  -7 -13 37.9287 9.99166   4
  11   7  13 30.8363 9.59721   1
 -12  -7 -13 10.4766 8.14676   4
  12   7  13 18.7764 9.38130   1
   2  -8 -13 197.788 21.2555   1
  -2   8  13 207.482 17.5735   2
   1  -8 -13 53.3340 12.9638   1
  -1   8  13 68.5335 11.9053   2
   0  -8 -13 30.5145 7.51845   4
   0  -8 -13 32.8987 11.4078   1
   0   8  13 32.7462 9.35123   2
  -1  -8 -13 48.6604 11.7462   1
  -1  -8 -13 49.7600 8.49300   4
   1   8  13 37.7407 9.07734   2
  -2  -8 -13 8.70391 7.76524   1
  -2  -8 -13 2.42993 5.44950   4
   2   8  13 23.9972 7.59759   2
  -3  -8 -13 25.0045 8.60498   1
  -3  -8 -13 35.4979 7.91598   4
   3   8  13 18.8217 7.67717   2
  -4  -8 -13 89.8462 11.1481   4
  -4  -8 -13 96.8998 13.1540   1
   4   8  13 102.068 12.4383   2
  -5  -8 -13 17.8935 8.42027   1
  -5  -8 -13 4.69057 6.11111   4
   5   8  13 15.5260 6.70311   2
  -6  -8 -13 1.49476 5.61919   4
   6   8  13 -4.6364 4.91747   2
   6   8  13 5.78282 5.88702   1
  -7  -8 -13 5.66112 7.06395   4
   7   8  13 16.7507 7.02981   1
   7   8  13 15.7159 6.71675   2
  -8  -8 -13 37.9409 9.14995   4
   8   8  13 41.0272 9.45388   1
  -9  -8 -13 118.475 14.6435   4
   9   8  13 121.457 14.3506   1
 -10  -8 -13 126.974 14.9152   4
  10   8  13 134.582 16.3592   1
 -11  -8 -13 19.3674 9.08635   4
  11   8  13 41.5704 11.0050   1
   1  -9 -13 86.0701 15.3664   1
  -1   9  13 89.8946 14.2020   2
   0  -9 -13 72.6045 14.6975   1
   0   9  13 91.0592 13.4910   2
  -1  -9 -13 9.83620 5.77461   4
  -1  -9 -13 1.21033 8.70992   1
   1   9  13 4.61233 6.88596   2
  -2  -9 -13 153.071 12.8799   4
  -2  -9 -13 136.622 16.6846   1
   2   9  13 171.126 15.3344   2
  -3  -9 -13 87.9538 14.0975   1
  -3  -9 -13 121.929 12.3553   4
   3   9  13 76.0317 12.2098   2
  -4  -9 -13 106.748 11.9309   4
  -4  -9 -13 82.0589 13.2473   1
   4   9  13 85.2024 12.0949   2
  -5  -9 -13 44.6406 9.07995   4
  -5  -9 -13 33.9874 9.69856   1
   5   9  13 57.4734 9.93029   2
  -6  -9 -13 12.4208 8.07633   1
  -6  -9 -13 20.4950 7.71421   4
   6   9  13 24.9617 7.44654   2
  -7  -9 -13 200.614 15.8427   4
   7   9  13 243.617 17.3883   1
   7   9  13 227.524 15.6401   2
  -8  -9 -13 193.668 16.3328   4
   8   9  13 198.054 16.1073   1
  -9  -9 -13 330.867 20.8406   4
   9   9  13 284.285 19.5906   1
 -10  -9 -13 38.8348 10.2504   4
  10   9  13 37.6597 9.44252   1
 -11  -9 -13 113.526 16.1032   4
  11   9  13 88.6860 13.6500   1
   0 -10 -13 45.1425 13.5130   1
   0  10  13 60.2068 11.8094   2
  -1 -10 -13 6.21064 10.1258   1
   1  10  13 -0.2280 7.25014   2
  -2 -10 -13 25.2385 11.0689   1
   2  10  13 33.1495 9.77369   2
  -3 -10 -13 24.2879 10.9463   1
  -3 -10 -13 10.0384 6.05152   4
   3  10  13 5.36677 6.99852   2
  -4 -10 -13 -0.7757 5.32754   4
  -4 -10 -13 12.1870 8.68198   1
   4  10  13 0.04712 5.87135   2
  -5 -10 -13 -1.1730 5.94787   4
  -5 -10 -13 -1.7544 7.66677   1
   5  10  13 10.2439 6.39421   2
  -6 -10 -13 173.707 18.6706   1
  -6 -10 -13 193.805 15.3436   4
   6  10  13 172.469 15.1988   2
  -7 -10 -13 10.3497 7.64047   4
   7  10  13 25.2833 8.32928   1
   7  10  13 20.0702 7.14581   2
  -8 -10 -13 -4.6997 6.21210   4
   8  10  13 6.71037 6.51047   1
  -9 -10 -13 50.3815 11.0543   4
   9  10  13 43.0578 10.3544   1
 -10 -10 -13 5.81829 7.78777   4
  10  10  13 8.36227 7.17469   1
  -2 -11 -13 10.1071 10.7916   1
   2  11  13 45.3953 10.6062   2
  -3 -11 -13 23.2225 12.0422   1
   3  11  13 20.5408 9.01222   2
  -4 -11 -13 114.010 16.9380   1
  -4 -11 -13 134.694 13.2588   4
   4  11  13 142.623 16.2843   2
  -5 -11 -13 23.8075 7.88174   4
  -5 -11 -13 17.4728 10.4854   1
   5  11  13 49.7433 10.1250   2
  -6 -11 -13 106.555 15.8300   1
   6  11  13 135.780 15.0843   2
  -7 -11 -13 1.21210 7.20431   4
   7  11  13 2.86027 6.71760   1
   7  11  13 13.1822 7.20560   2
  -8 -11 -13 14.5713 8.20791   4
   8  11  13 8.94589 7.06064   1
  -9 -11 -13 106.065 14.4193   4
   9  11  13 94.8112 14.0420   1
  -5 -12 -13 30.9689 12.4940   1
   5  12  13 23.3750 8.92334   2
  -6 -12 -13 25.5075 8.80560   4
  -6 -12 -13 44.1562 12.6811   1
   6  12  13 47.7448 10.1196   2
  -7 -12 -13 30.1922 8.78852   4
  -7 -12 -13 34.6325 11.5201   1
   7  12  13 22.9223 8.24797   2
   3   9 -14 81.8572 12.5968   3
   2   9 -14 44.7957 10.6669   3
  -2  -9  14 45.6728 12.1067   2
   1   9 -14 16.5190 8.53452   3
  -1  -9  14 22.7114 10.7310   2
   5   8 -14 158.347 17.3847   4
  -5  -8  14 139.836 17.2607   2
  -5  -8  14 139.346 18.2369   3
   4   8 -14 -3.6183 6.10318   3
   4   8 -14 4.79802 7.80851   4
  -4  -8  14 9.42286 9.02122   2
   3   8 -14 85.3783 12.1077   3
   3   8 -14 114.671 14.5181   4
  -3  -8  14 111.772 15.8865   2
   2   8 -14 14.5745 7.45698   3
   2   8 -14 -5.4039 7.01340   4
  -2  -8  14 17.7986 9.40538   2
   1   8 -14 79.8165 12.4596   3
  -1  -8  14 53.9360 12.9632   2
   0   8 -14 162.387 16.8418   3
   0  -8  14 134.914 18.0278   2
  -1   8 -14 22.5164 8.69105   3
   1  -8  14 27.1497 10.6057   2
  -2   8 -14 102.919 14.6193   3
   2  -8  14 112.372 16.7288   2
   6   7 -14 16.6604 9.28315   4
  -6  -7  14 10.4492 8.35767   2
  -6  -7  14 2.19549 9.35177   3
   5   7 -14 29.2375 9.34855   4
  -5  -7  14 26.9141 9.84215   2
  -5  -7  14 11.6336 9.61515   3
   4   7 -14 2.83734 6.90875   4
  -4  -7  14 3.80057 7.84141   2
  -4  -7  14 -6.6563 8.34255   3
   3   7 -14 75.5321 12.4818   4
   3   7 -14 47.2102 10.1182   3
  -3  -7  14 70.5813 12.5332   2
   2   7 -14 35.1948 8.77987   3
   2   7 -14 61.1245 11.5393   4
  -2  -7  14 43.1268 10.7939   2
   1   7 -14 20.8522 7.92782   3
   1   7 -14 52.4971 10.3424   4
  -1  -7  14 41.3874 11.1477   2
   0   7 -14 175.827 15.7563   3
   0  -7  14 179.446 19.3208   2
  -1   7 -14 33.7002 8.91926   3
   1  -7  14 27.8031 10.6301   2
  -2   7 -14 4.43428 7.09452   3
   2  -7  14 11.1391 8.41765   2
  -3   7 -14 62.7920 12.1616   3
   3  -7  14 45.4618 11.4862   2
  -4   7 -14 11.4197 8.05728   3
   4  -7  14 1.08986 7.49990   2
   7   6 -14 3.37502 8.97241   4
  -7  -6  14 3.76817 9.31315   3
  -7  -6  14 2.71215 7.10644   2
   6   6 -14 83.9394 14.0576   4
  -6  -6  14 84.8353 15.0683   3
  -6  -6  14 100.941 14.2012   2
   5   6 -14 235.110 19.3081   4
  -5  -6  14 209.285 17.9204   2
  -5  -6  14 163.023 18.3170   3
   4   6 -14 14.0984 9.01595   4
  -4  -6  14 13.7768 9.33013   3
  -4  -6  14 17.7641 8.92520   2
   3   6 -14 273.284 19.4084   4
   3   6 -14 254.114 16.8040   3
  -3  -6  14 273.790 20.0134   2
   2   6 -14 -1.0285 7.25403   4
   2   6 -14 6.73977 6.17446   3
  -2  -6  14 6.70834 8.00977   2
   1   6 -14 108.191 13.8243   4
   1   6 -14 98.5137 13.0004   3
  -1  -6  14 88.1728 13.5479   2
   0   6 -14 0.53131 6.81990   4
   0   6 -14 2.67878 6.52090   3
   0  -6  14 5.80090 7.76434   2
  -1   6 -14 25.8350 7.81942   4
  -1   6 -14 27.2667 8.66020   3
   1  -6  14 25.4195 9.42767   2
  -2   6 -14 265.581 18.2840   3
   2  -6  14 296.878 20.8978   2
  -3   6 -14 87.4253 12.7405   3
   3  -6  14 80.6445 13.4616   2
  -4   6 -14 145.820 16.2939   3
   4  -6  14 145.789 17.0190   2
  -5   6 -14 16.3346 8.80195   3
   5  -6  14 5.22474 8.37714   2
   7   5 -14 145.680 17.3387   4
  -7  -5  14 135.614 17.5187   3
  -7  -5  14 158.304 16.1608   2
   6   5 -14 7.28281 8.07534   4
  -6  -5  14 7.05129 8.82586   3
  -6  -5  14 24.7113 8.58349   2
   5   5 -14 -5.1554 6.77714   4
  -5  -5  14 3.92244 8.18640   3
  -5  -5  14 8.90246 7.12783   2
   4   5 -14 132.248 16.4298   4
  -4  -5  14 139.448 15.4401   2
  -4  -5  14 139.169 16.4431   3
   3   5 -14 126.128 15.5227   4
  -3  -5  14 93.1520 12.7151   2
  -3  -5  14 113.398 15.3504   3
   2   5 -14 68.1925 11.9646   4
   2   5 -14 62.3519 10.1131   3
  -2  -5  14 38.3256 9.76168   2
   1   5 -14 23.4969 7.53675   3
   1   5 -14 22.3448 9.11330   4
  -1  -5  14 12.3594 7.97788   2
   0   5 -14 27.2507 7.90275   3
   0   5 -14 27.6351 8.81637   4
   0  -5  14 29.5052 9.57482   2
  -1   5 -14 9.13148 5.76628   3
  -1   5 -14 6.41703 6.92390   4
   1  -5  14 1.47791 6.61001   2
  -2   5 -14 103.519 12.9760   3
  -2   5 -14 87.7649 11.4464   4
   2  -5  14 101.388 14.5200   2
  -3   5 -14 -2.5621 5.81818   3
   3  -5  14 11.8784 7.54962   2
  -4   5 -14 10.5329 7.04626   3
   4  -5  14 -2.0777 7.33218   2
  -5   5 -14 3.41781 7.29772   3
   5  -5  14 14.8042 8.46100   2
  -6   5 -14 32.2208 10.0145   3
   6  -5  14 62.8707 11.7915   2
   6  -5  14 42.1135 14.6643   1
   7   4 -14 7.74733 8.17892   4
  -7  -4  14 -10.202 7.82277   3
  -7  -4  14 -3.9027 6.00645   2
   6   4 -14 132.182 16.7436   4
  -6  -4  14 124.803 14.8961   2
  -6  -4  14 111.136 15.2995   3
   5   4 -14 0.02213 7.49921   4
  -5  -4  14 3.11620 6.83241   2
  -5  -4  14 -0.5020 7.88051   3
   4   4 -14 201.250 19.6206   4
  -4  -4  14 243.269 19.2374   3
  -4  -4  14 175.199 15.8601   2
   3   4 -14 10.6477 8.17614   4
  -3  -4  14 4.49362 7.82008   3
  -3  -4  14 6.99294 7.51602   2
   2   4 -14 70.6498 12.1951   4
  -2  -4  14 63.6993 12.2349   3
  -2  -4  14 71.1068 11.6927   2
   1   4 -14 255.721 18.7331   4
   1   4 -14 264.855 16.5731   3
  -1  -4  14 212.112 16.8457   2
   0   4 -14 663.996 26.2922   3
   0   4 -14 566.516 25.8604   4
   0  -4  14 672.966 29.1531   2
  -1   4 -14 156.370 13.3716   3
  -1   4 -14 169.049 15.6416   4
   1  -4  14 160.925 15.9138   2
  -2   4 -14 43.4046 8.91230   4
  -2   4 -14 31.8806 7.88965   3
   2  -4  14 31.4816 9.40183   2
  -3   4 -14 21.0049 7.62993   3
  -3   4 -14 28.5988 7.78153   4
   3  -4  14 21.3257 8.66664   2
  -4   4 -14 76.7623 12.0417   3
   4  -4  14 87.9165 12.6270   2
  -5   4 -14 127.941 15.4087   3
   5  -4  14 116.342 12.8470   1
   5  -4  14 89.1109 12.9524   2
  -6   4 -14 137.515 15.6337   3
   6  -4  14 106.548 13.3999   1
   6  -4  14 150.168 16.1690   2
  -7   4 -14 32.4830 10.3603   3
   7  -4  14 52.3299 11.8537   1
   7  -4  14 57.2383 10.7945   2
   7   3 -14 119.337 16.2005   4
  -7  -3  14 121.936 16.6367   3
  -7  -3  14 117.670 14.5853   2
   6   3 -14 66.0766 12.6536   4
  -6  -3  14 73.1698 12.1756   2
  -6  -3  14 86.8196 13.8617   3
   5   3 -14 54.3092 11.5949   4
  -5  -3  14 58.7052 11.9963   3
  -5  -3  14 63.4710 11.3383   2
   4   3 -14 17.2258 9.15807   4
  -4  -3  14 12.3605 8.23246   3
  -4  -3  14 3.70098 6.92245   2
   3   3 -14 57.4671 11.6192   4
  -3  -3  14 57.3650 10.7185   2
  -3  -3  14 54.1902 11.1515   3
   2   3 -14 50.8403 11.5153   4
  -2  -3  14 54.3176 10.6017   3
  -2  -3  14 57.7477 10.5578   2
   1   3 -14 41.6764 8.24213   3
   1   3 -14 23.8891 9.21199   4
  -1  -3  14 35.7653 8.73934   2
   0   3 -14 108.945 11.9837   3
   0   3 -14 122.076 14.8105   4
   0  -3  14 120.357 14.2915   2
  -1   3 -14 53.0177 8.97085   3
  -1   3 -14 45.3831 9.67997   4
   1  -3  14 75.2042 11.5763   2
  -2   3 -14 5.89099 6.57507   4
  -2   3 -14 7.42217 5.58735   3
   2  -3  14 -3.1380 5.67094   2
  -3   3 -14 40.2481 8.60707   4
  -3   3 -14 51.4615 9.44389   3
   3  -3  14 49.8885 9.76856   2
  -4   3 -14 206.568 15.6384   3
  -4   3 -14 234.825 14.6831   4
   4  -3  14 206.045 16.4099   2
   4  -3  14 230.690 13.8181   1
  -5   3 -14 29.8351 8.90478   3
  -5   3 -14 39.4359 7.59893   4
   5  -3  14 40.2951 9.00100   1
   5  -3  14 34.8933 9.08780   2
  -6   3 -14 50.6586 10.2818   3
   6  -3  14 47.5392 9.87775   1
   6  -3  14 21.8771 8.05511   2
  -7   3 -14 4.92871 7.54290   3
   7  -3  14 2.76202 7.10070   1
   7  -3  14 -2.3590 6.10858   2
  -8   3 -14 22.8548 10.1485   3
   8  -3  14 38.6835 11.0776   1
   7   2 -14 264.544 20.7242   4
  -7  -2  14 284.913 20.2178   3
  -7  -2  14 231.590 17.7788   2
   6   2 -14 59.6848 13.2273   4
  -6  -2  14 60.3439 11.8189   3
  -6  -2  14 49.0832 10.3791   2
   5   2 -14 84.2007 13.7005   4
  -5  -2  14 78.5271 12.8043   3
  -5  -2  14 78.3365 12.0579   2
   4   2 -14 -0.2252 7.43563   4
  -4  -2  14 -0.2513 6.59840   2
  -4  -2  14 4.93705 7.39420   3
   3   2 -14 262.880 20.3826   4
  -3  -2  14 251.435 17.4712   3
  -3  -2  14 337.907 20.1960   2
   2   2 -14 29.9547 10.2416   4
  -2  -2  14 24.2151 8.09239   3
  -2  -2  14 21.1624 8.02415   2
   1   2 -14 221.084 18.7526   4
  -1  -2  14 235.587 16.7863   3
  -1  -2  14 210.590 16.7026   2
   0   2 -14 7.18902 4.83841   3
   0   2 -14 8.06267 7.66601   4
   0  -2  14 2.36734 6.57990   2
  -1   2 -14 23.0889 8.20066   4
  -1   2 -14 28.5783 6.57025   3
   1  -2  14 23.0025 8.18935   2
  -2   2 -14 302.802 15.6302   3
  -2   2 -14 264.531 17.1082   4
   2  -2  14 249.645 17.4106   2
  -3   2 -14 466.944 20.8617   3
  -3   2 -14 461.338 21.3269   4
   3  -2  14 478.522 23.6347   2
   3  -2  14 490.706 17.4990   1
  -4   2 -14 443.590 19.9668   4
  -4   2 -14 449.857 20.5914   3
   4  -2  14 429.146 22.0497   2
   4  -2  14 438.640 18.1443   1
  -5   2 -14 57.1745 9.04494   4
  -5   2 -14 85.3118 11.5362   3
   5  -2  14 84.3824 11.8274   2
   5  -2  14 70.9262 9.65871   1
  -6   2 -14 6.75386 6.83506   3
  -6   2 -14 5.52479 5.27402   4
   6  -2  14 5.76765 6.41862   2
   6  -2  14 22.4885 7.46186   1
  -7   2 -14 185.616 16.0264   3
   7  -2  14 174.343 15.4999   2
   7  -2  14 210.986 16.7371   1
  -8   2 -14 6.25365 8.27933   3
   8  -2  14 -1.8913 7.35860   1
  -9   2 -14 254.038 21.1153   3
   9  -2  14 240.130 21.6468   1
   7   1 -14 15.2464 9.42984   4
  -7  -1  14 13.5553 9.30497   3
  -7  -1  14 5.14131 7.95248   2
   6   1 -14 23.6487 9.88256   4
  -6  -1  14 32.3778 9.79514   3
  -6  -1  14 32.4223 10.0551   2
   5   1 -14 212.451 20.7153   4
  -5  -1  14 198.818 15.9184   2
  -5  -1  14 184.092 15.6975   3
   4   1 -14 7.34870 7.82133   4
  -4  -1  14 10.0852 7.12137   3
  -4  -1  14 3.70365 6.67717   2
   3   1 -14 17.7297 9.15716   4
  -3  -1  14 19.3580 7.79949   2
  -3  -1  14 21.8924 7.66473   3
   2   1 -14 68.5031 12.7610   4
  -2  -1  14 55.1530 9.78751   3
  -2  -1  14 48.5691 10.1646   2
   1   1 -14 73.1280 12.4698   4
  -1  -1  14 69.2994 10.3287   3
  -1  -1  14 66.5773 11.0948   2
   0   1 -14 3.74558 7.76545   4
   0   1 -14 1.39763 4.11581   3
   0  -1  14 0.69059 5.94446   2
  -1   1 -14 122.243 14.4060   4
  -1   1 -14 105.396 9.29911   3
   1  -1  14 92.2138 11.8642   2
  -2   1 -14 -2.2557 4.07131   3
  -2   1 -14 4.80055 6.48671   4
   2  -1  14 6.11267 3.61441   1
   2  -1  14 -7.0650 5.89371   2
  -3   1 -14 118.385 13.1918   4
  -3   1 -14 119.013 10.5671   3
   3  -1  14 120.515 9.09332   1
   3  -1  14 100.853 12.7432   2
  -4   1 -14 123.568 12.8544   4
  -4   1 -14 164.761 12.4064   3
   4  -1  14 158.433 11.4203   1
   4  -1  14 144.770 14.6231   2
  -5   1 -14 102.847 11.0036   4
  -5   1 -14 77.5676 10.8062   3
   5  -1  14 91.9572 10.5558   1
   5  -1  14 88.5780 11.4509   2
  -6   1 -14 128.459 12.5446   4
  -6   1 -14 102.159 12.1981   3
   6  -1  14 112.890 12.6889   2
   6  -1  14 112.520 12.1982   1
  -7   1 -14 33.4967 9.19603   3
  -7   1 -14 25.9693 6.72070   4
   7  -1  14 18.6968 6.91515   2
   7  -1  14 19.1331 7.70794   1
  -8   1 -14 -1.6697 4.71173   4
  -8   1 -14 -3.7158 7.01798   3
   8  -1  14 6.99745 7.79922   1
  -9   1 -14 0.98404 7.80504   3
   9  -1  14 8.19133 8.68946   1
 -10   1 -14 3.95059 8.91287   3
  10  -1  14 15.2470 9.84861   1
   7   0 -14 32.7553 10.9209   4
  -7   0  14 33.4169 10.5446   3
  -7   0  14 50.6259 11.0648   2
   6   0 -14 33.1501 10.4928   4
  -6   0  14 12.6163 8.16359   2
  -6   0  14 30.4515 9.51038   3
   5   0 -14 39.6925 10.8738   4
  -5   0  14 46.1653 9.86358   3
  -5   0  14 31.1472 9.50220   2
   4   0 -14 467.995 24.9591   4
  -4   0  14 445.152 21.4975   3
  -4   0  14 446.464 23.1965   2
   3   0 -14 435.931 24.1053   4
  -3   0  14 481.200 24.2724   2
  -3   0  14 458.454 21.3527   3
   2   0 -14 -1.5165 7.52505   4
  -2   0  14 5.86379 6.12321   3
  -2   0  14 -0.9594 6.74319   2
   1   0 -14 107.875 14.2758   4
  -1   0  14 85.2265 12.0440   2
  -1   0  14 85.7368 10.5798   3
   0   0 -14 36.0006 6.19145   3
   0   0 -14 39.3184 10.0375   4
   0   0  14 40.9051 9.27122   2
  -1   0 -14 406.991 16.1424   3
  -1   0 -14 384.405 21.0245   4
   1   0  14 410.732 13.6750   1
   1   0  14 384.876 20.7675   2
  -2   0 -14 101.019 8.78672   3
  -2   0 -14 81.2376 11.5143   4
   2   0  14 115.955 8.06238   1
   2   0  14 81.1887 11.3196   2
  -3   0 -14 17.7469 7.89693   4
  -3   0 -14 38.0542 6.55398   3
   3   0  14 36.4761 8.72688   2
   3   0  14 51.3429 7.02389   1
  -4   0 -14 532.102 22.7797   4
  -4   0 -14 577.054 20.7618   3
   4   0  14 535.221 23.9512   2
   4   0  14 502.570 19.3292   1
  -5   0 -14 16.6078 6.77512   4
  -5   0 -14 11.8361 5.52712   3
   5   0  14 16.3489 5.84662   1
   5   0  14 12.0531 6.71176   2
  -6   0 -14 779.328 27.4885   3
  -6   0 -14 781.606 27.1533   4
   6   0  14 771.710 29.4885   2
   6   0  14 761.391 27.1268   1
  -7   0 -14 7.62415 6.58816   3
  -7   0 -14 1.33788 5.29289   4
   7   0  14 5.86300 5.37929   2
   7   0  14 9.94299 6.82469   1
  -8   0 -14 262.262 17.8228   3
  -8   0 -14 277.657 16.2993   4
   8   0  14 279.294 18.4543   1
  -9   0 -14 75.9966 12.5970   3
  -9   0 -14 79.8204 10.7775   4
   9   0  14 105.049 14.2640   1
 -10   0 -14 18.9640 9.59892   3
  10   0  14 44.4144 11.7603   1
   7  -1 -14 -6.0818 8.09406   4
  -7   1  14 5.04566 8.09753   2
   6  -1 -14 6.57226 8.73011   4
  -6   1  14 4.66766 8.23669   2
  -6   1  14 -3.7834 7.29705   3
   5  -1 -14 42.3763 11.2469   4
  -5   1  14 42.4878 10.2225   2
  -5   1  14 34.7612 9.20543   3
   4  -1 -14 9.66587 8.50783   4
  -4   1  14 7.10435 6.64149   3
  -4   1  14 5.27552 7.59796   2
   3  -1 -14 22.3339 8.98949   4
  -3   1  14 10.8056 7.88542   2
  -3   1  14 35.8074 8.24279   3
   2  -1 -14 54.2495 11.4273   4
  -2   1  14 51.2046 10.2727   2
  -2   1  14 72.2350 9.58848   3
   1  -1 -14 69.0002 12.3755   4
   1  -1 -14 85.3873 8.10304   1
  -1   1  14 74.8376 11.3762   2
  -1   1  14 75.6767 9.54852   3
   0  -1 -14 39.1910 9.45534   4
   0   1  14 31.0268 8.84030   2
  -1  -1 -14 7.10793 7.44098   4
  -1  -1 -14 15.8560 4.33836   3
   1   1  14 3.46415 6.90282   2
   1   1  14 11.3665 3.88563   1
  -2  -1 -14 48.9440 6.36875   3
  -2  -1 -14 19.0073 8.14222   4
   2   1  14 40.6626 8.80198   2
   2   1  14 50.0811 6.46263   1
  -3  -1 -14 211.647 10.6816   3
  -3  -1 -14 175.262 15.3602   4
   3   1  14 195.066 14.8598   2
   3   1  14 210.366 11.3147   1
  -4  -1 -14 136.940 9.67224   3
  -4  -1 -14 135.771 13.6493   4
   4   1  14 151.638 10.5239   1
   4   1  14 126.521 13.2742   2
  -5  -1 -14 20.7873 5.37899   3
  -5  -1 -14 5.57296 6.04481   4
   5   1  14 1.14913 5.62495   2
   5   1  14 7.04834 4.87913   1
  -6  -1 -14 217.881 13.3891   3
  -6  -1 -14 223.704 14.7069   4
   6   1  14 204.046 14.5499   2
   6   1  14 203.963 13.9688   1
  -7  -1 -14 23.1646 6.92225   4
  -7  -1 -14 24.5964 7.18453   3
   7   1  14 37.5504 8.22501   1
   7   1  14 22.9078 7.13081   2
  -8  -1 -14 89.2518 10.9347   4
  -8  -1 -14 119.501 12.8904   3
   8   1  14 116.085 13.7651   1
  -9  -1 -14 113.707 12.7906   4
  -9  -1 -14 91.2689 12.1380   3
   9   1  14 132.100 15.0646   1
 -10  -1 -14 31.2643 7.77039   4
 -10  -1 -14 36.8357 9.67973   3
  10   1  14 56.9929 11.5815   1
 -11  -1 -14 59.9199 11.8638   3
  11   1  14 41.8578 12.0973   1
   6  -2 -14 267.207 20.4586   4
  -6   2  14 245.058 18.8815   2
   5  -2 -14 30.4836 10.1694   4
  -5   2  14 36.0726 9.97541   2
   4  -2 -14 10.2030 8.06825   4
  -4   2  14 2.36808 7.16646   2
   3  -2 -14 26.1013 9.46407   4
  -3   2  14 33.1144 9.27010   2
   2  -2 -14 308.533 20.0053   4
   2  -2 -14 297.754 14.1918   1
  -2   2  14 270.776 18.4944   2
   1  -2 -14 497.413 18.2850   1
   1  -2 -14 521.517 24.2121   4
  -1   2  14 477.353 23.8968   2
   0  -2 -14 80.8415 12.1774   4
   0  -2 -14 81.4801 8.51650   1
   0   2  14 96.8034 12.5390   2
  -1  -2 -14 731.323 22.5871   1
  -1  -2 -14 747.908 29.2957   4
   1   2  14 716.713 29.4766   2
  -2  -2 -14 83.8203 11.5392   4
   2   2  14 90.6693 11.8063   2
   2   2  14 92.0265 8.85662   1
  -3  -2 -14 334.443 19.0887   4
  -3  -2 -14 327.281 12.0422   3
   3   2  14 326.289 14.5028   1
   3   2  14 300.076 18.3218   2
  -4  -2 -14 4.62571 6.22459   4
  -4  -2 -14 2.99494 3.53737   3
   4   2  14 1.91999 4.04095   1
   4   2  14 -1.8501 6.08815   2
  -5  -2 -14 4.64886 6.21439   4
  -5  -2 -14 17.8620 4.90934   3
   5   2  14 10.3460 6.40468   2
   5   2  14 0.41708 4.63433   1
  -6  -2 -14 151.268 10.5039   3
  -6  -2 -14 121.516 13.1320   4
   6   2  14 147.508 12.5700   1
   6   2  14 151.370 12.6552   2
  -7  -2 -14 86.9794 11.1884   4
  -7  -2 -14 97.5270 10.1441   3
   7   2  14 113.700 11.6228   2
   7   2  14 111.693 12.5965   1
  -8  -2 -14 253.221 14.8463   3
  -8  -2 -14 263.997 16.5963   4
   8   2  14 260.143 16.8457   1
  -9  -2 -14 57.6301 9.65368   3
  -9  -2 -14 71.1142 10.6203   4
   9   2  14 59.2982 11.0977   1
 -10  -2 -14 57.9385 10.3087   3
 -10  -2 -14 63.1571 10.5962   4
  10   2  14 58.7046 12.0552   1
 -11  -2 -14 74.8265 11.6449   4
 -11  -2 -14 63.5915 12.0082   3
  11   2  14 89.5382 14.0377   1
   6  -3 -14 -4.5601 8.37602   4
  -6   3  14 4.88903 7.88752   2
   5  -3 -14 45.8129 11.3996   4
  -5   3  14 41.0016 10.5529   2
   4  -3 -14 51.0662 10.9289   4
  -4   3  14 61.8724 11.4008   2
   3  -3 -14 37.5562 10.1563   4
   3  -3 -14 36.1313 8.15842   1
  -3   3  14 42.0000 9.69177   2
   2  -3 -14 9.64367 5.79598   1
   2  -3 -14 -5.5521 6.48480   4
  -2   3  14 4.21693 6.90402   2
   1  -3 -14 1.59576 6.57940   4
   1  -3 -14 19.8084 6.36411   1
  -1   3  14 18.8959 7.87576   2
   0  -3 -14 125.530 10.8517   1
   0  -3 -14 119.703 13.8996   4
   0   3  14 116.187 13.1584   2
  -1  -3 -14 13.3373 7.31390   4
  -1  -3 -14 5.75487 5.21730   1
   1   3  14 13.5951 7.31613   2
  -2  -3 -14 16.9304 7.43097   4
  -2  -3 -14 10.8893 5.72307   1
   2   3  14 29.2801 8.31472   2
  -3  -3 -14 54.4654 9.70592   4
   3   3  14 55.5488 10.0490   2
   3   3  14 79.6254 8.84629   1
  -4  -3 -14 16.0762 7.26342   4
   4   3  14 13.8784 7.19220   2
   4   3  14 19.9752 5.62249   1
  -5  -3 -14 413.904 20.4539   4
   5   3  14 422.616 20.7334   2
   5   3  14 438.175 18.9601   1
  -6  -3 -14 474.914 22.1302   4
   6   3  14 528.450 22.4238   2
   6   3  14 534.555 21.5431   1
  -7  -3 -14 11.5724 6.54199   4
  -7  -3 -14 13.0625 7.60762   3
   7   3  14 22.1429 6.63472   2
   7   3  14 -3.8060 4.68069   1
  -8  -3 -14 169.932 11.8682   3
  -8  -3 -14 141.405 14.1818   4
   8   3  14 152.859 13.6264   1
  -9  -3 -14 77.4834 10.0338   3
  -9  -3 -14 72.2598 11.3658   4
   9   3  14 83.8865 12.0233   1
 -10  -3 -14 4.42764 6.25166   4
 -10  -3 -14 -1.3174 5.83580   3
  10   3  14 1.17574 7.06116   1
 -11  -3 -14 -0.6134 6.14522   4
 -11  -3 -14 -5.8088 6.27836   3
  11   3  14 -0.5905 7.15199   1
   5  -4 -14 108.570 14.2030   4
  -5   4  14 116.953 14.8785   2
   4  -4 -14 111.936 14.4137   4
   4  -4 -14 111.861 13.8304   1
  -4   4  14 95.8886 13.7733   2
   3  -4 -14 56.7238 10.8335   4
   3  -4 -14 53.4019 10.1707   1
  -3   4  14 53.1918 10.4380   2
   2  -4 -14 23.5501 7.58052   1
   2  -4 -14 10.7599 7.14621   4
  -2   4  14 21.0738 7.52324   2
   1  -4 -14 1.44582 6.60304   4
   1  -4 -14 9.77459 6.28558   1
  -1   4  14 3.24689 6.77985   2
   0  -4 -14 4.76684 6.69396   4
   0  -4 -14 -3.0722 4.89396   1
   0   4  14 -1.2439 5.78521   2
  -1  -4 -14 253.778 16.7023   4
  -1  -4 -14 272.727 15.5038   1
   1   4  14 250.107 17.1609   2
  -2  -4 -14 67.1824 10.5829   4
  -2  -4 -14 81.4103 10.0733   1
   2   4  14 68.2653 11.1138   2
  -3  -4 -14 384.136 18.1334   1
  -3  -4 -14 378.377 19.8581   4
   3   4  14 360.946 19.8948   2
  -4  -4 -14 244.021 16.0667   4
   4   4  14 258.178 17.0048   2
   4   4  14 259.929 14.4902   1
  -5  -4 -14 620.109 25.8355   4
   5   4  14 646.120 24.0410   1
   5   4  14 667.207 26.5106   2
  -6  -4 -14 133.203 13.7352   4
   6   4  14 153.127 12.8305   1
   6   4  14 131.375 13.1820   2
  -7  -4 -14 5.14219 6.34276   4
   7   4  14 1.80595 5.28861   1
   7   4  14 0.05921 5.33138   2
  -8  -4 -14 54.6577 9.78245   4
   8   4  14 50.7735 9.68704   1
  -9  -4 -14 187.922 15.4397   4
   9   4  14 179.577 15.3716   1
 -10  -4 -14 37.2790 9.29442   4
  10   4  14 49.7004 10.5780   1
 -11  -4 -14 279.303 19.0124   4
  11   4  14 268.162 20.0047   1
   5  -5 -14 20.5722 9.26551   1
  -5   5  14 16.4219 8.50055   2
   4  -5 -14 9.37317 8.15407   4
   4  -5 -14 15.4248 9.33711   1
  -4   5  14 3.01597 7.48227   2
   3  -5 -14 177.285 17.1510   1
   3  -5 -14 184.271 16.6491   4
  -3   5  14 174.872 17.2348   2
   2  -5 -14 10.4398 7.47805   4
   2  -5 -14 24.9229 8.05455   1
  -2   5  14 9.56069 7.45749   2
   1  -5 -14 8.14136 7.02928   1
   1  -5 -14 23.1776 7.97131   4
  -1   5  14 24.4451 7.84694   2
   0  -5 -14 41.6114 8.95614   4
   0  -5 -14 38.2869 9.10158   1
   0   5  14 31.1401 8.59498   2
  -1  -5 -14 248.058 15.9120   1
  -1  -5 -14 246.745 16.5018   4
   1   5  14 247.353 17.5306   2
  -2  -5 -14 352.716 18.6797   1
  -2  -5 -14 374.566 19.3122   4
   2   5  14 384.456 20.5057   2
  -3  -5 -14 52.6014 9.44673   1
  -3  -5 -14 37.5191 8.48737   4
   3   5  14 42.4546 8.99341   2
  -4  -5 -14 17.9214 7.41332   4
   4   5  14 25.6392 7.97199   2
   4   5  14 16.1205 5.80091   1
  -5  -5 -14 26.9038 7.72654   4
   5   5  14 16.5593 7.41677   2
   5   5  14 29.4939 7.39372   1
  -6  -5 -14 20.7154 7.63717   4
   6   5  14 31.7452 8.29459   2
   6   5  14 34.0087 7.69500   1
  -7  -5 -14 119.289 13.4456   4
   7   5  14 125.021 12.8854   1
   7   5  14 121.934 12.4238   2
  -8  -5 -14 60.7562 11.0456   4
   8   5  14 62.6868 10.4780   1
  -9  -5 -14 -4.5481 5.84295   4
   9   5  14 10.4539 6.73770   1
 -10  -5 -14 10.8497 7.64733   4
  10   5  14 11.6201 7.22931   1
 -11  -5 -14 0.20474 7.08282   4
  11   5  14 -1.9864 6.98971   1
   4  -6 -14 67.3875 13.5191   1
  -4   6  14 88.9527 13.6789   2
   3  -6 -14 30.6987 8.93217   4
   3  -6 -14 19.4038 9.63812   1
  -3   6  14 42.8261 10.6526   2
   2  -6 -14 217.165 15.9774   4
   2  -6 -14 184.592 18.2764   1
  -2   6  14 182.286 18.1415   2
   1  -6 -14 100.445 12.0257   4
   1  -6 -14 117.705 14.1101   1
  -1   6  14 88.3573 12.7323   2
   0  -6 -14 11.9586 7.93028   1
   0  -6 -14 23.6535 7.85381   4
   0   6  14 6.16018 6.59948   2
  -1  -6 -14 9.15076 6.37124   4
  -1  -6 -14 3.78022 6.77045   1
   1   6  14 3.28118 5.68332   2
  -2  -6 -14 59.3789 9.80880   4
  -2  -6 -14 49.1914 10.0741   1
   2   6  14 64.1802 10.6309   2
  -3  -6 -14 139.890 14.5337   1
  -3  -6 -14 122.029 12.7384   4
   3   6  14 129.009 13.9102   2
  -4  -6 -14 170.001 14.1834   4
  -4  -6 -14 203.230 16.0341   1
   4   6  14 192.643 15.2806   2
  -5  -6 -14 24.7306 7.59443   4
   5   6  14 27.5210 6.82032   1
   5   6  14 43.2554 9.03097   2
  -6  -6 -14 712.504 27.9521   4
   6   6  14 681.229 27.2589   2
   6   6  14 679.534 26.7292   1
  -7  -6 -14 114.363 13.4958   4
   7   6  14 95.2527 11.3598   2
   7   6  14 90.6808 11.4951   1
  -8  -6 -14 1027.67 35.3019   4
   8   6  14 975.152 34.5174   1
  -9  -6 -14 4.71250 6.56099   4
   9   6  14 15.6389 7.47797   1
 -10  -6 -14 49.0851 10.7550   4
  10   6  14 46.5015 10.4933   1
 -11  -6 -14 5.86134 7.14674   4
  11   6  14 5.56059 7.47686   1
   3  -7 -14 5.38266 8.86211   1
  -3   7  14 12.7783 7.99349   2
   2  -7 -14 39.6224 11.2126   1
   2  -7 -14 49.1988 9.66857   4
  -2   7  14 49.6325 10.8145   2
   1  -7 -14 94.7662 14.5046   1
   1  -7 -14 88.1018 11.5847   4
  -1   7  14 95.4028 13.3704   2
   0  -7 -14 62.4130 12.1206   1
   0   7  14 44.4953 10.2468   2
  -1  -7 -14 33.1668 8.05095   4
  -1  -7 -14 27.0404 9.34029   1
   1   7  14 39.2219 9.49364   2
  -2  -7 -14 13.5696 7.55434   1
  -2  -7 -14 -3.9933 5.06853   4
   2   7  14 3.56075 5.83390   2
  -3  -7 -14 38.8937 9.49447   1
  -3  -7 -14 38.5781 8.76166   4
   3   7  14 23.0855 7.88901   2
  -4  -7 -14 43.5808 9.93850   1
  -4  -7 -14 39.9078 8.87136   4
   4   7  14 41.7417 9.05996   2
  -5  -7 -14 103.124 12.4310   4
  -5  -7 -14 99.3689 12.8085   1
   5   7  14 114.912 12.9104   2
  -6  -7 -14 -3.7336 5.52231   4
   6   7  14 2.10748 5.10842   1
   6   7  14 7.47403 6.50785   2
  -7  -7 -14 9.57465 6.87194   4
   7   7  14 9.43337 6.64921   2
   7   7  14 5.95244 5.79847   1
  -8  -7 -14 81.7130 11.9651   4
   8   7  14 64.6476 10.9641   1
  -9  -7 -14 6.47449 7.01606   4
   9   7  14 19.3756 7.81120   1
 -10  -7 -14 7.56256 7.74428   4
  10   7  14 13.2887 7.37990   1
 -11  -7 -14 27.2976 9.66241   4
  11   7  14 26.8963 9.73707   1
   2  -8 -14 19.0449 10.1217   1
  -2   8  14 41.9647 10.7255   2
   1  -8 -14 51.7949 12.5087   1
  -1   8  14 42.6444 10.7353   2
   0  -8 -14 171.118 13.5785   4
   0  -8 -14 164.077 18.2004   1
   0   8  14 196.055 16.8513   2
  -1  -8 -14 428.666 24.2417   1
  -1  -8 -14 409.013 19.6339   4
   1   8  14 477.872 24.6529   2
  -2  -8 -14 -0.0284 5.73674   4
  -2  -8 -14 -3.6464 6.50635   1
   2   8  14 6.67714 6.50579   2
  -3  -8 -14 204.495 14.7547   4
  -3  -8 -14 208.624 17.0844   1
   3   8  14 175.667 17.2004   2
  -4  -8 -14 39.7581 10.2751   1
  -4  -8 -14 33.8161 8.36494   4
   4   8  14 42.1572 9.51798   2
  -5  -8 -14 220.004 15.6730   4
  -5  -8 -14 211.142 17.4852   1
   5   8  14 213.215 16.0369   2
  -6  -8 -14 51.7632 10.1226   4
   6   8  14 28.5299 8.27809   2
   6   8  14 42.8523 9.10789   1
  -7  -8 -14 64.7590 10.6388   4
   7   8  14 71.8370 11.2343   1
   7   8  14 62.5922 9.74316   2
  -8  -8 -14 56.6112 11.0224   4
   8   8  14 66.4500 11.3021   1
  -9  -8 -14 9.72122 7.08663   4
   9   8  14 14.7401 8.32423   1
 -10  -8 -14 365.065 22.7250   4
  10   8  14 354.178 21.6973   1
 -11  -8 -14 155.830 17.7512   4
  11   8  14 136.536 16.5640   1
   1  -9 -14 -2.1034 9.10159   1
  -1   9  14 1.82079 7.28748   2
   0  -9 -14 19.0118 10.3919   1
   0   9  14 19.5208 8.54820   2
  -1  -9 -14 7.17362 6.08892   4
  -1  -9 -14 14.7119 9.65397   1
   1   9  14 7.89811 7.53059   2
  -2  -9 -14 9.88298 8.97310   1
  -2  -9 -14 0.68965 5.84461   4
   2   9  14 22.0219 8.56647   2
  -3  -9 -14 71.1219 10.1993   4
  -3  -9 -14 45.3244 11.5671   1
   3   9  14 42.2553 10.1300   2
  -4  -9 -14 -0.7873 5.83571   4
  -4  -9 -14 -6.1837 6.99283   1
   4   9  14 -1.9410 5.57814   2
  -5  -9 -14 35.8742 10.5137   1
  -5  -9 -14 36.0008 8.60999   4
   5   9  14 41.4978 9.17546   2
  -6  -9 -14 32.7290 10.2868   1
  -6  -9 -14 17.8212 7.23230   4
   6   9  14 20.0832 7.38987   2
  -7  -9 -14 100.447 12.8317   4
   7   9  14 90.0011 12.8378   1
   7   9  14 107.273 12.6333   2
  -8  -9 -14 183.691 15.6248   4
   8   9  14 159.112 16.5286   1
  -9  -9 -14 -7.2254 6.26539   4
   9   9  14 6.50921 6.36709   1
 -10  -9 -14 22.5763 9.20610   4
  10   9  14 15.7549 8.20764   1
  11   9  14 68.1972 12.4168   1
  -1 -10 -14 0.96731 9.60551   1
   1  10  14 16.1500 8.46083   2
  -2 -10 -14 17.4070 10.9922   1
   2  10  14 26.0511 9.49650   2
  -3 -10 -14 240.752 15.8279   4
  -3 -10 -14 191.406 20.1586   1
   3  10  14 259.257 19.2502   2
  -4 -10 -14 88.5438 11.6008   4
  -4 -10 -14 87.7142 14.9892   1
   4  10  14 82.1110 12.8364   2
  -5 -10 -14 243.730 20.1469   1
  -5 -10 -14 214.253 16.0842   4
   5  10  14 254.832 18.3501   2
  -6 -10 -14 8.64007 6.74714   4
  -6 -10 -14 6.71828 9.04305   1
   6  10  14 22.6093 8.08069   2
  -7 -10 -14 78.7496 11.9118   4
   7  10  14 60.7084 11.2346   1
   7  10  14 75.8635 11.3094   2
  -8 -10 -14 45.3570 10.3873   4
   8  10  14 35.8651 9.93562   1
  -9 -10 -14 51.1498 10.9348   4
   9  10  14 49.0196 10.9135   1
 -10 -10 -14 23.7674 9.69831   4
  10  10  14 -2.4411 6.35639   1
  -3 -11 -14 87.0626 15.8426   1
   3  11  14 79.8454 13.4491   2
  -4 -11 -14 199.787 21.3049   1
  -4 -11 -14 210.884 15.8415   4
   4  11  14 208.624 18.7861   2
  -5 -11 -14 18.1749 10.2572   1
  -5 -11 -14 3.18253 6.38575   4
   5  11  14 20.2059 8.63240   2
  -6 -11 -14 39.6459 12.0424   1
  -6 -11 -14 52.6196 10.0993   4
   6  11  14 25.5597 8.69687   2
  -7 -11 -14 7.64942 7.23375   4
   7  11  14 2.30745 6.41507   2
   7  11  14 3.35223 6.54539   1
  -8 -11 -14 16.9536 8.23941   4
   8  11  14 11.9031 7.61797   1
   9  11  14 79.7810 13.0678   1
   4   8 -15 -2.1074 6.00030   3
   4   8 -15 9.69821 7.95035   4
   3   8 -15 12.0295 8.73215   4
   3   8 -15 26.6536 8.87327   3
  -3  -8  15 26.1818 10.5429   2
   2   8 -15 5.14893 6.69091   3
  -2  -8  15 4.35313 8.51520   2
   1   8 -15 22.2595 9.06509   3
  -1  -8  15 27.6464 11.0547   2
   0   8 -15 17.5440 8.35708   3
   0  -8  15 39.0529 11.7044   2
  -1   8 -15 77.9606 13.0365   3
   1  -8  15 71.0241 14.2355   2
   5   7 -15 30.8497 10.1417   4
  -5  -7  15 23.4910 9.51221   2
  -5  -7  15 14.3220 11.3629   3
   4   7 -15 166.382 14.7671   3
   4   7 -15 168.769 17.7595   4
  -4  -7  15 137.582 16.7674   2
   3   7 -15 7.39818 8.64051   4
   3   7 -15 20.4707 8.17982   3
  -3  -7  15 21.1593 9.86791   2
   2   7 -15 108.274 13.8847   3
   2   7 -15 136.547 15.6520   4
  -2  -7  15 130.670 16.7582   2
   1   7 -15 94.8388 13.3731   4
   1   7 -15 76.0586 12.0813   3
  -1  -7  15 68.0901 13.0967   2
   0   7 -15 102.447 13.6312   3
   0  -7  15 156.125 17.8858   2
  -1   7 -15 6.91263 7.26968   3
   1  -7  15 -5.4198 7.64482   2
  -2   7 -15 27.1882 9.85264   3
   2  -7  15 8.23262 9.30698   2
  -3   7 -15 10.5307 7.83027   3
   3  -7  15 17.8529 10.0266   2
   6   6 -15 77.6775 13.9083   4
  -6  -6  15 72.2338 12.7561   2
  -6  -6  15 63.1801 13.9469   3
   5   6 -15 15.8949 9.41647   4
  -5  -6  15 23.7203 11.1036   3
  -5  -6  15 36.2024 10.5515   2
   4   6 -15 29.2334 10.1172   4
  -4  -6  15 10.4820 9.68225   3
  -4  -6  15 16.9912 8.87719   2
   3   6 -15 79.7707 12.0708   3
   3   6 -15 105.024 14.6213   4
  -3  -6  15 111.525 14.8331   2
   2   6 -15 32.1936 8.52722   3
   2   6 -15 51.4586 11.0859   4
  -2  -6  15 31.4458 10.2209   2
   1   6 -15 -3.0240 7.36812   4
   1   6 -15 7.91321 6.82605   3
  -1  -6  15 -0.7927 7.02601   2
   0   6 -15 23.5538 8.41625   3
   0   6 -15 20.1016 8.85804   4
   0  -6  15 18.5242 9.29488   2
  -1   6 -15 94.4863 13.3953   3
  -1   6 -15 93.5242 15.4841   4
   1  -6  15 89.6300 14.3764   2
  -2   6 -15 66.5762 11.5025   3
   2  -6  15 47.1932 11.2463   2
  -3   6 -15 71.9970 12.0926   3
   3  -6  15 98.4734 15.1489   2
  -4   6 -15 8.38127 7.52317   3
   4  -6  15 7.73672 8.73024   2
  -5   6 -15 16.8976 9.07959   3
   5  -6  15 29.2570 9.56894   2
   6   5 -15 47.1491 11.7797   4
  -6  -5  15 57.4683 12.9030   3
  -6  -5  15 50.2919 10.8734   2
   5   5 -15 -1.2077 7.65010   4
  -5  -5  15 4.59299 7.92111   2
  -5  -5  15 10.8332 9.28679   3
   4   5 -15 7.72383 8.94268   4
  -4  -5  15 -3.9023 6.78808   2
  -4  -5  15 6.23573 9.25165   3
   3   5 -15 79.2764 13.7754   4
  -3  -5  15 78.6606 13.5422   3
  -3  -5  15 32.3711 9.65540   2
   2   5 -15 78.7787 11.3442   3
   2   5 -15 94.9356 14.0650   4
  -2  -5  15 84.9209 12.8954   2
   1   5 -15 285.139 18.2583   3
   1   5 -15 340.489 21.3477   4
  -1  -5  15 317.973 20.7149   2
   0   5 -15 -3.6996 5.02689   3
   0   5 -15 -3.2804 6.89059   4
   0  -5  15 6.05969 8.03385   2
  -1   5 -15 248.237 17.7486   4
  -1   5 -15 233.340 16.7114   3
   1  -5  15 240.423 18.9353   2
  -2   5 -15 52.9009 10.0938   3
  -2   5 -15 46.3651 9.68317   4
   2  -5  15 39.7288 10.5536   2
  -3   5 -15 332.117 20.2889   3
   3  -5  15 396.745 22.9366   2
  -4   5 -15 50.6367 10.2237   3
   4  -5  15 33.3567 10.0263   2
  -5   5 -15 3.36429 7.00769   3
   5  -5  15 3.69409 8.10733   2
  -6   5 -15 17.3879 8.53461   3
   6  -5  15 30.4123 10.0454   2
   6   4 -15 4.67328 8.40125   4
  -6  -4  15 8.45926 7.54992   2
  -6  -4  15 3.08420 8.56083   3
   5   4 -15 50.1815 11.9220   4
  -5  -4  15 41.8299 11.1730   3
  -5  -4  15 31.7846 9.78239   2
   4   4 -15 4.30500 7.74310   4
  -4  -4  15 -1.0243 6.70155   2
  -4  -4  15 14.8758 8.53300   3
   3   4 -15 3.75267 7.65515   4
  -3  -4  15 -5.2498 6.28233   2
  -3  -4  15 -2.6355 7.63005   3
   2   4 -15 250.982 20.2120   4
   2   4 -15 234.639 15.2348   3
  -2  -4  15 225.875 18.1618   2
   1   4 -15 20.1640 7.08861   3
   1   4 -15 30.1236 10.0961   4
  -1  -4  15 44.9939 10.0999   2
   0   4 -15 6.31153 5.36065   3
   0   4 -15 -2.4523 7.51379   4
   0  -4  15 -3.4716 6.39089   2
  -1   4 -15 85.5065 11.1983   3
  -1   4 -15 73.9058 11.5632   4
   1  -4  15 99.7199 13.8777   2
  -2   4 -15 6.27869 6.91531   4
  -2   4 -15 6.43081 6.50914   3
   2  -4  15 9.06099 7.44842   2
  -3   4 -15 124.720 14.3813   3
  -3   4 -15 137.147 13.6633   4
   3  -4  15 125.863 15.1349   2
  -4   4 -15 15.7081 7.10016   3
   4  -4  15 -5.2856 6.54479   2
  -5   4 -15 7.37841 7.19201   3
   5  -4  15 8.56284 7.57111   2
  -6   4 -15 133.317 15.7183   3
   6  -4  15 204.391 17.3061   2
  -7   4 -15 1.93616 7.89290   3
   7  -4  15 -0.7772 6.83333   2
   7  -4  15 7.52614 9.26782   1
   7   3 -15 59.5370 13.4151   4
  -7  -3  15 52.6686 11.9929   3
  -7  -3  15 32.9112 10.1804   2
   6   3 -15 67.4720 13.6235   4
  -6  -3  15 62.4363 12.8353   3
  -6  -3  15 59.5966 11.5032   2
   5   3 -15 105.631 15.6611   4
  -5  -3  15 122.886 15.8146   3
  -5  -3  15 167.638 17.0106   2
   4   3 -15 527.240 27.5934   4
  -4  -3  15 540.275 25.5533   3
  -4  -3  15 487.794 25.5142   2
   3   3 -15 13.8316 9.20816   4
  -3  -3  15 29.0762 8.64682   2
  -3  -3  15 10.8948 8.19356   3
   2   3 -15 15.4119 9.31112   4
  -2  -3  15 4.17253 7.39923   3
  -2  -3  15 16.0831 7.87207   2
   1   3 -15 3.36594 8.14331   4
   1   3 -15 10.9806 5.67338   3
  -1  -3  15 -4.4660 6.42062   2
   0   3 -15 39.5504 8.26048   3
   0   3 -15 60.0438 11.5248   4
   0  -3  15 45.6666 10.1405   2
  -1   3 -15 517.056 22.9551   3
  -1   3 -15 501.813 24.2229   4
   1  -3  15 525.417 25.4574   2
  -2   3 -15 10.1957 6.78697   4
  -2   3 -15 6.45744 5.94114   3
   2  -3  15 9.37360 6.98012   2
  -3   3 -15 269.286 17.1168   4
  -3   3 -15 352.214 19.2259   3
   3  -3  15 315.945 20.0876   2
  -4   3 -15 7.94825 6.34033   4
  -4   3 -15 17.0337 7.14277   3
   4  -3  15 -13.195 5.84504   2
  -5   3 -15 380.465 21.3678   3
  -5   3 -15 442.737 19.3099   4
   5  -3  15 407.453 22.7861   2
   5  -3  15 377.367 19.1061   1
  -6   3 -15 65.5471 11.3099   3
   6  -3  15 70.4407 11.7771   2
   6  -3  15 79.5900 11.2717   1
  -7   3 -15 39.6989 10.7750   3
   7  -3  15 47.7157 10.1126   2
   7  -3  15 50.7642 11.1436   1
  -8   3 -15 11.5859 9.61976   3
   8  -3  15 10.7282 9.39269   1
   7   2 -15 6.82323 9.00002   4
  -7  -2  15 -8.2645 7.15778   2
  -7  -2  15 13.3238 9.31436   3
   6   2 -15 11.6663 9.17340   4
  -6  -2  15 11.2173 8.50648   3
  -6  -2  15 5.91200 7.80191   2
   5   2 -15 12.5661 8.65802   4
  -5  -2  15 -1.1360 6.97105   2
  -5  -2  15 -3.9391 7.03250   3
   4   2 -15 10.2740 8.34508   4
  -4  -2  15 9.43068 7.26979   2
  -4  -2  15 11.4613 8.41578   3
   3   2 -15 19.7678 10.1472   4
  -3  -2  15 4.89445 7.61423   3
  -3  -2  15 4.45427 7.27211   2
   2   2 -15 25.1678 9.77346   4
  -2  -2  15 3.66373 6.88219   2
  -2  -2  15 14.8075 8.13548   3
   1   2 -15 134.552 16.5642   4
   1   2 -15 121.630 11.9815   3
  -1  -2  15 130.271 14.8938   2
   0   2 -15 18.6589 5.73868   3
   0   2 -15 16.5175 8.55073   4
   0  -2  15 3.82763 6.49685   2
  -1   2 -15 78.2851 10.1746   3
  -1   2 -15 81.1070 12.4562   4
   1  -2  15 73.1547 11.4757   2
  -2   2 -15 90.5021 12.3376   4
  -2   2 -15 81.5427 10.1745   3
   2  -2  15 93.4410 12.6298   2
  -3   2 -15 163.134 13.1539   3
  -3   2 -15 157.451 15.0167   4
   3  -2  15 149.521 15.6785   2
  -4   2 -15 11.7194 6.17509   3
  -4   2 -15 4.92287 6.52600   4
   4  -2  15 4.90772 5.36591   1
   4  -2  15 8.56964 7.02505   2
  -5   2 -15 7.66022 6.00786   4
  -5   2 -15 13.2755 7.31347   3
   5  -2  15 1.31654 6.21167   2
   5  -2  15 15.5910 6.48742   1
  -6   2 -15 63.8775 11.0194   3
  -6   2 -15 59.3310 9.27206   4
   6  -2  15 66.7800 10.1940   1
   6  -2  15 72.9356 11.2466   2
  -7   2 -15 83.5514 12.7859   3
   7  -2  15 98.4300 12.5836   2
   7  -2  15 92.1873 12.6230   1
  -8   2 -15 36.5130 11.2716   3
   8  -2  15 24.5945 9.24074   1
  -9   2 -15 7.17290 9.22268   3
   9  -2  15 36.9995 11.7613   1
   7   1 -15 69.6278 14.2211   4
   6   1 -15 4.40269 8.73621   4
  -6  -1  15 12.1191 8.28835   3
  -6  -1  15 0.55299 7.24308   2
   5   1 -15 5.73622 8.46411   4
  -5  -1  15 0.26675 7.57521   2
  -5  -1  15 2.07391 6.60789   3
   4   1 -15 24.2654 10.3149   4
  -4  -1  15 22.3046 9.26741   2
  -4  -1  15 34.7562 9.15353   3
   3   1 -15 8.94222 8.88328   4
  -3  -1  15 3.90037 7.50457   2
  -3  -1  15 11.5167 7.45468   3
   2   1 -15 1022.43 38.3420   4
  -2  -1  15 978.729 34.1848   3
  -2  -1  15 1058.65 38.9460   2
   1   1 -15 93.0057 13.9143   4
  -1  -1  15 93.7816 12.0138   3
  -1  -1  15 98.3603 13.1157   2
   0   1 -15 581.909 27.8958   4
   0   1 -15 635.552 22.7845   3
   0  -1  15 592.362 27.0048   2
  -1   1 -15 40.2059 10.1463   4
  -1   1 -15 49.7159 7.80745   3
   1  -1  15 39.0977 9.42845   2
  -2   1 -15 74.9384 11.7460   4
  -2   1 -15 74.2278 9.19445   3
   2  -1  15 71.0492 11.4062   2
  -3   1 -15 0.52918 6.51080   4
  -3   1 -15 8.19672 5.31319   3
   3  -1  15 10.5813 4.66337   1
   3  -1  15 16.0867 7.44215   2
  -4   1 -15 173.572 15.7106   4
  -4   1 -15 182.467 13.2077   3
   4  -1  15 176.763 15.6061   2
   4  -1  15 182.031 11.9708   1
  -5   1 -15 30.4610 8.01749   4
  -5   1 -15 36.7966 8.09528   3
   5  -1  15 33.5481 8.55781   2
   5  -1  15 43.4669 8.00504   1
  -6   1 -15 165.212 13.5108   4
  -6   1 -15 174.007 14.2791   3
   6  -1  15 186.362 14.5840   1
   6  -1  15 179.372 15.0473   2
  -7   1 -15 95.2914 11.3005   4
  -7   1 -15 86.8788 12.2066   3
   7  -1  15 104.395 12.7361   2
   7  -1  15 84.5950 11.7622   1
  -8   1 -15 314.414 20.1550   3
   8  -1  15 332.407 20.7102   1
  -9   1 -15 8.70431 9.26192   3
   9  -1  15 17.5906 9.56516   1
   6   0 -15 1.99273 8.84125   4
  -6   0  15 2.33738 7.29850   3
  -6   0  15 4.95405 8.19141   2
   5   0 -15 -1.2687 8.31212   4
  -5   0  15 1.13366 6.77645   3
  -5   0  15 2.08155 7.51595   2
   4   0 -15 52.4649 11.9567   4
  -4   0  15 65.5275 11.4722   2
  -4   0  15 38.7217 9.62051   3
   3   0 -15 7.92937 8.59071   4
  -3   0  15 17.1796 7.63575   3
  -3   0  15 13.0713 7.80901   2
   2   0 -15 19.9720 9.92619   4
  -2   0  15 41.9630 10.2909   2
  -2   0  15 19.7852 7.76760   3
   1   0 -15 217.365 18.4132   4
  -1   0  15 205.174 17.0213   2
  -1   0  15 224.221 14.7494   3
   0   0 -15 14.3650 9.08797   4
   0   0  15 29.2440 8.82429   2
  -1   0 -15 13.8822 8.39146   4
  -1   0 -15 15.1246 4.92760   3
   1   0  15 11.4849 7.56985   2
  -2   0 -15 -3.3906 6.57334   4
  -2   0 -15 -5.9905 3.61405   3
   2   0  15 -1.3376 6.46630   2
   2   0  15 4.07890 3.25392   1
  -3   0 -15 212.157 12.1795   3
  -3   0 -15 204.792 16.5921   4
   3   0  15 235.143 11.9554   1
   3   0  15 206.578 15.6517   2
  -4   0 -15 302.347 18.2658   4
  -4   0 -15 299.965 15.2112   3
   4   0  15 333.095 15.1097   1
   4   0  15 309.956 18.5981   2
  -5   0 -15 40.1517 7.71031   3
  -5   0 -15 29.1378 8.19233   4
   5   0  15 23.5834 6.92855   1
   5   0  15 33.7462 8.42588   2
  -6   0 -15 1.40772 5.50754   3
  -6   0 -15 4.18519 5.91245   4
   6   0  15 -6.4176 5.38199   2
   6   0  15 4.14452 5.52455   1
  -7   0 -15 61.5327 9.74446   4
  -7   0 -15 59.8209 10.1635   3
   7   0  15 69.0211 10.5150   1
   7   0  15 72.0724 10.6094   2
  -8   0 -15 0.08937 5.50854   4
  -8   0 -15 24.8799 8.64366   3
   8   0  15 -1.4605 6.25649   1
  -9   0 -15 102.264 14.1162   3
  -9   0 -15 129.365 13.1514   4
   9   0  15 128.723 15.4936   1
 -10   0 -15 1.56581 7.65901   3
  10   0  15 4.88560 8.80040   1
   6  -1 -15 4.09473 8.30335   4
  -6   1  15 -5.9381 7.61261   2
   5  -1 -15 42.6158 11.0844   4
  -5   1  15 67.3104 11.8461   2
   4  -1 -15 -0.6662 7.89583   4
  -4   1  15 9.95813 8.21568   2
   3  -1 -15 150.000 16.7692   4
  -3   1  15 155.900 16.6789   2
   2  -1 -15 2.55835 7.46113   4
  -2   1  15 9.47539 9.52896   3
  -2   1  15 2.45879 7.05998   2
   1  -1 -15 53.7847 11.3852   4
  -1   1  15 46.1061 9.32855   3
  -1   1  15 42.5584 10.2021   2
   0  -1 -15 70.0365 8.08026   3
   0  -1 -15 53.6255 10.4504   4
   0   1  15 76.3702 10.0624   1
   0   1  15 65.4540 11.2891   2
  -1  -1 -15 822.652 24.6144   3
  -1  -1 -15 765.731 31.5146   4
   1   1  15 838.356 32.8633   2
   1   1  15 849.274 23.4504   1
  -2  -1 -15 170.030 16.3154   4
  -2  -1 -15 195.307 10.8036   3
   2   1  15 200.615 10.7648   1
   2   1  15 198.405 16.0490   2
  -3  -1 -15 511.656 17.7096   3
  -3  -1 -15 465.717 23.0127   4
   3   1  15 479.077 17.8984   1
   3   1  15 484.490 23.9359   2
  -4  -1 -15 1.74951 4.17004   3
  -4  -1 -15 -0.9356 6.43559   4
   4   1  15 2.28981 6.20263   2
   4   1  15 6.17761 4.59980   1
  -5  -1 -15 244.409 16.4070   4
  -5  -1 -15 250.779 13.1450   3
   5   1  15 245.810 14.1208   1
   5   1  15 233.011 16.1204   2
  -6  -1 -15 13.6416 5.79497   3
  -6  -1 -15 7.27061 6.58203   4
   6   1  15 9.96850 5.92211   1
   6   1  15 2.40037 5.86059   2
  -7  -1 -15 0.03732 5.79567   3
  -7  -1 -15 -1.2892 5.41703   4
   7   1  15 0.69086 5.47537   2
   7   1  15 8.73921 6.42929   1
  -8  -1 -15 53.0417 9.32979   4
  -8  -1 -15 36.5114 8.77695   3
   8   1  15 38.2397 9.14898   1
  -9  -1 -15 143.008 14.6897   3
  -9  -1 -15 154.332 13.6960   4
   9   1  15 156.359 16.2449   1
 -10  -1 -15 266.987 17.6884   4
 -10  -1 -15 275.209 19.3509   3
  10   1  15 285.798 20.2320   1
   6  -2 -15 39.5635 11.2125   4
  -6   2  15 23.5837 10.0180   2
   5  -2 -15 2.47086 8.58555   4
  -5   2  15 6.83010 8.23207   2
   4  -2 -15 -14.096 7.39736   4
  -4   2  15 2.59058 7.54961   2
   3  -2 -15 83.2574 13.4065   4
  -3   2  15 70.0053 11.9678   2
   2  -2 -15 42.8345 10.9468   4
  -2   2  15 48.1166 10.3946   2
   1  -2 -15 8.32294 5.52063   1
   1  -2 -15 6.73269 8.07782   4
  -1   2  15 9.99124 7.53211   2
   0  -2 -15 585.275 20.2226   1
   0  -2 -15 613.654 27.1294   4
   0   2  15 619.272 27.7092   2
  -1  -2 -15 274.235 18.5035   4
   1   2  15 281.712 12.8654   1
   1   2  15 309.615 19.3185   2
  -2  -2 -15 12.0846 7.72664   4
   2   2  15 3.37903 6.90321   2
   2   2  15 18.3463 5.02052   1
  -3  -2 -15 198.359 15.7781   4
   3   2  15 166.901 15.6977   2
   3   2  15 199.934 11.6259   1
  -4  -2 -15 18.2928 7.81600   4
   4   2  15 23.6289 6.05190   1
   4   2  15 11.3945 7.06521   2
  -5  -2 -15 5.29429 6.59190   4
   5   2  15 10.4646 7.15667   2
   5   2  15 6.37948 4.98057   1
  -6  -2 -15 18.4439 7.35683   4
  -6  -2 -15 26.9110 9.13696   3
   6   2  15 19.2827 7.14824   2
   6   2  15 15.8968 6.20965   1
  -7  -2 -15 6.74181 6.32726   4
  -7  -2 -15 9.17232 5.50463   3
   7   2  15 5.05739 5.60210   1
   7   2  15 4.75231 5.77136   2
  -8  -2 -15 10.2613 7.01169   4
  -8  -2 -15 28.5585 7.22012   3
   8   2  15 27.1986 7.98335   1
  -9  -2 -15 -3.6514 5.69218   4
  -9  -2 -15 -2.5597 6.22289   3
   9   2  15 -1.8245 6.71046   1
 -10  -2 -15 38.4807 9.43486   3
 -10  -2 -15 27.1698 8.45721   4
  10   2  15 30.4242 9.34260   1
 -11  -2 -15 22.8684 10.2420   3
  11   2  15 21.8883 10.3819   1
   5  -3 -15 146.766 16.8297   4
  -5   3  15 153.554 16.8254   2
   4  -3 -15 110.241 15.0700   4
  -4   3  15 97.5301 13.8068   2
   3  -3 -15 2.81893 7.96055   4
  -3   3  15 4.41546 7.88745   2
   2  -3 -15 199.773 18.4205   4
   2  -3 -15 192.553 12.9519   1
  -2   3  15 200.016 17.4551   2
   1  -3 -15 -1.3750 6.58329   4
   1  -3 -15 0.15908 4.81557   1
  -1   3  15 8.50550 7.60000   2
   0  -3 -15 44.9053 10.6849   4
   0  -3 -15 42.7387 7.64514   1
   0   3  15 31.7771 9.35408   2
  -1  -3 -15 11.3413 7.81274   4
  -1  -3 -15 2.97808 5.20450   1
   1   3  15 -1.9692 6.60835   2
  -2  -3 -15 118.779 14.1775   4
   2   3  15 109.260 13.4890   2
   2   3  15 116.060 9.63084   1
  -3  -3 -15 694.155 27.9187   4
   3   3  15 753.613 29.8454   2
   3   3  15 720.825 24.0284   1
  -4  -3 -15 21.7693 7.58193   4
   4   3  15 31.9814 8.57858   2
   4   3  15 28.1402 6.33670   1
  -5  -3 -15 416.500 21.1062   4
   5   3  15 428.905 18.7206   1
   5   3  15 423.458 21.3958   2
  -6  -3 -15 20.7415 7.63567   4
   6   3  15 16.9273 7.22559   2
   6   3  15 34.4923 7.66215   1
  -7  -3 -15 356.085 19.9263   4
   7   3  15 309.557 18.0179   1
   7   3  15 326.345 17.7042   2
  -8  -3 -15 154.238 15.4449   4
   8   3  15 144.624 15.1134   1
  -9  -3 -15 1.89007 6.14721   4
   9   3  15 20.0676 7.83429   1
 -10  -3 -15 6.96610 6.75437   4
  10   3  15 25.1199 9.04832   1
 -11  -3 -15 14.7660 7.97152   4
  11   3  15 18.7392 9.20211   1
   5  -4 -15 11.3236 9.38640   4
  -5   4  15 -0.7198 8.25369   2
   4  -4 -15 65.5800 11.9820   4
  -4   4  15 55.6089 11.6436   2
   3  -4 -15 114.006 12.9962   1
   3  -4 -15 93.0836 13.2063   4
  -3   4  15 75.0509 12.8136   2
   2  -4 -15 34.0503 10.0119   4
   2  -4 -15 44.6305 8.61243   1
  -2   4  15 54.3577 10.8831   2
   1  -4 -15 26.8388 9.39481   4
   1  -4 -15 13.2581 6.61918   1
  -1   4  15 19.9723 8.05773   2
   0  -4 -15 140.059 12.1597   1
   0  -4 -15 118.720 13.9938   4
   0   4  15 123.675 14.4989   2
  -1  -4 -15 19.2440 8.04553   4
  -1  -4 -15 27.2416 7.21119   1
   1   4  15 33.5036 9.15109   2
  -2  -4 -15 46.9753 9.54023   4
  -2  -4 -15 52.1914 8.80410   1
   2   4  15 29.4463 8.58037   2
  -3  -4 -15 147.071 15.0801   4
   3   4  15 144.774 14.8395   2
   3   4  15 160.090 11.5926   1
  -4  -4 -15 27.5823 7.89564   4
   4   4  15 20.4554 6.13036   1
   4   4  15 34.4209 8.80770   2
  -5  -4 -15 2.66178 6.28935   4
   5   4  15 -3.4462 6.45238   2
   5   4  15 11.2449 5.56772   1
  -6  -4 -15 81.0493 11.9648   4
   6   4  15 83.5536 11.0881   2
   6   4  15 84.6040 10.7799   1
  -7  -4 -15 10.6842 7.17729   4
   7   4  15 3.60854 5.80429   2
   7   4  15 3.29456 5.27031   1
  -8  -4 -15 24.2409 8.65148   4
   8   4  15 25.2331 8.19672   1
  -9  -4 -15 1.81750 6.62414   4
   9   4  15 3.46069 6.58570   1
 -10  -4 -15 0.87348 6.18765   4
  10   4  15 4.20503 6.49402   1
 -11  -4 -15 17.8440 8.26645   4
  11   4  15 35.2206 10.3662   1
   4  -5 -15 20.0659 9.33226   1
   4  -5 -15 15.8627 9.04277   4
  -4   5  15 12.8300 9.28936   2
   3  -5 -15 39.7904 10.4603   4
   3  -5 -15 48.0412 10.5374   1
  -3   5  15 66.4065 11.9238   2
   2  -5 -15 159.368 15.4958   1
   2  -5 -15 151.921 15.1648   4
  -2   5  15 143.158 15.8893   2
   1  -5 -15 24.8704 8.23759   1
   1  -5 -15 19.0396 8.14178   4
  -1   5  15 15.3668 8.04135   2
   0  -5 -15 567.797 24.9879   4
   0  -5 -15 622.689 24.9095   1
   0   5  15 577.605 27.4641   2
  -1  -5 -15 12.4070 6.82161   1
  -1  -5 -15 11.4631 7.21486   4
   1   5  15 6.86569 6.48684   2
  -2  -5 -15 200.755 15.6345   4
  -2  -5 -15 224.325 15.5905   1
   2   5  15 251.243 17.1358   2
  -3  -5 -15 118.944 13.1601   1
  -3  -5 -15 102.120 12.0106   4
   3   5  15 127.355 14.2665   2
  -4  -5 -15 29.3616 8.28887   4
   4   5  15 36.5348 7.29983   1
   4   5  15 33.8654 9.26783   2
  -5  -5 -15 210.633 16.4879   4
   5   5  15 248.218 17.0161   2
   5   5  15 255.073 15.5324   1
  -6  -5 -15 241.946 16.9788   4
   6   5  15 238.929 15.2221   1
   6   5  15 258.713 16.7772   2
  -7  -5 -15 275.913 18.0979   4
   7   5  15 337.242 18.1093   1
   7   5  15 299.740 17.5184   2
  -8  -5 -15 20.9776 8.59331   4
   8   5  15 24.2234 7.48652   1
  -9  -5 -15 107.604 14.0973   4
   9   5  15 105.742 13.8731   1
 -10  -5 -15 261.890 18.5501   4
  10   5  15 243.396 18.5660   1
 -11  -5 -15 50.4922 10.3441   4
  11   5  15 45.3059 10.8941   1
   3  -6 -15 6.84597 7.39718   4
   3  -6 -15 -1.6576 7.66163   1
  -3   6  15 11.6689 8.12498   2
   2  -6 -15 -4.6300 7.21639   1
   2  -6 -15 0.54860 6.69616   4
  -2   6  15 1.18224 6.85892   2
   1  -6 -15 33.5086 9.43864   1
   1  -6 -15 17.3487 8.00693   4
  -1   6  15 23.5951 9.35287   2
   0  -6 -15 37.0539 9.45362   1
   0  -6 -15 31.4225 8.39051   4
   0   6  15 47.6127 10.5441   2
  -1  -6 -15 32.5529 8.27447   4
  -1  -6 -15 25.3392 8.49090   1
   1   6  15 46.2738 9.98458   2
  -2  -6 -15 33.8561 9.29541   1
  -2  -6 -15 56.0275 10.0023   4
   2   6  15 53.0330 10.0510   2
  -3  -6 -15 44.8281 9.73512   1
  -3  -6 -15 50.7404 9.65396   4
   3   6  15 52.4481 10.1681   2
  -4  -6 -15 6.41056 7.11646   1
  -4  -6 -15 2.64061 6.36431   4
   4   6  15 9.79402 6.60248   2
  -5  -6 -15 83.7726 11.5387   4
   5   6  15 120.577 13.2109   1
   5   6  15 121.957 13.5522   2
  -6  -6 -15 19.5555 7.58099   4
   6   6  15 6.06209 5.74666   1
   6   6  15 15.2320 7.78502   2
  -7  -6 -15 7.46721 7.04950   4
   7   6  15 5.60151 6.43379   2
   7   6  15 8.22280 5.95788   1
  -8  -6 -15 3.00571 6.66501   4
   8   6  15 5.41120 6.04013   1
  -9  -6 -15 -3.7933 6.30481   4
   9   6  15 1.91305 6.07282   1
 -10  -6 -15 -8.7397 5.51609   4
  10   6  15 -0.2393 6.60908   1
 -11  -6 -15 190.376 19.0762   4
  11   6  15 230.484 18.6492   1
   2  -7 -15 2.92899 8.12006   1
   2  -7 -15 7.51267 7.05926   4
  -2   7  15 12.0163 8.83445   2
   1  -7 -15 244.364 16.8495   4
   1  -7 -15 185.666 18.8030   1
  -1   7  15 226.803 18.3888   2
   0  -7 -15 9.05138 7.01868   4
   0  -7 -15 13.4002 8.54460   1
   0   7  15 12.6520 7.88798   2
  -1  -7 -15 27.4409 8.03855   4
  -1  -7 -15 28.9240 9.48359   1
   1   7  15 11.5680 7.87596   2
  -2  -7 -15 116.382 14.2238   1
  -2  -7 -15 137.250 13.7819   4
   2   7  15 104.750 13.3734   2
  -3  -7 -15 325.869 18.9319   4
  -3  -7 -15 405.780 21.7173   1
   3   7  15 393.106 21.6258   2
  -4  -7 -15 230.525 16.4211   4
  -4  -7 -15 216.973 17.0823   1
   4   7  15 247.177 17.5563   2
  -5  -7 -15 30.2684 8.30978   4
   5   7  15 22.6735 8.11940   2
   5   7  15 27.8896 7.68161   1
  -6  -7 -15 19.6612 7.56955   4
   6   7  15 29.0427 8.56574   2
   6   7  15 25.7448 7.73982   1
  -7  -7 -15 119.499 14.5345   4
   7   7  15 103.016 12.5221   1
   7   7  15 133.992 13.8216   2
  -8  -7 -15 56.0128 10.7581   4
   8   7  15 63.0621 11.0899   1
  -9  -7 -15 168.509 16.8597   4
   9   7  15 148.650 15.8161   1
 -10  -7 -15 23.6673 9.30134   4
  10   7  15 28.5103 9.01594   1
 -11  -7 -15 141.452 16.8542   4
  11   7  15 117.805 15.6843   1
   1  -8 -15 -0.7694 8.05208   1
  -1   8  15 7.14575 7.74196   2
   0  -8 -15 31.2678 10.5188   1
   0  -8 -15 32.3049 8.16932   4
   0   8  15 13.8820 8.80441   2
  -1  -8 -15 35.5448 8.70882   4
  -1  -8 -15 42.8342 11.3056   1
   1   8  15 55.5803 11.3288   2
  -2  -8 -15 107.414 12.6560   4
  -2  -8 -15 101.647 14.6837   1
   2   8  15 100.134 13.9444   2
  -3  -8 -15 129.384 15.2388   1
  -3  -8 -15 130.587 13.7801   4
   3   8  15 161.050 16.1249   2
  -4  -8 -15 45.5661 10.6311   1
  -4  -8 -15 19.5767 7.45150   4
   4   8  15 33.0118 8.90925   2
  -5  -8 -15 44.6982 9.46073   4
  -5  -8 -15 41.3624 10.8827   1
   5   8  15 53.8956 10.2755   2
  -6  -8 -15 3.59282 6.88893   4
   6   8  15 14.3823 6.61307   1
   6   8  15 16.2161 7.08325   2
  -7  -8 -15 84.2263 12.0170   4
   7   8  15 80.2289 11.6724   2
   7   8  15 60.7831 10.9870   1
  -8  -8 -15 52.4150 10.3592   4
   8   8  15 26.2910 8.57829   1
  -9  -8 -15 1.50613 7.03171   4
   9   8  15 17.9513 8.28436   1
 -10  -8 -15 2.96587 7.70682   4
  10   8  15 8.30173 7.55535   1
 -11  -8 -15 18.9438 9.35402   4
  11   8  15 25.6408 9.44657   1
   0  -9 -15 52.4142 12.9883   1
   0   9  15 52.3945 11.6637   2
  -1  -9 -15 61.7173 9.97641   4
  -1  -9 -15 30.1793 11.2181   1
   1   9  15 51.8073 11.7774   2
  -2  -9 -15 76.7430 14.1897   1
  -2  -9 -15 64.1283 10.1941   4
   2   9  15 90.4329 13.6230   2
  -3  -9 -15 -3.0757 5.89344   4
  -3  -9 -15 -10.681 7.13328   1
   3   9  15 1.27510 6.33801   2
  -4  -9 -15 36.5756 11.2775   1
  -4  -9 -15 32.8467 8.36866   4
   4   9  15 44.5306 10.6352   2
  -5  -9 -15 110.924 15.2950   1
  -5  -9 -15 119.058 13.4702   4
   5   9  15 115.481 14.1782   2
  -6  -9 -15 122.961 14.0461   4
   6   9  15 121.443 14.2641   2
   6   9  15 107.496 14.0231   1
  -7  -9 -15 132.377 15.0642   4
   7   9  15 151.453 14.9540   2
   7   9  15 141.880 15.9457   1
  -8  -9 -15 14.1940 8.23615   4
   8   9  15 13.1989 7.57971   1
  -9  -9 -15 27.0594 9.49791   4
   9   9  15 24.1890 8.48402   1
 -10  -9 -15 89.2791 14.2398   4
  10   9  15 80.5226 13.0010   1
  -2 -10 -15 13.7017 9.75681   1
   2  10  15 14.8132 8.46306   2
  -3 -10 -15 16.7147 10.4047   1
  -3 -10 -15 4.25716 6.38620   4
   3  10  15 -2.0785 7.45405   2
  -4 -10 -15 55.6171 10.0132   4
  -4 -10 -15 30.1430 11.4020   1
   4  10  15 57.4583 11.6604   2
  -5 -10 -15 -1.8499 5.65674   4
  -5 -10 -15 -6.7021 7.68541   1
   5  10  15 11.3414 7.15000   2
  -6 -10 -15 1.29576 8.83651   1
  -6 -10 -15 16.9547 8.18136   4
   6  10  15 19.6855 7.94605   2
  -7 -10 -15 46.3738 10.1783   4
   7  10  15 60.2013 10.7062   2
   7  10  15 48.8268 10.7665   1
  -8 -10 -15 103.288 13.7237   4
   8  10  15 87.8588 13.9395   1
  -9 -10 -15 24.2337 9.82283   4
   9  10  15 30.1784 9.67803   1
  -4 -11 -15 112.359 13.0304   4
  -4 -11 -15 132.695 18.0422   1
   4  11  15 121.050 15.3592   2
  -5 -11 -15 1.44948 8.88072   1
  -5 -11 -15 0.40602 6.38452   4
   5  11  15 9.49464 7.38261   2
  -6 -11 -15 1.93161 8.89085   1
  -6 -11 -15 -3.9147 5.97101   4
   6  11  15 16.6705 8.05516   2
  -7 -11 -15 72.1865 12.0265   4
   7  11  15 49.8343 10.9638   1
   7  11  15 76.2498 12.1623   2
   4   7 -16 2.20934 6.15764   3
   4   7 -16 16.1422 9.29748   4
   3   7 -16 51.7469 10.1274   3
   3   7 -16 36.2739 10.5796   4
  -3  -7  16 22.2229 9.59455   2
   2   7 -16 13.2712 7.33024   3
   2   7 -16 0.38905 7.93302   4
  -2  -7  16 6.30060 8.87268   2
   1   7 -16 18.4572 9.33563   4
   1   7 -16 19.9340 8.02553   3
  -1  -7  16 0.32765 7.89678   2
   0   7 -16 42.2618 10.1613   3
   0  -7  16 30.5129 10.0386   2
  -1   7 -16 11.3249 7.70727   3
   1  -7  16 11.9018 9.65425   2
  -2   7 -16 11.0197 7.98887   3
   2  -7  16 9.57658 9.54792   2
   5   6 -16 293.400 22.3670   4
  -5  -6  16 271.632 21.6022   3
  -5  -6  16 234.483 20.1393   2
   4   6 -16 15.9382 9.68439   4
  -4  -6  16 -17.339 7.78534   3
  -4  -6  16 -9.7816 7.04105   2
   3   6 -16 36.5664 10.7495   4
   3   6 -16 25.0906 8.89060   3
  -3  -6  16 24.4193 9.73555   2
   2   6 -16 19.9717 7.90134   3
   2   6 -16 19.9437 9.71630   4
  -2  -6  16 18.3269 9.74952   2
   1   6 -16 30.5906 9.96990   4
   1   6 -16 34.5503 9.03442   3
  -1  -6  16 21.6848 9.81574   2
   0   6 -16 186.879 17.4158   4
   0   6 -16 187.072 16.3644   3
   0  -6  16 193.656 19.9833   2
  -1   6 -16 202.090 16.8991   3
   1  -6  16 169.362 18.7735   2
  -2   6 -16 107.083 14.1925   3
   2  -6  16 112.748 16.3218   2
  -3   6 -16 55.1073 11.4325   3
   3  -6  16 32.5535 10.4603   2
  -4   6 -16 2.58392 7.17914   3
   4  -6  16 5.60436 8.47531   2
   5   5 -16 0.86104 7.93254   4
  -5  -5  16 -0.1464 8.93699   3
  -5  -5  16 -2.9211 7.25258   2
   4   5 -16 16.8345 9.66281   4
  -4  -5  16 -3.4961 8.98053   3
  -4  -5  16 4.92160 8.05743   2
   3   5 -16 33.8856 8.39009   3
   3   5 -16 35.9986 11.4290   4
  -3  -5  16 21.7639 9.03545   2
   2   5 -16 70.0832 11.2737   3
   2   5 -16 62.4208 12.8461   4
  -2  -5  16 70.6112 12.4583   2
   1   5 -16 31.2805 8.39720   3
   1   5 -16 47.0263 11.9661   4
  -1  -5  16 30.2984 9.74703   2
   0   5 -16 106.356 14.4499   4
   0   5 -16 94.0950 12.7609   3
   0  -5  16 79.2812 13.3147   2
  -1   5 -16 51.9686 10.3937   3
  -1   5 -16 35.6429 10.2330   4
   1  -5  16 46.9230 11.1540   2
  -2   5 -16 4.73511 6.81575   3
  -2   5 -16 -1.2132 6.72978   4
   2  -5  16 9.24700 8.46677   2
  -3   5 -16 10.6258 7.28172   3
   3  -5  16 10.9728 7.82474   2
  -4   5 -16 30.0934 9.19400   3
   4  -5  16 18.1678 9.34975   2
  -5   5 -16 15.8317 8.53815   3
   5  -5  16 8.28269 8.58899   2
   6   4 -16 102.069 16.4566   4
  -6  -4  16 81.4103 13.1497   2
  -6  -4  16 102.074 15.9173   3
   5   4 -16 83.3070 14.6120   4
  -5  -4  16 82.1014 13.3459   2
  -5  -4  16 90.8233 14.9833   3
   4   4 -16 17.5280 10.0734   4
  -4  -4  16 28.3176 9.90101   2
  -4  -4  16 33.1185 10.8134   3
   3   4 -16 191.841 20.3137   4
  -3  -4  16 178.132 17.8497   2
  -3  -4  16 153.068 17.4662   3
   2   4 -16 193.632 14.4475   3
   2   4 -16 162.469 18.6545   4
  -2  -4  16 183.398 18.0014   2
   1   4 -16 157.577 13.4877   3
   1   4 -16 127.808 16.2551   4
  -1  -4  16 141.283 16.2235   2
   0   4 -16 25.7813 7.59812   3
   0   4 -16 17.2866 9.36628   4
   0  -4  16 12.7452 8.44402   2
  -1   4 -16 37.7604 10.4115   4
  -1   4 -16 45.5728 9.31923   3
   1  -4  16 36.5649 9.78751   2
  -2   4 -16 17.2619 7.44081   3
  -2   4 -16 26.4807 8.75890   4
   2  -4  16 13.3072 8.35351   2
  -3   4 -16 86.0299 11.6091   4
  -3   4 -16 101.256 13.2341   3
   3  -4  16 102.960 14.4551   2
  -4   4 -16 200.864 16.5871   3
   4  -4  16 230.550 18.6872   2
  -5   4 -16 108.602 14.4812   3
   5  -4  16 99.6297 14.2465   2
  -6   4 -16 64.4130 11.7678   3
   6  -4  16 61.9025 11.8584   2
   6   3 -16 21.0136 9.63137   4
  -6  -3  16 -1.7529 7.15952   2
  -6  -3  16 2.54519 8.88898   3
   5   3 -16 80.0191 14.2105   4
  -5  -3  16 107.324 14.6813   3
  -5  -3  16 70.9024 12.8058   2
   4   3 -16 180.061 19.8948   4
  -4  -3  16 167.817 17.5357   2
  -4  -3  16 177.479 18.3779   3
   3   3 -16 59.5676 13.2013   4
  -3  -3  16 44.2861 11.1664   2
   2   3 -16 38.5907 11.9936   4
  -2  -3  16 41.4975 10.2875   3
  -2  -3  16 33.0245 9.79701   2
   1   3 -16 -1.3576 4.93040   3
   1   3 -16 -5.3416 6.90423   4
  -1  -3  16 2.17184 7.02941   2
   0   3 -16 -1.7979 7.39347   4
   0   3 -16 -0.6912 4.76785   3
   0  -3  16 7.96693 7.35617   2
  -1   3 -16 11.9227 6.12106   3
  -1   3 -16 0.95736 7.55296   4
   1  -3  16 2.11189 7.12766   2
  -2   3 -16 136.877 14.9245   4
  -2   3 -16 148.417 14.3374   3
   2  -3  16 127.643 14.9847   2
  -3   3 -16 -2.9908 5.41494   3
  -3   3 -16 3.44349 6.67799   4
   3  -3  16 -12.315 5.56824   2
  -4   3 -16 32.5148 8.45146   4
  -4   3 -16 57.3257 10.3765   3
   4  -3  16 50.6669 10.7261   2
  -5   3 -16 4.01659 6.70341   3
  -5   3 -16 5.77153 6.09397   4
   5  -3  16 2.99689 6.76865   2
  -6   3 -16 19.2049 8.47448   3
   6  -3  16 5.96641 7.73893   2
  -7   3 -16 68.8740 12.7094   3
   7  -3  16 73.3686 12.4852   1
   7  -3  16 90.3053 13.3006   2
   6   2 -16 -7.1752 8.54996   4
  -6  -2  16 -14.242 7.12036   3
  -6  -2  16 -8.3673 6.88223   2
   5   2 -16 17.7536 10.4488   4
  -5  -2  16 6.16139 7.68683   2
  -5  -2  16 15.9090 8.98905   3
   4   2 -16 101.626 15.5279   4
  -4  -2  16 86.4924 12.9567   3
  -4  -2  16 98.8048 13.6128   2
   3   2 -16 104.851 15.5727   4
  -3  -2  16 142.024 15.6004   3
  -3  -2  16 165.224 16.6606   2
   2   2 -16 141.001 17.6651   4
  -2  -2  16 119.361 14.5568   3
  -2  -2  16 107.379 13.8057   2
   1   2 -16 7.20589 5.36861   3
   1   2 -16 18.5367 9.85619   4
  -1  -2  16 2.05553 7.32216   2
   0   2 -16 426.408 24.8513   4
   0   2 -16 460.747 20.3726   3
   0  -2  16 447.328 24.7621   2
  -1   2 -16 163.984 13.2098   3
  -1   2 -16 157.012 16.6133   4
   1  -2  16 159.925 16.3522   2
  -2   2 -16 266.574 18.7124   4
  -2   2 -16 274.342 16.2313   3
   2  -2  16 247.618 18.2417   2
  -3   2 -16 -1.0634 5.14754   3
  -3   2 -16 7.49722 7.25927   4
   3  -2  16 -3.3500 6.08599   2
  -4   2 -16 12.3197 6.55801   3
  -4   2 -16 8.63927 7.03161   4
   4  -2  16 4.43424 6.85274   2
  -5   2 -16 97.5031 12.0006   4
  -5   2 -16 113.335 13.3401   3
   5  -2  16 89.9566 12.8298   1
   5  -2  16 73.8183 11.8111   2
  -6   2 -16 11.5335 6.85194   3
  -6   2 -16 3.97139 5.83624   4
   6  -2  16 5.09508 6.81769   2
   6  -2  16 -5.6929 6.51133   1
  -7   2 -16 127.204 15.3494   3
   7  -2  16 133.443 15.1729   2
   7  -2  16 134.492 14.5007   1
  -8   2 -16 64.0373 12.2595   3
   8  -2  16 56.3360 11.7684   1
   6   1 -16 6.95158 9.56856   4
  -6  -1  16 -2.0137 7.59545   3
  -6  -1  16 -6.1383 7.49378   2
   5   1 -16 -2.9321 8.93185   4
  -5  -1  16 18.0378 8.95736   3
  -5  -1  16 0.89807 7.91101   2
   4   1 -16 -4.8950 8.00177   4
  -4  -1  16 -1.8604 7.52619   2
  -4  -1  16 6.78648 7.99031   3
   3   1 -16 7.89471 8.81746   4
  -3  -1  16 10.7625 8.18613   2
  -3  -1  16 -1.9135 7.18443   3
   2   1 -16 9.60848 9.23278   4
  -2  -1  16 0.08065 6.82922   3
  -2  -1  16 12.0088 7.79305   2
   1   1 -16 98.1949 14.9902   4
   1   1 -16 84.4865 9.74077   3
  -1  -1  16 81.0963 12.8566   2
   0   1 -16 8.52247 4.89491   3
   0   1 -16 9.37091 8.12630   4
   0  -1  16 0.46329 6.89082   2
  -1   1 -16 168.992 12.1670   3
  -1   1 -16 146.774 16.4667   4
   1  -1  16 130.358 14.7999   2
  -2   1 -16 44.1529 10.4509   4
  -2   1 -16 20.7427 6.73104   3
   2  -1  16 21.9591 8.10508   2
  -3   1 -16 63.3791 11.4968   4
  -3   1 -16 59.6884 9.12440   3
   3  -1  16 48.9461 10.2557   2
  -4   1 -16 218.397 14.3978   3
  -4   1 -16 187.000 15.6522   4
   4  -1  16 224.237 12.8316   1
   4  -1  16 180.481 16.3950   2
  -5   1 -16 1.95027 5.66431   3
  -5   1 -16 6.77564 6.66623   4
   5  -1  16 4.84068 6.86828   2
   5  -1  16 3.60843 5.24343   1
  -6   1 -16 16.7838 7.31817   4
  -6   1 -16 24.3620 7.73583   3
   6  -1  16 20.1149 7.42417   1
  -7   1 -16 20.1754 8.39405   3
  -7   1 -16 31.5079 7.94110   4
   7  -1  16 27.5829 8.44104   2
   7  -1  16 23.9381 8.54123   1
  -8   1 -16 6.88220 8.00944   3
   8  -1  16 0.11542 7.37622   1
  -9   1 -16 10.3319 8.85713   3
   9  -1  16 -16.505 6.40897   1
   6   0 -16 79.6396 14.5671   4
  -6   0  16 80.6090 13.2506   2
   5   0 -16 284.731 22.4129   4
  -5   0  16 279.384 20.1071   2
   4   0 -16 36.6877 11.4668   4
  -4   0  16 56.8309 11.8272   2
   3   0 -16 56.0936 12.6952   4
  -3   0  16 91.7179 17.0878   3
  -3   0  16 69.2314 12.4410   2
   2   0 -16 17.6969 10.2964   4
  -2   0  16 12.5233 7.33817   3
  -2   0  16 15.1204 8.44882   2
   1   0 -16 156.752 17.9583   4
  -1   0  16 172.290 14.1748   3
  -1   0  16 201.352 17.2210   2
   0   0 -16 83.5481 13.4611   4
   0   0 -16 103.985 10.1671   3
   0   0  16 88.5066 12.7510   2
  -1   0 -16 91.4157 9.87853   3
  -1   0 -16 95.0601 13.7416   4
   1   0  16 86.6512 12.8406   2
  -2   0 -16 404.882 23.0336   4
  -2   0 -16 467.106 18.2568   3
   2   0  16 405.611 22.8880   2
  -3   0 -16 190.518 12.0639   3
  -3   0 -16 163.334 16.2735   4
   3   0  16 184.987 15.9778   2
   3   0  16 205.439 11.1345   1
  -4   0 -16 276.503 14.9653   3
  -4   0 -16 280.067 18.1727   4
   4   0  16 281.623 14.2139   1
   4   0  16 249.831 17.9423   2
  -5   0 -16 70.6991 11.2078   4
  -5   0 -16 82.9905 10.1916   3
   5   0  16 77.3379 11.5828   2
   5   0  16 84.9899 10.2864   1
  -6   0 -16 12.5494 6.19928   3
  -6   0 -16 10.3239 6.60913   4
   6   0  16 3.09706 6.32487   2
   6   0  16 3.80071 5.62565   1
  -7   0 -16 230.077 16.3609   3
  -7   0 -16 216.155 15.6116   4
   7   0  16 247.034 16.7358   2
   7   0  16 248.350 16.6225   1
  -8   0 -16 3.77629 7.32864   3
  -8   0 -16 5.67781 5.95455   4
   8   0  16 1.14227 6.54547   1
  -9   0 -16 137.251 13.8625   4
  -9   0 -16 182.978 17.7391   3
   9   0  16 178.779 17.5286   1
   5  -1 -16 36.6215 12.1345   4
  -5   1  16 70.4523 13.0412   2
   4  -1 -16 -5.9224 8.33149   4
  -4   1  16 1.36962 7.77853   2
   3  -1 -16 -2.1743 8.25887   4
  -3   1  16 6.60300 8.16251   2
   2  -1 -16 8.21313 8.90497   4
  -2   1  16 1.24237 7.63136   2
   1  -1 -16 9.99346 8.63348   4
  -1   1  16 12.6533 8.95784   2
   0  -1 -16 3.66693 7.61706   4
   0   1  16 0.07840 6.85384   2
  -1  -1 -16 1.02525 7.81152   4
   1   1  16 3.25140 7.03638   2
  -2  -1 -16 98.6459 13.9915   4
   2   1  16 138.891 9.28056   1
   2   1  16 156.697 15.6650   2
  -3  -1 -16 12.3300 7.81846   4
   3   1  16 25.7698 8.93518   2
   3   1  16 30.6127 5.84488   1
  -4  -1 -16 85.7512 12.1348   4
   4   1  16 66.3656 8.64587   1
   4   1  16 54.3784 10.3359   2
  -5  -1 -16 122.954 10.9330   3
  -5  -1 -16 99.7411 12.9364   4
   5   1  16 111.517 11.6984   1
   5   1  16 108.460 13.2318   2
  -6  -1 -16 92.4372 10.3354   3
  -6  -1 -16 84.0010 11.8103   4
   6   1  16 83.5586 10.8330   1
   6   1  16 74.1511 11.0332   2
  -7  -1 -16 79.1641 11.8406   4
  -7  -1 -16 83.7623 10.6005   3
   7   1  16 109.478 12.8644   1
   7   1  16 91.7718 11.6328   2
  -8  -1 -16 -3.7535 5.52110   4
  -8  -1 -16 4.56792 6.66343   3
   8   1  16 -2.3314 6.27265   1
  -9  -1 -16 -1.1413 6.04393   4
  -9  -1 -16 8.88600 7.50086   3
   9   1  16 13.3142 7.85389   1
 -10  -1 -16 -2.4338 7.83483   3
 -10  -1 -16 -8.8356 5.41149   4
  10   1  16 18.1356 9.26042   1
   5  -2 -16 10.7163 9.30066   4
  -5   2  16 25.2334 10.3164   2
   4  -2 -16 116.242 15.9965   4
  -4   2  16 105.138 14.7752   2
   3  -2 -16 249.472 20.5912   4
  -3   2  16 222.334 19.4263   2
   2  -2 -16 34.2993 10.4524   4
  -2   2  16 56.8573 11.4030   2
   1  -2 -16 87.5604 13.5943   4
  -1   2  16 90.2028 13.1293   2
   0  -2 -16 -6.4282 7.27004   4
   0   2  16 9.68985 7.69569   2
  -1  -2 -16 32.6659 9.90007   4
   1   2  16 62.8800 11.6278   2
   1   2  16 47.7607 6.52244   1
  -2  -2 -16 129.974 15.2843   4
   2   2  16 187.628 10.8650   1
   2   2  16 152.805 15.8506   2
  -3  -2 -16 33.0700 9.45335   4
   3   2  16 30.4367 6.24803   1
   3   2  16 24.6816 8.61830   2
  -4  -2 -16 408.292 22.1729   4
   4   2  16 489.669 23.9419   2
   4   2  16 469.498 18.9718   1
  -5  -2 -16 141.463 15.3674   4
   5   2  16 145.035 11.8836   1
   5   2  16 133.310 14.4099   2
  -6  -2 -16 799.995 30.3511   4
   6   2  16 839.555 31.8320   2
   6   2  16 840.802 29.0206   1
  -7  -2 -16 13.7653 7.29525   4
   7   2  16 6.36794 6.32011   2
   7   2  16 29.0488 7.70151   1
  -8  -2 -16 38.0705 9.37596   4
   8   2  16 41.6649 9.61845   1
  -9  -2 -16 25.6746 8.22024   4
   9   2  16 5.46095 7.11230   1
 -10  -2 -16 96.1767 12.3713   4
  10   2  16 114.110 15.2126   1
   5  -3 -16 94.8166 14.6522   4
   4  -3 -16 -9.5011 8.15885   4
  -4   3  16 -3.0567 8.11702   2
   3  -3 -16 1.18850 8.77059   4
  -3   3  16 -0.4120 8.31974   2
   2  -3 -16 299.895 20.5419   4
  -2   3  16 285.028 21.0240   2
   1  -3 -16 0.72755 8.27970   1
   1  -3 -16 3.17588 7.97491   4
  -1   3  16 1.73786 7.43164   2
   0  -3 -16 -3.3730 4.47162   1
   0  -3 -16 3.47307 7.89164   4
   0   3  16 13.7135 8.24262   2
  -1  -3 -16 -0.7944 7.15583   4
  -1  -3 -16 5.94899 5.63034   1
   1   3  16 3.87480 7.30871   2
  -2  -3 -16 -2.8719 6.82325   4
   2   3  16 6.24074 7.37395   2
   2   3  16 -2.3056 3.63644   1
  -3  -3 -16 67.8770 11.4698   4
   3   3  16 58.8355 8.11411   1
   3   3  16 81.9684 12.5669   2
  -4  -3 -16 170.267 14.9614   4
   4   3  16 180.699 12.0830   1
   4   3  16 179.213 16.7426   2
  -5  -3 -16 30.9190 8.98036   4
   5   3  16 33.9976 7.31248   1
   5   3  16 35.1621 9.02162   2
  -6  -3 -16 -6.2004 5.41878   4
   6   3  16 -5.9243 5.84304   2
   6   3  16 9.80321 6.05305   1
  -7  -3 -16 0.33279 5.99150   4
   7   3  16 8.33468 6.46736   2
   7   3  16 4.65698 5.99498   1
  -8  -3 -16 100.373 13.3609   4
   8   3  16 120.742 14.0435   1
  -9  -3 -16 68.3236 11.3771   4
   9   3  16 76.1409 12.4021   1
 -10  -3 -16 116.522 14.3733   4
  10   3  16 107.025 14.6543   1
   4  -4 -16 32.8003 10.8769   4
  -4   4  16 23.0271 10.7732   2
   3  -4 -16 8.60668 8.53333   4
  -3   4  16 2.65588 7.98007   2
   2  -4 -16 73.2471 12.4695   4
   2  -4 -16 68.0151 13.1361   1
  -2   4  16 89.1925 13.9866   2
   1  -4 -16 244.246 18.8269   4
   1  -4 -16 223.159 14.6184   1
  -1   4  16 230.643 18.6236   2
   0  -4 -16 24.2159 6.88477   1
   0  -4 -16 18.3620 8.83953   4
   0   4  16 11.1883 8.06054   2
  -1  -4 -16 114.690 11.8288   1
  -1  -4 -16 113.499 13.6277   4
   1   4  16 106.088 14.0016   2
  -2  -4 -16 79.5573 10.4862   1
  -2  -4 -16 60.7780 10.9956   4
   2   4  16 86.9428 12.4477   2
  -3  -4 -16 270.842 18.1016   4
   3   4  16 337.231 20.6712   2
   3   4  16 301.301 15.7196   1
  -4  -4 -16 45.2794 9.39135   4
   4   4  16 36.2842 9.58912   2
   4   4  16 48.8654 8.00278   1
  -5  -4 -16 10.8488 7.54108   4
   5   4  16 2.69194 4.65660   1
   5   4  16 4.35846 6.96833   2
  -6  -4 -16 7.71780 6.94504   4
   6   4  16 -4.1214 6.07904   2
   6   4  16 0.28111 4.57632   1
  -7  -4 -16 214.973 17.4593   4
   7   4  16 239.443 16.8588   2
   7   4  16 233.134 16.2368   1
  -8  -4 -16 169.578 16.7928   4
   8   4  16 191.917 15.5811   1
  -9  -4 -16 327.310 20.6960   4
   9   4  16 346.286 20.7056   1
 -10  -4 -16 35.4875 10.1065   4
  10   4  16 34.0167 9.41051   1
 -11  -4 -16 21.7763 8.40253   4
  11   4  16 45.8592 11.3828   1
   3  -5 -16 36.0370 10.3681   4
  -3   5  16 28.1315 10.1264   2
   2  -5 -16 48.9015 11.0749   4
   2  -5 -16 55.0368 10.6757   1
  -2   5  16 30.5571 10.2605   2
   1  -5 -16 38.1935 10.1713   4
   1  -5 -16 52.9590 9.64596   1
  -1   5  16 47.4593 11.2940   2
   0  -5 -16 84.1157 11.3538   1
   0  -5 -16 73.5262 11.7134   4
   0   5  16 112.702 14.6428   2
  -1  -5 -16 4.22925 6.45080   1
  -1  -5 -16 0.61390 7.01992   4
   1   5  16 2.92028 7.41905   2
  -2  -5 -16 5.42482 6.94333   4
  -2  -5 -16 -1.8585 5.87733   1
   2   5  16 23.1831 8.45367   2
  -3  -5 -16 98.2301 11.9369   1
  -3  -5 -16 109.928 13.3031   4
   3   5  16 133.013 14.7476   2
  -4  -5 -16 28.5691 8.50253   4
   4   5  16 26.6044 9.02864   2
   4   5  16 32.6372 7.40418   1
  -5  -5 -16 142.654 15.5125   4
   5   5  16 156.947 15.5349   2
   5   5  16 152.047 12.8991   1
  -6  -5 -16 264.356 18.0206   4
   6   5  16 283.940 18.4151   2
   6   5  16 273.493 16.6402   1
  -7  -5 -16 3.05883 7.11830   4
   7   5  16 15.5393 6.70023   1
   7   5  16 26.2930 8.16209   2
  -8  -5 -16 72.8371 11.7052   4
   8   5  16 65.3805 11.1279   1
  -9  -5 -16 33.5912 9.66769   4
   9   5  16 54.3819 10.4283   1
 -10  -5 -16 -7.1587 5.92997   4
  10   5  16 1.47518 6.30580   1
 -11  -5 -16 -3.1983 6.62583   4
  11   5  16 -1.5151 7.10765   1
   2  -6 -16 0.70295 7.06134   4
   2  -6 -16 1.45256 6.89908   1
  -2   6  16 10.8338 8.27607   2
   1  -6 -16 17.9724 8.24651   1
   1  -6 -16 15.7825 8.50945   4
  -1   6  16 17.9012 8.60305   2
   0  -6 -16 27.6674 8.88278   4
   0  -6 -16 21.1252 8.73217   1
   0   6  16 39.3499 10.0491   2
  -1  -6 -16 178.072 15.0763   1
  -1  -6 -16 196.003 16.2412   4
   1   6  16 187.662 16.7126   2
  -2  -6 -16 122.327 14.2090   4
  -2  -6 -16 104.861 12.9694   1
   2   6  16 95.6438 12.9858   2
  -3  -6 -16 28.5323 8.50299   4
  -3  -6 -16 18.9714 8.02413   1
   3   6  16 26.7427 8.63658   2
  -4  -6 -16 138.694 14.8377   4
   4   6  16 157.875 16.2548   2
  -5  -6 -16 72.8446 11.4493   4
   5   6  16 112.982 12.6504   1
   5   6  16 96.5525 13.1532   2
  -6  -6 -16 282.465 18.7110   4
   6   6  16 282.203 17.4181   1
   6   6  16 290.246 18.7611   2
  -7  -6 -16 150.851 15.4957   4
   7   6  16 157.615 15.7584   1
   7   6  16 144.026 14.8652   2
  -8  -6 -16 -4.1554 6.37685   4
   8   6  16 9.13453 6.57604   1
  -9  -6 -16 91.0941 13.1588   4
   9   6  16 81.1023 12.6493   1
 -10  -6 -16 10.7481 8.00951   4
  10   6  16 2.85500 6.78342   1
 -11  -6 -16 276.007 20.8646   4
  11   6  16 314.298 21.4846   1
   2  -7 -16 5.54704 9.02813   1
   2  -7 -16 10.7934 8.87078   4
  -2   7  16 10.4434 8.42384   2
   1  -7 -16 7.60284 7.30774   4
   1  -7 -16 -0.1228 7.96971   1
  -1   7  16 -8.4559 7.04307   2
   0  -7 -16 -3.8268 6.47023   4
   0  -7 -16 7.95909 8.38189   1
   0   7  16 7.50813 7.72620   2
  -1  -7 -16 94.0251 13.6150   1
  -1  -7 -16 97.0725 12.4144   4
   1   7  16 97.7319 14.1049   2
  -2  -7 -16 16.9513 8.85536   1
  -2  -7 -16 37.5073 8.74207   4
   2   7  16 23.2750 8.94642   2
  -3  -7 -16 15.4344 7.48848   4
  -3  -7 -16 5.10125 7.45905   1
   3   7  16 17.9074 8.44198   2
  -4  -7 -16 26.1086 9.18414   1
  -4  -7 -16 45.3214 9.64069   4
   4   7  16 50.4028 10.0698   2
  -5  -7 -16 10.3271 6.65685   4
   5   7  16 8.23985 6.22737   1
   5   7  16 -3.0561 6.18218   2
  -6  -7 -16 55.4920 10.9417   4
   6   7  16 85.1399 12.3447   2
   6   7  16 66.2402 10.8240   1
  -7  -7 -16 44.0343 10.5069   4
   7   7  16 57.0102 10.4512   2
   7   7  16 72.8249 11.6580   1
  -8  -7 -16 -0.4009 7.03866   4
   8   7  16 5.56089 6.16270   1
  -9  -7 -16 96.6928 13.8809   4
   9   7  16 122.762 14.3355   1
 -10  -7 -16 10.1328 7.97219   4
  10   7  16 13.4599 7.41300   1
   0  -8 -16 24.4527 8.30079   4
   0  -8 -16 29.4093 10.0269   1
   0   8  16 36.5028 10.7195   2
  -1  -8 -16 18.1089 7.65830   4
  -1  -8 -16 27.7264 9.59436   1
   1   8  16 32.8687 9.78162   2
  -2  -8 -16 -4.4509 5.86604   4
  -2  -8 -16 10.9719 8.56027   1
   2   8  16 5.83433 7.45448   2
  -3  -8 -16 16.8391 7.49993   4
  -3  -8 -16 35.1954 10.0915   1
   3   8  16 26.5927 9.14727   2
  -4  -8 -16 289.896 20.2042   1
  -4  -8 -16 286.266 18.4246   4
   4   8  16 295.207 20.4702   2
  -5  -8 -16 5.97385 7.08298   4
  -5  -8 -16 4.43889 8.52471   1
   5   8  16 8.79791 7.05445   2
  -6  -8 -16 265.281 17.9059   4
   6   8  16 240.886 17.4520   1
   6   8  16 253.698 18.1067   2
  -7  -8 -16 -0.7569 6.47432   4
   7   8  16 6.78980 7.06730   2
   7   8  16 7.17980 6.47118   1
  -8  -8 -16 389.282 23.1490   4
   8   8  16 442.116 23.6930   1
  -9  -8 -16 8.27366 8.15573   4
   9   8  16 13.2176 7.22283   1
 -10  -8 -16 47.7512 11.4008   4
  10   8  16 59.5052 11.2807   1
  -1  -9 -16 10.3353 9.09177   1
  -1  -9 -16 -2.1111 5.96749   4
   1   9  16 5.05801 7.89838   2
  -2  -9 -16 19.2414 10.0733   1
  -2  -9 -16 13.9466 7.25829   4
   2   9  16 14.0727 8.46645   2
  -3  -9 -16 16.3482 7.69304   4
  -3  -9 -16 -0.9969 8.07086   1
   3   9  16 24.1289 9.29224   2
  -4  -9 -16 -5.6014 5.54444   4
  -4  -9 -16 4.65703 8.93104   1
   4   9  16 7.24618 7.25324   2
  -5  -9 -16 21.0832 8.30555   4
  -5  -9 -16 4.41889 8.57818   1
   5   9  16 20.5004 9.08119   2
  -6  -9 -16 38.8085 10.0020   4
   6   9  16 34.2532 9.51030   1
   6   9  16 45.6988 10.1852   2
  -7  -9 -16 16.4075 8.28815   4
   7   9  16 10.6839 7.29515   2
   7   9  16 14.3595 7.24389   1
  -8  -9 -16 26.0984 9.03702   4
   8   9  16 37.9707 9.68346   1
  -9  -9 -16 39.8971 10.9502   4
   9   9  16 35.5802 10.3808   1
  -3 -10 -16 204.242 15.8479   4
  -3 -10 -16 172.294 19.6768   1
   3  10  16 244.292 20.2531   2
  -4 -10 -16 -5.5752 5.92730   4
  -4 -10 -16 4.22932 8.52759   1
   4  10  16 8.66536 8.46285   2
  -5 -10 -16 76.4293 13.5350   1
  -5 -10 -16 98.3435 12.7682   4
   5  10  16 110.168 14.8465   2
  -6 -10 -16 0.89480 8.43467   1
  -6 -10 -16 1.77579 6.84126   4
   6  10  16 6.38674 7.73115   2
  -7 -10 -16 18.7164 7.96098   4
   7  10  16 14.1814 7.79213   1
   7  10  16 19.7006 8.25249   2
  -8 -10 -16 27.4904 9.53397   4
   8  10  16 19.8915 8.97558   1
   1   7 -17 53.8473 12.4960   4
   1   7 -17 57.0614 11.2705   3
   3   6 -17 12.9662 9.60368   4
   3   6 -17 -2.6830 5.96350   3
  -3  -6  17 10.0261 8.86658   2
   2   6 -17 5.59535 8.91068   4
   2   6 -17 6.45198 6.37727   3
  -2  -6  17 3.43156 8.30003   2
   1   6 -17 60.1127 10.7624   3
   1   6 -17 67.8561 12.9414   4
  -1  -6  17 63.2122 12.8522   2
   0   6 -17 32.7749 8.89226   3
   0   6 -17 34.4878 10.6550   4
   0  -6  17 50.8978 12.3938   2
  -1   6 -17 41.0220 9.87722   3
   1  -6  17 45.3554 12.5333   2
  -2   6 -17 12.8037 7.52634   3
   2  -6  17 6.21902 8.06035   2
  -3   6 -17 6.77592 7.61001   3
   3  -6  17 10.2002 8.63832   2
   4   5 -17 167.034 19.1239   4
  -4  -5  17 175.837 19.9231   3
  -4  -5  17 185.722 18.7735   2
   3   5 -17 175.478 19.2187   4
   3   5 -17 193.475 15.2776   3
  -3  -5  17 193.607 19.2919   2
   2   5 -17 34.0473 8.33430   3
   2   5 -17 47.6987 12.4228   4
  -2  -5  17 27.6545 10.0928   2
   1   5 -17 38.4917 9.26583   3
   1   5 -17 20.4648 10.1663   4
  -1  -5  17 28.2040 10.2341   2
   0   5 -17 103.851 14.2407   4
   0   5 -17 86.3088 12.8389   3
   0  -5  17 94.1612 15.0119   2
  -1   5 -17 26.4111 9.47302   4
  -1   5 -17 42.2629 9.70232   3
   1  -5  17 20.0832 9.74452   2
  -2   5 -17 90.1814 13.0208   3
  -2   5 -17 116.599 13.8631   4
   2  -5  17 99.7522 14.9445   2
  -3   5 -17 31.0077 9.52981   3
   3  -5  17 31.4476 10.0766   2
  -4   5 -17 141.280 16.1040   3
   4  -5  17 186.576 19.4925   2
   5   4 -17 16.7437 10.7135   4
  -5  -4  17 19.2702 9.18904   2
  -5  -4  17 8.56929 9.02591   3
   4   4 -17 0.11194 9.06247   4
  -4  -4  17 13.6184 8.83539   2
  -4  -4  17 14.3325 9.57817   3
   3   4 -17 20.6361 10.2409   4
  -3  -4  17 11.9084 9.50051   3
  -3  -4  17 16.2722 8.87762   2
   2   4 -17 -0.8651 5.33982   3
   2   4 -17 9.41335 9.81226   4
  -2  -4  17 -5.6527 7.47017   2
   1   4 -17 6.27631 8.89219   4
   1   4 -17 4.27837 5.73646   3
  -1  -4  17 5.88691 7.65611   2
   0   4 -17 36.2830 8.37818   3
   0   4 -17 27.9687 10.5163   4
   0  -4  17 12.8574 8.40856   2
  -1   4 -17 6.74474 8.32519   4
  -1   4 -17 4.85202 6.00349   3
   1  -4  17 1.15010 7.09400   2
  -2   4 -17 32.2435 10.0314   4
  -2   4 -17 31.6043 8.46416   3
   2  -4  17 4.65049 7.93854   2
  -3   4 -17 36.4970 9.11619   3
  -3   4 -17 29.6781 8.95439   4
   3  -4  17 28.2221 10.1445   2
  -4   4 -17 22.4354 8.10105   3
   4  -4  17 42.0881 10.4437   2
  -5   4 -17 30.5884 9.68743   3
   5  -4  17 25.4401 9.73658   2
  -6   4 -17 7.86122 7.63256   3
   6  -4  17 -2.3556 6.77730   2
   5   3 -17 7.64548 9.35209   4
  -5  -3  17 -6.2698 7.63286   3
  -5  -3  17 -1.4902 8.25703   2
   4   3 -17 9.33527 10.0906   4
  -4  -3  17 -9.5918 7.48703   3
  -4  -3  17 11.8140 8.63731   2
   3   3 -17 13.0086 9.93755   4
  -3  -3  17 10.9369 9.08750   3
  -3  -3  17 26.9520 9.79426   2
   2   3 -17 5.64049 9.61999   4
   2   3 -17 11.8014 6.52228   3
  -2  -3  17 7.73392 8.02868   2
   1   3 -17 524.883 28.0011   4
   1   3 -17 528.772 23.4090   3
  -1  -3  17 533.266 27.6521   2
   0   3 -17 25.5357 7.30598   3
   0   3 -17 7.48034 8.97344   4
   0  -3  17 32.1651 9.71478   2
  -1   3 -17 401.921 23.6325   4
  -1   3 -17 438.464 20.8617   3
   1  -3  17 384.754 23.3202   2
  -2   3 -17 8.89521 6.64799   3
  -2   3 -17 19.9767 9.11759   4
   2  -3  17 0.31165 7.19112   2
  -3   3 -17 124.220 14.3163   4
  -3   3 -17 131.593 14.3335   3
   3  -3  17 125.913 15.4223   2
  -4   3 -17 39.5010 9.37780   4
  -4   3 -17 63.4835 10.9453   3
   4  -3  17 58.8272 11.6390   2
  -5   3 -17 13.3537 7.64687   3
   5  -3  17 14.4614 8.40481   2
  -6   3 -17 26.4836 9.36023   3
   6  -3  17 28.0868 9.11225   2
  -7   3 -17 14.1210 9.14161   3
   7  -3  17 15.5957 8.58073   2
   5   2 -17 21.2129 11.1069   4
  -5  -2  17 19.1530 10.0034   2
  -5  -2  17 17.3455 9.84763   3
   4   2 -17 10.2729 9.80175   4
  -4  -2  17 2.98306 7.97005   3
  -4  -2  17 -2.3630 7.54948   2
   3   2 -17 14.5210 9.94401   4
  -3  -2  17 -1.8389 7.47586   2
  -3  -2  17 -1.4103 8.11791   3
   2   2 -17 41.5874 12.6055   4
  -2  -2  17 43.8142 11.0564   2
  -2  -2  17 28.2179 9.86858   3
   1   2 -17 -3.7320 4.52433   3
   1   2 -17 4.51866 9.31610   4
  -1  -2  17 -7.6133 6.39649   2
   0   2 -17 -12.386 7.22814   4
   0   2 -17 4.57313 5.12332   3
   0  -2  17 -4.6147 7.08959   2
  -1   2 -17 37.3111 10.8904   4
  -1   2 -17 19.4924 6.56414   3
   1  -2  17 22.6660 8.91950   2
  -2   2 -17 46.6082 11.0890   4
  -2   2 -17 80.9113 10.9650   3
   2  -2  17 62.7586 11.8546   2
  -3   2 -17 60.6672 9.78086   3
  -3   2 -17 55.2537 10.8115   4
   3  -2  17 39.1798 10.2515   2
  -4   2 -17 -1.2095 6.90632   4
  -4   2 -17 18.3368 6.47770   3
   4  -2  17 4.60324 7.30615   2
  -5   2 -17 294.242 18.8015   3
  -5   2 -17 260.285 17.2822   4
   5  -2  17 270.229 19.4713   2
  -6   2 -17 95.9567 11.8771   4
  -6   2 -17 125.334 14.3312   3
   6  -2  17 80.3130 13.0462   2
  -7   2 -17 20.3232 8.87018   3
   7  -2  17 2.55716 9.01946   1
   7  -2  17 -1.4947 6.41127   2
   5   1 -17 7.81643 9.48664   4
  -5  -1  17 -10.874 7.40678   2
   4   1 -17 179.415 19.7084   4
  -4  -1  17 150.216 17.2611   2
   3   1 -17 76.9078 14.4993   4
  -3  -1  17 49.3925 11.7547   3
  -3  -1  17 74.2900 13.2741   2
   2   1 -17 91.7355 15.5088   4
  -2  -1  17 99.3025 12.8561   3
  -2  -1  17 97.5566 14.3685   2
   1   1 -17 10.0255 5.57061   3
   1   1 -17 -7.5048 7.71964   4
  -1  -1  17 -9.0662 6.66482   2
   0   1 -17 6.80295 5.35469   3
   0   1 -17 2.02226 7.95884   4
   0  -1  17 -6.1414 6.59262   2
  -1   1 -17 178.234 18.5349   4
  -1   1 -17 188.954 13.5903   3
   1  -1  17 142.542 15.8293   2
  -2   1 -17 88.9855 13.4853   4
  -2   1 -17 92.7170 11.0781   3
   2  -1  17 77.1626 12.2338   2
  -3   1 -17 232.827 14.4324   3
  -3   1 -17 172.833 17.3166   4
   3  -1  17 195.605 18.5933   2
  -4   1 -17 98.6638 13.2474   4
  -4   1 -17 107.327 12.0257   3
   4  -1  17 102.876 13.7263   2
  -5   1 -17 283.848 17.3870   3
  -5   1 -17 270.196 17.9187   4
   5  -1  17 267.803 19.0021   2
  -6   1 -17 88.6680 11.9469   3
  -6   1 -17 88.0479 11.6190   4
   6  -1  17 99.5762 13.2341   2
   6  -1  17 85.1012 11.3727   1
  -7   1 -17 9.28504 7.47559   3
  -7   1 -17 1.29906 6.04669   4
   7  -1  17 7.11745 7.30997   2
   7  -1  17 3.30961 7.01777   1
  -8   1 -17 4.81200 8.70239   3
   8  -1  17 13.1939 7.83852   1
   5   0 -17 13.0306 9.79835   4
  -5   0  17 -3.8219 8.12721   2
   4   0 -17 13.0823 10.4399   4
  -4   0  17 3.34444 8.05300   2
   3   0 -17 86.7615 14.7752   4
  -3   0  17 77.4053 13.4629   2
   2   0 -17 191.055 20.0684   4
  -2   0  17 159.774 17.5521   2
   1   0 -17 97.3729 15.4381   4
  -1   0  17 72.6564 12.8501   2
   0   0 -17 -8.8046 7.84706   4
   0   0  17 5.92158 7.99612   2
  -1   0 -17 316.379 22.0685   4
   1   0  17 283.535 20.5823   2
  -2   0 -17 212.236 18.2980   4
   2   0  17 227.563 18.6641   2
  -3   0 -17 53.4773 11.2778   4
  -3   0 -17 49.5124 11.2080   3
   3   0  17 26.8657 9.10522   2
  -4   0 -17 -0.0057 4.60683   3
  -4   0 -17 -3.8222 6.84661   4
   4   0  17 8.06035 5.96902   1
   4   0  17 -5.0113 6.03580   2
  -5   0 -17 19.4432 8.25064   4
  -5   0 -17 4.01459 5.73669   3
   5   0  17 -5.4694 6.32686   2
   5   0  17 3.32661 5.37621   1
  -6   0 -17 16.5786 7.42693   4
  -6   0 -17 5.01142 5.73708   3
   6   0  17 9.34483 6.68610   2
   6   0  17 10.6336 6.71033   1
  -7   0 -17 74.1503 11.2023   3
  -7   0 -17 86.0013 12.0103   4
   7   0  17 84.2546 11.7873   2
   7   0  17 64.9295 10.7483   1
  -8   0 -17 7.15289 6.88175   4
  -8   0 -17 -0.6772 7.36287   3
   8   0  17 4.24035 6.86863   1
  -9   0 -17 4.93825 8.16540   3
   9   0  17 8.02881 8.49028   1
   5  -1 -17 39.6199 12.2784   4
  -5   1  17 31.7459 10.8990   2
   4  -1 -17 48.2720 13.0308   4
  -4   1  17 23.2138 10.7356   2
   3  -1 -17 11.5323 9.77812   4
  -3   1  17 13.2087 9.20002   2
   2  -1 -17 227.139 20.2443   4
  -2   1  17 229.729 20.0184   2
   1  -1 -17 53.4231 12.1108   4
  -1   1  17 73.8039 13.0329   2
   0  -1 -17 119.545 16.0223   4
   0   1  17 110.115 14.9943   2
  -1  -1 -17 5.44051 8.16715   4
   1   1  17 -1.5412 7.63172   2
  -2  -1 -17 91.2196 13.8655   4
   2   1  17 136.624 15.6064   2
  -3  -1 -17 42.7046 10.2406   4
   3   1  17 54.5978 7.38917   1
   3   1  17 38.7625 10.1075   2
  -4  -1 -17 185.259 17.9401   4
   4   1  17 220.153 12.9520   1
   4   1  17 162.141 16.8341   2
  -5  -1 -17 7.47539 7.15814   4
   5   1  17 4.65567 6.67379   2
   5   1  17 11.2090 5.62912   1
  -6  -1 -17 259.645 18.1701   4
   6   1  17 237.931 17.3693   2
   6   1  17 306.060 16.9167   1
  -7  -1 -17 25.1818 8.35584   4
   7   1  17 47.2234 9.69083   2
   7   1  17 35.5491 8.67626   1
  -8  -1 -17 361.720 20.4968   4
   8   1  17 411.955 21.8247   1
  -9  -1 -17 60.5181 10.4306   4
   9   1  17 32.7984 10.1954   1
   4  -2 -17 55.3800 13.1745   4
  -4   2  17 53.2321 12.5358   2
   3  -2 -17 12.0503 9.34232   4
  -3   2  17 0.54848 7.72697   2
   2  -2 -17 105.988 15.8481   4
  -2   2  17 103.159 14.8986   2
   1  -2 -17 110.045 15.3814   4
  -1   2  17 87.7339 13.8604   2
   0  -2 -17 105.443 15.5742   4
   0   2  17 117.694 15.7782   2
  -1  -2 -17 52.2838 11.5344   4
   1   2  17 52.4816 11.4563   2
  -2  -2 -17 16.1762 8.84136   4
   2   2  17 28.3948 5.85954   1
   2   2  17 25.4192 9.34643   2
  -3  -2 -17 140.546 16.0693   4
   3   2  17 176.989 18.1020   2
   3   2  17 182.034 11.6000   1
  -4  -2 -17 6.59274 7.23261   4
   4   2  17 4.52214 7.48458   2
   4   2  17 6.92877 4.86584   1
  -5  -2 -17 31.1467 9.05582   4
   5   2  17 29.3218 8.83957   2
   5   2  17 28.9112 7.03332   1
  -6  -2 -17 -4.2065 6.18226   4
   6   2  17 -9.7154 5.47554   2
   6   2  17 -1.5108 4.85597   1
  -7  -2 -17 11.1489 6.92738   4
   7   2  17 -0.9903 5.25214   1
   7   2  17 6.79126 6.72816   2
  -8  -2 -17 -1.4406 6.10537   4
   8   2  17 10.8871 7.10703   1
  -9  -2 -17 28.1619 8.67992   4
   9   2  17 46.6188 10.2662   1
 -10  -2 -17 5.56115 6.64734   4
  10   2  17 11.3045 8.33323   1
   4  -3 -17 42.8048 12.1391   4
  -4   3  17 25.3868 10.9593   2
   3  -3 -17 32.0105 10.5906   4
  -3   3  17 30.7878 10.7057   2
   2  -3 -17 5.65948 8.90398   4
  -2   3  17 -0.5648 8.22231   2
   1  -3 -17 68.3633 12.8434   4
  -1   3  17 71.2233 12.7839   2
   0  -3 -17 12.9851 8.36816   4
   0   3  17 4.71322 8.21366   2
  -1  -3 -17 584.607 28.1039   4
   1   3  17 639.753 29.8420   2
  -2  -3 -17 12.5881 8.80242   4
   2   3  17 15.4298 8.34820   2
   2   3  17 4.91210 4.45470   1
  -3  -3 -17 321.654 20.9225   4
   3   3  17 322.749 20.7467   2
   3   3  17 325.073 15.7790   1
  -4  -3 -17 37.8326 9.63707   4
   4   3  17 21.8507 8.76230   2
   4   3  17 32.7325 6.97241   1
  -5  -3 -17 172.319 16.9445   4
   5   3  17 176.956 15.7748   2
   5   3  17 178.511 12.8969   1
  -6  -3 -17 144.445 15.4099   4
   6   3  17 173.007 16.5820   2
   6   3  17 170.645 13.5135   1
  -7  -3 -17 46.1379 10.1462   4
   7   3  17 37.0693 9.03329   2
   7   3  17 62.8508 10.3784   1
  -8  -3 -17 9.72650 7.37583   4
   8   3  17 22.6382 8.08104   1
  -9  -3 -17 1.22827 6.43294   4
   9   3  17 3.53905 7.11773   1
 -10  -3 -17 140.949 15.6383   4
  10   3  17 179.337 18.2847   1
   3  -4 -17 -4.3326 8.11607   4
  -3   4  17 -0.1349 8.65869   2
   2  -4 -17 20.2473 9.54765   4
  -2   4  17 14.4794 9.46663   2
   1  -4 -17 20.4964 9.47972   4
  -1   4  17 28.7451 10.3407   2
   0  -4 -17 146.363 16.7361   4
   0  -4 -17 146.433 12.7317   1
   0   4  17 126.697 16.1273   2
  -1  -4 -17 5.35062 7.79882   4
  -1  -4 -17 7.90028 6.34770   1
   1   4  17 14.8015 8.90343   2
  -2  -4 -17 2.96939 7.28498   4
   2   4  17 1.84116 7.33274   2
  -3  -4 -17 156.618 16.1597   4
   3   4  17 177.850 17.5230   2
   3   4  17 188.701 12.6100   1
  -4  -4 -17 2.65103 7.03563   4
   4   4  17 3.82855 4.73296   1
   4   4  17 -8.6847 6.49262   2
  -5  -4 -17 -3.0814 6.38689   4
   5   4  17 10.1364 8.04736   2
   5   4  17 13.6084 5.55459   1
  -6  -4 -17 14.7578 8.05920   4
   6   4  17 1.31371 4.61000   1
   6   4  17 5.36349 7.26087   2
  -7  -4 -17 15.5429 8.26998   4
   7   4  17 39.3225 8.54347   1
   7   4  17 14.5180 7.85757   2
  -8  -4 -17 72.8038 12.0049   4
   8   4  17 85.4526 12.2571   1
  -9  -4 -17 34.2182 10.0343   4
   9   4  17 30.8711 9.33235   1
 -10  -4 -17 6.20706 7.20808   4
  10   4  17 14.9008 8.09012   1
   3  -5 -17 -4.3261 8.18307   4
   2  -5 -17 219.640 19.0312   4
  -2   5  17 179.171 18.5611   2
   1  -5 -17 20.8166 9.15999   4
   1  -5 -17 -1.4617 6.26385   1
  -1   5  17 0.27473 7.69271   2
   0  -5 -17 83.8044 13.1567   4
   0  -5 -17 80.1493 10.8920   1
   0   5  17 77.9351 13.5302   2
  -1  -5 -17 13.7499 7.27259   1
  -1  -5 -17 28.4556 9.40378   4
   1   5  17 12.4660 8.56871   2
  -2  -5 -17 2.83262 7.06552   4
  -2  -5 -17 -6.7382 5.83281   1
   2   5  17 10.9876 8.61312   2
  -3  -5 -17 311.076 19.4149   4
   3   5  17 292.957 16.4858   1
   3   5  17 298.649 20.4546   2
  -4  -5 -17 128.021 14.4875   4
   4   5  17 113.131 14.1347   2
   4   5  17 107.696 11.9432   1
  -5  -5 -17 249.089 18.3017   4
   5   5  17 239.977 17.7466   2
   5   5  17 262.671 15.9967   1
  -6  -5 -17 9.49269 7.80241   4
   6   5  17 14.5048 8.09344   2
   6   5  17 21.1525 7.11271   1
  -7  -5 -17 59.8773 11.5130   4
   7   5  17 84.9906 12.2438   2
   7   5  17 64.1449 10.2145   1
  -8  -5 -17 194.769 17.1908   4
   8   5  17 240.324 17.4366   1
  -9  -5 -17 -1.5536 6.94749   4
   9   5  17 9.26220 7.51263   1
 -10  -5 -17 58.1856 11.8451   4
  10   5  17 79.2550 12.8490   1
   2  -6 -17 3.67204 7.98767   4
   2  -6 -17 -8.2838 6.42100   1
  -2   6  17 -3.8108 7.53440   2
   1  -6 -17 3.20832 8.04762   4
   1  -6 -17 -5.5158 6.59169   1
  -1   6  17 -2.6491 8.14297   2
   0  -6 -17 40.3481 10.4340   4
   0  -6 -17 28.8415 9.09344   1
   0   6  17 41.6360 10.6888   2
  -1  -6 -17 73.1834 11.6368   4
  -1  -6 -17 43.4440 9.94709   1
   1   6  17 62.2486 11.6644   2
  -2  -6 -17 14.5108 7.42007   1
  -2  -6 -17 16.3098 8.21875   4
   2   6  17 -1.8760 7.35710   2
  -3  -6 -17 89.9360 12.9143   4
  -3  -6 -17 82.8996 12.4482   1
   3   6  17 91.4547 13.3998   2
  -4  -6 -17 148.329 15.7879   4
   4   6  17 152.756 13.3245   1
  -5  -6 -17 -6.5975 5.99926   4
   5   6  17 9.19751 5.67799   1
   5   6  17 -16.971 5.48411   2
  -6  -6 -17 20.4702 8.29941   4
   6   6  17 25.9700 9.08758   2
   6   6  17 16.0082 7.15447   1
  -7  -6 -17 9.55999 7.78763   4
   7   6  17 12.0850 6.89921   1
   7   6  17 7.30213 7.82549   2
  -8  -6 -17 -0.9288 6.66929   4
   8   6  17 -3.0575 5.42792   1
  -9  -6 -17 68.7845 12.5756   4
   9   6  17 41.6211 9.83289   1
 -10  -6 -17 -6.8527 6.40606   4
  10   6  17 9.59500 7.95677   1
   1  -7 -17 -7.0518 6.43515   4
   1  -7 -17 4.45633 7.99776   1
  -1   7  17 -0.9178 8.04961   2
   0  -7 -17 208.921 17.8461   1
   0  -7 -17 199.555 17.6445   4
   0   7  17 224.357 19.8893   2
  -1  -7 -17 47.9557 10.9161   1
  -1  -7 -17 58.8238 10.8867   4
   1   7  17 68.2337 12.7686   2
  -2  -7 -17 193.539 16.8511   1
  -2  -7 -17 190.352 16.3627   4
   2   7  17 215.732 18.7144   2
  -3  -7 -17 -4.2727 7.16903   1
  -3  -7 -17 6.18442 7.25169   4
   3   7  17 30.8094 9.90418   2
  -4  -7 -17 9.44476 7.77642   1
  -4  -7 -17 -3.6440 6.19170   4
   4   7  17 4.11825 8.20531   2
  -5  -7 -17 5.95692 7.39853   4
   5   7  17 22.0426 8.86264   2
   5   7  17 16.1622 6.98267   1
  -6  -7 -17 63.3950 11.3479   4
   6   7  17 64.9702 11.0584   1
   6   7  17 46.7850 10.9948   2
  -7  -7 -17 100.637 14.0471   4
   7   7  17 115.038 14.4954   1
   7   7  17 119.554 14.3764   2
  -8  -7 -17 100.748 13.8296   4
   8   7  17 75.5295 12.2034   1
  -9  -7 -17 27.8419 9.79762   4
   9   7  17 30.8755 9.33735   1
 -10  -7 -17 111.352 15.4821   4
  10   7  17 135.830 16.4036   1
  -1  -8 -17 84.8880 12.2672   4
  -1  -8 -17 55.3716 11.8797   1
   1   8  17 71.2903 12.7340   2
  -2  -8 -17 3.59038 7.03000   4
  -2  -8 -17 7.95723 7.82193   1
   2   8  17 14.1320 8.76762   2
  -3  -8 -17 -0.0213 6.82386   4
  -3  -8 -17 9.93157 8.47093   1
   3   8  17 -2.5417 7.19067   2
  -4  -8 -17 1.50550 6.38663   4
  -4  -8 -17 6.74094 8.13879   1
   4   8  17 12.9248 8.40847   2
  -5  -8 -17 120.752 14.3317   4
   5   8  17 144.685 15.6084   1
   5   8  17 128.770 15.4555   2
  -6  -8 -17 5.33890 7.19907   4
   6   8  17 11.1456 6.65721   1
   6   8  17 3.84934 8.08288   2
  -7  -8 -17 -0.2097 6.59417   4
   7   8  17 6.68018 6.86202   1
   7   8  17 3.47376 7.30433   2
  -8  -8 -17 7.71245 7.98686   4
   8   8  17 17.0084 8.13442   1
  -9  -8 -17 16.3039 9.29560   4
   9   8  17 31.4049 9.36985   1
  -2  -9 -17 -1.9100 7.84105   1
  -2  -9 -17 13.4526 7.57623   4
   2   9  17 11.4514 8.95099   2
  -3  -9 -17 122.269 14.5373   4
  -3  -9 -17 123.536 16.2844   1
   3   9  17 141.505 17.0103   2
  -4  -9 -17 47.1270 12.0536   1
  -4  -9 -17 70.1030 11.5733   4
   4   9  17 81.9844 13.2154   2
  -5  -9 -17 171.818 18.3622   1
  -5  -9 -17 162.308 16.1492   4
   5   9  17 142.209 16.6734   2
  -6  -9 -17 2.20587 7.01768   4
   6   9  17 11.2049 7.18077   1
   6   9  17 1.33252 7.21712   2
  -7  -9 -17 31.5186 9.58852   4
   7   9  17 24.2283 9.12693   1
   7   9  17 30.8923 9.83963   2
  -8  -9 -17 23.5775 9.39637   4
   8   9  17 30.2601 9.62076   1
   9   9  17 21.6712 9.01986   1
  -5 -10 -17 42.9580 12.9017   1
  -5 -10 -17 48.3299 10.5439   4
   5  10  17 59.2464 12.0087   2
  -6 -10 -17 12.3873 7.55172   4
   6  10  17 20.2979 8.82041   1
   6  10  17 32.1216 10.2970   2
   7  10  17 25.0442 8.55782   1
   1   6 -18 48.7693 10.0673   3
   1   6 -18 45.0863 11.7742   4
   0   6 -18 202.129 16.7756   3
   0   6 -18 184.636 18.4039   4
   0  -6  18 190.538 20.2028   2
   3   5 -18 11.1748 9.27867   4
   3   5 -18 10.2160 6.93673   3
  -3  -5  18 14.3078 8.93436   2
   2   5 -18 51.5187 10.0458   3
   2   5 -18 44.2957 12.2849   4
  -2  -5  18 35.4886 11.0480   2
   1   5 -18 19.7642 7.50111   3
   1   5 -18 4.06363 8.56533   4
  -1  -5  18 4.94663 8.83778   2
   0   5 -18 31.5584 10.4513   4
   0   5 -18 23.1820 8.13320   3
   0  -5  18 17.7468 9.82847   2
  -1   5 -18 4.11220 6.29098   3
  -1   5 -18 0.88165 8.03767   4
   1  -5  18 -9.6649 8.05454   2
  -2   5 -18 2.78232 6.82631   3
   2  -5  18 -8.7051 6.82312   2
  -3   5 -18 16.8800 7.78887   3
   4   4 -18 22.4700 11.2924   4
   3   4 -18 127.299 17.3908   4
   3   4 -18 139.219 14.5487   3
  -3  -4  18 146.807 17.5349   2
   2   4 -18 6.70256 5.75213   3
   2   4 -18 -1.7868 8.82857   4
  -2  -4  18 -5.9129 7.91226   2
   1   4 -18 9.86479 6.25638   3
   1   4 -18 0.11216 8.74417   4
  -1  -4  18 13.9434 8.73072   2
   0   4 -18 21.3736 7.61197   3
   0   4 -18 14.9336 9.95095   4
   0  -4  18 13.0283 8.45066   2
  -1   4 -18 232.909 17.2051   3
  -1   4 -18 226.564 19.8948   4
   1  -4  18 207.954 20.0035   2
  -2   4 -18 102.005 12.8209   3
  -2   4 -18 92.0279 13.9914   4
   2  -4  18 78.5910 13.4253   2
  -3   4 -18 117.965 14.4459   4
  -3   4 -18 148.768 15.8048   3
   3  -4  18 136.030 16.8767   2
  -4   4 -18 10.8321 7.87931   3
   4  -4  18 18.7631 9.56989   2
  -5   4 -18 74.0217 12.7620   3
   5  -4  18 47.2051 11.5531   2
   4   3 -18 2.76199 9.72986   4
  -4  -3  18 0.20906 7.75335   2
  -4  -3  18 3.69465 8.71506   3
   3   3 -18 54.8930 13.4152   4
  -3  -3  18 36.9339 10.8168   2
   2   3 -18 62.9747 14.2832   4
   2   3 -18 36.2433 8.60020   3
  -2  -3  18 44.2981 11.2380   2
   1   3 -18 11.3322 5.82314   3
   1   3 -18 -11.863 8.54317   4
  -1  -3  18 1.07196 7.48207   2
   0   3 -18 258.328 21.1374   4
   0   3 -18 243.785 16.2757   3
   0  -3  18 238.504 20.2346   2
  -1   3 -18 25.3524 10.5793   4
  -1   3 -18 30.4847 7.77621   3
   1  -3  18 18.0561 9.45287   2
  -2   3 -18 5.18085 8.54830   4
  -2   3 -18 24.1293 8.02070   3
   2  -3  18 25.0381 9.94123   2
  -3   3 -18 12.9916 8.90441   4
  -3   3 -18 21.5938 7.60319   3
   3  -3  18 11.7641 8.04324   2
  -4   3 -18 26.7267 8.66475   3
  -4   3 -18 17.5594 8.41828   4
   4  -3  18 21.9981 9.36689   2
  -5   3 -18 35.0301 9.81452   3
   5  -3  18 29.4824 9.94422   2
  -6   3 -18 17.8568 8.96934   3
   6  -3  18 3.65850 7.37029   2
   4   2 -18 66.4888 14.4759   4
  -4  -2  18 71.3746 13.8249   2
   3   2 -18 1.80533 10.5443   4
  -3  -2  18 -3.1375 8.23158   2
  -3  -2  18 4.02037 13.2480   3
   2   2 -18 121.799 17.3766   4
   2   2 -18 128.863 13.3303   3
  -2  -2  18 133.202 16.2810   2
   1   2 -18 33.6304 7.60337   3
   1   2 -18 23.9818 10.8081   4
  -1  -2  18 28.7552 10.8473   2
   0   2 -18 56.9479 13.2588   4
   0   2 -18 76.5952 10.4968   3
   0  -2  18 73.4660 13.4188   2
  -1   2 -18 32.1508 7.76399   3
  -1   2 -18 32.3580 11.1442   4
   1  -2  18 22.4511 9.57565   2
  -2   2 -18 45.1489 11.5434   4
  -2   2 -18 30.2029 8.14412   3
   2  -2  18 16.9450 9.24987   2
  -3   2 -18 110.457 13.0687   3
  -3   2 -18 91.8579 13.4640   4
   3  -2  18 93.7379 13.8745   2
  -4   2 -18 62.0240 10.5321   3
  -4   2 -18 59.5920 11.6787   4
   4  -2  18 55.9519 11.4333   2
  -5   2 -18 104.584 13.4731   4
  -5   2 -18 139.205 14.9200   3
   5  -2  18 100.862 14.2041   2
  -6   2 -18 77.9358 11.5124   4
  -6   2 -18 86.9517 12.6590   3
   6  -2  18 64.8008 11.9236   2
  -7   2 -18 29.4168 9.81667   3
   7  -2  18 10.8105 7.68621   2
   4   1 -18 60.1731 14.0583   4
  -4  -1  18 61.7325 12.7135   2
   3   1 -18 29.2450 11.9081   4
  -3  -1  18 37.2123 10.9242   2
   2   1 -18 38.4053 12.2131   4
  -2  -1  18 17.5970 9.82571   2
   1   1 -18 15.6451 10.4514   4
  -1  -1  18 10.7430 9.09440   2
   0   1 -18 26.4895 11.1584   4
   0  -1  18 32.1568 10.3229   2
  -1   1 -18 3.78814 8.67113   4
   1  -1  18 13.2343 8.94018   2
  -2   1 -18 56.8977 11.3618   3
  -2   1 -18 53.3238 12.0892   4
   2  -1  18 49.3725 11.3604   2
  -3   1 -18 141.108 12.3434   3
  -3   1 -18 124.157 15.7970   4
   3  -1  18 117.410 14.5472   2
  -4   1 -18 4.36594 7.24017   4
  -4   1 -18 11.2217 6.17387   3
   4  -1  18 -2.2179 7.12173   2
  -5   1 -18 -8.1168 6.02312   4
  -5   1 -18 6.44338 6.45701   3
   5  -1  18 -6.9190 6.83338   2
  -6   1 -18 98.4266 12.6465   4
  -6   1 -18 100.077 12.8442   3
   6  -1  18 78.4402 12.5098   2
  -7   1 -18 5.54428 7.76175   3
  -7   1 -18 1.02659 6.71622   4
   7  -1  18 1.65646 6.99421   2
  -8   1 -18 6.62104 8.27781   3
   8  -1  18 15.8536 8.73633   1
   4   0 -18 7.10022 10.1973   4
  -4   0  18 11.0005 9.73751   2
   3   0 -18 33.9572 11.8042   4
  -3   0  18 52.1254 12.4247   2
   2   0 -18 153.596 19.1446   4
  -2   0  18 224.966 21.2079   2
   1   0 -18 2.16552 9.01509   4
  -1   0  18 11.2127 9.04816   2
   0   0 -18 258.346 21.8319   4
   0   0  18 251.167 20.5771   2
  -1   0 -18 59.6821 12.7218   4
   1   0  18 38.9690 11.1950   2
  -2   0 -18 177.690 18.9500   4
   2   0  18 194.646 18.8934   2
  -3   0 -18 25.4422 9.48055   4
   3   0  18 33.4541 9.98161   2
  -4   0 -18 0.98317 7.39058   4
   4   0  18 14.4480 8.40630   2
  -5   0 -18 206.067 17.3426   4
   5   0  18 252.840 18.8799   2
  -6   0 -18 35.4058 9.56746   4
   6   0  18 51.5662 9.38163   1
   6   0  18 36.4857 9.61359   2
  -7   0 -18 137.349 14.9254   4
   7   0  18 189.215 15.4164   1
   7   0  18 165.322 16.1220   2
  -8   0 -18 -7.9282 5.51188   4
   8   0  18 8.93000 7.13441   1
   4  -1 -18 63.3755 13.9032   4
  -4   1  18 40.1902 12.1734   2
   3  -1 -18 -1.1421 9.45926   4
  -3   1  18 11.5546 9.66986   2
   2  -1 -18 -5.7808 8.81673   4
  -2   1  18 -5.3612 8.71259   2
   1  -1 -18 49.4690 12.8460   4
  -1   1  18 38.3064 11.4095   2
   0  -1 -18 41.1799 11.6982   4
   0   1  18 38.1506 10.9353   2
  -1  -1 -18 -0.6759 8.06683   4
   1   1  18 11.4547 8.64677   2
  -2  -1 -18 39.4495 11.1234   4
   2   1  18 37.1662 10.5793   2
  -3  -1 -18 96.0000 14.1445   4
   3   1  18 96.4662 14.1302   2
  -4  -1 -18 13.3049 8.58426   4
   4   1  18 14.8621 7.32169   2
  -5  -1 -18 30.0597 9.61800   4
   5   1  18 23.7296 6.85741   1
   5   1  18 17.7460 8.19522   2
  -6  -1 -18 34.5555 9.69525   4
   6   1  18 33.1338 9.10708   2
   6   1  18 24.2891 7.35891   1
  -7  -1 -18 -5.2568 6.59334   4
   7   1  18 -0.4706 5.83674   1
   7   1  18 -4.9695 6.55303   2
  -8  -1 -18 30.7196 9.12866   4
   8   1  18 18.8286 8.67320   1
  -9  -1 -18 10.0215 7.80574   4
   9   1  18 29.4828 9.79797   1
   3  -2 -18 57.6264 13.7854   4
  -3   2  18 98.6197 15.4016   2
   2  -2 -18 -10.793 8.49664   4
  -2   2  18 -15.434 7.64282   2
   1  -2 -18 89.6217 15.0057   4
  -1   2  18 126.491 16.3364   2
   0  -2 -18 31.6049 11.6521   4
   0   2  18 44.1624 11.2254   2
  -1  -2 -18 11.2737 9.51022   4
   1   2  18 -1.1132 8.08651   2
  -2  -2 -18 206.358 19.7339   4
   2   2  18 211.729 18.3167   2
  -3  -2 -18 216.995 18.7442   4
   3   2  18 306.216 20.8656   1
   3   2  18 258.350 20.0434   2
  -4  -2 -18 297.345 20.4958   4
   4   2  18 308.813 15.6657   1
   4   2  18 278.613 20.1090   2
  -5  -2 -18 53.2770 11.3131   4
   5   2  18 81.4704 10.2886   1
   5   2  18 65.2197 11.7894   2
  -6  -2 -18 19.6280 8.15852   4
   6   2  18 5.87340 7.23583   2
   6   2  18 10.5391 6.04710   1
  -7  -2 -18 74.1937 12.2322   4
   7   2  18 93.3247 11.8916   1
   7   2  18 96.3641 12.6625   2
  -8  -2 -18 4.07001 6.83633   4
   8   2  18 22.9766 8.37924   1
  -9  -2 -18 127.619 14.6463   4
   9   2  18 104.404 14.3435   1
   3  -3 -18 10.8149 8.93722   4
  -3   3  18 1.23516 9.05980   2
   2  -3 -18 41.3795 12.2037   4
  -2   3  18 24.7411 11.1807   2
   1  -3 -18 -10.654 8.25821   4
  -1   3  18 0.46881 8.85126   2
   0  -3 -18 20.7776 9.74140   4
   0   3  18 17.1018 9.79350   2
  -1  -3 -18 15.2399 8.91525   4
   1   3  18 15.7859 9.57156   2
  -2  -3 -18 29.6423 10.4063   4
   2   3  18 27.0917 6.39602   1
   2   3  18 32.4345 10.7203   2
  -3  -3 -18 -3.1551 7.03054   4
   3   3  18 -1.1153 7.40917   2
   3   3  18 4.53415 4.68198   1
  -4  -3 -18 66.7898 11.6377   4
   4   3  18 56.9880 11.9592   2
   4   3  18 65.3503 9.16363   1
  -5  -3 -18 2.91416 6.90866   4
   5   3  18 -2.0958 6.56320   2
   5   3  18 12.2379 5.86290   1
  -6  -3 -18 90.1705 13.3349   4
   6   3  18 83.5221 11.0431   1
   6   3  18 106.729 13.7140   2
  -7  -3 -18 91.0222 13.5023   4
   7   3  18 80.3015 12.1490   2
   7   3  18 96.4762 12.1106   1
  -8  -3 -18 10.7325 8.02189   4
   8   3  18 15.4583 7.52071   1
  -9  -3 -18 3.71862 6.84467   4
   9   3  18 21.3017 7.94347   1
   2  -4 -18 40.9965 11.4864   4
  -2   4  18 31.8491 11.1231   2
   1  -4 -18 47.6255 11.6681   4
  -1   4  18 24.8181 11.1025   2
   0  -4 -18 64.6221 12.9337   4
   0   4  18 58.5363 12.1788   2
  -1  -4 -18 27.9636 10.0575   1
  -1  -4 -18 31.1114 10.7092   4
   1   4  18 22.9698 9.69987   2
  -2  -4 -18 109.463 14.9457   4
   2   4  18 127.228 15.9714   2
   2   4  18 95.5487 10.2986   1
  -3  -4 -18 -4.8509 7.22752   4
   3   4  18 1.70942 8.09550   2
   3   4  18 5.81577 4.67059   1
  -4  -4 -18 19.3374 8.25226   4
   4   4  18 25.5407 6.64102   1
   4   4  18 20.5974 9.58990   2
  -5  -4 -18 32.6052 9.91437   4
   5   4  18 18.6237 9.24140   2
   5   4  18 18.7905 6.73874   1
  -6  -4 -18 315.110 20.9030   4
   6   4  18 323.343 18.0530   1
   6   4  18 313.002 20.5936   2
  -7  -4 -18 205.895 17.3006   4
   7   4  18 190.040 16.7884   2
   7   4  18 222.794 15.8229   1
  -8  -4 -18 110.952 14.3201   4
   8   4  18 133.356 14.6902   1
  -9  -4 -18 -1.6177 7.05225   4
   9   4  18 6.97011 6.66405   1
   2  -5 -18 43.3676 11.9162   4
  -2   5  18 51.0330 12.8378   2
   1  -5 -18 7.96069 8.64752   4
  -1   5  18 6.80205 9.08940   2
   0  -5 -18 11.2706 8.89252   1
   0  -5 -18 5.75469 8.58744   4
   0   5  18 5.30173 8.77733   2
  -1  -5 -18 2.49523 6.45505   1
  -1  -5 -18 6.85414 8.57287   4
   1   5  18 16.8641 9.43133   2
  -2  -5 -18 48.4920 9.66431   1
  -2  -5 -18 40.8961 10.2278   4
   2   5  18 48.8228 11.3978   2
  -3  -5 -18 43.5268 10.5818   4
   3   5  18 45.2818 8.20179   1
   3   5  18 40.7345 11.0451   2
  -4  -5 -18 37.3676 10.1512   4
   4   5  18 25.9182 9.82766   2
   4   5  18 45.5820 8.26617   1
  -5  -5 -18 1.83965 7.91185   4
   5   5  18 -12.866 6.88035   2
   5   5  18 8.19631 6.06459   1
  -6  -5 -18 7.26558 7.77641   4
   6   5  18 3.13503 8.13179   2
   6   5  18 12.4517 6.53438   1
  -7  -5 -18 9.17156 8.09516   4
   7   5  18 16.1705 8.90333   2
   7   5  18 25.4966 7.97972   1
  -8  -5 -18 127.132 15.9412   4
   8   5  18 126.066 14.8538   1
  -9  -5 -18 54.8866 11.7011   4
   9   5  18 53.8096 10.9351   1
   1  -6 -18 96.5686 14.0033   4
  -1   6  18 88.3635 14.5571   2
   0  -6 -18 203.938 16.6246   1
   0  -6 -18 220.758 18.3650   4
   0   6  18 174.303 18.9377   2
  -1  -6 -18 51.6320 11.5050   4
  -1  -6 -18 51.2391 10.2581   1
   1   6  18 60.4588 12.7766   2
  -2  -6 -18 19.8378 9.13486   4
  -2  -6 -18 26.5624 8.94086   1
   2   6  18 41.8610 11.2739   2
  -3  -6 -18 75.5225 12.5594   4
  -3  -6 -18 62.2558 10.9209   1
   3   6  18 90.6903 13.9959   2
  -4  -6 -18 130.280 15.1207   4
   4   6  18 132.945 13.8447   1
   4   6  18 139.239 16.5939   2
  -5  -6 -18 67.5513 12.0010   4
   5   6  18 68.2050 12.4004   2
   5   6  18 109.106 12.8758   1
  -6  -6 -18 51.1197 11.5760   4
   6   6  18 47.3261 11.3077   2
   6   6  18 43.6906 9.33521   1
  -7  -6 -18 134.385 16.3037   4
   7   6  18 156.082 16.5532   2
   7   6  18 126.166 14.3278   1
  -8  -6 -18 -2.2605 7.06919   4
   8   6  18 7.25198 6.66643   1
  -9  -6 -18 256.008 19.4972   4
   9   6  18 261.731 19.0016   1
   0  -7 -18 21.0440 9.17564   1
   0  -7 -18 18.3703 9.29618   4
   0   7  18 27.2218 10.5942   2
  -1  -7 -18 4.32368 7.91331   4
  -1  -7 -18 5.71275 7.84387   1
   1   7  18 3.47459 8.27866   2
  -2  -7 -18 7.48651 7.67542   4
   2   7  18 22.8508 9.91739   2
  -3  -7 -18 22.2540 8.86459   4
  -3  -7 -18 10.8726 8.60392   1
   3   7  18 4.23809 8.26916   2
  -4  -7 -18 12.1175 7.91660   4
   4   7  18 9.27029 6.12028   1
   4   7  18 -6.9758 6.47084   2
  -5  -7 -18 112.232 14.3662   4
   5   7  18 134.492 15.9276   2
   5   7  18 90.3377 12.4100   1
  -6  -7 -18 49.3781 11.3224   4
   6   7  18 44.2712 9.73235   1
   6   7  18 49.2006 11.4715   2
  -7  -7 -18 2.64072 7.55591   4
   7   7  18 9.56630 8.21868   2
   7   7  18 9.53309 6.89817   1
  -8  -7 -18 42.0024 10.9713   4
   8   7  18 33.3396 9.25401   1
  -9  -7 -18 27.4840 10.1231   4
   9   7  18 44.2165 10.2222   1
  -2  -8 -18 137.700 16.0598   1
  -2  -8 -18 144.461 15.5867   4
   2   8  18 147.827 17.2876   2
  -3  -8 -18 13.2274 8.59088   1
  -3  -8 -18 9.80644 7.49884   4
   3   8  18 18.9884 9.34566   2
  -4  -8 -18 197.189 19.0858   1
  -4  -8 -18 180.319 17.1316   4
   4   8  18 214.665 19.1698   2
  -5  -8 -18 47.8835 10.5226   4
   5   8  18 35.1049 11.1154   2
   5   8  18 48.0376 10.0817   1
  -6  -8 -18 94.8248 13.6019   4
   6   8  18 123.841 15.6114   2
   6   8  18 108.801 13.9749   1
  -7  -8 -18 17.1537 8.50842   4
   7   8  18 24.0502 9.99376   2
  -8  -8 -18 2.90676 7.56301   4
   8   8  18 2.46652 6.50162   1
  -4  -9 -18 12.3383 9.45816   1
  -4  -9 -18 -3.3972 6.65467   4
   4   9  18 -0.0495 7.79923   2
  -5  -9 -18 19.8587 8.06250   4
   5   9  18 13.3000 8.61752   2
  -6  -9 -18 5.36381 7.69869   4
   6   9  18 5.72236 8.34474   2
   6   9  18 20.9241 8.90896   1
  -7  -9 -18 -1.6648 7.10989   4
   7   9  18 6.30784 8.33772   2
   7   9  18 -1.1641 6.41407   1
   0   5 -19 90.9737 12.5473   3
   0   5 -19 75.3695 14.0902   4
   2   4 -19 3.81523 6.07622   3
   2   4 -19 5.46936 10.2925   4
  -2  -4  19 0.09084 7.83566   2
   1   4 -19 21.2289 11.3556   4
   1   4 -19 23.3208 7.41004   3
  -1  -4  19 33.1422 11.3407   2
   0   4 -19 16.7446 6.95958   3
   0   4 -19 13.3342 9.47029   4
   0  -4  19 -1.5809 8.65515   2
  -1   4 -19 32.1453 10.9068   4
  -1   4 -19 30.5896 8.80857   3
   1  -4  19 13.4932 9.33161   2
  -2   4 -19 15.2820 9.20666   4
  -2   4 -19 27.6405 8.38328   3
   2  -4  19 -9.0086 7.44688   2
  -3   4 -19 47.5312 11.4322   4
  -3   4 -19 45.8224 10.3959   3
   3  -4  19 45.1848 11.6896   2
   3   3 -19 161.956 16.6345   3
   3   3 -19 189.378 21.5169   4
  -3  -3  19 164.149 18.5068   2
   2   3 -19 64.5535 14.3592   4
   2   3 -19 77.0980 11.0126   3
  -2  -3  19 75.0052 14.2207   2
   1   3 -19 51.4258 13.4676   4
   1   3 -19 51.6261 9.57462   3
  -1  -3  19 42.2174 11.9020   2
   0   3 -19 26.3479 7.88063   3
   0   3 -19 37.7222 12.3195   4
   0  -3  19 28.7245 10.5063   2
  -1   3 -19 17.3032 6.89922   3
  -1   3 -19 -5.0794 8.64805   4
   1  -3  19 0.20819 8.02164   2
  -2   3 -19 164.732 18.1244   4
  -2   3 -19 154.177 15.5953   3
   2  -3  19 156.684 17.9622   2
  -3   3 -19 31.9208 8.93759   3
  -3   3 -19 8.85336 8.54821   4
   3  -3  19 13.3440 9.22436   2
  -4   3 -19 128.834 14.9571   3
  -4   3 -19 157.998 16.4982   4
   4  -3  19 154.126 17.1950   2
  -5   3 -19 20.8114 8.72604   3
   5  -3  19 9.75363 8.22895   2
   3   2 -19 3.58568 9.97554   4
  -3  -2  19 -6.5093 8.00253   2
   2   2 -19 54.3186 14.2882   4
  -2  -2  19 41.5714 12.2024   2
   1   2 -19 40.3890 13.0599   4
  -1  -2  19 19.1056 9.97575   2
   0   2 -19 6.00566 9.63983   4
   0  -2  19 1.18977 7.92648   2
  -1   2 -19 4.66305 8.63082   4
   1  -2  19 3.21063 8.03264   2
  -2   2 -19 16.7482 10.4459   3
  -2   2 -19 1.69365 8.38521   4
   2  -2  19 2.52514 8.18261   2
  -3   2 -19 30.4124 8.63842   3
  -3   2 -19 32.4099 10.3831   4
   3  -2  19 31.4588 10.3566   2
  -4   2 -19 22.3258 9.62901   4
  -4   2 -19 29.8668 8.71238   3
   4  -2  19 25.2117 9.70152   2
  -5   2 -19 22.1520 8.57728   3
  -5   2 -19 14.9763 8.74860   4
   5  -2  19 34.2675 10.2804   2
  -6   2 -19 2.50636 7.48540   3
   6  -2  19 2.73958 7.25712   2
   3   1 -19 32.4549 11.8546   4
  -3  -1  19 6.64886 9.30548   2
   2   1 -19 0.51983 9.94872   4
  -2  -1  19 -9.2966 7.68480   2
   1   1 -19 218.149 21.8974   4
  -1  -1  19 239.206 21.8123   2
   0   1 -19 15.9797 10.9790   4
   0  -1  19 -2.0080 7.96405   2
  -1   1 -19 181.273 19.5158   4
   1  -1  19 203.170 19.8695   2
  -2   1 -19 34.1112 11.2465   4
   2  -1  19 28.0020 10.1602   2
  -3   1 -19 192.031 18.8346   4
   3  -1  19 191.241 18.7376   2
  -4   1 -19 50.9139 11.8682   4
   4  -1  19 46.4107 10.8071   2
  -5   1 -19 18.5611 9.11703   4
   5  -1  19 38.8255 10.8549   2
  -6   1 -19 2.73922 7.39734   4
   6  -1  19 -8.3320 6.28389   2
  -7   1 -19 31.9073 9.67083   4
   7  -1  19 44.4789 10.8333   2
   3   0 -19 26.8108 12.3952   4
  -3   0  19 15.0292 10.6288   2
   2   0 -19 14.1232 11.3004   4
  -2   0  19 25.6815 10.6950   2
   1   0 -19 33.8453 12.3140   4
  -1   0  19 46.1660 12.3293   2
   0   0 -19 37.0130 12.7969   4
   0   0  19 17.0779 9.94544   2
  -1   0 -19 48.5352 11.8835   4
   1   0  19 69.3107 13.8551   2
  -2   0 -19 -2.8013 8.22473   4
   2   0  19 -5.5016 7.94247   2
  -3   0 -19 55.2350 12.4029   4
   3   0  19 68.2887 12.8001   2
  -4   0 -19 54.8618 12.4365   4
   4   0  19 80.9394 13.3661   2
  -5   0 -19 103.672 13.7600   4
   5   0  19 103.738 14.3518   2
  -6   0 -19 37.7064 9.92223   4
   6   0  19 36.4926 10.1503   2
  -7   0 -19 3.05729 6.77839   4
   7   0  19 1.34522 6.78023   2
   3  -1 -19 35.5207 13.4989   4
  -3   1  19 37.1953 12.4234   2
   2  -1 -19 38.8074 12.2998   4
  -2   1  19 31.0976 11.6341   2
   1  -1 -19 -2.9399 9.18853   4
  -1   1  19 15.4905 9.72031   2
   0  -1 -19 5.34026 10.5409   4
   0   1  19 18.4995 9.50177   2
  -1  -1 -19 39.6164 12.3800   4
   1   1  19 30.7557 11.2922   2
  -2  -1 -19 115.129 15.6806   4
   2   1  19 69.0677 13.2955   2
  -3  -1 -19 16.1156 9.48511   4
   3   1  19 21.2248 9.25808   2
  -4  -1 -19 65.1119 13.1282   4
   4   1  19 66.8208 12.4448   2
  -5  -1 -19 65.7681 12.3179   4
   5   1  19 49.9943 11.6604   2
  -6  -1 -19 254.035 19.2077   4
   6   1  19 269.724 19.4595   2
  -7  -1 -19 140.480 15.9088   4
   7   1  19 142.099 16.0281   2
   7   1  19 164.631 14.5764   1
  -8  -1 -19 9.42115 7.61196   4
   8   1  19 6.16803 7.42830   1
   2  -2 -19 66.3635 14.6330   4
  -2   2  19 46.8618 12.8253   2
   1  -2 -19 16.2481 10.5851   4
  -1   2  19 -3.8537 8.66521   2
   0  -2 -19 28.5421 10.9650   4
   0   2  19 33.6019 11.5281   2
  -1  -2 -19 270.001 22.0345   4
   1   2  19 228.759 21.7585   2
  -2  -2 -19 30.7510 11.4624   4
   2   2  19 34.2345 11.2245   2
  -3  -2 -19 33.7213 10.4867   4
   3   2  19 -2.1370 7.91279   2
  -4  -2 -19 20.8435 9.70300   4
   4   2  19 12.0907 8.47030   2
  -5  -2 -19 7.17834 8.09954   4
   5   2  19 3.68045 7.82329   2
   5   2  19 8.51906 5.50774   1
  -6  -2 -19 5.17586 7.73854   4
   6   2  19 8.38278 8.02526   2
   6   2  19 13.2111 6.26038   1
  -7  -2 -19 22.4443 9.12458   4
   7   2  19 29.7334 9.30395   2
   7   2  19 29.5265 8.39559   1
  -8  -2 -19 2.98545 7.60651   4
   8   2  19 9.40307 7.27151   1
   2  -3 -19 59.8367 14.1888   4
  -2   3  19 37.2817 12.7134   2
   1  -3 -19 278.795 22.4185   4
  -1   3  19 264.752 22.4481   2
   0  -3 -19 104.394 15.9298   4
   0   3  19 89.4091 15.4493   2
  -1  -3 -19 6.34441 9.47767   4
   1   3  19 5.82780 8.97907   2
  -2  -3 -19 -8.2380 7.39355   4
   2   3  19 10.6557 9.61039   2
  -3  -3 -19 -0.0516 7.31174   4
   3   3  19 10.7567 9.03259   2
  -4  -3 -19 240.548 19.3516   4
   4   3  19 295.834 15.7680   1
   4   3  19 248.658 19.5816   2
  -5  -3 -19 17.6391 8.98935   4
   5   3  19 8.69113 8.35697   2
   5   3  19 18.7289 6.56467   1
  -6  -3 -19 146.861 17.0666   4
   6   3  19 131.989 15.4639   2
   6   3  19 149.754 13.1693   1
  -7  -3 -19 3.12686 7.49452   4
   7   3  19 -0.3862 7.52914   2
   7   3  19 16.0498 7.24067   1
  -8  -3 -19 209.918 17.9759   4
   8   3  19 256.453 18.2452   1
   9   3  19 116.986 14.8439   1
   1  -4 -19 -3.9923 8.89432   4
  -1   4  19 19.1339 10.5277   2
   0  -4 -19 3.47470 8.65367   4
   0   4  19 12.5124 10.0399   2
  -1  -4 -19 15.0974 9.45075   4
   1   4  19 16.7024 9.59533   2
  -2  -4 -19 4.53105 8.58185   4
   2   4  19 3.90348 8.36124   2
  -3  -4 -19 4.71506 8.02077   4
   3   4  19 0.93183 4.27758   1
   3   4  19 9.37067 9.25576   2
  -4  -4 -19 -2.3568 7.15768   4
   4   4  19 4.31883 5.02665   1
   4   4  19 6.41390 8.61899   2
  -5  -4 -19 12.0139 8.87701   4
   5   4  19 9.86910 8.88672   2
   5   4  19 17.3681 6.40116   1
  -6  -4 -19 7.39892 7.94198   4
   6   4  19 10.1013 8.52191   2
   6   4  19 16.5319 6.66321   1
  -7  -4 -19 -5.2091 7.00126   4
   7   4  19 -7.2405 6.47274   2
   7   4  19 0.90723 5.54085   1
  -8  -4 -19 -5.8423 6.74945   4
   8   4  19 3.99757 6.59116   1
  -9  -4 -19 32.8064 9.63583   4
   9   4  19 20.8711 8.34329   1
   1  -5 -19 5.58918 8.92761   4
  -1   5  19 0.43661 9.94935   2
   0  -5 -19 23.5921 10.7720   4
   0   5  19 16.6563 10.0235   2
  -1  -5 -19 438.297 25.5511   4
   1   5  19 474.432 26.9557   2
  -2  -5 -19 42.8380 11.5586   4
   2   5  19 49.2119 11.9684   2
   2   5  19 35.4670 7.80998   1
  -3  -5 -19 398.337 23.4832   4
   3   5  19 360.900 18.3099   1
   3   5  19 351.676 24.0824   2
  -4  -5 -19 -1.2359 6.97491   4
   4   5  19 1.61888 4.72798   1
   4   5  19 5.02009 8.30455   2
  -5  -5 -19 26.6386 9.63826   4
   5   5  19 59.3144 9.69371   1
   5   5  19 31.0728 10.2184   2
  -6  -5 -19 39.4361 10.2843   4
   6   5  19 35.3007 8.28918   1
   6   5  19 18.5828 9.42927   2
  -7  -5 -19 17.3034 9.54898   4
   7   5  19 16.8271 7.32587   1
   7   5  19 12.2052 8.42743   2
  -8  -5 -19 29.2905 10.0553   4
   8   5  19 69.9135 11.3525   1
  -9  -5 -19 20.0029 8.87863   4
   9   5  19 27.2180 9.06980   1
   0  -6 -19 10.3912 9.06564   4
   0   6  19 4.18031 9.01888   2
  -1  -6 -19 13.2366 7.64303   1
  -1  -6 -19 7.79764 8.77272   4
   1   6  19 -6.4220 7.42741   2
  -2  -6 -19 3.16009 7.65153   1
  -2  -6 -19 -1.4829 7.96036   4
   2   6  19 5.58065 9.91643   2
  -3  -6 -19 30.0850 10.0842   4
   3   6  19 41.4304 8.45968   1
   3   6  19 21.7504 10.1864   2
  -4  -6 -19 14.2592 8.56332   4
   4   6  19 -4.4843 7.67176   2
   4   6  19 5.87321 5.29888   1
  -5  -6 -19 7.79732 8.52720   4
   5   6  19 -1.3188 8.53890   2
   5   6  19 18.3152 6.95993   1
  -6  -6 -19 41.1441 11.0887   4
   6   6  19 38.4119 9.13005   1
   6   6  19 42.6663 11.2601   2
  -7  -6 -19 47.8294 11.1562   4
   7   6  19 58.1547 11.9922   2
   7   6  19 68.4163 11.2414   1
  -8  -6 -19 -1.0366 7.05008   4
   8   6  19 7.40731 6.70149   1
  -2  -7 -19 1.53751 7.54941   1
  -2  -7 -19 3.37422 7.85111   4
   2   7  19 -6.4663 7.53638   2
  -3  -7 -19 17.3736 9.13037   1
  -3  -7 -19 23.2803 9.86595   4
   3   7  19 25.5792 10.6411   2
  -4  -7 -19 80.7579 13.5337   4
   4   7  19 99.9978 14.9107   2
   4   7  19 89.4057 12.0119   1
  -5  -7 -19 165.219 17.5802   4
   5   7  19 187.114 19.4030   2
   5   7  19 191.728 15.3769   1
  -6  -7 -19 72.3613 13.2376   4
   6   7  19 98.8295 13.0650   1
   6   7  19 93.5797 14.4874   2
  -7  -7 -19 19.4252 9.32855   4
   7   7  19 15.1927 7.17811   1
   7   7  19 24.6434 10.3026   2
  -8  -7 -19 99.6204 14.6846   4
   8   7  19 120.810 14.5466   1
  -3  -8 -19 166.509 17.5185   4
  -3  -8 -19 186.977 18.6543   1
   3   8  19 147.150 17.9776   2
  -4  -8 -19 10.0184 8.97746   1
  -4  -8 -19 7.88932 8.19394   4
   4   8  19 9.72731 9.55603   2
  -5  -8 -19 13.7242 8.49514   4
   5   8  19 -11.308 7.01290   2
   5   8  19 8.32306 6.99072   1
  -6  -8 -19 16.5294 9.56032   4
   6   8  19 18.2991 10.0025   2
   6   8  19 8.87451 7.21075   1
  -7  -8 -19 3.85344 7.97012   4
   7   8  19 16.6686 9.62924   2
   7   8  19 5.07786 6.88319   1
   1   3 -20 5.02361 9.79877   4
  -1  -3  20 6.84351 9.72184   2
   0   3 -20 53.9729 13.5726   4
   0  -3  20 16.1779 10.7274   2
  -1   3 -20 10.5122 10.5250   4
   1  -3  20 8.29260 9.31240   2
  -2   3 -20 6.37455 9.02420   4
   2  -3  20 15.3945 9.82803   2
  -3   3 -20 51.1503 12.3333   4
   3  -3  20 48.7865 12.1626   2
   1   2 -20 36.2971 12.7642   4
  -1  -2  20 38.3860 11.8865   2
   0   2 -20 -13.736 8.86060   4
   0  -2  20 -4.8885 8.04604   2
  -1   2 -20 248.571 23.7073   4
   1  -2  20 185.772 20.0392   2
  -2   2 -20 40.9475 12.1168   4
   2  -2  20 34.8125 11.4701   2
  -3   2 -20 131.058 17.3201   4
   3  -2  20 150.170 17.8674   2
  -4   2 -20 5.48681 8.50817   4
   4  -2  20 -0.4148 7.55460   2
  -5   2 -20 68.0665 11.9842   4
   2   1 -20 -12.026 10.2908   4
  -2  -1  20 -2.6299 8.54859   2
   1   1 -20 18.1887 11.2138   4
  -1  -1  20 24.0270 10.7240   2
   0   1 -20 34.8844 12.7079   4
   0  -1  20 62.7314 13.6032   2
  -1   1 -20 6.48796 10.5610   4
   1  -1  20 -1.3338 8.59848   2
  -2   1 -20 21.4494 10.5136   4
   2  -1  20 0.00526 8.40911   2
  -3   1 -20 32.1604 11.7142   4
   3  -1  20 20.1131 9.48840   2
  -4   1 -20 24.7330 10.5412   4
   4  -1  20 46.4775 11.8398   2
  -5   1 -20 -8.1609 6.88697   4
   5  -1  20 7.01966 8.47151   2
  -6   1 -20 -1.6145 7.24962   4
   2   0 -20 163.730 19.9652   4
  -2   0  20 160.551 19.4565   2
   1   0 -20 18.9702 11.7040   4
  -1   0  20 24.8567 11.3041   2
   0   0 -20 40.2626 14.0685   4
   0   0  20 48.3790 12.5110   2
  -1   0 -20 1.49500 9.78704   4
   1   0  20 -2.0432 8.12002   2
  -2   0 -20 10.3384 9.38416   4
   2   0  20 3.41701 8.19818   2
  -3   0 -20 104.262 15.6945   4
   3   0  20 78.3546 14.4539   2
  -4   0 -20 93.1512 14.9352   4
   4   0  20 69.6016 13.0631   2
  -5   0 -20 104.363 14.7247   4
   5   0  20 95.4852 14.5863   2
  -6   0 -20 43.9259 10.9492   4
   6   0  20 76.5187 13.2176   2
   2  -1 -20 1.47172 9.55968   4
  -2   1  20 -4.3489 8.80501   2
   1  -1 -20 -5.8505 10.7535   4
  -1   1  20 16.9886 10.7266   2
   0  -1 -20 -0.1385 9.69544   4
   0   1  20 8.20595 9.91726   2
  -1  -1 -20 0.07204 9.50343   4
   1   1  20 0.82360 9.31399   2
  -2  -1 -20 23.1281 10.8639   4
   2   1  20 10.4665 9.32494   2
  -3  -1 -20 18.0112 10.3914   4
   3   1  20 7.37117 9.58179   2
  -4  -1 -20 -4.6377 8.25524   4
   4   1  20 -2.1450 7.85552   2
  -5  -1 -20 7.31151 8.70838   4
   5   1  20 -0.2189 8.04551   2
  -6  -1 -20 7.80056 8.15715   4
   6   1  20 3.26764 7.73877   2
  -7  -1 -20 -4.4731 7.41763   4
   7   1  20 -5.2246 6.93324   2
   1  -2 -20 -6.4935 10.2232   4
  -1   2  20 -12.926 8.38522   2
   0  -2 -20 140.599 18.5095   4
   0   2  20 157.471 19.0612   2
  -1  -2 -20 81.9995 15.1203   4
   1   2  20 95.7233 15.5486   2
  -2  -2 -20 133.232 17.9921   4
   2   2  20 150.590 18.0740   2
  -3  -2 -20 83.1741 14.8412   4
   3   2  20 119.613 16.9126   2
  -4  -2 -20 26.5142 10.8590   4
   4   2  20 45.5308 11.7552   2
  -5  -2 -20 6.01943 8.94756   4
   5   2  20 2.26266 7.62118   2
  -6  -2 -20 -3.9746 7.77979   4
   6   2  20 13.6775 9.14905   2
  -7  -2 -20 173.106 18.0957   4
   7   2  20 188.368 18.1078   2
   7   2  20 201.631 15.8248   1
   1  -3 -20 20.3104 11.0261   4
  -1   3  20 25.4085 11.7252   2
   0  -3 -20 11.6741 10.6887   4
   0   3  20 -2.8149 8.90992   2
  -1  -3 -20 -9.3630 8.06852   4
   1   3  20 0.06750 9.12948   2
  -2  -3 -20 10.7250 9.79269   4
   2   3  20 -1.4563 8.34783   2
  -3  -3 -20 8.92670 8.75007   4
   3   3  20 -1.2307 8.87990   2
  -4  -3 -20 26.1438 10.8463   4
   4   3  20 10.9592 9.32723   2
  -5  -3 -20 55.7169 12.6779   4
   5   3  20 29.1425 10.3817   2
  -6  -3 -20 -2.9196 7.82300   4
   6   3  20 -2.6209 7.93417   2
   6   3  20 8.05928 6.01883   1
  -7  -3 -20 27.6017 10.2296   4
   7   3  20 44.0262 9.64813   1
   7   3  20 16.6788 8.95000   2
  -8  -3 -20 9.11391 8.43211   4
   8   3  20 11.6536 7.23237   1
   0  -4 -20 67.7465 13.6833   4
   0   4  20 95.9306 15.7386   2
  -1  -4 -20 28.5511 11.2844   4
   1   4  20 33.9541 11.5884   2
  -2  -4 -20 22.1675 11.1898   4
   2   4  20 23.8463 10.8605   2
  -3  -4 -20 66.3629 13.4495   4
   3   4  20 82.3438 14.5490   2
  -4  -4 -20 151.660 17.7494   4
   4   4  20 199.499 15.7116   1
   4   4  20 182.145 19.0547   2
  -5  -4 -20 139.224 17.0592   4
   5   4  20 180.901 18.7716   2
   5   4  20 159.091 13.3858   1
  -6  -4 -20 0.94846 8.28161   4
   6   4  20 4.77366 8.90463   2
   6   4  20 7.96419 6.49614   1
  -7  -4 -20 0.56528 7.81580   4
   7   4  20 17.2908 7.46065   1
   7   4  20 15.9496 9.15266   2
  -8  -4 -20 21.1375 9.86268   4
   8   4  20 40.3487 9.86627   1
  -1  -5 -20 14.0245 10.2058   4
   1   5  20 24.2115 11.0141   2
  -2  -5 -20 35.9742 11.1119   4
   2   5  20 51.3692 12.5069   2
  -3  -5 -20 15.2355 10.1202   4
   3   5  20 14.9743 9.94010   2
   3   5  20 15.3988 6.34828   1
  -4  -5 -20 68.8295 13.0917   4
   4   5  20 42.3354 8.28992   1
   4   5  20 41.1550 12.0455   2
  -5  -5 -20 -1.6614 7.97548   4
   5   5  20 3.25068 8.98261   2
   5   5  20 8.22574 5.77370   1
  -6  -5 -20 106.633 15.1680   4
   6   5  20 158.150 13.9817   1
   6   5  20 132.056 16.7166   2
  -7  -5 -20 24.2809 10.4941   4
   7   5  20 30.5919 10.9340   2
   7   5  20 48.1040 9.47672   1
  -8  -5 -20 16.6869 9.38245   4
   8   5  20 18.9172 7.90530   1
  -2  -6 -20 70.4799 12.8239   4
   2   6  20 62.7323 13.4615   2
  -3  -6 -20 17.5219 9.36312   4
   3   6  20 6.43713 9.55224   2
   3   6  20 18.0143 7.10522   1
  -4  -6 -20 1.65688 8.39098   4
   4   6  20 13.9061 9.70297   2
   4   6  20 11.2287 6.19657   1
  -5  -6 -20 79.0518 13.4971   4
   5   6  20 59.0559 10.3065   1
   5   6  20 91.9078 14.9297   2
  -6  -6 -20 93.9929 14.3283   4
   6   6  20 62.7723 12.6640   2
   6   6  20 68.1199 10.8433   1
  -7  -6 -20 83.7028 14.4952   4
   7   6  20 90.8126 14.4387   2
   7   6  20 88.1324 12.7186   1
   3   7  20 23.3490 7.88979   1
  -4  -7 -20 14.8479 9.01298   4
   4   7  20 15.9457 7.53856   1
   4   7  20 8.71972 9.68933   2
  -5  -7 -20 5.04164 8.58019   4
   5   7  20 21.8664 9.96463   2
   5   7  20 19.3393 7.92547   1
  -6  -7 -20 8.45322 8.86769   4
   6   7  20 13.7752 9.72768   2
   6   7  20 9.67331 6.68157   1
   0   1 -21 31.9324 13.0290   4
   0  -1  21 19.6170 11.7043   2
  -1   1 -21 0.15428 10.3970   4
   1  -1  21 5.12207 10.0416   2
  -2   1 -21 127.807 17.7230   4
   2  -1  21 120.304 17.1317   2
  -3   1 -21 -5.1386 8.29015   4
   3  -1  21 9.89135 9.15517   2
  -4   1 -21 6.81241 9.62305   4
   4  -1  21 -3.6946 8.63176   2
   0   0 -21 -7.9186 9.60806   4
   0   0  21 -6.9012 9.29078   2
  -1   0 -21 9.41889 11.5059   4
   1   0  21 12.9685 10.4080   2
  -2   0 -21 26.7598 12.3844   4
   2   0  21 24.7429 11.4609   2
  -3   0 -21 29.7449 11.7214   4
   3   0  21 60.2525 13.1629   2
  -4   0 -21 18.0750 10.7465   4
   4   0  21 14.2009 9.33823   2
  -5   0 -21 15.0363 9.74707   4
   5   0  21 13.0438 8.96549   2
   0  -1 -21 76.0183 16.3809   4
   0   1  21 95.4885 16.7788   2
  -1  -1 -21 82.1293 16.0717   4
   1   1  21 116.857 17.1988   2
  -2  -1 -21 13.6551 10.9227   4
   2   1  21 -9.0692 8.91285   2
  -3  -1 -21 108.282 16.4952   4
   3   1  21 78.1602 14.3073   2
  -4  -1 -21 13.5577 10.3976   4
   4   1  21 47.5561 12.0897   2
  -5  -1 -21 78.7907 14.0168   4
   5   1  21 99.2724 14.8690   2
  -6  -1 -21 11.7047 8.86661   4
   0  -2 -21 -7.9555 10.3016   4
   0   2  21 -2.1770 9.81960   2
  -1  -2 -21 15.6003 11.5765   4
   1   2  21 3.70878 9.48577   2
  -2  -2 -21 0.56200 10.2254   4
   2   2  21 18.5413 10.6086   2
  -3  -2 -21 42.3137 12.7584   4
   3   2  21 24.3572 11.3196   2
  -4  -2 -21 11.0042 9.90964   4
   4   2  21 4.43523 9.42211   2
  -5  -2 -21 87.1609 14.9194   4
   5   2  21 66.1682 12.8186   2
  -6  -2 -21 8.52581 8.54967   4
   6   2  21 -3.4028 8.05972   2
  -1  -3 -21 -1.8471 10.2599   4
   1   3  21 -5.2244 8.33151   2
  -2  -3 -21 182.401 20.5083   4
   2   3  21 218.035 22.4206   2
  -3  -3 -21 22.9590 10.9085   4
   3   3  21 21.5557 10.6561   2
  -4  -3 -21 161.454 18.8448   4
   4   3  21 166.174 19.7369   2
  -5  -3 -21 24.4524 10.5110   4
   5   3  21 -4.7222 8.00135   2
  -6  -3 -21 70.4733 14.2305   4
   6   3  21 69.8846 13.1469   2
  -1  -4 -21 64.6860 14.1670   4
  -2  -4 -21 1.57369 9.99765   4
   2   4  21 11.7036 10.5088   2
  -3  -4 -21 3.52506 9.94437   4
   3   4  21 -8.0556 8.67626   2
  -4  -4 -21 13.0762 9.90286   4
   4   4  21 14.5546 10.8741   2
  -5  -4 -21 10.7365 9.22772   4
   5   4  21 16.5005 10.0521   2
  -6  -4 -21 -4.9468 7.97909   4
   6   4  21 5.49271 6.42578   1
   6   4  21 7.03988 9.16281   2
  -3  -5 -21 -3.2514 9.14397   4
   3   5  21 -5.4441 9.45561   2
  -4  -5 -21 118.818 16.6503   4
   4   5  21 106.798 16.0095   2
  -5  -5 -21 1.02623 9.02148   4
   5   5  21 1.75304 9.69003   2
   5   5  21 9.30425 6.40168   1
  -6  -5 -21 97.2492 15.0361   4
   6   5  21 83.9205 15.2130   2
   6   5  21 96.2334 12.5517   1
   0   0   0    0.00    0.00   0

 _exptl_absorpt_process_details 'SADABS 2014/5'
 _exptl_absorpt_correction_type   multi-scan
_exptl_absorpt_correction_T_max  0.100
_exptl_absorpt_correction_T_min  0.054
 _exptl_special_details
)
 The following wavelength and cell were deduced by SADABS from the
 direction cosines etc. They are given here for emergency use only:
 CELL 0.71054    9.245    9.592   15.336   81.532   75.760   65.761
)

;
_shelx_hkl_checksum              89607
loop_
_space_group_symop_operation_xyz
'x, y, z'
'-x, -y, -z'
loop_
_atom_site_label
_atom_site_type_symbol
_atom_site_fract_x
_atom_site_fract_y
_atom_site_fract_z
_atom_site_U_iso_or_equiv
_atom_site_adp_type
_atom_site_occupancy
_atom_site_site_symmetry_order
_atom_site_calc_flag
_atom_site_refinement_flags_posn
_atom_site_refinement_flags_adp
_atom_site_refinement_flags_occupancy
_atom_site_disorder_assembly
_atom_site_disorder_group
Pt1 Pt 0.5000 0.5000 0.0000 0.02014(8) Uani 1 2 d S . P . .
Cl1 Cl 0.23970(17) 0.58364(16) 0.08531(10) 0.0209(3) Uani 1 1 d . . . . .
N1 N 0.5413(6) 0.6517(6) 0.0514(4) 0.0247(11) Uani 1 1 d . . . . .
C1 C 0.5737(8) 0.7373(7) 0.0786(4) 0.0233(12) Uani 1 1 d . . . . .
N2 N 0.6140(6) 0.8343(6) 0.1084(4) 0.0308(13) Uani 1 1 d D . . . .
C2 C 0.775(2) 0.787(4) 0.128(2) 0.029(4) Uani 0.54(5) 1 d D U P A 1
H2A H 0.8361 0.6775 0.1193 0.043 Uiso 0.54(5) 1 calc R U P A 1
H2B H 0.7642 0.8070 0.1909 0.043 Uiso 0.54(5) 1 calc R U P A 1
H2C H 0.8332 0.8448 0.0880 0.043 Uiso 0.54(5) 1 calc R U P A 1
C3 C 0.507(3) 0.9967(13) 0.112(2) 0.023(3) Uani 0.54(5) 1 d D U P A 1
H3A H 0.4320 1.0209 0.0715 0.035 Uiso 0.54(5) 1 calc R U P A 1
H3B H 0.5728 1.0584 0.0924 0.035 Uiso 0.54(5) 1 calc R U P A 1
H3C H 0.4464 1.0196 0.1734 0.035 Uiso 0.54(5) 1 calc R U P A 1
C2' C 0.762(3) 0.771(5) 0.146(2) 0.029(4) Uani 0.46(5) 1 d D . P A 2
H2'A H 0.8515 0.7030 0.1029 0.043 Uiso 0.46(5) 1 calc R U P A 2
H2'B H 0.7437 0.7138 0.2026 0.043 Uiso 0.46(5) 1 calc R U P A 2
H2'C H 0.7890 0.8549 0.1562 0.043 Uiso 0.46(5) 1 calc R U P A 2
C3' C 0.494(3) 0.984(2) 0.139(2) 0.023(3) Uani 0.46(5) 1 d D . P A 2
H3'A H 0.4024 1.0162 0.1089 0.035 Uiso 0.46(5) 1 calc R U P A 2
H3'B H 0.5437 1.0592 0.1241 0.035 Uiso 0.46(5) 1 calc R U P A 2
H3'C H 0.4552 0.9769 0.2042 0.035 Uiso 0.46(5) 1 calc R U P A 2
Pt1A Pt 0.5000 0.0000 0.5000 0.02076(8) Uani 1 2 d S . P . .
Cl1A Cl 0.59793(18) -0.12195(18) 0.36525(10) 0.0228(3) Uani 1 1 d . . . . .
N1A N 0.6720(7) 0.0782(6) 0.4686(4) 0.0237(11) Uani 1 1 d . . . . .
C1A C 0.7671(8) 0.1310(7) 0.4446(4) 0.0231(12) Uani 1 1 d . . . . .
N2A N 0.8755(7) 0.1896(6) 0.4214(4) 0.0271(12) Uani 1 1 d . . . . .
C2A C 0.8265(9) 0.3562(8) 0.4143(5) 0.0321(15) Uani 1 1 d . . . . .
H2AA H 0.7129 0.4053 0.4447 0.048 Uiso 1 1 calc R U . . .
H2AB H 0.8391 0.3915 0.3508 0.048 Uiso 1 1 calc R U . . .
H2AC H 0.8947 0.3830 0.4429 0.048 Uiso 1 1 calc R U . . .
C3A C 1.0407(8) 0.0952(9) 0.3769(5) 0.0357(16) Uani 1 1 d . . . . .
H3AA H 1.0554 -0.0125 0.3839 0.054 Uiso 1 1 calc R U . . .
H3AB H 1.1189 0.1087 0.4044 0.054 Uiso 1 1 calc R U . . .
H3AC H 1.0582 0.1265 0.3128 0.054 Uiso 1 1 calc R U . . .
C1S C 0.9388(8) 0.1968(7) 0.1067(4) 0.0265(13) Uani 1 1 d . . . . .
H1SA H 0.9082 0.2225 0.0465 0.032 Uiso 1 1 calc R U . . .
I1S I 0.71722(5) 0.24240(5) 0.20570(3) 0.02888(10) Uani 1 1 d . . . . .
I2S I 1.06232(5) 0.33781(5) 0.11635(3) 0.02787(10) Uani 1 1 d . . . . .
I3S I 1.09177(5) -0.04150(5) 0.11008(3) 0.02720(10) Uani 1 1 d . . . . .
C2S C 0.2592(8) 0.5587(8) 0.3119(5) 0.0281(14) Uani 1 1 d . . . . .
H2SA H 0.2861 0.5429 0.2459 0.034 Uiso 1 1 calc R U . . .
I4S I 0.39182(5) 0.68461(5) 0.33190(3) 0.02610(10) Uani 1 1 d . . . . .
I5S I 0.33508(5) 0.33628(5) 0.37849(4) 0.03414(11) Uani 1 1 d . . . . .
I6S I 0.00116(5) 0.68320(5) 0.34733(3) 0.02728(10) Uani 1 1 d . . . . .
loop_
_atom_site_aniso_label
_atom_site_aniso_U_11
_atom_site_aniso_U_22
_atom_site_aniso_U_33
_atom_site_aniso_U_23
_atom_site_aniso_U_13
_atom_site_aniso_U_12
Pt1 0.02468(17) 0.01779(16) 0.02183(17) -0.00030(12) -0.00834(13) -0.01037(13)
Cl1 0.0195(7) 0.0211(7) 0.0233(7) -0.0046(5) -0.0043(5) -0.0081(6)
N1 0.024(3) 0.023(3) 0.029(3) -0.005(2) -0.008(2) -0.010(2)
C1 0.026(3) 0.024(3) 0.022(3) -0.001(2) -0.009(2) -0.011(3)
N2 0.027(3) 0.025(3) 0.044(4) -0.010(3) -0.008(3) -0.010(2)
C2 0.017(4) 0.039(7) 0.034(9) -0.009(6) -0.004(5) -0.013(4)
C3 0.032(5) 0.015(3) 0.024(9) -0.001(4) -0.012(6) -0.008(3)
C2' 0.017(4) 0.039(7) 0.034(9) -0.009(6) -0.004(5) -0.013(4)
C3' 0.032(5) 0.015(3) 0.024(9) -0.001(4) -0.012(6) -0.008(3)
Pt1A 0.01839(16) 0.02245(17) 0.02474(17) 0.00312(13) -0.00650(13) -0.01152(13)
Cl1A 0.0205(7) 0.0321(8) 0.0223(7) -0.0072(6) 0.0003(5) -0.0173(6)
N1A 0.025(3) 0.024(3) 0.026(3) 0.001(2) -0.006(2) -0.013(2)
C1A 0.020(3) 0.025(3) 0.022(3) -0.002(2) -0.004(2) -0.006(3)
N2A 0.029(3) 0.029(3) 0.028(3) 0.002(2) -0.002(2) -0.018(2)
C2A 0.041(4) 0.028(4) 0.035(4) -0.002(3) -0.005(3) -0.022(3)
C3A 0.020(3) 0.040(4) 0.047(4) 0.000(3) -0.003(3) -0.013(3)
C1S 0.032(4) 0.026(3) 0.024(3) -0.002(3) -0.007(3) -0.013(3)
I1S 0.0247(2) 0.0321(2) 0.0308(2) -0.00389(18) -0.00534(17) -0.01158(18)
I2S 0.0310(2) 0.0227(2) 0.0314(2) -0.00198(17) -0.00392(17) -0.01316(18)
I3S 0.0292(2) 0.0214(2) 0.0324(2) -0.00220(16) -0.00753(17) -0.01043(17)
C2S 0.027(3) 0.029(3) 0.029(3) 0.002(3) -0.008(3) -0.011(3)
I4S 0.0230(2) 0.0255(2) 0.0301(2) -0.00026(16) -0.00330(16) -0.01130(17)
I5S 0.0255(2) 0.0227(2) 0.0510(3) 0.00420(19) -0.0060(2) -0.00923(18)
I6S 0.0233(2) 0.0258(2) 0.0341(2) 0.00293(17) -0.00862(17) -0.01090(17)
loop_
_atom_type_symbol
_atom_type_description
_atom_type_scat_dispersion_real
_atom_type_scat_dispersion_imag
_atom_type_scat_source
C C 0.0033 0.0016 'International Tables Vol C Tables 4.2.6.8 and 6.1.1.4'
H H 0.0000 0.0000 'International Tables Vol C Tables 4.2.6.8 and 6.1.1.4'
N N 0.0061 0.0033 'International Tables Vol C Tables 4.2.6.8 and 6.1.1.4'
I I -0.4742 1.8119 'International Tables Vol C Tables 4.2.6.8 and 6.1.1.4'
Pt Pt -1.7033 8.3905 'International Tables Vol C Tables 4.2.6.8 and 6.1.1.4'
Cl Cl 0.1484 0.1585 'International Tables Vol C Tables 4.2.6.8 and 6.1.1.4'
loop_
_geom_angle_atom_site_label_1
_geom_angle_atom_site_label_2
_geom_angle_atom_site_label_3
_geom_angle
_geom_angle_site_symmetry_1
_geom_angle_site_symmetry_3
N1 Pt1 N1 180.00(16) . 2_665
N1 Pt1 Cl1 89.96(16) . 2_665
N1 Pt1 Cl1 90.04(16) 2_665 2_665
N1 Pt1 Cl1 90.04(16) . .
N1 Pt1 Cl1 89.96(16) 2_665 .
Cl1 Pt1 Cl1 180.0 2_665 .
C1 N1 Pt1 176.3(6) . .
N1 C1 N2 178.7(8) . .
C1 N2 C3 120.7(12) . .
C1 N2 C2 120.7(16) . .
C3 N2 C2 118.1(19) . .
C1 N2 C3' 121.9(15) . .
C1 N2 C2' 117.3(18) . .
C3' N2 C2' 116(2) . .
N2 C2 H2A 109.5 . .
N2 C2 H2B 109.5 . .
H2A C2 H2B 109.5 . .
N2 C2 H2C 109.5 . .
H2A C2 H2C 109.5 . .
H2B C2 H2C 109.5 . .
N2 C3 H3A 109.5 . .
N2 C3 H3B 109.5 . .
H3A C3 H3B 109.5 . .
N2 C3 H3C 109.5 . .
H3A C3 H3C 109.5 . .
H3B C3 H3C 109.5 . .
N2 C2' H2'A 109.5 . .
N2 C2' H2'B 109.5 . .
H2'A C2' H2'B 109.5 . .
N2 C2' H2'C 109.5 . .
H2'A C2' H2'C 109.5 . .
H2'B C2' H2'C 109.5 . .
N2 C3' H3'A 109.5 . .
N2 C3' H3'B 109.5 . .
H3'A C3' H3'B 109.5 . .
N2 C3' H3'C 109.5 . .
H3'A C3' H3'C 109.5 . .
H3'B C3' H3'C 109.5 . .
N1A Pt1A N1A 180.0 . 2_656
N1A Pt1A Cl1A 89.88(16) . .
N1A Pt1A Cl1A 90.12(16) 2_656 .
N1A Pt1A Cl1A 90.12(16) . 2_656
N1A Pt1A Cl1A 89.88(16) 2_656 2_656
Cl1A Pt1A Cl1A 180.0 . 2_656
C1A N1A Pt1A 174.4(5) . .
N1A C1A N2A 177.2(7) . .
C1A N2A C3A 119.4(6) . .
C1A N2A C2A 120.3(6) . .
C3A N2A C2A 117.9(6) . .
N2A C2A H2AA 109.5 . .
N2A C2A H2AB 109.5 . .
H2AA C2A H2AB 109.5 . .
N2A C2A H2AC 109.5 . .
H2AA C2A H2AC 109.5 . .
H2AB C2A H2AC 109.5 . .
N2A C3A H3AA 109.5 . .
N2A C3A H3AB 109.5 . .
H3AA C3A H3AB 109.5 . .
N2A C3A H3AC 109.5 . .
H3AA C3A H3AC 109.5 . .
H3AB C3A H3AC 109.5 . .
I2S C1S I3S 112.3(3) . .
I2S C1S I1S 112.9(3) . .
I3S C1S I1S 110.9(3) . .
I2S C1S H1SA 106.7 . .
I3S C1S H1SA 106.7 . .
I1S C1S H1SA 106.7 . .
I4S C2S I5S 111.7(3) . .
I4S C2S I6S 112.5(3) . .
I5S C2S I6S 112.1(3) . .
I4S C2S H2SA 106.7 . .
I5S C2S H2SA 106.7 . .
I6S C2S H2SA 106.7 . .
loop_
_geom_bond_atom_site_label_1
_geom_bond_atom_site_label_2
_geom_bond_distance
_geom_bond_site_symmetry_2
Pt1 N1 1.961(5) .
Pt1 N1 1.961(5) 2_665
Pt1 Cl1 2.3090(14) 2_665
Pt1 Cl1 2.3090(14) .
N1 C1 1.142(8) .
C1 N2 1.310(8) .
N2 C3 1.464(9) .
N2 C2 1.467(9) .
N2 C3' 1.468(9) .
N2 C2' 1.473(9) .
C2 H2A 0.9800 .
C2 H2B 0.9800 .
C2 H2C 0.9800 .
C3 H3A 0.9800 .
C3 H3B 0.9800 .
C3 H3C 0.9800 .
C2' H2'A 0.9800 .
C2' H2'B 0.9800 .
C2' H2'C 0.9800 .
C3' H3'A 0.9800 .
C3' H3'B 0.9800 .
C3' H3'C 0.9800 .
Pt1A N1A 1.957(5) .
Pt1A N1A 1.957(5) 2_656
Pt1A Cl1A 2.3226(14) .
Pt1A Cl1A 2.3226(14) 2_656
N1A C1A 1.150(8) .
C1A N2A 1.297(8) .
N2A C3A 1.468(9) .
N2A C2A 1.469(8) .
C2A H2AA 0.9800 .
C2A H2AB 0.9800 .
C2A H2AC 0.9800 .
C3A H3AA 0.9800 .
C3A H3AB 0.9800 .
C3A H3AC 0.9800 .
C1S I2S 2.141(6) .
C1S I3S 2.142(7) .
C1S I1S 2.153(7) .
C1S H1SA 1.0000 .
C2S I4S 2.141(7) .
C2S I5S 2.141(7) .
C2S I6S 2.153(7) .
C2S H2SA 1.0000 .
