#------------------------------------------------------------------------------
#$Date: 2016-05-06 03:19:51 +0300 (Fri, 06 May 2016) $
#$Revision: 182609 $
#$URL: svn://www.crystallography.net/cod/cif/7/11/89/7118900.cif $
#------------------------------------------------------------------------------
#
# This file is available in the Crystallography Open Database (COD),
# http://www.crystallography.net/
#
# All data on this site have been placed in the public domain by the
# contributors.
#
data_7118900
loop_
_publ_author_name
'Ivanov, Daniil M.'
'Novikov, Alexander S.'
'Ananyev, Ivan V.'
'Kirina, Yulia V.'
'Kukushkin, Vadim Yu'
_publ_section_title
;
 Halogen bonding between metal centers and halocarbons.
;
_journal_issue                   32
_journal_name_full
'Chemical communications (Cambridge, England)'
_journal_page_first              5565
_journal_page_last               5568
_journal_paper_doi               10.1039/c6cc01107a
_journal_volume                  52
_journal_year                    2016
_chemical_formula_moiety         'C12 H20 Cl2 N4 Pt, 2(C H I3)'
_chemical_formula_sum            'C14 H22 Cl2 I6 N4 Pt'
_chemical_formula_weight         1273.74
_space_group_crystal_system      triclinic
_space_group_IT_number           2
_space_group_name_Hall           '-P 1'
_space_group_name_H-M_alt        'P -1'
_symmetry_space_group_name_Hall  '-P 1'
_symmetry_space_group_name_H-M   'P -1'
_atom_sites_solution_hydrogens   geom
_atom_sites_solution_primary     direct
_audit_creation_date             2015-12-29
_audit_creation_method
;
Olex2 1.2
(compiled 2015.01.26 svn.r3150 for OlexSys, GUI svn.r4998)
;
_audit_update_record
;
2016-01-11 deposited with the CCDC.
2016-03-16 downloaded from the CCDC.
;
_cell_angle_alpha                113.841(9)
_cell_angle_beta                 100.430(6)
_cell_angle_gamma                108.001(7)
_cell_formula_units_Z            1
_cell_length_a                   9.1654(5)
_cell_length_b                   9.1839(8)
_cell_length_c                   10.0995(10)
_cell_measurement_reflns_used    2619
_cell_measurement_temperature    100.00(10)
_cell_measurement_theta_max      30.3990
_cell_measurement_theta_min      3.9130
_cell_volume                     692.27(13)
_computing_cell_refinement
;
CrysAlisPro, Agilent Technologies,
Version 1.171.36.32 (release 02-08-2013 CrysAlis171 .NET)
(compiled Aug  2 2013,16:46:58)
;
_computing_data_collection
;
CrysAlisPro, Agilent Technologies,
Version 1.171.36.32 (release 02-08-2013 CrysAlis171 .NET)
(compiled Aug  2 2013,16:46:58)
;
_computing_data_reduction
;
CrysAlisPro, Agilent Technologies,
Version 1.171.36.32 (release 02-08-2013 CrysAlis171 .NET)
(compiled Aug  2 2013,16:46:58)
;
_computing_molecular_graphics    'Olex2 (Dolomanov et al., 2009)'
_computing_publication_material  'Olex2 (Dolomanov et al., 2009)'
_computing_structure_refinement  'ShelXL (Sheldrick, 2008)'
_computing_structure_solution    'ShelXT (Sheldrick, 2015)'
_diffrn_ambient_temperature      100.00(10)
_diffrn_detector_area_resol_mean 16.2096
_diffrn_measured_fraction_theta_full 0.998
_diffrn_measured_fraction_theta_max 0.876
_diffrn_measurement_details
;
  1 omega  -86.00  -35.00   1.0000    3.8000
omega____ theta____ kappa____ phi______ frames
    -      -22.4031 -178.0000   60.0000 51

  2 omega  -60.00   51.00   1.0000    3.8000
omega____ theta____ kappa____ phi______ frames
    -      -22.4031   19.0000  -60.0000 111

  3 omega  -40.00   50.00   1.0000    3.8000
omega____ theta____ kappa____ phi______ frames
    -      -22.4031   38.0000    0.0000 90

  4 omega   -7.00   35.00   1.0000    3.8000
omega____ theta____ kappa____ phi______ frames
    -       23.3406   77.0000 -180.0000 42

  5 omega   36.00   64.00   1.0000    3.8000
omega____ theta____ kappa____ phi______ frames
    -       23.3406  -99.0000  -60.0000 28

  6 omega   -5.00   78.00   1.0000    3.8000
omega____ theta____ kappa____ phi______ frames
    -       23.3406   77.0000   60.0000 83

  7 omega   71.00   99.00   1.0000    3.8000
omega____ theta____ kappa____ phi______ frames
    -       23.3406 -178.0000  -30.0000 28

  8 omega  -91.00   -1.00   1.0000    3.8000
omega____ theta____ kappa____ phi______ frames
    -      -22.4031  -57.0000  150.0000 90

  9 omega    2.00   45.00   1.0000    3.8000
omega____ theta____ kappa____ phi______ frames
    -       23.3406   57.0000   30.0000 43
;
_diffrn_measurement_device_type  'Xcalibur, Eos'
_diffrn_measurement_method       '\w scans'
_diffrn_orient_matrix_UB_11      0.0070255000
_diffrn_orient_matrix_UB_12      -0.0745669000
_diffrn_orient_matrix_UB_13      0.0005063000
_diffrn_orient_matrix_UB_21      -0.0208836000
_diffrn_orient_matrix_UB_22      0.0202863000
_diffrn_orient_matrix_UB_23      0.0675309000
_diffrn_orient_matrix_UB_31      -0.0840860000
_diffrn_orient_matrix_UB_32      -0.0522382000
_diffrn_orient_matrix_UB_33      -0.0465514000
_diffrn_radiation_monochromator  graphite
_diffrn_radiation_type           MoK\a
_diffrn_radiation_wavelength     0.71073
_diffrn_reflns_av_R_equivalents  0.0393
_diffrn_reflns_av_unetI/netI     0.0626
_diffrn_reflns_Laue_measured_fraction_full 0.998
_diffrn_reflns_Laue_measured_fraction_max 0.876
_diffrn_reflns_limit_h_max       12
_diffrn_reflns_limit_h_min       -13
_diffrn_reflns_limit_k_max       13
_diffrn_reflns_limit_k_min       -13
_diffrn_reflns_limit_l_max       14
_diffrn_reflns_limit_l_min       -13
_diffrn_reflns_number            8875
_diffrn_reflns_point_group_measured_fraction_full 0.998
_diffrn_reflns_point_group_measured_fraction_max 0.876
_diffrn_reflns_theta_full        25.242
_diffrn_reflns_theta_max         31.180
_diffrn_reflns_theta_min         2.765
_diffrn_source                   'Enhance (Mo) X-ray Source'
_exptl_absorpt_coefficient_mu    11.959
_exptl_absorpt_correction_T_max  1.00000
_exptl_absorpt_correction_T_min  0.45310
_exptl_absorpt_correction_type   multi-scan
_exptl_absorpt_process_details
;
CrysAlisPro, Agilent Technologies,
Version 1.171.36.32 (release 02-08-2013 CrysAlis171 .NET)
(compiled Aug  2 2013,16:46:58)
Empirical absorption correction using spherical harmonics,
 implemented in SCALE3 ABSPACK scaling algorithm.
;
_exptl_crystal_density_diffrn    3.055
_exptl_crystal_F_000             564
_refine_diff_density_max         1.503
_refine_diff_density_min         -1.522
_refine_diff_density_rms         0.271
_refine_ls_extinction_method     none
_refine_ls_goodness_of_fit_ref   1.096
_refine_ls_hydrogen_treatment    constr
_refine_ls_matrix_type           full
_refine_ls_number_parameters     124
_refine_ls_number_reflns         3928
_refine_ls_number_restraints     0
_refine_ls_restrained_S_all      1.096
_refine_ls_R_factor_all          0.0572
_refine_ls_R_factor_gt           0.0379
_refine_ls_shift/su_max          0.000
_refine_ls_shift/su_mean         0.000
_refine_ls_structure_factor_coef Fsqd
_refine_ls_weighting_details
'w=1/[\s^2^(Fo^2^)+(0.0280P)^2^] where P=(Fo^2^+2Fc^2^)/3'
_refine_ls_weighting_scheme      calc
_refine_ls_wR_factor_gt          0.0771
_refine_ls_wR_factor_ref         0.0915
_reflns_Friedel_coverage         0.000
_reflns_number_gt                3051
_reflns_number_total             3928
_reflns_threshold_expression     'I > 2\s(I)'
_cod_data_source_file            c6cc01107a2.cif
_cod_data_source_block           0exp_dantemp100_1
_cod_depositor_comments
'Adding full bibliography for 7118900--7118914.cif.'
_cod_original_cell_volume        692.27(11)
_cod_database_code               7118900
_shelxl_version_number           2014/6
_chemical_oxdiff_formula         'Pt C14 H22 Cl2 I6 N4'
_shelx_space_group_comment
;
The symmetry employed for this shelxl refinement is uniquely defined
by the following loop, which should always be used as a source of
symmetry information in preference to the above space-group names.
They are only intended as comments.
;
_reflns_odcompleteness_completeness 99.86
_reflns_odcompleteness_iscentric 1
_reflns_odcompleteness_theta     28.51
_olex2_refinement_description
;
1. Fixed Uiso
 At 1.2 times of:
  All C(H) groups, All C(H,H) groups
2.a Ternary CH refined with riding coordinates:
 C1S(H1S)
2.b Secondary CH2 refined with riding coordinates:
 C2(H2A,H2B), C6(H6A,H6B), C5(H5A,H5B), C4(H4A,H4B), C3(H3A,H3B)
;
_shelx_res_file
;
TITL 0exp_dantemp100_1_a.res in P-1
REM Old TITL 0exp_dantemp100_1 in P-1 #2
REM SHELXT solution in P-1
REM R1 0.096, Rweak 0.004, Alpha 0.028, Orientation as input
REM Formula found by SHELXT: C14 Cl2 I6 N4 Pt
CELL 0.71073 9.165446 9.183901 10.099499 113.8411 100.4302 108.0009
ZERR 1 0.000539 0.000834 0.000956 0.0094 0.0063 0.007
LATT 1
SFAC C H Cl I N Pt
UNIT 14 22 2 6 4 1

L.S. 10
PLAN  25
BOND $H
LIST 6
fmap 2
acta
REM <olex2.extras>
REM <HklSrc "%.\\0exp_dantemp100_1.hkl">
REM </olex2.extras>

WGHT    0.028000
FVAR       0.34674
PT1   6    0.000000    0.000000    0.000000    10.50000    0.01927    0.01412 =
         0.02813    0.00528    0.01200    0.00471
I1S   4    0.452909    0.162249    0.422573    11.00000    0.02836    0.02204 =
         0.02996    0.01175    0.01268    0.00929
I2S   4    0.835641    0.147133    0.416508    11.00000    0.03439    0.03073 =
         0.03445    0.01533    0.01891    0.01564
I3S   4    0.818421    0.541735    0.672199    11.00000    0.03378    0.02118 =
         0.04203    0.01036    0.01148    0.00873
CL1   3    0.064310   -0.010611    0.228716    11.00000    0.01929    0.02318 =
         0.02589    0.00849    0.01034    0.00463
N1    5    0.233481    0.120785    0.037596    11.00000    0.02017    0.02048 =
         0.02792    0.00642    0.01185    0.00314
N2    5    0.524671    0.287241    0.092734    11.00000    0.02134    0.02422 =
         0.03036    0.00278    0.01563   -0.00390
C1S   1    0.706730    0.259556    0.553478    11.00000    0.02715    0.02418 =
         0.01893    0.00897    0.01048    0.00979
AFIX  13
H1S   2    0.710511    0.223898    0.632860    11.00000   -1.20000
AFIX   0

C1    1    0.370148    0.196974    0.062091    11.00000    0.04020    0.01840 =
         0.02121    0.00894    0.01218    0.01307
C2    1    0.615235    0.210283    0.003150    11.00000    0.02757    0.02286 =
         0.03665    0.00766    0.02153    0.01288
AFIX  23
H2A   2    0.539958    0.099199   -0.088113    11.00000   -1.20000
H2B   2    0.690921    0.188343    0.064799    11.00000   -1.20000
AFIX   0
C6    1    0.622010    0.460950    0.230584    11.00000    0.03569    0.02989 =
         0.02245    0.00675    0.01087    0.00336
AFIX  23
H6A   2    0.698869    0.452988    0.304230    11.00000   -1.20000
H6B   2    0.550522    0.502725    0.279605    11.00000   -1.20000
AFIX   0
C5    1    0.713977    0.587643    0.183098    11.00000    0.03347    0.02347 =
         0.03375    0.00558    0.00343    0.00865
AFIX  23
H5A   2    0.636495    0.605304    0.118866    11.00000   -1.20000
H5B   2    0.784815    0.700405    0.274519    11.00000   -1.20000
AFIX   0
C4    1    0.814129    0.519508    0.096301    11.00000    0.02933    0.02615 =
         0.05305    0.01904    0.02118    0.00423
AFIX  23
H4A   2    0.898994    0.513486    0.164066    11.00000   -1.20000
H4B   2    0.867065    0.599806    0.062310    11.00000   -1.20000
AFIX   0
C3    1    0.708806    0.337220   -0.043955    11.00000    0.03000    0.04119 =
         0.04070    0.01931    0.01907    0.01178
AFIX  23
H3A   2    0.631957    0.345522   -0.117326    11.00000   -1.20000
H3B   2    0.778316    0.292963   -0.094409    11.00000   -1.20000
AFIX   0
HKLF 4

REM  0exp_dantemp100_1_a.res in P-1
REM R1 =  0.0379 for    3051 Fo > 4sig(Fo)  and  0.0572 for all    3928 data
REM    124 parameters refined using      0 restraints

END

WGHT      0.0282      0.0000

REM Highest difference peak  1.503,  deepest hole -1.522,  1-sigma level  0.271
Q1    1  -0.0447 -0.0356  0.0461  11.00000  0.05    1.50
Q2    1   0.7060  0.6808  0.1596  11.00000  0.05    1.30
Q3    1   0.6231  0.0182 -0.0035  11.00000  0.05    1.22
Q4    1   0.0983  0.0304  0.2027  11.00000  0.05    1.18
Q5    1  -0.0831  0.0794  0.0170  11.00000  0.05    1.13
Q6    1   0.0364  0.1004  0.0620  11.00000  0.05    1.12
Q7    1   0.0614  0.0613  0.0940  11.00000  0.05    1.10
Q8    1   0.1192  0.0635 -0.0886  11.00000  0.05    1.08
Q9    1   0.7742  0.0227  0.3351  11.00000  0.05    1.07
Q10   1   0.5795  0.2377  0.3416  11.00000  0.05    1.06
Q11   1  -0.0445  0.0604  0.1141  11.00000  0.05    1.05
Q12   1   0.9078  0.1980  0.3699  11.00000  0.05    1.05
Q13   1   0.1418  0.0923  0.0576  11.00000  0.05    1.02
Q14   1   0.3701  0.3838  0.2348  11.00000  0.05    0.97
Q15   1   0.7718  0.1465  0.4806  11.00000  0.05    0.97
Q16   1   0.8018  0.2585  0.4300  11.00000  0.05    0.94
Q17   1   0.3962  0.1858  0.4984  11.00000  0.05    0.94
Q18   1   0.1388  0.2237  0.4049  11.00000  0.05    0.94
Q19   1   0.3997  0.0811  0.4649  11.00000  0.05    0.93
Q20   1   0.6527  0.7037  0.0827  11.00000  0.05    0.90
Q21   1   1.0188  0.6026  0.7469  11.00000  0.05    0.89
Q22   1   0.0045  0.1303  0.0070  11.00000  0.05    0.89
Q23   1   0.5281  0.1408  0.3518  11.00000  0.05    0.88
Q24   1   0.8745  0.4837  0.5118  11.00000  0.05    0.88
Q25   1   0.8788  0.5266  0.6070  11.00000  0.05    0.88
;
_shelx_res_checksum              67274
_shelx_hkl_file
;
   0   0  -2 1771.18   34.51
   0   0  -2 1777.87   35.16
   0   0   2 1797.32   34.75
   0   0   2 1857.88   36.57
   0   0  -3 1977.02   45.09
   0   0  -3 2005.81   46.13
   0   0  -4    3.48    1.75
   0   0  -4    3.92    3.19
   0   0  -5 1756.33   56.78
   0   0  -5 1720.90   55.74
   0   0  -5 1728.70   40.30
   0   0  -6  105.06   10.04
   0   0  -6   92.90   14.65
   0   0  -6  110.01   15.75
   0   0  -7  874.55   49.76
   0   0  -8  117.57   20.32
   0   0  -9  495.18   45.16
   0   0 -10   86.50   20.72
   0   0 -11   74.17   20.32
   0   0 -12  266.69   41.79
   1   0 -12   10.97    7.92
   1   0 -11   -3.90    5.77
   1   0 -10  109.15   22.43
   1   0  -9  223.17   29.33
   1   0  -8    5.72    3.95
   1   0  -7  429.59   33.83
   1   0  -6  761.82   40.78
   1   0  -6  703.58   38.03
   1   0  -5    7.96    4.72
   1   0  -5    3.26    2.87
   1   0  -4 3423.99   67.67
   1   0  -4 3254.80   67.55
   1   0  -3  375.38   19.16
   1   0  -3  372.85   19.59
   1   0  -2  241.99   16.25
  -1   0   2  246.59   12.45
   1   0  -2  252.91   13.23
   1   0  -2  241.81   12.21
  -1   0   2  262.96   17.62
  -1   0   1 1936.94   38.20
   1   0  -1 2035.23   23.00
   1   0  -1 2009.51   27.41
   1   0   1  102.28    6.61
  -1   0  -1  113.60    7.06
   1   0   1  111.03    7.10
   1   0   1  102.11    5.91
  -1   0  -1  106.69    6.56
  -1   0  -1  110.65    8.94
  -1   0  -2   28.03    4.57
   1   0   2   36.85    4.98
   1   0   2   43.03    5.96
  -1   0  -2   36.52    5.47
   1   0   2   34.06    4.64
  -1   0  -3 1760.18   33.12
   1   0   3 1697.32   39.13
  -1   0  -3 1717.81   44.66
  -1   0  -3 1737.62   43.78
  -1   0  -4   80.61   11.21
  -1   0  -4   70.18   10.51
  -1   0  -4   74.57    7.34
  -1   0  -5  381.51   27.32
  -1   0  -5  382.76   27.34
  -1   0  -6  663.14   39.13
  -1   0  -6  711.96   41.84
  -1   0  -7  215.27   25.23
  -1   0  -8  596.31   46.58
  -1   0  -9   15.18    8.41
  -1   0 -10  -10.96    8.04
  -1   0 -11   55.28   18.73
  -1   0 -12    0.88    5.37
   2   0 -12   31.92   14.60
   2   0 -11  117.16   24.64
   2   0 -10   14.69    8.60
   2   0  -9  640.72   48.69
   2   0  -8   68.52   14.97
   2   0  -7 1312.68   58.43
   2   0  -6    8.50    5.34
   2   0  -6    1.97    3.23
   2   0  -5   17.43    6.17
   2   0  -5   17.67    5.58
   2   0  -4 4685.04   76.35
   2   0  -4 4663.89   79.92
   2   0  -3 3311.60   75.88
   2   0  -3 3546.57   55.98
   2   0  -3 3428.85   60.20
  -2   0   2 2506.94   46.43
   2   0  -2 2333.21   57.25
  -2   0   2 2450.14   61.50
  -2   0   2 2479.55   36.35
   2   0  -2 2425.22   43.04
   2   0  -2 2499.34   36.04
  -2   0   2 2292.55   52.11
  -2   0   1 1035.50   29.14
  -2   0   1  970.96   38.97
   2   0  -1  917.40   22.87
  -2   0   1  963.63   25.58
   2   0  -1  932.64   36.44
   2   0   0  145.51   12.45
  -2   0   0  142.74   12.09
   2   0   0  151.30   11.57
   2   0   0  140.41   10.99
   2   0   0  144.43    8.51
   2   0   0  136.12   11.37
   2   0   1  164.02    8.12
   2   0   1  179.45    9.84
  -2   0  -1  155.28   13.08
  -2   0  -1  176.47    9.64
  -2   0  -1  202.75   12.06
   2   0   2  122.51    9.02
  -2   0  -2  127.70   10.75
  -2   0  -2  124.58   13.76
   2   0   2  130.54   11.02
  -2   0  -2  137.12   11.09
  -2   0  -3 1957.01   49.44
  -2   0  -3 1876.07   48.83
   2   0   3 1987.97   48.17
  -2   0  -3 1981.30   60.94
   2   0   4  151.58   14.86
  -2   0  -4  156.79   16.40
  -2   0  -4  162.93   16.57
  -2   0  -5 2044.20   64.68
  -2   0  -5 2118.64   67.60
  -2   0  -6   48.51   11.13
  -2   0  -7    9.64    2.74
  -2   0  -8  721.43   52.71
  -2   0  -9   -4.35    8.55
  -2   0  -9    4.01    7.07
  -2   0 -10   74.06   20.25
  -2   0 -10   73.69   22.30
  -2   0 -11    4.62    8.89
   3   0 -12   78.22   21.45
   3   0 -11  209.14   32.47
   3   0 -10   53.32   15.29
   3   0  -9   63.14   15.75
   3   0  -8 1463.77   66.45
   3   0  -7  309.53   28.19
   3   0  -6  972.74   43.15
   3   0  -6  999.46   46.36
   3   0  -5  488.45   27.43
   3   0  -5  511.70   38.15
   3   0  -5  481.68   29.03
   3   0  -4  715.54   28.82
   3   0  -4  662.26   39.94
   3   0  -4  694.80   31.11
   3   0  -3   78.06   13.13
  -3   0   3   82.22    8.06
   3   0  -3   66.29    8.65
   3   0  -3   75.56    7.77
  -3   0   3   72.92   10.86
  -3   0   2    3.93    2.75
   3   0  -2    8.15    2.53
  -3   0   2    9.93    3.46
   3   0  -2    5.77    4.65
   3   0  -2   14.43    5.78
  -3   0   2   10.47    2.16
   3   0  -1 6752.22  118.68
  -3   0   1 6976.23   68.50
   3   0  -1 8286.43  112.86
   3   0  -1 6809.04   77.30
  -3   0   1 7830.18  100.04
  -3   0   1 7314.71  121.02
  -3   0   1 7113.60   94.31
  -3   0   0 1653.46   51.18
   3   0   0 1707.40   46.16
   3   0   0 1670.80   35.70
   3   0   0 1677.85   52.42
   3   0   0 1666.55   30.02
   3   0   0 1555.14   19.46
   3   0   1 3241.90   38.16
  -3   0  -1 3232.77   70.87
  -3   0  -1 3301.80   77.86
   3   0   1 3455.92   45.79
  -3   0  -1 3376.49   47.04
   3   0   2  312.23   20.32
  -3   0  -2  270.65   19.22
  -3   0  -2  276.18   16.65
  -3   0  -2  276.83   22.27
   3   0   2  276.74   13.35
  -3   0  -3   96.20   12.54
  -3   0  -3   80.64   13.17
  -3   0  -3   91.14   11.45
   3   0   3   95.09   12.22
   3   0   4 3329.31   77.67
  -3   0  -4 3349.10   81.34
  -3   0  -4 3343.06   95.00
   3   0   5   27.95    7.85
  -3   0  -5   21.99    8.87
  -3   0  -5   37.28    9.86
  -3   0  -6  405.47   39.37
  -3   0  -6  383.96   33.65
  -3   0  -7   12.41    7.23
  -3   0  -7   14.61    7.71
  -3   0  -8  329.90   41.25
  -3   0  -8  254.01   32.69
  -3   0  -9   36.77   16.61
  -3   0 -10    5.06    8.53
   4   0 -12    5.10    6.91
   4   0 -11  275.03   36.70
   4   0 -10   -5.84    6.76
   4   0  -9  147.07   22.90
   4   0  -8  196.50   24.48
   4   0  -7   54.34   11.97
   4   0  -6  638.04   37.03
   4   0  -6  627.18   47.39
   4   0  -5  969.52   41.78
   4   0  -5  943.86   54.58
   4   0  -4   19.16    7.35
  -4   0   4   24.82    7.47
   4   0  -4   20.59    5.81
  -4   0   3  208.36   11.87
   4   0  -3  194.61   23.01
   4   0  -3  203.94   15.99
   4   0  -3  192.04   14.84
  -4   0   3  201.44   17.74
  -4   0   2 2069.09   24.35
   4   0  -2 2144.97   49.07
   4   0  -2 2156.14   77.35
  -4   0   2 2296.20   58.77
  -4   0   2 2278.30   54.50
   4   0  -1  174.98   21.77
   4   0  -1  188.28   15.00
  -4   0   1  213.44   19.95
  -4   0   1  246.94   20.88
   4   0   0  186.16    7.56
   4   0   0  226.36   13.13
   4   0   0  227.44   19.18
  -4   0   0  191.42   20.49
   4   0   0  217.27   15.24
   4   0   0  208.49   21.88
   4   0   1 1040.76   21.79
  -4   0  -1 1136.29   52.57
   4   0   1 1139.65   52.25
   4   0   1 1200.65   28.61
  -4   0  -2    9.07    3.65
   4   0   2    5.17    1.92
  -4   0  -2   -1.38    4.23
   4   0   2    3.32    2.91
  -4   0  -2    5.07    3.55
  -4   0  -3  174.28   20.91
  -4   0  -3  203.16   20.45
  -4   0  -3  196.46   26.00
   4   0   3  215.15   20.71
  -4   0  -4  571.32   38.38
   4   0   4  625.79   37.94
  -4   0  -4  639.66   43.79
  -4   0  -5    2.87    3.78
   4   0   5   -0.08    2.41
  -4   0  -5   -7.30    5.15
  -4   0  -6   11.76    6.81
  -4   0  -6   26.03   10.04
  -4   0  -7  442.50   45.71
  -4   0  -8   33.94   14.40
  -4   0  -9   -8.78    8.23
   5   0 -12  259.75   37.61
   5   0 -11   55.49   16.01
   5   0 -10  710.58   53.89
   5   0  -9    0.21    3.78
   5   0  -8  704.57   46.36
  -5   0   7    4.24    5.60
   5   0  -7   15.39   10.27
   5   0  -7    4.97    3.82
   5   0  -6  601.87   36.37
  -5   0   6  516.72   36.25
   5   0  -6  587.90   47.57
   5   0  -5 2019.96   60.95
  -5   0   5 2216.08   69.55
   5   0  -5 2128.21   88.26
  -5   0   4 1438.09   52.11
   5   0  -4 1515.89   48.14
   5   0  -4 1523.60   71.89
   5   0  -4 1495.04   48.57
  -5   0   3 5274.27  104.42
   5   0  -3 5349.44   87.52
   5   0  -3 5310.03  133.57
  -5   0   3 5576.67   55.12
   5   0  -3 5557.23   82.05
   5   0  -2   67.17   14.84
   5   0  -2   79.00   10.59
  -5   0   2   62.77   11.92
  -5   0   2   64.40    8.38
   5   0  -1  410.05   36.78
   5   0  -1  458.44   26.28
   5   0  -1  437.37   25.20
   5   0  -1  438.49   19.31
   5   0   0 1372.23   43.56
   5   0   0 1316.74   63.14
   5   0   0 1260.41   32.14
   5   0   0 1368.80   52.22
   5   0   1   57.26    9.95
   5   0   1   65.03    6.99
   5   0   1   62.12   13.12
   5   0   1   47.09    4.20
  -5   0  -1   58.93   14.37
  -5   0  -2  853.97   54.54
   5   0   2  785.54   21.01
  -5   0  -2  832.75   26.21
   5   0   2  887.07   44.73
   5   0   3   20.18    7.57
  -5   0  -3   14.02    6.85
  -5   0  -3   22.52    9.13
  -5   0  -3   20.37    5.71
   5   0   4 1120.44   56.24
  -5   0  -4 1045.50   51.73
  -5   0  -4 1192.32   63.60
  -5   0  -4 1136.10   71.48
  -5   0  -5  189.60   27.55
   5   0   5  131.90   20.35
  -5   0  -5  167.35   30.73
  -5   0  -6  140.83   25.07
  -5   0  -7  348.78   41.73
  -5   0  -8   49.97   17.25
  -5   0  -9  208.39   36.71
   6   0 -12   80.97   21.35
   6   0 -11   28.03   12.51
   6   0 -10   78.23   18.59
   6   0  -9  424.54   39.44
   6   0  -8  211.24   33.44
   6   0  -8  153.14   21.92
   6   0  -7  801.69   46.37
   6   0  -7  829.93   62.45
   6   0  -6  298.31   36.35
   6   0  -6  306.52   26.54
  -6   0   6  259.71   25.19
  -6   0   5   11.27    5.61
   6   0  -5    5.68    6.18
   6   0  -5    6.44    3.33
  -6   0   4  474.23   33.16
   6   0  -4  382.49   24.94
  -6   0   4  404.17   18.21
   6   0  -4  435.12   42.13
   6   0  -4  437.61   27.12
   6   0  -3  138.71   14.97
   6   0  -3  132.80   23.23
  -6   0   3  148.49   18.65
   6   0  -3  142.96   13.63
   6   0  -2  783.17   56.53
   6   0  -2  815.53   36.54
   6   0  -1    7.71    4.21
   6   0  -1    3.83    1.94
   6   0  -1   10.53    7.76
   6   0   0 1313.84   55.44
   6   0   0 1176.79   24.57
   6   0   0 1282.71   70.28
   6   0   0 1270.67   46.65
  -6   0  -1   42.05   12.65
   6   0   1   26.39   10.35
   6   0   1   41.38   11.12
   6   0   1   32.52    8.13
   6   0   2   40.09   10.46
  -6   0  -2   50.90   15.62
   6   0   2   45.99   13.98
   6   0   3 1262.18   62.32
  -6   0  -3 1216.97   75.51
   6   0   3 1211.13   76.68
  -6   0  -4  239.95   35.90
   6   0   4  221.50   27.67
  -6   0  -4  243.06   31.17
  -6   0  -5  243.54   37.83
  -6   0  -5  187.27   28.77
   6   0   5  213.85   28.48
  -6   0  -6   25.75   11.36
  -6   0  -6   27.11   13.49
  -6   0  -7   13.78   10.28
  -6   0  -7   15.24   11.43
  -6   0  -8   27.62   12.81
  -6   0  -8   34.65   17.17
   7   0 -12  148.54   28.78
   7   0 -11    0.75    4.04
   7   0 -10  396.70   40.86
   7   0  -9   26.12   10.12
   7   0  -8   54.35   13.24
   7   0  -8   60.12   18.46
   7   0  -7 1612.08   67.05
   7   0  -7 1672.05   94.45
  -7   0   6   -0.38    2.76
   7   0  -6   15.45    6.55
   7   0  -6   16.00    9.38
   7   0  -5  404.57   28.70
  -7   0   5  390.66   32.09
   7   0  -5  392.22   43.19
  -7   0   4  116.12   18.54
   7   0  -4  122.33   14.45
   7   0  -4  143.02   25.89
   7   0  -4  117.79   14.90
   7   0  -3   55.72   16.34
   7   0  -3   50.18    8.70
  -7   0   3   66.91   13.82
   7   0  -3   65.77   11.26
   7   0  -2  174.09   13.23
   7   0  -2  171.66   28.71
   7   0  -2  173.42   18.26
   7   0  -1  140.14   17.80
   7   0  -1  142.64    9.38
   7   0  -1  111.28   23.42
   7   0   0  385.09   31.86
   7   0   0  416.27   44.42
   7   0   0  401.51   29.18
   7   0   1  159.54   23.10
   7   0   1  188.03   30.17
   7   0   1  152.24   22.84
   7   0   1  174.28   20.55
   7   0   2 1011.09   58.68
   7   0   2  946.85   70.15
  -7   0  -2 1040.01   74.24
   7   0   2 1005.44   66.72
   7   0   2 1102.52   54.43
   7   0   3  101.20   19.25
   7   0   3   86.64   21.54
   7   0   3  101.07   18.41
  -7   0  -3   64.91   19.13
  -7   0  -4    7.52    7.35
   7   0   4   -2.52    5.58
   7   0   5  228.21   38.96
  -7   0  -5  227.21   38.11
  -7   0  -6    5.15    9.44
  -7   0  -7   63.15   22.86
   8   0 -11  555.21   52.05
   8   0 -10   13.36    8.19
   8   0  -9  196.73   36.35
   8   0  -9  137.91   23.21
   8   0  -8   29.14   13.98
   8   0  -8   39.09   11.98
   8   0  -7  172.69   22.38
   8   0  -7  139.87   28.76
  -8   0   6  292.97   29.81
   8   0  -6  327.72   28.72
   8   0  -6  369.88   45.57
   8   0  -5   59.28   11.47
  -8   0   5   47.03   12.83
   8   0  -5   43.88   15.06
   8   0  -4 2009.36   59.91
   8   0  -4 1821.66   99.20
   8   0  -4 1883.64   62.63
   8   0  -3  186.41   31.15
   8   0  -3  188.36   19.81
   8   0  -3  202.60   16.78
   8   0  -2  853.08   68.58
   8   0  -2  827.12   42.44
   8   0  -1  520.82   54.67
   8   0  -1  527.97   36.14
   8   0   0  169.41   31.23
   8   0   0  195.84   24.02
   8   0   1  935.81   60.47
   8   0   1  943.11   75.08
   8   0   1  970.26   60.46
   8   0   2   13.76    9.96
   8   0   2   -2.76    9.23
   8   0   2   -5.40    7.98
   8   0   3  163.71   33.28
   8   0   3  200.80   29.93
   8   0   3  184.54   32.15
  -8   0  -3  231.04   39.83
   8   0   4   -6.23    7.58
  -8   0  -4   -3.61   10.78
   8   0   4   -4.24    9.34
  -8   0  -5  121.30   30.83
  -8   0  -6   70.72   24.22
   9   0 -11  159.99   28.43
   9   0 -10    3.33    4.73
   9   0  -9    7.89    8.53
   9   0  -9   10.59    7.32
   9   0  -8  296.28   32.07
   9   0  -8  263.54   42.39
   9   0  -7   99.32   17.60
   9   0  -7   92.96   24.27
   9   0  -6  104.66   25.31
   9   0  -6   79.57   14.42
   9   0  -5  258.28   39.60
   9   0  -4   20.20   13.22
   9   0  -3  108.01   26.26
   9   0  -2  400.22   49.88
   9   0  -1    9.58    9.05
   9   0   0   -9.67    9.12
   9   0   0    2.52    4.38
   9   0   1  151.59   26.32
   9   0   1  160.19   34.27
   9   0   2  114.58   23.88
   9   0   2   96.64   26.72
   9   0   3   -2.97    6.47
  -9   0  -4  151.43   35.70
  10   0 -10    0.66    5.73
  10   0  -9    9.80   14.34
  10   0  -9    6.47    4.37
  10   0  -8  551.19   64.12
  10   0  -7  174.27   35.66
  10   0  -6  752.51   71.90
  10   0  -5   -0.37    3.76
  10   0  -4   17.98   11.78
  10   0  -3  420.86   53.75
  10   0  -2   -3.53    6.23
  10   0  -1  171.87   29.59
  10   0  -1  169.02   35.57
  10   0   0    2.22    4.67
  10   0   0   17.48   11.13
  10   0   1  346.75   43.11
  10   0   2   -4.75   10.73
  11   0  -9   61.96   22.43
  11   0  -8   31.92   17.38
  11   0  -7  228.15   42.42
  11   0  -6   11.73   10.96
  11   0  -5  185.21   37.75
  11   0  -4   16.58   12.15
  11   0  -3  444.24   58.02
  11   0  -2   18.68    9.95
  11   0  -1   12.52    9.13
  11   0   0  323.48   43.84
  11   0   1   -3.26    8.26
  12   0  -7   90.02   27.67
  12   0  -6   38.82   18.44
  12  -1  -4   -1.03    7.97
  12  -1  -8  101.32   28.76
  11  -1   2   41.52   16.87
  11  -1   1   21.76    8.73
  11  -1   0   57.25   19.56
  11  -1  -1    3.57    6.61
  11  -1  -2  419.92   49.70
  11  -1  -3    8.53    8.64
  11  -1  -4   56.71   18.17
  11  -1  -5  266.37   41.16
  11  -1  -6   36.22   14.62
  11  -1  -7  398.82   51.97
  11  -1  -8   82.21   25.16
  10  -1   3   38.06   15.32
  10  -1   2  445.92   50.49
  10  -1   1   24.13   11.68
  10  -1   0   -4.03    4.96
  10  -1  -1  487.42   53.99
  10  -1  -1  575.78   53.59
  10  -1  -2   41.70   15.94
  10  -1  -2   33.48   13.34
  10  -1  -3  704.91   63.38
  10  -1  -4   23.91   11.18
  10  -1  -5  177.36   31.52
 -10   1   5  192.38   30.48
  10  -1  -6   49.90   18.22
  10  -1  -7  105.76   26.10
  10  -1  -7  107.72   19.06
  10  -1  -8  720.97   68.68
  10  -1  -8  690.40   51.06
  10  -1  -9   99.65   20.78
  10  -1 -10  418.45   44.72
  -9   1  -5   53.69   21.48
  -9   1  -4  -17.60   14.21
   9  -1   4   -7.79    7.49
   9  -1   3  100.51   22.66
   9  -1   2  248.81   35.74
   9  -1   2  297.76   38.17
   9  -1   1   -2.96    6.57
   9  -1   1  -15.24   10.40
   9  -1   1    3.42    4.63
   9  -1   0  205.48   29.90
   9  -1   0  213.73   27.70
   9  -1   0  230.96   36.42
   9  -1  -1  187.08   28.31
   9  -1  -1  168.18   22.70
   9  -1  -1  149.37   27.90
   9  -1  -2   30.26    9.88
   9  -1  -2   15.12    8.57
   9  -1  -3  341.19   41.34
   9  -1  -3  343.22   31.18
  -9   1   3  349.51   39.07
   9  -1  -4  295.90   38.25
   9  -1  -4  298.99   29.03
   9  -1  -4  324.42   26.20
  -9   1   4  276.43   35.26
   9  -1  -5    8.32    8.37
   9  -1  -5    4.69    2.54
   9  -1  -5    9.28    5.42
  -9   1   5   -0.20    5.78
   9  -1  -6  174.23   22.07
   9  -1  -6  195.07   32.69
  -9   1   6  126.21   23.10
   9  -1  -7  254.78   28.71
   9  -1  -7  301.53   41.04
   9  -1  -8   -2.39    4.71
   9  -1  -8    2.86    6.69
   9  -1  -9   30.09   11.25
   9  -1 -10   42.59   14.67
   8  -1   7   25.72   15.28
  -8   1  -7   35.88   16.07
   8  -1   6  406.01   55.88
  -8   1  -6  572.58   65.61
  -8   1  -5   62.96   21.65
   8  -1   5   38.36   16.84
   8  -1   5   43.37   15.77
   8  -1   4   90.58   25.08
   8  -1   4   65.25   18.11
  -8   1  -4   93.09   25.09
  -8   1  -3  438.27   51.62
   8  -1   3  349.04   39.27
   8  -1   3  354.18   44.70
   8  -1   3  355.26   44.27
   8  -1   2    5.76    6.79
   8  -1   2    6.78    7.47
   8  -1   2   -5.90    9.21
   8  -1   1  611.13   55.35
   8  -1   1  696.85   51.35
   8  -1   1  648.92   50.02
   8  -1   0    7.08    5.59
   8  -1   0   12.98    6.88
   8  -1   0   18.75    9.92
   8  -1  -1  704.11   57.10
   8  -1  -1  755.86   45.99
   8  -1  -2   30.29   11.76
   8  -1  -2   21.98    7.68
  -8   1   2   20.28    8.90
  -8   1   3  640.19   48.86
   8  -1  -3  690.65   54.66
   8  -1  -3  625.76   40.14
  -8   1   4   98.48   18.87
   8  -1  -4  116.89   22.60
   8  -1  -4  123.73   17.96
   8  -1  -4  123.12   15.75
   8  -1  -5  510.43   34.58
   8  -1  -5  566.01   50.66
   8  -1  -5  509.96   36.88
   8  -1  -6 1944.31   95.57
   8  -1  -6 1878.16   70.91
   8  -1  -7  103.39   17.95
   8  -1  -7  104.53   23.13
   8  -1  -8  169.49   24.31
   8  -1  -9   53.25   14.32
   8  -1 -10   10.32    7.32
   8  -1 -11  259.02   35.78
  -7   1  -8    7.55    8.78
   7  -1   7  156.04   34.86
  -7   1  -7  191.05   34.19
  -7   1  -7  163.43   33.70
  -7   1  -6   17.36   10.50
   7  -1   6   16.73   10.97
  -7   1  -6   22.43   14.68
  -7   1  -5   33.43   13.44
  -7   1  -5   29.63   12.62
   7  -1   5   39.16   14.94
   7  -1   5   30.76   14.47
   7  -1   4   11.97    7.60
  -7   1  -4   16.80    9.36
   7  -1   4   26.03   12.79
   7  -1   3  404.66   43.92
  -7   1  -3  423.91   45.99
   7  -1   3  397.72   45.78
   7  -1   3  415.95   39.18
   7  -1   2   16.83   10.38
   7  -1   2    7.42    3.81
  -7   1  -2    6.52    7.09
   7  -1   2    4.51    3.51
   7  -1   2   20.90   10.77
   7  -1   1  167.70   23.21
   7  -1   1  179.63   25.16
   7  -1   1  175.25   16.99
   7  -1   1  174.42   26.78
   7  -1   0  458.62   43.24
   7  -1   0  463.57   25.23
   7  -1   0  494.82   37.37
  -7   1   1  263.89   31.02
   7  -1  -1  269.51   32.32
   7  -1  -1  275.05   25.86
   7  -1  -2 2113.90   69.30
   7  -1  -2 2073.31   87.07
  -7   1   2 2247.25   85.83
   7  -1  -3   94.13   18.50
  -7   1   3   94.28   17.49
   7  -1  -3  112.02   16.26
   7  -1  -4   53.07   13.59
   7  -1  -4   57.79   11.86
  -7   1   4   89.13   17.24
   7  -1  -5  418.72   41.01
  -7   1   5  373.70   35.87
   7  -1  -5  445.92   31.46
   7  -1  -5  418.51   32.67
   7  -1  -6  177.29   27.42
  -7   1   6  154.78   24.35
   7  -1  -6  168.44   20.70
   7  -1  -7  397.53   34.33
  -7   1   7  413.85   41.91
   7  -1  -7  436.13   45.15
   7  -1  -8    9.65    6.26
   7  -1  -9  581.22   46.94
   7  -1 -10   -5.78    6.18
   7  -1 -11  126.87   24.59
  -6   1  -8   84.40   24.84
  -6   1  -8  128.63   28.59
  -6   1  -7   54.30   17.64
  -6   1  -7    4.69    6.90
   6  -1   6   11.35    7.52
  -6   1  -6    7.61    9.25
  -6   1  -6   -2.69    7.66
   6  -1   5   14.11    6.71
  -6   1  -5   34.54   12.87
  -6   1  -5   26.50   10.15
  -6   1  -4   46.88   15.11
   6  -1   4   58.49   13.75
   6  -1   4   63.03   18.82
  -6   1  -4   67.75   16.38
   6  -1   3  406.56   35.47
   6  -1   3  420.01   44.86
  -6   1  -3  433.14   26.65
  -6   1  -3  422.84   37.95
  -6   1  -3  400.84   40.81
   6  -1   2   10.90    8.03
   6  -1   2   13.33    5.00
  -6   1  -2    9.26    6.01
   6  -1   2    6.94    5.06
   6  -1   1 1483.82   68.17
   6  -1   1 1479.55   68.90
   6  -1   1 1472.50   29.62
   6  -1   1 1569.79   63.57
   6  -1   1 1527.83   44.96
   6  -1   1 1395.72   45.54
   6  -1   0   17.38    6.55
  -6   1   0   23.73    9.38
   6  -1   0   18.45    4.61
   6  -1   0   10.64    6.21
   6  -1  -1   81.41   15.51
   6  -1  -1   76.46   12.83
  -6   1   1   81.63   15.47
   6  -1  -2 2931.13   94.27
  -6   1   2 2906.89   92.30
   6  -1  -2 2934.81   76.49
  -6   1   3  174.67   16.46
   6  -1  -3  179.44   19.23
   6  -1  -3  156.27   21.80
  -6   1   3  164.40   21.96
  -6   1   3  176.21   12.02
   6  -1  -4  471.85   31.81
   6  -1  -4  483.18   22.77
   6  -1  -4  448.01   37.97
  -6   1   5  294.44   32.62
   6  -1  -5  341.45   26.83
   6  -1  -5  369.60   35.76
   6  -1  -5  343.15   22.62
  -6   1   6  229.32   30.37
   6  -1  -6  232.32   23.91
   6  -1  -6  225.67   20.75
   6  -1  -6  246.35   30.57
   6  -1  -7   95.66   16.36
  -6   1   7   77.09   20.52
   6  -1  -8   61.49   14.19
   6  -1  -9  201.25   27.23
   6  -1 -10   -3.53    4.18
   6  -1 -11  269.49   36.26
  -5   1  -9   48.22   16.28
  -5   1  -8    4.79    9.40
  -5   1  -7  814.11   64.33
  -5   1  -6  139.47   24.61
   5  -1   6  149.95   23.27
  -5   1  -6  187.01   29.57
  -5   1  -5 1105.30   65.80
   5  -1   5 1008.41   56.99
  -5   1  -4  194.24   24.16
  -5   1  -4  193.57   25.82
   5  -1   4  184.11   23.21
  -5   1  -4  206.77   29.33
   5  -1   3   56.03   11.81
  -5   1  -3   56.34   14.17
  -5   1  -3   48.09    9.81
  -5   1  -3   57.13   13.70
  -5   1  -2 3467.94   69.20
  -5   1  -2 3459.16  100.71
   5  -1   2 3452.88  109.41
  -5   1  -2 3565.12   95.26
   5  -1   2 3430.11   88.11
   5  -1   1  434.22   26.25
   5  -1   1  422.05   32.36
   5  -1   1  473.27   17.04
  -5   1  -1  451.37   34.34
   5  -1   1  449.42   30.54
   5  -1   1  432.37   34.33
   5  -1   0 1046.81   52.62
  -5   1   0 1172.92   55.85
   5  -1   0 1052.09   37.37
   5  -1   0 1011.51   46.19
   5  -1   0 1018.29   27.74
   5  -1  -1  164.04   20.56
  -5   1   1  176.71   21.05
   5  -1  -1  163.70   17.31
   5  -1  -2 1342.44   57.27
  -5   1   2 1456.24   60.09
  -5   1   2 1359.94   33.97
   5  -1  -2 1335.97   47.93
   5  -1  -2 1411.69   24.83
   5  -1  -3  117.14   16.93
   5  -1  -3  119.95   14.73
  -5   1   3  143.57   11.50
   5  -1  -3  138.45   10.58
  -5   1   4    0.50    3.71
   5  -1  -4    7.56    4.21
   5  -1  -4   12.04    3.68
   5  -1  -4   15.30    6.35
   5  -1  -5 3598.44  104.78
   5  -1  -5 3672.19   75.23
  -5   1   5 3428.09  113.81
   5  -1  -5 3722.96   86.31
   5  -1  -6  535.06   32.20
   5  -1  -6  558.95   36.59
   5  -1  -7 1535.22   59.93
   5  -1  -7 1391.18   61.59
   5  -1  -8   29.96    9.63
   5  -1  -8   23.96    8.18
   5  -1  -9   33.79   11.61
   5  -1 -10  625.83   51.91
   5  -1 -11    8.28    8.92
   5  -1 -12  111.80   25.82
  -4   1 -10   -5.40    9.49
  -4   1  -9   30.44   15.41
  -4   1  -8  338.52   43.44
  -4   1  -8  265.77   36.17
  -4   1  -7    1.24    4.85
  -4   1  -7  -27.57   11.78
  -4   1  -6   87.10   17.83
  -4   1  -6  100.23   19.79
   4  -1   5  359.83   31.47
  -4   1  -5  340.69   33.85
  -4   1  -5  353.31   35.17
   4  -1   4   41.28    9.91
  -4   1  -4   50.75   11.84
  -4   1  -4   38.25   10.95
   4  -1   3  523.98   32.84
  -4   1  -3  539.28   35.89
  -4   1  -3  526.93   36.57
   4  -1   2 1109.94   36.34
   4  -1   2 1096.31   44.13
   4  -1   2 1136.50   57.72
  -4   1  -2 1051.77   49.48
  -4   1  -2 1125.72   42.09
  -4   1  -2 1151.82   49.57
  -4   1  -1   16.14    5.28
   4  -1   1    9.68    2.45
   4  -1   1    4.98    4.00
   4  -1   1   12.99    4.16
   4  -1   1    5.96    3.45
  -4   1  -1    7.57    4.35
   4  -1   1    7.01    3.83
  -4   1  -1   -0.97    2.67
   4  -1   0  109.76   10.79
   4  -1   0   97.20   12.98
   4  -1   0  109.83    7.26
   4  -1   0  105.79   14.44
  -4   1   0  143.78   17.64
  -4   1   1 3943.47   90.81
   4  -1  -1 3748.86   74.32
   4  -1  -1 3912.40   85.49
  -4   1   2  106.30    8.54
  -4   1   2   83.01   14.57
   4  -1  -2   77.77   12.00
   4  -1  -2   96.87   11.83
   4  -1  -2   96.06    7.31
   4  -1  -3   67.19   11.95
   4  -1  -3   68.64    7.88
  -4   1   3   44.26   13.05
   4  -1  -3   66.11   10.51
   4  -1  -4  806.13   31.68
   4  -1  -4  746.15   42.34
   4  -1  -5   19.43    6.36
   4  -1  -5   30.57    7.19
   4  -1  -6  478.66   30.82
   4  -1  -6  433.57   31.96
   4  -1  -7  219.86   24.43
   4  -1  -7  229.12   23.45
   4  -1  -8   85.77   16.60
   4  -1  -8  106.21   17.22
   4  -1  -9   12.73    7.13
   4  -1 -10  280.98   34.69
   4  -1 -11   22.91   10.21
   4  -1 -12    4.91    8.31
  -3   1 -11  131.43   31.93
  -3   1 -10   90.26   24.61
  -3   1  -9  609.70   59.88
  -3   1  -9  666.76   58.25
  -3   1  -8   -0.38    7.37
  -3   1  -8    3.75    4.36
  -3   1  -7   69.70   16.30
  -3   1  -6  636.99   44.78
  -3   1  -5  235.68   25.22
  -3   1  -4 1278.96   55.41
  -3   1  -4 1218.03   57.49
   3  -1   4 1273.03   50.55
  -3   1  -3   12.26    5.36
  -3   1  -3    6.89    3.36
   3  -1   3    7.86    3.77
  -3   1  -2 2558.40   65.56
   3  -1   2 2470.94   53.96
  -3   1  -2 2418.07   65.80
   3  -1   2 2446.32   45.36
   3  -1   2 2462.54   59.02
   3  -1   1  960.75   34.02
  -3   1  -1  936.37   30.44
  -3   1  -1  944.47   35.76
  -3   1  -1  911.06   34.80
   3  -1   1  913.13   41.08
   3  -1   1 1054.33   36.62
   3  -1   0 1533.93   37.15
   3  -1   0 1416.46   44.02
  -3   1   0 1606.43   52.55
   3  -1   0 1403.26   37.70
   3  -1   0 1480.66   44.81
  -3   1   1 4509.58   92.81
   3  -1  -1 3924.17   69.57
   3  -1  -1 4129.76   69.55
  -3   1   1 4115.80   46.36
  -3   1   1 4249.36   86.29
   3  -1  -1 4220.66   40.78
  -3   1   1 4260.85   74.92
   3  -1  -2 1717.25   49.89
   3  -1  -2 1779.57   33.67
   3  -1  -2 1787.92   47.47
  -3   1   2 1890.72   37.20
   3  -1  -3 5653.15  101.86
   3  -1  -3 5686.04   73.79
   3  -1  -3 5881.32   94.27
   3  -1  -4  227.76   17.19
   3  -1  -5  283.96   21.71
   3  -1  -5  268.04   22.63
   3  -1  -6  729.82   41.16
   3  -1  -6  662.67   36.85
   3  -1  -7    5.75    4.37
   3  -1  -7    4.11    3.27
   3  -1  -8  208.98   25.72
   3  -1  -8  191.27   23.59
   3  -1  -9   -2.53    4.09
   3  -1 -10  583.73   50.83
   3  -1 -11    8.93    7.45
   3  -1 -12   48.51   17.61
  -2   1 -11    2.31    5.48
  -2   1 -10  126.00   26.15
  -2   1  -9    6.22    5.58
  -2   1  -8  243.52   30.51
  -2   1  -7    0.48    4.99
  -2   1  -6  851.55   48.00
  -2   1  -5    6.02    4.76
  -2   1  -4  188.05   18.79
  -2   1  -3 4643.44   85.81
   2  -1   3 4756.17   81.77
   2  -1   2 2417.32   50.79
   2  -1   2 2487.85   52.93
  -2   1  -2 2324.95   59.02
  -2   1  -2 2418.53   48.94
   2  -1   2 2330.23   42.12
   2  -1   1 6280.35   89.06
   2  -1   1 5620.98   78.25
  -2   1  -1 5455.61   67.57
  -2   1  -1 5500.15   73.80
  -2   1  -1 5399.15   71.77
  -2   1  -1 5706.72   69.04
   2  -1   1 5373.95   68.97
  -2   1  -1 6098.90   89.22
   2  -1   1 5184.28   85.99
   2  -1   0 1553.26   45.98
   2  -1   0 1314.10   35.72
  -2   1   0 1375.61   32.54
  -2   1   0 1306.66   38.35
   2  -1   0 1198.56   26.41
   2  -1   0 1285.67   28.37
   2  -1   0 1369.53   31.90
  -2   1   0 1528.52   45.86
   2  -1   0 1338.25   29.94
   2  -1   0 1251.53   30.07
   2  -1  -1  153.89   11.77
  -2   1   1  163.57    9.43
   2  -1  -1  160.67   11.49
  -2   1   1  148.54   12.59
  -2   1   1  173.40   13.00
   2  -1  -1  156.63    8.70
  -2   1   2 1179.94   42.61
  -2   1   2 1189.91   30.73
   2  -1  -2 1159.06   35.84
   2  -1  -2 1110.91   28.45
   2  -1  -3   29.76    5.63
   2  -1  -4 1816.08   52.71
   2  -1  -4 1797.56   49.70
   2  -1  -5  137.01   16.52
   2  -1  -5  137.16   15.60
   2  -1  -6 2552.22   74.00
   2  -1  -6 2651.52   78.09
   2  -1  -7   60.34   13.04
   2  -1  -7   48.27   11.29
   2  -1  -8   35.80   10.92
   2  -1  -8   38.11   11.35
   2  -1  -9 1069.52   64.29
   2  -1  -9  932.08   57.04
   2  -1 -10   51.70   15.63
   2  -1 -11  231.21   35.16
   2  -1 -12    3.93    7.40
  -1   1 -12    6.68    8.18
  -1   1 -11   29.06   13.89
  -1   1 -10   64.59   18.20
  -1   1  -9   45.13   14.01
  -1   1  -8  181.37   25.45
  -1   1  -7  128.51   19.89
  -1   1  -6  271.97   26.17
  -1   1  -5  136.68   16.77
  -1   1  -4 2933.15   62.93
  -1   1  -4 3033.70   69.96
  -1   1  -3  104.33   11.54
  -1   1  -3  103.55   11.00
  -1   1  -2 1433.04   38.71
   1  -1   2 1414.24   36.45
  -1   1  -2 1506.54   37.56
  -1   1  -1 4213.78   54.29
   1  -1   1 4164.05   54.46
   1  -1   1 4140.17   57.41
   1  -1   1 4162.94   62.19
  -1   1  -1 4177.23   61.53
  -1   1   0   93.56    6.64
   1  -1   0   75.19    5.85
   1  -1  -1 1470.91   33.10
  -1   1   1 1552.60   34.88
   1  -1  -1 1467.53   28.47
   1  -1  -1 1485.28   21.25
  -1   1   1 1532.07   29.89
  -1   1   2 1442.03   35.66
  -1   1   2 1478.57   40.29
   1  -1  -3  319.02   18.94
   1  -1  -4  166.12   15.94
   1  -1  -4  163.66   15.60
   1  -1  -5 1132.83   46.23
   1  -1  -5 1123.94   45.76
   1  -1  -6  473.95   33.30
   1  -1  -6  434.66   31.38
   1  -1  -7  109.39   17.38
   1  -1  -7  123.03   18.81
   1  -1  -8  349.69   33.34
   1  -1  -8  404.35   37.01
   1  -1  -9   84.98   18.16
   1  -1 -10    9.32    7.28
   1  -1 -11   40.46   15.97
   1  -1 -12   18.87   11.72
   0   1 -12   56.66   18.24
   0   1 -11   36.16   13.65
   0   1 -10  696.15   56.94
   0   1  -9  175.00   26.36
   0   1  -8  659.17   46.91
   0   1  -7  549.16   39.40
   0   1  -6  677.43   39.60
   0   1  -5 5525.54  101.60
   0   1  -4    4.54    2.80
   0  -1   3 2300.76   54.67
   0   1  -3 2133.62   48.82
   0  -1   2  143.39   10.76
   0   1  -2  133.89   11.03
   0  -1   2  126.49   10.22
   0   1  -2  150.11   10.89
   0  -1  -1  625.07   19.83
   0   1   1  625.54   20.26
   0  -1  -2 8680.89   87.79
   0  -1  -3 2111.19   50.88
   0  -1  -3 2138.11   49.68
   0  -1  -4 1878.59   54.94
   0  -1  -4 1888.86   53.69
   0  -1  -5 1026.88   44.95
   0  -1  -5 1039.82   44.91
   0  -1  -6  268.39   25.51
   0  -1  -6  280.55   25.87
   0  -1  -7  962.80   52.67
   0  -1  -7 1009.24   54.50
   0  -1  -8    1.68    2.98
   0  -1  -8    1.65    4.62
   0  -1  -9  335.35   38.02
   0  -1 -10    9.90    8.30
   0  -1 -11   64.68   19.96
   0  -1 -12   27.25   13.20
   1   1 -12    3.82    5.86
   1   1 -11  151.60   28.29
   1   1 -10    4.45    8.03
   1   1  -9  350.37   36.49
   1   1  -8  357.64   33.87
   1   1  -7  102.67   16.40
   1   1  -6   14.93    6.69
   1   1  -5 1864.92   57.72
   1   1  -4  732.30   31.98
   1   1  -4  752.26   39.85
   1   1  -3  510.06   29.52
   1   1  -3  521.14   23.17
   1   1  -2 5074.86   59.45
   1   1  -2 5052.86   84.93
  -1  -1   2 5057.73   82.51
  -1  -1   2 4982.42   58.15
   1   1  -1   10.99    2.43
  -1  -1   1    8.81    2.05
   1   1  -1    8.07    3.34
  -1  -1   1    7.62    3.34
   1   1  -1    5.42    2.67
  -1  -1   1    6.92    2.97
   1   1   0  849.42   25.52
  -1  -1   0  811.49   27.48
   1   1   0  821.18   20.72
  -1  -1   0  830.67   20.16
   1   1   1 2262.33   46.20
   1   1   1 2342.23   41.12
  -1  -1  -1 2307.76   39.88
  -1  -1  -1 2239.97   42.52
  -1  -1  -2  132.46   10.18
  -1  -1  -2  134.67   12.70
  -1  -1  -2  132.20   11.56
  -1  -1  -3  553.50   25.15
  -1  -1  -3  547.70   27.26
   1   1   3  603.15   19.97
  -1  -1  -4  732.27   33.66
  -1  -1  -4  685.51   34.15
  -1  -1  -5  707.91   38.70
  -1  -1  -5  726.50   38.16
  -1  -1  -6   62.07   12.89
  -1  -1  -6   65.84   13.23
  -1  -1  -7  229.13   26.80
  -1  -1  -7  221.97   26.00
  -1  -1  -8  246.55   30.51
  -1  -1  -9   29.54   10.54
  -1  -1  -9    5.10    5.09
  -1  -1 -10  241.43   36.53
  -1  -1 -10  209.87   33.38
   2   1 -12  285.56   40.74
   2   1 -11   10.82    8.58
   2   1 -10   10.02    7.05
   2   1  -9  677.84   49.76
   2   1  -8   65.28   14.27
   2   1  -7  394.96   31.88
   2   1  -6   20.08    6.68
   2   1  -5 2659.38   86.83
   2   1  -5 2870.00   71.24
   2   1  -4   60.05   12.20
   2   1  -4   68.81    9.72
   2   1  -3  228.22   22.82
   2   1  -3  243.25   15.65
  -2  -1   3  187.03    8.54
   2   1  -2 4188.68   96.72
  -2  -1   2 4246.04   52.00
   2   1  -2 4243.30   56.05
   2   1  -2 4188.94   52.45
  -2  -1   2 4145.40   44.66
   2   1  -1 1629.68   52.11
   2   1  -1 1546.83   23.07
  -2  -1   1 1588.94   21.72
   2   1  -1 1532.23   44.99
   2   1  -1 1504.02   40.49
  -2  -1   1 1613.01   41.08
  -2  -1   0 6057.18   56.28
   2   1   0 5955.94   59.29
   2   1   0 5998.15   78.94
  -2  -1   0 5779.23   92.15
  -2  -1  -1   31.94    3.61
  -2  -1  -1   37.71    8.72
  -2  -1  -1   45.87    5.97
  -2  -1  -1   34.77    6.61
   2   1   1   37.50    5.69
  -2  -1  -2   87.75    9.95
  -2  -1  -2   87.61   11.63
  -2  -1  -2   99.70    8.83
  -2  -1  -3  630.13   27.51
  -2  -1  -3  630.90   34.76
  -2  -1  -3  641.13   30.79
   2   1   3  681.74   26.79
  -2  -1  -4  183.24   18.42
  -2  -1  -4  170.85   16.78
   2   1   4  164.39   14.40
  -2  -1  -4  179.18   20.68
  -2  -1  -5  277.86   28.17
  -2  -1  -5  208.41   21.91
  -2  -1  -5  241.21   23.04
  -2  -1  -6   10.93    5.88
  -2  -1  -6    6.49    3.97
  -2  -1  -6   16.04    6.99
  -2  -1  -7  701.40   52.95
  -2  -1  -7  586.42   44.06
  -2  -1  -7  552.75   42.30
  -2  -1  -8    0.94    4.69
  -2  -1  -8   11.10    9.00
  -2  -1  -9   57.23   17.52
  -2  -1 -10  164.38   30.85
   3   1 -12   14.43    6.49
   3   1 -11  237.52   33.88
   3   1 -10   -2.20    6.40
   3   1  -9  973.99   58.70
   3   1  -8   35.62    9.90
   3   1  -7  134.02   18.78
   3   1  -6 4419.12  125.54
   3   1  -6 4243.87   95.69
   3   1  -5  797.90   37.13
   3   1  -5  734.13   49.04
   3   1  -4 2185.04   80.49
  -3  -1   4 2197.02   39.40
   3   1  -4 2248.41   55.27
   3   1  -3  181.03   16.78
  -3  -1   3  158.63   10.54
  -3  -1   3  172.69   12.23
   3   1  -3  168.59   13.21
  -3  -1   3  162.22   12.38
  -3  -1   2   37.64    5.51
   3   1  -2   35.90    7.20
   3   1  -2   37.12    4.44
  -3  -1   2   36.95    7.96
   3   1  -2   34.62    4.83
   3   1  -2   36.83   10.48
   3   1  -1 2064.16   36.08
   3   1  -1 2065.71   68.34
   3   1  -1 2120.29   52.61
  -3  -1   1 2083.03   28.07
   3   1  -1 1967.68   24.90
  -3  -1   1 2129.71   49.86
  -3  -1   0  136.17    8.74
   3   1   0  138.96    9.60
  -3  -1   0  134.35   16.91
   3   1   0  126.86   13.03
  -3  -1  -1 2356.94   75.10
  -3  -1  -1 2446.12   45.77
  -3  -1  -2  811.42   31.55
  -3  -1  -2  784.13   27.14
  -3  -1  -2  771.83   38.30
  -3  -1  -2  770.82   46.70
   3   1   3 3503.58   72.32
  -3  -1  -3 3500.25   75.05
  -3  -1  -3 3567.54   89.18
  -3  -1  -3 3509.95   68.63
   3   1   4   74.10   11.17
  -3  -1  -4   62.67   12.80
  -3  -1  -4   61.27   11.06
  -3  -1  -4   62.86   10.61
  -3  -1  -5   63.28   12.61
   3   1   5   68.29   11.08
  -3  -1  -5   94.49   15.02
  -3  -1  -5  102.96   18.17
  -3  -1  -6 1033.60   55.06
  -3  -1  -6 1108.89   56.53
  -3  -1  -7  107.36   21.70
  -3  -1  -7   54.67   13.80
  -3  -1  -8  369.87   42.64
  -3  -1  -9   10.48    8.34
  -3  -1 -10   31.95   14.19
   4   1 -12    5.67    6.84
   4   1 -11    6.90    6.86
   4   1 -10  111.63   21.24
   4   1  -9  374.90   36.12
   4   1  -8   33.75   10.01
   4   1  -7  508.91   36.12
   4   1  -7  516.13   48.00
   4   1  -6  466.18   43.99
   4   1  -6  475.11   31.88
  -4  -1   6  367.80   21.37
  -4  -1   5    3.60    2.19
   4   1  -5    1.32    1.95
   4   1  -5    4.09    3.55
   4   1  -4 1293.13   42.54
  -4  -1   4 1280.29   37.57
   4   1  -4 1237.98   67.49
   4   1  -3  169.99   24.54
  -4  -1   3  182.98   14.99
  -4  -1   3  186.68   10.44
   4   1  -3  189.95   14.14
   4   1  -3  189.03   12.38
   4   1  -2   18.35    3.68
  -4  -1   2   16.69    2.68
   4   1  -2   13.30    7.57
   4   1  -2   16.29    3.53
  -4  -1   2   15.58    4.28
  -4  -1   1 1135.83   18.96
   4   1  -1 1244.59   34.51
   4   1  -1 1238.58   44.69
   4   1  -1 1215.73   59.20
   4   1   0  925.87   26.20
   4   1   0  936.71   39.46
  -4  -1   0  928.02   23.56
   4   1   0  838.57   48.42
   4   1   0  921.64   39.32
  -4  -1   0  854.85   47.82
  -4  -1  -1   73.24   14.85
  -4  -1  -1   83.47    8.93
  -4  -1  -2  629.04   46.15
  -4  -1  -2  609.06   24.75
  -4  -1  -2  586.53   27.92
  -4  -1  -3  681.05   34.15
  -4  -1  -3  725.05   35.50
  -4  -1  -3  832.41   56.64
   4   1   3  772.85   39.06
  -4  -1  -3  775.28   45.70
  -4  -1  -4   13.66    5.74
  -4  -1  -4   11.71    4.90
   4   1   4   12.81    4.69
  -4  -1  -4   20.43    7.03
   4   1   5  233.96   23.83
  -4  -1  -5  196.55   26.22
  -4  -1  -6  113.06   21.45
  -4  -1  -7    5.45    6.44
  -4  -1  -8   74.72   18.97
  -4  -1  -9   74.76   21.31
   5   1 -12   31.74   12.81
   5   1 -11  100.65   22.40
   5   1 -10  674.16   52.74
   5   1  -9  258.66   30.25
   5   1  -8 1273.35   82.86
   5   1  -8 1182.84   59.90
  -5  -1   7    2.98    2.70
   5   1  -7    1.62    6.71
   5   1  -7    5.34    4.56
   5   1  -6  949.82   45.86
   5   1  -6  935.02   65.72
   5   1  -5  148.27   25.31
  -5  -1   5  121.03   13.45
   5   1  -5  146.02   16.35
  -5  -1   4  219.12   13.11
   5   1  -4  239.09   18.71
  -5  -1   4  251.15   20.26
   5   1  -4  219.40   30.64
  -5  -1   3  808.20   17.90
   5   1  -3  938.47   62.91
   5   1  -3  897.94   29.61
  -5  -1   3  888.27   39.52
   5   1  -3  916.26   31.46
   5   1  -2  340.45   37.17
   5   1  -2  373.60   15.96
   5   1  -2  372.00   19.17
   5   1  -1 5510.96  104.42
   5   1  -1 5724.04  143.66
   5   1  -1 5749.49   85.43
   5   1   0  418.50   38.50
   5   1   0  422.98   28.81
  -5  -1   0  384.17   15.38
   5   1   0  405.25   28.56
  -5  -1   0  437.17   39.01
   5   1   1  188.67   23.63
   5   1   1  194.17   20.88
  -5  -1  -1  181.01   25.97
  -5  -1  -1  200.44   14.37
  -5  -1  -2 1203.15   70.62
  -5  -1  -2 1153.79   40.96
  -5  -1  -3   52.89   16.88
   5   1   3   61.56   12.42
  -5  -1  -4  601.61   55.06
   5   1   4  611.49   41.29
  -5  -1  -4  621.22   47.08
  -5  -1  -5   18.58    8.10
  -5  -1  -5    6.64    8.25
  -5  -1  -6  214.37   31.44
  -5  -1  -6  185.90   35.18
  -5  -1  -7   10.46    8.18
  -5  -1  -7   30.23   16.68
  -5  -1  -8   99.40   24.05
  -5  -1  -8   67.11   23.84
   6   1 -12   94.20   22.12
   6   1 -11   31.60   12.35
   6   1 -10  275.60   33.72
   6   1  -9   15.06    8.32
   6   1  -9   16.09   11.33
   6   1  -8  130.87   28.51
   6   1  -8  115.94   19.10
   6   1  -7  726.35   44.17
   6   1  -7  788.65   66.91
   6   1  -6   34.19    8.83
  -6  -1   6   28.83    7.06
   6   1  -6   26.22   11.12
  -6  -1   5 2788.09   71.99
   6   1  -5 2563.62   69.69
   6   1  -5 2464.69  113.11
   6   1  -4   19.15    5.74
   6   1  -4   23.25   11.54
  -6  -1   4   15.96    3.10
   6   1  -3    6.93    6.44
   6   1  -3    4.22    2.29
   6   1  -3    2.25    1.92
   6   1  -2 1527.02   85.37
   6   1  -2 1393.62   29.90
   6   1  -2 1519.31   43.86
   6   1  -1    9.15    6.27
   6   1  -1   14.50    5.22
   6   1  -1    5.33    4.54
   6   1   0  135.20   17.99
   6   1   0  143.54   18.18
   6   1   0  104.49   21.25
   6   1   1   10.52    9.61
   6   1   1    6.06    5.13
  -6  -1  -1   -2.22    9.30
   6   1   1    1.75    3.36
   6   1   2  498.01   46.40
   6   1   2  512.55   39.11
  -6  -1  -2  483.52   49.11
   6   1   2  499.53   38.41
  -6  -1  -3    1.09    5.03
   6   1   3    3.69    3.67
  -6  -1  -4   69.50   20.36
   6   1   4   67.21   14.93
  -6  -1  -5  216.90   37.62
  -6  -1  -6   40.94   16.05
  -6  -1  -7  321.17   50.14
   7   1 -12  217.04   34.44
   7   1 -11   -3.75    5.63
   7   1 -10  235.49   31.43
   7   1  -9  -15.31   11.16
   7   1  -9    7.18    6.10
   7   1  -8  402.79   51.66
   7   1  -8  304.04   31.27
   7   1  -7   12.36    7.03
   7   1  -7   11.07    6.26
   7   1  -6   26.86   14.04
   7   1  -6    7.66    4.68
   7   1  -5  972.57   74.66
   7   1  -5  959.69   43.63
   7   1  -4  423.07   48.67
   7   1  -4  410.64   23.47
   7   1  -4  453.22   26.39
   7   1  -3  599.51   28.53
   7   1  -3  612.31   25.53
   7   1  -3  524.54   54.27
   7   1  -2  480.53   26.95
   7   1  -2  449.18   49.92
   7   1  -1    6.30    3.73
   7   1  -1   11.31    5.51
   7   1  -1   12.57   10.22
   7   1   0  141.92   18.89
   7   1   0  166.59   29.93
   7   1   0  137.50   19.82
   7   1   1  147.87   29.18
   7   1   1  137.38   20.45
   7   1   1  135.59   21.44
   7   1   2  197.74   26.09
   7   1   2  223.48   27.92
   7   1   2  239.97   37.78
  -7  -1  -2  245.60   38.04
   7   1   2  204.24   29.91
   7   1   3   10.45    6.59
   7   1   3   -3.89    4.52
  -7  -1  -3    0.68    5.94
   7   1   3    1.24    2.74
   7   1   4  324.80   37.51
  -7  -1  -4  350.96   48.79
  -7  -1  -5   -3.73    7.14
  -7  -1  -6    4.24    5.63
   8   1 -12   94.11   23.48
   8   1 -11  134.53   26.12
   8   1 -10   88.03   26.94
   8   1 -10   64.32   17.35
   8   1  -9  868.38   80.45
   8   1  -9  823.68   56.50
   8   1  -8  212.96   26.88
   8   1  -8  232.83   40.73
   8   1  -7  649.16   43.65
   8   1  -7  582.41   62.56
   8   1  -6  325.22   46.24
   8   1  -6  363.58   30.09
   8   1  -5   12.61    5.47
   8   1  -5   34.58   14.20
   8   1  -4  309.47   44.09
   8   1  -3    4.17    5.71
   8   1  -2 1676.51  104.65
   8   1  -1  148.02   31.09
   8   1   0  464.26   55.52
   8   1   1  160.07   25.07
   8   1   1  150.09   32.74
   8   1   2   10.11    5.42
   8   1   2    9.67    6.13
  -8  -1  -3  752.95   75.46
   8   1   3  570.41   50.65
   8   1   3  620.24   67.81
   8   1   4    8.40    5.01
  -8  -1  -4    2.67    7.49
  -8  -1  -5   73.55   24.98
   9   1 -11   12.07    6.89
   9   1 -10  186.29   40.16
   9   1 -10  112.15   22.74
   9   1  -9   94.37   19.63
   9   1  -9   96.83   28.10
   9   1  -8   39.62   11.94
   9   1  -8   33.83   16.45
   9   1  -7  167.06   35.72
   9   1  -6  357.91   51.19
   9   1  -5   -1.66    9.59
   9   1  -4   97.76   25.18
   9   1  -3  439.88   56.33
   9   1  -2   -0.19    9.16
   9   1  -1  195.96   39.25
   9   1   0   96.50   27.61
   9   1   1   18.06    9.76
   9   1   1   17.12   10.32
   9   1   2   82.25   20.22
   9   1   2   64.31   23.14
   9   1   3   28.50   16.25
  10   1 -10   -2.25    5.73
  10   1  -9   90.98   27.98
  10   1  -8   43.40   19.19
  10   1  -7   91.39   27.59
  10   1  -6  438.78   59.06
  10   1  -5  174.33   37.49
  10   1  -4  800.59   79.55
  10   1  -3  -12.17   10.92
  10   1  -2   -5.51    8.06
  10   1  -1  198.59   40.69
  10   1   0   36.89   20.49
  10   1   0   14.26    7.41
  10   1   1  148.05   28.35
  10   1   2   12.74    8.25
  11   1  -8  375.01   59.27
  11   1  -7  127.11   34.06
  11   1  -6   -0.19    5.26
  11   1  -5  188.52   41.61
  11   1  -4   14.78   13.72
  11   1  -3  178.65   40.63
  11   1  -2   21.34   14.77
  11   1  -1  144.45   29.41
  12   1  -6   44.82   19.15
  12   1  -5  106.84   32.03
  12  -2  -1    0.71    5.91
  12  -2  -2   39.55   16.08
  12  -2  -3   34.10   16.02
  12  -2  -4  208.88   36.71
  12  -2  -5   39.71   15.54
  12  -2  -6    1.01    7.50
  12  -2  -7  372.62   47.92
  11  -2   3  169.91   34.42
  11  -2   2  -21.00   12.43
  11  -2   1   82.62   22.81
  11  -2   0  157.53   30.65
  11  -2  -1   -9.53    8.36
  11  -2  -2  122.29   26.16
  11  -2  -3   16.28    8.37
  11  -2  -4  401.56   47.24
 -11   2   4  348.33   46.44
  11  -2  -5   23.28   10.38
 -11   2   5    4.56    6.47
  11  -2  -6   74.07   19.41
  11  -2  -6   88.10   22.59
  11  -2  -7  251.46   38.55
  11  -2  -8    1.83    4.11
  11  -2  -8    6.78    6.69
  11  -2  -9  290.38   36.82
  10  -2   4   41.24   17.97
  10  -2   3  -25.37   12.99
  10  -2   2  213.41   34.92
  10  -2   1   11.19    8.35
  10  -2   1   -4.02    7.01
  10  -2   0  489.08   45.66
  10  -2   0  547.26   52.66
  10  -2  -1    5.51    5.06
  10  -2  -1    2.28    4.94
  10  -2  -2   10.67    6.22
  10  -2  -2   17.07    6.28
  10  -2  -2   32.38   11.69
 -10   2   2   26.72   12.55
  10  -2  -3 1037.25   61.31
 -10   2   3  993.03   73.44
  10  -2  -3 1109.52   72.15
  10  -2  -3 1089.54   69.62
  10  -2  -4  165.49   24.50
 -10   2   4  136.65   28.05
  10  -2  -4  187.87   29.51
  10  -2  -5  678.25   56.64
  10  -2  -5  659.18   43.51
  10  -2  -5  604.12   47.05
  10  -2  -6    5.58    5.91
  10  -2  -6   10.35    8.06
 -10   2   6   11.54    8.48
  10  -2  -7  158.03   24.02
  10  -2  -7  146.77   28.95
  10  -2  -8  103.87   20.42
  10  -2  -9    3.74    4.41
  10  -2 -10  224.92   34.00
  -9   2  -6    6.51    9.34
   9  -2   6    2.31    6.98
   9  -2   5   20.58   12.42
   9  -2   5   16.91   12.02
  -9   2  -5   22.86   15.17
   9  -2   4   61.70   20.63
  -9   2  -4   79.06   22.97
   9  -2   4   72.41   20.11
   9  -2   3   31.62   13.50
   9  -2   3   14.58   10.73
   9  -2   2   33.24   13.41
   9  -2   2   45.77   15.53
   9  -2   1  314.09   37.67
   9  -2   1  332.22   38.25
   9  -2   0   83.32   18.77
   9  -2   0   64.93   15.55
   9  -2   0   58.55   15.49
   9  -2  -1    2.17    3.09
   9  -2  -1   -2.51    5.52
  -9   2   1    4.61    5.03
   9  -2  -1   -0.14    3.53
   9  -2  -2  721.27   48.80
   9  -2  -2  807.89   57.26
  -9   2   2  737.81   60.62
   9  -2  -2  684.11   51.23
   9  -2  -3  252.37   28.84
   9  -2  -3  284.74   33.00
  -9   2   3  257.76   35.22
   9  -2  -4   11.04    4.76
  -9   2   4    2.75    3.88
   9  -2  -4    9.96    7.15
   9  -2  -5  254.45   32.73
   9  -2  -5  225.73   27.96
  -9   2   5  218.38   33.33
   9  -2  -6  146.81   25.74
   9  -2  -6  102.74   17.76
   9  -2  -7   35.44   11.24
   9  -2  -8  202.24   27.90
   9  -2  -9   16.32    8.29
   9  -2 -10    9.08    9.49
  -8   2  -7   78.36   23.72
  -8   2  -7   42.87   18.03
   8  -2   7   48.19   20.56
  -8   2  -6   77.81   21.43
   8  -2   6   62.37   23.52
  -8   2  -6  108.81   28.00
   8  -2   5   -4.82    6.09
  -8   2  -5    1.85    5.30
   8  -2   5   -8.56    8.76
   8  -2   4  662.45   65.72
   8  -2   4  632.73   55.47
  -8   2  -4  781.03   67.72
   8  -2   3  163.88   30.86
   8  -2   3  161.39   26.96
  -8   2  -3  198.80   32.70
   8  -2   2  547.24   48.24
   8  -2   2  614.09   54.44
   8  -2   2  643.44   50.97
   8  -2   1  301.76   34.22
   8  -2   1  323.86   35.77
   8  -2   1  281.89   33.33
   8  -2   0  340.69   35.10
   8  -2   0  335.29   34.20
   8  -2   0  394.93   37.10
  -8   2   0  336.25   39.63
  -8   2   1 1094.27   69.97
   8  -2  -1 1083.08   61.47
   8  -2  -1 1083.50   59.71
   8  -2  -1 1088.54   58.14
   8  -2  -2   12.26    3.34
  -8   2   2    3.75    4.52
   8  -2  -2   11.30    5.37
   8  -2  -3  556.51   42.77
  -8   2   3  554.28   50.49
   8  -2  -3  529.40   40.09
   8  -2  -4   14.17    7.78
  -8   2   4    0.44    7.29
   8  -2  -4   10.65    7.94
   8  -2  -5  272.40   29.59
   8  -2  -5  287.93   33.22
  -8   2   6  208.98   33.35
   8  -2  -6  231.29   25.98
   8  -2  -6  221.98   30.10
   8  -2  -7   15.99    7.11
  -8   2   7   12.37    7.30
   8  -2  -8 1068.02   62.88
   8  -2  -9  129.26   23.35
   8  -2 -10  148.62   27.02
  -7   2  -8  214.97   37.96
   7  -2   8  126.04   32.13
  -7   2  -8  134.45   31.02
   7  -2   7  -11.08   10.28
  -7   2  -7   -2.34    5.36
  -7   2  -7   -4.95    6.98
   7  -2   6   35.25   17.70
  -7   2  -6   32.01   13.75
  -7   2  -6   28.15   12.02
   7  -2   6   26.27   11.59
   7  -2   5  300.35   44.12
  -7   2  -5  314.14   38.76
   7  -2   5  286.96   36.10
  -7   2  -5  298.77   40.09
  -7   2  -4   58.37   17.03
   7  -2   4   72.06   17.25
  -7   2  -4   75.85   18.16
   7  -2   4   95.86   24.01
  -7   2  -3  398.72   39.10
   7  -2   3  380.28   43.96
  -7   2  -3  453.37   44.55
   7  -2   3  407.76   39.12
   7  -2   3  363.83   37.10
   7  -2   2  171.41   15.62
   7  -2   2  158.32   23.38
   7  -2   2  181.08   27.96
   7  -2   2  186.00   25.21
   7  -2   1  339.84   33.31
   7  -2   1  321.64   16.60
   7  -2   1  318.90   31.64
   7  -2   1  385.58   37.07
  -7   2  -1  312.68   36.89
  -7   2   0   44.00   14.08
   7  -2   0   31.04    9.33
   7  -2   0   28.52    9.84
   7  -2   0   34.58   10.06
   7  -2  -1  695.45   43.36
   7  -2  -1  769.90   47.08
  -7   2   1  778.19   55.88
   7  -2  -1  680.42   43.43
   7  -2  -2  810.35   46.72
   7  -2  -2  827.08   46.64
  -7   2   2  753.35   55.52
   7  -2  -2  794.56   19.51
   7  -2  -3  153.34   20.41
   7  -2  -3  210.46   24.68
   7  -2  -3  193.60   12.89
   7  -2  -4 1834.37   74.84
   7  -2  -4 2003.06   75.30
   7  -2  -4 1980.16   49.95
  -7   2   4 1787.40   91.44
   7  -2  -5   53.85   12.71
   7  -2  -5   54.34   13.61
   7  -2  -5   44.58    9.01
  -7   2   5   46.04   15.49
   7  -2  -6  292.13   24.35
  -7   2   6  264.75   38.15
   7  -2  -7  487.75   34.48
   7  -2  -7  486.41   39.38
  -7   2   7  434.67   50.89
  -7   2   8    8.20    6.02
   7  -2  -8    7.06    5.75
   7  -2  -8    6.58    5.38
   7  -2  -9  137.58   23.75
   7  -2 -10   10.39    7.84
   7  -2 -11  290.53   39.02
  -6   2  -9   13.15   10.99
  -6   2  -8  191.83   34.29
  -6   2  -7   79.45   21.15
  -6   2  -7   85.12   22.98
  -6   2  -6  646.85   56.13
   6  -2   6  540.44   48.00
  -6   2  -6  583.96   56.14
   6  -2   5    8.39    6.58
  -6   2  -5   13.36    8.39
  -6   2  -5    7.50    4.80
   6  -2   5   17.01    8.78
  -6   2  -5    2.34    2.40
  -6   2  -4    5.52    4.35
  -6   2  -4    3.77    5.00
   6  -2   4    5.33    4.95
  -6   2  -4   11.29    8.59
   6  -2   4    4.15    5.16
  -6   2  -3  767.32   41.97
  -6   2  -3  787.14   50.85
   6  -2   3  822.93   61.34
  -6   2  -3  777.21   52.84
   6  -2   3  767.52   48.80
   6  -2   2  120.82   21.50
  -6   2  -2  151.20   21.06
   6  -2   2  135.93   19.01
  -6   2  -2  163.97   22.67
   6  -2   2  131.03   19.47
   6  -2   1  185.62   21.85
   6  -2   1  178.57   11.07
   6  -2   1  225.81   24.29
   6  -2   1  178.16   23.85
   6  -2   1  170.69   10.90
   6  -2   0    5.35    4.97
  -6   2   0    8.72    6.14
   6  -2   0    7.67    2.12
   6  -2   0    0.94    4.54
   6  -2   0   19.28    6.41
  -6   2   1 1594.81   75.75
   6  -2  -1 1649.15   60.02
   6  -2  -1 1674.48   29.22
   6  -2  -1 1605.47   62.65
   6  -2  -2   17.16    3.44
   6  -2  -2    8.37    4.22
  -6   2   2    3.68    4.51
   6  -2  -2    4.69    3.44
   6  -2  -3  241.30   24.07
   6  -2  -3  236.48   15.43
  -6   2   3  301.96   35.55
   6  -2  -3  254.51   25.01
   6  -2  -4  934.44   49.28
   6  -2  -4  989.26   36.36
   6  -2  -4  964.67   51.21
  -6   2   4  958.36   66.55
   6  -2  -5  138.67   15.33
  -6   2   5  137.92   26.63
   6  -2  -6 1027.98   46.26
   6  -2  -7  224.66   23.52
   6  -2  -7  217.48   26.00
   6  -2  -8   15.28    7.92
   6  -2  -8   13.41    6.81
   6  -2  -9  120.68   20.22
   6  -2  -9  113.25   21.55
   6  -2 -10   91.03   20.92
   6  -2 -11   74.60   20.31
  -5   2 -10  110.38   29.52
  -5   2  -9   44.74   17.73
  -5   2  -8    8.08    6.38
  -5   2  -7  380.52   44.03
  -5   2  -7  284.66   38.30
  -5   2  -6   12.01    8.88
  -5   2  -6   15.29    8.61
  -5   2  -5  468.92   42.79
  -5   2  -5  401.51   40.10
   5  -2   5  506.45   41.52
   5  -2   4  236.20   26.44
  -5   2  -4  244.94   28.50
  -5   2  -4  250.82   30.29
  -5   2  -4  278.22   30.49
  -5   2  -3 2444.98   77.65
   5  -2   3 2536.28  100.88
   5  -2   3 2594.95   82.56
  -5   2  -3 2703.02   88.19
  -5   2  -3 2581.14   87.01
   5  -2   2   59.51   13.89
  -5   2  -2   71.13   11.56
  -5   2  -2   74.93   16.26
  -5   2  -2   75.33   13.68
  -5   2  -2   86.59   14.68
   5  -2   2   70.62   12.72
   5  -2   2   70.94   11.62
   5  -2   1  293.91   23.44
   5  -2   1  267.61   27.07
  -5   2  -1  275.27   29.31
   5  -2   1  275.04   24.30
   5  -2   0 5344.49  110.53
   5  -2   0 5303.27   93.52
   5  -2   0 5425.43   64.70
  -5   2   0 5557.50  132.20
   5  -2  -1  756.69   37.86
  -5   2   1  713.81   49.45
   5  -2  -1  646.73   32.26
   5  -2  -1  711.71   22.28
   5  -2  -1  720.16   38.75
   5  -2  -2 3198.41   82.71
   5  -2  -2 3292.11   52.86
  -5   2   2 3351.38   61.93
   5  -2  -3   89.57   14.66
   5  -2  -3   89.39   13.86
  -5   2   3   94.35   21.15
   5  -2  -3  107.32   10.93
   5  -2  -4   47.46    8.31
   5  -2  -4   63.52   12.60
   5  -2  -5  449.05   28.27
   5  -2  -6   29.92    9.53
   5  -2  -6   14.20    5.48
   5  -2  -7 1137.33   54.06
   5  -2  -7 1126.81   58.81
   5  -2  -8  376.90   33.53
   5  -2  -8  448.82   39.37
   5  -2  -9  818.08   53.44
   5  -2  -9  897.59   59.77
   5  -2 -10   18.47   10.29
   5  -2 -11   -4.26    3.81
  -4   2 -10   48.15   18.09
  -4   2  -9   12.71    6.97
  -4   2  -9   27.25   12.66
  -4   2  -8    1.05    9.85
  -4   2  -8   10.44    7.14
  -4   2  -7  428.82   44.89
  -4   2  -7  373.17   41.68
  -4   2  -6  229.56   30.83
  -4   2  -6  206.08   29.45
   4  -2   5   30.50   10.10
  -4   2  -5   43.00   12.34
  -4   2  -5   38.85   11.91
   4  -2   4  983.58   49.81
  -4   2  -4 1006.44   57.64
  -4   2  -4  952.13   53.02
  -4   2  -3  621.99   40.48
   4  -2   3  646.27   46.83
   4  -2   3  678.99   38.68
  -4   2  -3  694.54   41.52
  -4   2  -2   17.97    6.15
   4  -2   2   19.94    7.03
  -4   2  -2   23.28    6.69
  -4   2  -2   11.74    4.93
  -4   2  -2   14.52    5.89
   4  -2   2   12.80    5.29
   4  -2   1  852.71   38.03
   4  -2   1  806.98   31.41
  -4   2  -1  867.28   48.44
  -4   2  -1  779.59   33.96
   4  -2   1  776.69   42.50
  -4   2  -1  823.03   36.89
   4  -2   0  577.09   21.98
   4  -2   0  554.74   23.93
  -4   2   0  579.37   41.14
  -4   2   0  660.54   29.25
   4  -2   0  512.94   23.51
   4  -2   0  562.80   32.81
   4  -2   0  589.32   29.86
   4  -2  -1   91.71    8.70
   4  -2  -1   94.85   13.11
   4  -2  -1   87.29   11.22
   4  -2  -1   85.18   10.13
  -4   2   1   95.72   14.04
  -4   2   1   97.24   18.06
   4  -2  -2 1015.25   31.12
   4  -2  -2 1012.41   43.58
   4  -2  -2  939.59   37.93
   4  -2  -3 1461.75   41.82
   4  -2  -3 1524.98   55.49
   4  -2  -4  114.19   13.05
   4  -2  -5  914.18   41.10
   4  -2  -6  587.29   38.80
   4  -2  -6  620.17   36.89
   4  -2  -7   48.42   12.01
   4  -2  -7   49.24   11.40
   4  -2  -8  222.83   26.16
   4  -2  -8  279.02   31.38
   4  -2  -9   28.01   10.55
   4  -2  -9   22.64    9.19
   4  -2 -10   53.79   15.30
   4  -2 -10   74.34   18.03
   4  -2 -11   23.07   10.85
  -3   2 -11   -1.39   11.35
  -3   2 -11   10.66    8.59
  -3   2 -10    9.39    9.80
  -3   2  -9  142.73   27.77
  -3   2  -8   47.80   14.62
  -3   2  -7 1582.08   79.27
  -3   2  -6  371.67   35.90
  -3   2  -5  226.12   26.30
  -3   2  -4 2223.56   80.47
   3  -2   4 2159.03   69.34
   3  -2   3  714.26   37.51
  -3   2  -3  844.56   45.51
  -3   2  -3  811.90   45.67
  -3   2  -2 2037.33   58.89
  -3   2  -2 2270.26   71.64
  -3   2  -2 2074.31   62.63
   3  -2   2 2094.41   58.01
   3  -2   2 2023.34   69.29
  -3   2  -1   75.41   14.26
   3  -2   1   97.76   13.95
  -3   2  -1   94.65   11.02
  -3   2  -1   86.23    8.61
   3  -2   1   89.20   11.21
  -3   2  -1   93.46   11.34
   3  -2   1   99.47    7.81
   3  -2   0 1118.83   25.75
  -3   2   0 1117.75   34.79
   3  -2   0 1127.41   42.51
   3  -2   0 1200.53   37.97
   3  -2   0 1145.25   31.72
   3  -2   0 1223.61   33.62
   3  -2  -1   19.35    4.66
  -3   2   1   17.72    4.35
  -3   2   1   20.54    5.77
   3  -2  -1   30.00    5.67
   3  -2  -1   20.33    5.70
   3  -2  -2  481.91   22.56
   3  -2  -2  520.10   22.46
   3  -2  -2  543.05   30.11
   3  -2  -3  347.15   25.66
   3  -2  -3  360.79   21.54
   3  -2  -4  757.25   34.52
   3  -2  -5 4176.32   89.50
   3  -2  -6  168.68   19.60
   3  -2  -6  165.38   10.26
   3  -2  -6  162.98   20.29
   3  -2  -7  112.96   18.31
   3  -2  -7   94.17   15.99
   3  -2  -8  341.54   34.41
   3  -2  -8  333.00   32.82
   3  -2  -9    9.29    6.70
   3  -2  -9    3.62    4.22
   3  -2 -10  269.20   34.63
   3  -2 -10  323.54   38.87
   3  -2 -11    2.92    6.27
  -2   2 -12   -6.41    5.76
  -2   2 -11  226.96   37.81
  -2   2 -10    4.95    3.66
  -2   2  -9    6.39    4.79
  -2   2  -8  812.29   56.81
  -2   2  -7   46.26   13.06
  -2   2  -6  330.85   31.24
  -2   2  -5   10.29    5.06
  -2   2  -4 2192.39   71.58
  -2   2  -3   22.30    6.62
  -2   2  -3   10.65    5.51
   2  -2   2  219.81   20.57
  -2   2  -2  246.80   20.85
  -2   2  -2  263.78   22.00
   2  -2   2  224.37   18.14
  -2   2  -1 1789.39   47.29
  -2   2  -1 1978.00   56.18
  -2   2  -1 1896.41   47.03
  -2   2  -1 2077.05   65.15
   2  -2   1 1899.33   54.12
   2  -2   1 1851.53   47.40
   2  -2   1 1905.85   50.27
   2  -2   0 2498.50   47.76
  -2   2   0 2609.21   38.99
   2  -2   0 2669.71   51.06
  -2   2   0 2527.27   34.64
   2  -2   0 2578.14   56.82
   2  -2   0 2514.17   34.83
  -2   2   0 2625.06   57.26
  -2   2   0 2652.99   49.39
   2  -2  -1 9772.42  113.59
  -2   2   1 9582.52   83.36
  -2   2   1 9999.00   99.33
   2  -2  -1 9612.66   88.64
   2  -2  -1 9864.82   97.50
   2  -2  -2   10.10    3.67
   2  -2  -2   12.11    4.29
   2  -2  -2   12.81    3.04
   2  -2  -3    4.27    2.82
   2  -2  -3    8.48    2.19
   2  -2  -4 2118.14   59.49
   2  -2  -4 2022.71   29.92
   2  -2  -5  132.39   16.82
   2  -2  -5  131.48   16.55
   2  -2  -6 1042.91   51.06
   2  -2  -6 1048.93   50.57
   2  -2  -7    0.86    3.82
   2  -2  -7    6.50    5.44
   2  -2  -8  626.03   45.70
   2  -2  -8  672.12   48.56
   2  -2  -9    0.71    3.89
   2  -2  -9    0.33    4.19
   2  -2 -10   45.81   14.52
   2  -2 -10   46.84   14.78
   2  -2 -11  166.82   30.75
  -1   2 -12   22.20   11.05
  -1   2 -11  149.53   29.19
  -1   2 -10   86.51   20.92
  -1   2  -9  303.00   36.14
  -1   2  -8  204.43   27.18
  -1   2  -7   21.32    8.31
  -1   2  -6  236.35   24.69
  -1   2  -5  427.31   30.70
  -1   2  -4  570.38   32.98
   1  -2   3  371.38   19.18
  -1   2  -3  360.65   21.10
  -1   2  -3  371.61   25.87
  -1   2  -2 4578.78   87.93
   1  -2   2 4651.81   73.94
   1  -2   2 4523.12   79.85
  -1   2  -2 4578.94   57.07
  -1   2  -2 4474.85   79.20
   1  -2   2 4653.66   86.60
   1  -2   1  242.51   16.89
   1  -2   1  250.24   16.09
  -1   2  -1  247.37   16.69
  -1   2  -1  236.23   16.13
   1  -2   1  262.81   17.11
   1  -2   0 1256.36   34.12
  -1   2   0 1294.87   31.99
  -1   2   0 1219.55   32.67
  -1   2   0 1305.04   35.06
  -1   2   0 1291.70   34.54
   1  -2   0 1253.95   34.06
   1  -2  -1 5396.59   78.22
   1  -2  -1 5431.59   74.66
  -1   2   1 5448.61   55.84
   1  -2  -2   82.67   10.13
   1  -2  -3  430.83   25.30
   1  -2  -4 1205.69   46.21
   1  -2  -5   35.31    8.69
   1  -2  -5   36.63    8.97
   1  -2  -6   53.02   11.52
   1  -2  -6   69.01   13.24
   1  -2  -7  204.64   24.87
   1  -2  -7  215.37   25.51
   1  -2  -8   50.86   14.14
   1  -2  -8   52.30   14.76
   1  -2  -9   25.19   11.09
   1  -2  -9   23.11    9.58
   1  -2 -10  148.15   27.23
   1  -2 -11   -5.68    8.42
   0   2 -13   72.42   23.38
   0   2 -12   54.72   18.34
   0   2 -11   14.97    7.94
   0   2 -10  249.65   34.01
   0   2  -9    4.65    4.69
   0   2  -8 1619.78   74.04
   0   2  -7  430.09   34.96
   0   2  -6 1709.83   64.12
   0   2  -5 1032.59   45.71
   0  -2   5  457.34   28.12
   0   2  -4  554.31   30.28
   0   2  -4  575.38   33.47
   0  -2   4  511.87   21.03
   0   2  -3 9591.79  122.42
   0   2  -3 9502.42  117.07
   0  -2   3 9635.07  109.32
   0  -2   3 9494.14   82.70
   0  -2   2 3330.96   65.25
   0   2  -2 3165.85   67.71
   0   2  -2 3355.71   69.99
   0  -2   2 3313.47   68.11
   0  -2   1 2373.51   39.83
   0   2  -1 2333.29   51.37
   0   2  -1 2286.99   40.48
   0  -2   1 2450.68   53.64
   0   2  -1 2341.26   38.95
   0   2  -1 2361.64   48.24
   0  -2   1 2407.13   50.95
   0   2   0 1201.91   34.34
   0  -2   0 1126.65   32.66
   0  -2   0 1171.88   29.18
   0   2   0 1204.35   29.20
   0   2   0 1171.74   34.81
   0   2   1  201.86   14.22
   0  -2  -1  181.69   10.03
   0  -2  -1  183.16   14.30
   0  -2  -2   40.07    6.14
   0  -2  -2   46.67    7.80
   0  -2  -3  208.38   17.96
   0  -2  -4 3472.75   80.71
   0  -2  -4 3470.23   77.07
   0  -2  -5  618.58   37.65
   0  -2  -5  657.34   37.31
   0  -2  -6  869.17   48.20
   0  -2  -6  915.39   48.68
   0  -2  -7   49.79   12.68
   0  -2  -7   47.25   12.76
   0  -2  -8   47.01   13.27
   0  -2  -8   47.28   12.70
   0  -2  -9  684.87   54.88
   0  -2  -9  598.45   50.29
   0  -2  -9  672.57   55.02
   0  -2 -10   15.94   10.51
   1   2 -13   25.07   12.34
   1   2 -12  157.68   29.62
   1   2 -11    4.02    5.28
   1   2 -10  189.28   29.39
   1   2  -9  591.36   47.54
   1   2  -8   37.80   11.22
   1   2  -7  574.91   39.82
   1   2  -6  168.53   24.07
   1   2  -6  167.02   19.74
   1   2  -5   74.31   14.75
   1   2  -5   71.88   11.83
  -1  -2   5   40.18    6.92
   1   2  -4  619.67   38.39
   1   2  -4  624.64   30.82
   1   2  -3  407.71   22.70
   1   2  -3  437.31   31.45
  -1  -2   2   32.21    6.04
  -1  -2   2   30.63    8.01
   1   2  -2   44.74    7.47
  -1  -2   2   34.04    4.37
   1   2  -2   40.85    9.00
  -1  -2   2   27.58    7.67
  -1  -2   1   10.47    4.13
   1   2  -1   22.62    2.76
  -1  -2   1   19.14    2.49
  -1  -2   1   20.36    4.89
   1   2  -1   17.29    4.66
   1   2  -1   13.31    3.37
   1   2  -1   10.44    3.77
   1   2   0 6931.71   82.91
  -1  -2   0 6715.40   69.81
   1   2   0 6742.41   75.56
  -1  -2   0 6735.01   97.20
   1   2   0 6810.36   94.35
   1   2   0 6859.30   65.25
  -1  -2   0 6747.82   80.53
  -1  -2  -1  183.83   14.45
   1   2   1  188.91   14.62
  -1  -2  -2  436.32   24.54
  -1  -2  -2  418.20   22.54
  -1  -2  -3 1609.78   51.87
  -1  -2  -3 1681.54   51.57
  -1  -2  -3 1634.98   46.69
   1   2   3 1636.44   30.85
  -1  -2  -4   98.52   14.13
  -1  -2  -4  104.60   13.60
  -1  -2  -4  104.33   14.63
  -1  -2  -5  870.54   47.01
  -1  -2  -5  847.66   45.33
  -1  -2  -5  874.51   43.51
  -1  -2  -6   57.39   12.82
  -1  -2  -6   52.86   12.33
  -1  -2  -6   41.66   10.95
  -1  -2  -7  103.35   18.77
  -1  -2  -7  113.89   20.12
  -1  -2  -7  104.88   18.67
  -1  -2  -8   26.49   10.75
  -1  -2  -8   34.27   12.10
  -1  -2  -8   31.28   11.43
  -1  -2  -9  171.38   28.01
  -1  -2  -9  101.80   21.70
   2   2 -13   -4.79    7.17
   2   2 -12   85.15   22.84
   2   2 -11  193.42   30.76
   2   2 -10  806.30   58.59
   2   2  -9   -4.08    6.69
   2   2  -8    2.61    3.50
   2   2  -7 1374.27   60.65
   2   2  -7 1406.60   77.10
   2   2  -6  513.34   43.34
   2   2  -6  454.30   31.92
   2   2  -5 2039.87   81.50
   2   2  -5 2091.45   62.09
   2   2  -4  163.21   22.65
   2   2  -4  145.99   14.80
   2   2  -3  420.14   21.85
   2   2  -3  451.43   36.72
   2   2  -2  175.14   13.48
   2   2  -2  161.46   19.55
  -2  -2   2  161.90   11.60
   2   2  -1 1054.95   25.00
  -2  -2   1 1068.61   26.48
  -2  -2   1 1049.92   31.22
   2   2  -1 1043.16   46.27
   2   2  -1 1060.16   40.61
  -2  -2   0 2686.47   51.36
  -2  -2   0 2570.02   70.85
   2   2   0 2598.90   64.22
  -2  -2  -1 1188.26   37.85
  -2  -2  -1 1270.01   54.64
  -2  -2  -2 3669.16   73.16
  -2  -2  -2 3612.73   76.09
  -2  -2  -2 3706.50   58.11
  -2  -2  -3   18.87    6.14
  -2  -2  -3   26.01    6.20
  -2  -2  -3   24.23    6.50
   2   2   3   25.77    5.17
  -2  -2  -4  176.56   20.31
  -2  -2  -4  180.35   19.77
  -2  -2  -4  175.97   17.46
   2   2   4  193.93   14.65
  -2  -2  -5  819.22   47.68
  -2  -2  -5  674.79   41.95
  -2  -2  -5  728.82   40.46
  -2  -2  -6    5.60    4.58
  -2  -2  -6    6.10    4.40
  -2  -2  -6    6.76    5.80
  -2  -2  -7  148.07   23.69
  -2  -2  -7  140.98   22.13
  -2  -2  -7  116.27   20.75
  -2  -2  -8   35.38   11.86
  -2  -2  -8   40.83   13.56
   3   2 -13   11.56    9.36
   3   2 -12    7.37    5.21
   3   2 -11  385.47   43.28
   3   2 -10    4.99    3.58
   3   2  -9  561.33   45.35
   3   2  -8    3.85    4.45
   3   2  -8   23.10   11.59
   3   2  -7  826.97   61.98
   3   2  -7  859.34   47.82
   3   2  -6   49.60   15.16
   3   2  -6   48.16   10.76
   3   2  -5  101.61   20.57
   3   2  -5  113.18   14.44
   3   2  -4 5146.19  138.37
   3   2  -4 5174.88   86.52
  -3  -2   4 4998.54   69.27
  -3  -2   3 1829.72   30.82
   3   2  -3 1935.89   45.76
   3   2  -2 4369.85   97.13
   3   2  -2 4386.36   63.64
  -3  -2   2 4469.05   51.89
   3   2  -2 4402.94  113.11
  -3  -2   1  774.27   26.09
   3   2  -1  814.31   46.04
   3   2  -1  745.63   37.14
   3   2  -1  715.55   21.15
   3   2   0    5.70    3.90
  -3  -2   0    7.78    2.98
  -3  -2  -1 1238.94   24.46
  -3  -2  -1 1290.58   24.24
  -3  -2  -1 1359.10   63.08
  -3  -2  -2   29.30    6.40
  -3  -2  -2   27.93    5.04
  -3  -2  -2   42.18   13.10
  -3  -2  -3  925.32   46.32
  -3  -2  -3  934.62   42.59
  -3  -2  -3  910.27   35.03
   3   2   3  926.86   37.32
   3   2   4    4.27    2.24
  -3  -2  -4   13.98    6.67
  -3  -2  -4    8.09    4.55
  -3  -2  -4   17.67    5.75
  -3  -2  -5  929.93   54.03
  -3  -2  -5  899.20   50.28
  -3  -2  -5  857.72   45.07
  -3  -2  -6    1.10    3.64
  -3  -2  -6    4.27    4.28
  -3  -2  -7    4.56    5.15
  -3  -2  -7   -3.66    7.06
  -3  -2  -8  677.41   55.60
   4   2 -13  -12.72    9.68
   4   2 -12   26.39   12.11
   4   2 -11  176.77   29.00
   4   2 -10   62.41   15.99
   4   2  -9  162.84   32.06
   4   2  -9  137.16   22.54
   4   2  -8  280.85   39.47
   4   2  -8  273.79   29.57
   4   2  -7   71.58   14.07
   4   2  -7   52.85   16.78
   4   2  -6  225.43   33.28
   4   2  -6  240.65   23.18
   4   2  -5 1841.86   92.24
   4   2  -5 2013.16   60.88
   4   2  -4   59.66   17.09
  -4  -2   4   53.97    7.45
   4   2  -4   69.46   11.94
   4   2  -4   54.93    9.08
   4   2  -3   11.27    3.62
  -4  -2   3    6.67    2.27
   4   2  -3    7.03    4.35
   4   2  -2 1775.66   38.99
  -4  -2   2 1824.40   38.47
   4   2  -2 1700.26   78.18
   4   2  -2 1786.85   65.48
  -4  -2   1  306.89   15.86
   4   2  -1  291.27   25.17
   4   2  -1  265.02   15.14
   4   2  -1  292.87   31.10
  -4  -2   0   38.64    6.39
   4   2   0   34.59    8.68
  -4  -2   0   29.25   10.59
   4   2   1  789.49   44.25
  -4  -2  -1  773.09   31.73
  -4  -2  -1  781.41   52.15
  -4  -2  -2   82.52    8.34
  -4  -2  -2   88.96   12.22
  -4  -2  -2   95.86   19.39
  -4  -2  -3   51.92   10.37
  -4  -2  -3   36.92   12.72
   4   2   3   45.43    9.71
  -4  -2  -4  685.51   41.71
  -4  -2  -4  682.76   58.62
   4   2   4  681.48   38.67
  -4  -2  -4  690.71   47.22
  -4  -2  -5   17.29    8.49
  -4  -2  -5   32.04   10.34
  -4  -2  -5   11.56    8.46
  -4  -2  -6    1.74    3.91
  -4  -2  -6   -1.77    6.02
  -4  -2  -7  226.82   31.96
  -4  -2  -8   29.64   12.27
   5   2 -13  167.43   32.32
   5   2 -12   46.50   15.69
   5   2 -11  567.89   51.89
   5   2 -10   43.35   12.94
   5   2  -9  332.61   47.30
   5   2  -9  320.95   34.41
   5   2  -8  366.22   47.73
   5   2  -8  475.96   38.91
   5   2  -7  914.86   72.03
   5   2  -7  947.21   51.00
   5   2  -6 3082.36  129.15
   5   2  -6 3252.30   86.65
   5   2  -5   53.77   16.66
   5   2  -5   57.69   10.49
   5   2  -4  327.56   40.65
   5   2  -4  325.64   21.68
  -5  -2   4  368.17   21.94
   5   2  -3  264.34   16.42
  -5  -2   3  271.58   15.12
   5   2  -3  297.61   37.48
   5   2  -2  312.54   36.34
   5   2  -2  217.46   11.79
  -5  -2   2  277.70   13.05
   5   2  -2  277.34   12.73
   5   2  -2  269.47   27.12
  -5  -2   1  745.13   23.56
   5   2  -1  767.24   55.78
   5   2  -1  709.57   42.46
   5   2  -1  704.10   28.00
  -5  -2   0   62.09   15.84
  -5  -2   0   47.09    7.07
   5   2   0   55.87   12.34
   5   2   0   38.73   13.21
   5   2   0   56.34   10.52
   5   2   1 1668.04   69.37
  -5  -2  -1 1659.01   84.03
  -5  -2  -1 1742.33   49.29
   5   2   2  384.59   35.31
  -5  -2  -2  370.02   25.78
  -5  -2  -2  381.46   42.29
  -5  -2  -3  441.29   47.02
   5   2   3  416.62   32.77
  -5  -2  -3  404.68   30.09
  -5  -2  -4  293.41   27.94
  -5  -2  -4  303.82   41.71
  -5  -2  -5  163.31   32.39
  -5  -2  -6  274.29   44.20
  -5  -2  -7   17.09   11.83
   6   2 -12  170.16   30.76
   6   2 -11   10.38    8.64
   6   2 -10  456.17   59.70
   6   2 -10  454.13   44.28
   6   2  -9   74.36   16.74
   6   2  -9   67.62   22.70
   6   2  -8   85.63   16.48
   6   2  -8   61.27   20.14
   6   2  -7  239.67   26.18
   6   2  -7  208.83   35.95
   6   2  -6  435.58   51.88
   6   2  -6  410.13   30.90
   6   2  -5  543.83   55.54
   6   2  -5  435.22   28.62
   6   2  -4  270.11   38.91
   6   2  -4  312.69   20.96
   6   2  -3 1810.14   32.23
   6   2  -3 1859.74  100.80
   6   2  -3 1800.80   41.96
   6   2  -2    4.76    1.78
  -6  -2   2    3.47    1.10
   6   2  -2    0.30    3.27
   6   2  -1   77.12   10.03
  -6  -2   1   72.51    6.68
   6   2  -1   80.69   15.39
   6   2  -1   55.80   16.81
  -6  -2   0  970.07   31.06
   6   2   0  947.28   45.63
   6   2   0 1047.80   73.60
   6   2   0  979.70   55.18
   6   2   1  108.98   19.32
   6   2   1  114.15   19.54
   6   2   1  114.13   24.29
  -6  -2  -1  103.81   22.85
   6   2   2  549.01   44.79
  -6  -2  -2  610.47   58.05
   6   2   3  118.26   22.32
  -6  -2  -3  113.85   26.40
   6   2   3  131.30   20.36
   6   2   4  130.73   24.84
  -6  -2  -4  139.09   30.01
  -6  -2  -5    9.49    9.66
  -6  -2  -6   93.16   27.35
   7   2 -12    8.79    7.53
   7   2 -11   -3.11   12.60
   7   2 -11    3.49    5.99
   7   2 -10  574.60   69.08
   7   2 -10  558.34   49.14
   7   2  -9   28.01   14.86
   7   2  -9   39.33   12.39
   7   2  -8  117.84   29.22
   7   2  -8  161.69   23.61
   7   2  -7   77.11   14.95
   7   2  -7   73.14   23.21
   7   2  -6  527.28   59.79
   7   2  -6  550.64   36.30
   7   2  -5   17.77    6.08
   7   2  -5   12.33   10.94
   7   2  -4   69.16   20.84
   7   2  -3  679.35   65.57
   7   2  -2   29.07   12.82
   7   2  -1 1096.66   62.30
   7   2  -1 1089.36   81.49
   7   2   0   63.12   19.88
   7   2   0   34.64   11.55
   7   2   1   -2.63    6.87
   7   2   1   10.59    9.35
   7   2   2  253.23   41.36
  -7  -2  -2  323.52   45.97
   7   2   2  291.41   32.52
   7   2   2  349.79   38.17
  -7  -2  -3   66.25   21.61
   7   2   3   84.38   19.51
  -7  -2  -4   20.72   13.34
   7   2   4   26.93   12.69
  -7  -2  -5   -6.13    8.69
   8   2 -12  141.96   28.57
   8   2 -11   -1.48    5.40
   8   2 -11    3.41    6.73
   8   2 -10  212.92   30.90
   8   2 -10  216.39   43.82
   8   2  -9   78.79   17.60
   8   2  -9   64.94   24.94
   8   2  -8   51.60   13.89
   8   2  -8   34.46   16.27
   8   2  -7 1795.32  117.00
   8   2  -7 1807.39   72.82
   8   2  -6  147.28   33.44
   8   2  -5  537.06   61.74
   8   2  -4  183.45   36.17
   8   2  -3   -0.84    9.11
   8   2  -2  626.15   68.76
   8   2  -1  -13.07   10.63
   8   2   0  387.52   53.66
   8   2   1   28.21   15.14
   8   2   2  382.19   39.78
   8   2   2  362.04   53.76
   8   2   3   40.34   18.23
  -8  -2  -3   32.00   19.39
   8   2   4   26.33   14.90
   9   2 -12   31.19   14.28
   9   2 -11  157.36   28.81
   9   2 -11  221.37   47.96
   9   2 -10   30.81   17.83
   9   2 -10    7.89    6.88
   9   2  -9   23.98   15.46
   9   2  -8  181.38   40.30
   9   2  -7  127.38   32.49
   9   2  -6   48.01   19.46
   9   2  -5  131.70   32.42
   9   2  -4  142.41   34.21
   9   2  -3   19.74   13.36
   9   2  -2  322.60   53.04
   9   2  -1  104.01   30.63
   9   2   0   10.46    9.39
   9   2   1  205.29   31.08
   9   2   1  155.36   37.65
   9   2   2   59.45   23.23
   9   2   3  -30.09   16.81
  10   2  -9  349.53   58.19
  10   2  -8   16.01    8.62
  10   2  -7  123.45   33.53
  10   2  -6   85.40   28.64
  10   2  -5    1.51    5.77
  10   2  -4  142.34   36.41
  10   2  -3   -1.30    6.24
  10   2  -2  489.94   69.00
  10   2  -1   -4.19    8.58
  10   2   0   33.95   19.27
  10   2   0   17.10   10.47
  10   2   1  176.22   30.64
  10   2   1  165.88   43.12
  11   2  -8  310.76   55.02
  11   2  -7   -3.94   12.97
  11   2  -6  408.34   63.31
  11   2  -5   -9.28   12.05
  11   2  -4    1.95    7.42
  11   2  -3  341.04   59.48
  11   2  -2   -5.79    9.43
  12  -3   0   62.53   21.66
  12  -3  -1    7.43    7.70
  12  -3  -2  132.94   29.55
 -12   3   3   11.00    6.83
  12  -3  -3   35.09   14.09
 -12   3   4   83.58   25.38
  12  -3  -4   86.19   23.06
  12  -3  -5   17.82   10.51
  12  -3  -6   47.77   15.92
  12  -3  -7   32.27   14.71
  12  -3  -8   11.95    7.76
  11  -3   3   -2.07    6.41
  11  -3   2    0.24    5.91
  11  -3   1  472.53   54.06
  11  -3   0    6.54    5.89
  11  -3   0    4.58    6.30
  11  -3  -1   50.97   15.58
  11  -3  -1   71.28   19.93
  11  -3  -2  323.55   38.07
 -11   3   2  293.94   45.83
  11  -3  -2  316.66   42.16
  11  -3  -3    0.05    6.87
 -11   3   3    0.65    5.05
  11  -3  -3    0.02    6.30
  11  -3  -4  276.20   34.83
 -11   3   4  223.65   40.48
  11  -3  -4  340.80   42.64
  11  -3  -5    9.11    6.80
  11  -3  -5   19.15    9.15
 -11   3   5    6.77    7.52
  11  -3  -6  170.31   29.39
  11  -3  -6  161.34   24.51
  11  -3  -7   38.34   12.93
  11  -3  -7   40.51   15.10
  11  -3  -8  135.05   24.66
  11  -3  -8  160.89   28.19
  10  -3   5  233.35   44.20
  10  -3   5  243.74   40.69
  10  -3   4  -12.20    9.78
  10  -3   4    2.36    5.87
  10  -3   3    5.75    8.22
  10  -3   3    2.42    7.31
  10  -3   2  364.16   45.30
  10  -3   2  355.45   46.12
  10  -3   1    4.18    5.01
  10  -3   1    3.93    5.78
  10  -3   0  218.07   32.11
  10  -3   0  251.98   35.92
 -10   3   1    9.43    6.02
  10  -3  -1   14.66    7.45
  10  -3  -1   -5.19    9.28
  10  -3  -2  649.14   56.28
 -10   3   2  538.65   58.81
  10  -3  -2  656.24   51.44
 -10   3   3   -0.58    5.66
  10  -3  -3    1.60    6.20
  10  -3  -3    1.64    3.47
  10  -3  -4  117.42   23.51
 -10   3   4   66.81   23.36
  10  -3  -4  118.05   21.13
  10  -3  -4  116.47   22.19
  10  -3  -5  417.86   41.96
  10  -3  -5  482.97   44.76
  10  -3  -5  478.89   46.42
  10  -3  -6  204.62   30.54
  10  -3  -6  238.37   29.35
  10  -3  -7  710.14   55.18
  10  -3  -7  863.97   59.05
  10  -3  -8    9.22    6.09
  10  -3  -9   16.91    9.99
   9  -3   7    7.88    9.99
   9  -3   6   44.37   19.46
   9  -3   6   72.85   21.37
   9  -3   5  105.64   29.55
   9  -3   5   96.78   24.36
   9  -3   4    0.05    5.14
   9  -3   4    9.46    9.16
   9  -3   3  156.54   30.94
   9  -3   3  116.80   24.70
   9  -3   2  350.79   43.23
   9  -3   2  288.77   37.27
  -9   3  -1   32.64   15.23
   9  -3   1   38.88   13.12
   9  -3   1   31.14   11.09
   9  -3   0   47.19   13.58
   9  -3   0   37.74   12.93
  -9   3   0   51.74   17.98
   9  -3  -1  313.81   29.74
   9  -3  -1  324.64   37.23
  -9   3   1  306.30   42.89
   9  -3  -1  275.94   32.63
   9  -3  -2   -1.84    5.05
   9  -3  -2   17.58    7.17
  -9   3   2   17.08   10.86
   9  -3  -2    3.64    3.92
   9  -3  -3  116.71   21.29
   9  -3  -3  122.09   19.59
  -9   3   3   99.42   23.73
   9  -3  -3  143.20   23.77
   9  -3  -4  212.05   28.62
   9  -3  -4  235.68   28.28
   9  -3  -4  258.28   31.40
   9  -3  -5    6.35    4.10
  -9   3   5    6.40    7.11
   9  -3  -5    9.75    6.88
  -9   3   6   47.11   18.26
   9  -3  -6   42.26   12.36
  -9   3   7  203.44   38.18
   9  -3  -7  262.21   31.02
   9  -3  -7  304.76   34.08
   9  -3  -8   61.99   16.30
   9  -3  -9    4.32    4.78
  -8   3  -8   41.91   17.89
   8  -3   8   35.59   18.07
  -8   3  -7  127.60   29.20
   8  -3   7   61.80   23.06
  -8   3  -7  114.85   27.51
  -8   3  -6  104.19   25.40
   8  -3   6   91.97   22.58
  -8   3  -6  100.70   25.42
   8  -3   6   72.80   23.84
  -8   3  -5    0.82    6.24
   8  -3   5    6.86    9.68
  -8   3  -5   -6.98   10.43
   8  -3   5   -2.30    7.73
   8  -3   4   96.66   25.24
  -8   3  -4   76.23   19.02
   8  -3   4   52.54   16.69
  -8   3  -4   82.03   20.97
   8  -3   3    0.08    5.50
   8  -3   3   20.25   13.00
   8  -3   2 1056.72   71.30
   8  -3   2  983.39   63.50
   8  -3   1  293.57   27.16
   8  -3   1  272.87   33.74
   8  -3   1  311.67   34.33
  -8   3  -1  338.37   43.45
   8  -3   0  630.64   48.84
   8  -3   0  794.97   43.18
  -8   3   0  744.51   63.30
   8  -3   0  747.54   52.39
   8  -3  -1  127.23   20.94
   8  -3  -1  136.06   18.05
   8  -3  -1  136.39   21.89
  -8   3   1  131.56   26.54
   8  -3  -2   77.49   16.24
   8  -3  -2  113.74   16.69
   8  -3  -2  115.35   20.01
   8  -3  -3 2325.82   79.41
   8  -3  -3 2237.15   88.35
   8  -3  -3 2462.03   90.02
   8  -3  -4  170.79   16.10
   8  -3  -4  159.20   22.27
   8  -3  -4  171.12   23.77
  -8   3   4  145.13   30.52
   8  -3  -4  120.59   20.93
   8  -3  -5  367.75   34.47
  -8   3   5  423.77   52.21
   8  -3  -5  381.34   37.49
   8  -3  -5  376.31   26.39
  -8   3   6  104.34   26.06
   8  -3  -6   97.44   14.44
   8  -3  -6  105.65   17.77
  -8   3   7  233.55   40.71
   8  -3  -7  238.09   26.73
   8  -3  -7  212.87   28.17
   8  -3  -7  236.59   25.34
  -8   3   8   69.91   23.21
   8  -3  -8   87.57   16.36
   8  -3  -8   74.46   17.38
   8  -3  -9   12.52    8.84
   8  -3  -9    7.67    5.12
   8  -3 -10  425.13   46.93
  -7   3  -9   10.16    9.59
   7  -3   8    1.80    5.92
  -7   3  -8   11.44    7.86
  -7   3  -8   -0.71    4.87
  -7   3  -7   -0.02    4.99
   7  -3   7   16.90   15.68
  -7   3  -7   -1.83    5.20
   7  -3   6  329.55   48.85
  -7   3  -6  360.07   43.15
  -7   3  -6  312.54   41.29
   7  -3   6  302.48   38.91
  -7   3  -5   66.65   17.45
   7  -3   5   66.05   17.72
  -7   3  -5   70.79   18.54
   7  -3   5   42.48   16.99
  -7   3  -4  105.41   20.84
  -7   3  -4   90.71   17.44
   7  -3   4  100.80   20.35
   7  -3   4  102.91   24.40
  -7   3  -4   94.31   19.77
  -7   3  -3  739.29   52.46
   7  -3   3  649.40   41.71
  -7   3  -3  808.13   54.32
   7  -3   3  637.19   49.16
   7  -3   3  678.41   58.93
   7  -3   2   87.13   14.45
   7  -3   2   95.40   17.89
   7  -3   2   92.50   19.74
  -7   3  -2   90.99   20.87
   7  -3   1 1033.75   44.91
   7  -3   1 1048.75   62.58
  -7   3  -1 1071.72   71.33
   7  -3   1 1175.56   61.06
   7  -3   0   26.51    9.47
   7  -3   0   26.02    4.96
  -7   3   0   10.99    7.84
   7  -3   0   11.83    4.46
   7  -3   0   34.22    7.74
   7  -3  -1  254.90   28.11
   7  -3  -1  331.29   17.48
   7  -3  -1  298.31   29.58
   7  -3  -1  272.40   22.69
  -7   3   1  294.37   38.66
   7  -3  -2  270.80   29.27
   7  -3  -2  309.17   25.29
   7  -3  -2  275.82   17.06
  -7   3   2  300.87   40.79
   7  -3  -2  303.81   29.14
  -7   3   3  454.13   51.92
   7  -3  -3  423.93   36.77
   7  -3  -3  483.38   36.32
   7  -3  -3  451.36   33.13
   7  -3  -3  495.49   25.59
   7  -3  -4  220.86   26.95
  -7   3   4  205.92   35.62
   7  -3  -4  199.73   17.94
   7  -3  -4  233.00   25.24
   7  -3  -5   78.60   16.84
   7  -3  -5   97.81   15.98
   7  -3  -5   90.38   13.28
  -7   3   5   58.26   20.12
   7  -3  -6 1761.56   64.20
   7  -3  -6 1728.29   66.04
   7  -3  -7   53.92   11.25
   7  -3  -7   46.37   11.41
   7  -3  -7   56.45   14.37
   7  -3  -8  155.64   22.52
   7  -3  -8  158.25   25.17
   7  -3  -9  157.44   24.15
   7  -3  -9  148.15   25.98
   7  -3 -10   10.82    8.39
   7  -3 -10   -4.84    7.15
  -6   3  -9   22.25   12.84
  -6   3  -8   30.34   15.03
  -6   3  -7  234.28   35.68
  -6   3  -7  144.09   27.39
   6  -3   7  211.67   38.34
   6  -3   6  291.06   43.02
  -6   3  -6  310.47   38.73
  -6   3  -6  273.90   36.70
   6  -3   6  235.24   32.11
  -6   3  -6  212.03   32.21
   6  -3   5  147.28   29.36
  -6   3  -5  136.34   24.15
  -6   3  -5   79.90   18.11
  -6   3  -5  120.65   22.64
   6  -3   5  127.41   22.43
  -6   3  -4 1185.81   62.72
  -6   3  -4 1197.63   66.79
   6  -3   4 1212.73   78.56
  -6   3  -4 1205.14   64.63
   6  -3   4 1159.13   64.47
  -6   3  -3   26.00    9.56
   6  -3   3   22.36    8.95
  -6   3  -3   44.33   11.69
  -6   3  -3   20.58    8.59
  -6   3  -3   14.38    6.66
   6  -3   3   32.62    8.27
   6  -3   3   30.07   10.15
  -6   3  -2   86.38   15.72
   6  -3   2   93.38   12.83
  -6   3  -2   79.72   18.32
   6  -3   2   75.73   17.05
   6  -3   2   82.46   15.61
   6  -3   1 1188.12   39.87
   6  -3   1 1152.74   61.45
   6  -3   1 1222.75   57.18
  -6   3  -1 1088.63   69.27
   6  -3   0   77.29   13.76
  -6   3   0   53.96   16.30
   6  -3   0   77.16    9.52
   6  -3   0   63.69    9.06
   6  -3   0   55.65   12.66
   6  -3  -1  687.10   28.01
   6  -3  -1  618.27   41.49
   6  -3  -1  672.68   40.14
   6  -3  -1  640.74   31.26
  -6   3   1  719.28   60.14
   6  -3  -2  700.00   29.54
   6  -3  -2  655.61   43.03
   6  -3  -2  703.30   40.08
   6  -3  -2  662.27   34.98
  -6   3   2  643.60   18.65
  -6   3   2  691.12   60.35
  -6   3   3  703.70   63.11
   6  -3  -3  692.82   39.23
   6  -3  -3  672.83   31.01
   6  -3  -3  666.53   44.42
   6  -3  -4    9.12    5.47
   6  -3  -4   11.25    4.63
   6  -3  -4    7.23    3.46
   6  -3  -5  434.38   29.59
   6  -3  -5  416.01   29.21
   6  -3  -6  650.01   39.52
   6  -3  -6  616.34   34.84
   6  -3  -7   23.19    8.15
   6  -3  -7   29.65    9.54
   6  -3  -8  373.11   34.95
   6  -3  -8  368.61   38.06
   6  -3  -9   -0.37    5.21
   6  -3  -9    7.15    3.49
   6  -3 -10   35.75   12.29
   6  -3 -10   48.06   14.96
  -5   3 -10  263.61   44.07
  -5   3  -9  205.79   36.75
  -5   3  -9  141.52   30.97
  -5   3  -8  497.23   53.05
  -5   3  -8  476.52   53.27
  -5   3  -7   58.99   17.41
  -5   3  -7   58.51   18.58
  -5   3  -6    8.79    3.48
  -5   3  -6   15.12   11.10
   5  -3   5  887.61   66.82
   5  -3   5  699.83   49.29
  -5   3  -5  718.91   55.35
  -5   3  -5  796.07   55.12
   5  -3   4   49.42   14.96
  -5   3  -4   71.85   15.59
   5  -3   4   68.81   14.90
  -5   3  -4   58.63   13.20
  -5   3  -4   58.54   14.75
  -5   3  -3 1182.50   57.51
  -5   3  -3 1242.12   58.73
   5  -3   3 1141.30   66.83
  -5   3  -3 1163.96   51.29
   5  -3   3 1121.27   56.08
  -5   3  -3 1246.83   69.82
   5  -3   2   23.06    7.91
  -5   3  -2   29.81    8.50
  -5   3  -2   15.55    6.78
   5  -3   2   23.54    5.24
  -5   3  -2   22.19    6.28
   5  -3   2   20.92    7.01
  -5   3  -2   31.90   11.59
  -5   3  -1 1719.02   57.92
   5  -3   1 1608.52   35.72
  -5   3  -1 1694.16   81.54
   5  -3   1 1690.07   69.65
   5  -3   1 1733.16   62.94
   5  -3   0   54.16    8.48
   5  -3   0   52.52    6.88
  -5   3   0   62.18    9.35
  -5   3   0   34.19   12.49
   5  -3   0   56.63   10.92
   5  -3   0   50.60   11.76
   5  -3  -1    7.35    3.67
   5  -3  -1   11.27    5.52
  -5   3   1    6.28    5.72
   5  -3  -1    8.20    3.81
   5  -3  -1    7.64    3.62
  -5   3   1    4.09    1.50
   5  -3  -2 4346.69   89.56
   5  -3  -2 4271.17  104.30
   5  -3  -2 4359.51   77.08
   5  -3  -3 1848.15   70.58
   5  -3  -3 1802.83   55.91
   5  -3  -3 1806.53   52.84
   5  -3  -4 1840.94   58.22
   5  -3  -4 1816.58   72.11
   5  -3  -4 1953.03   57.05
   5  -3  -5   74.56   10.80
   5  -3  -5   87.23   13.67
   5  -3  -6   39.09   10.13
   5  -3  -6   36.99    7.32
   5  -3  -7  557.23   40.64
   5  -3  -7  535.62   42.66
   5  -3  -8    9.31    5.84
   5  -3  -8   12.00    6.17
   5  -3  -9  341.80   36.61
   5  -3  -9  370.75   40.14
   5  -3 -10   18.07    9.12
   5  -3 -10   34.31   12.83
  -4   3 -11   87.20   26.31
  -4   3 -10    0.08    7.97
  -4   3 -10   17.00   11.56
  -4   3  -9   24.68   13.18
  -4   3  -8  148.19   29.26
  -4   3  -7   53.51   16.71
  -4   3  -6   10.84    6.20
  -4   3  -5  548.92   47.51
  -4   3  -4  147.99   22.88
  -4   3  -4  145.49   22.88
   4  -3   4  127.35   18.90
   4  -3   4  156.59   24.06
   4  -3   3   39.38   10.88
  -4   3  -3   47.97   10.83
   4  -3   3   28.65    8.66
  -4   3  -3   47.20   12.09
  -4   3  -3   38.12   10.42
  -4   3  -2 2115.95   68.13
  -4   3  -2 2191.72   65.61
   4  -3   2 1853.06   31.92
   4  -3   2 1965.56   75.57
  -4   3  -2 1977.59   48.37
  -4   3  -2 2029.28   83.48
   4  -3   2 2080.66   67.26
   4  -3   1   83.19   14.82
   4  -3   1   75.10    5.27
  -4   3  -1   83.96   11.31
  -4   3  -1   88.59   18.53
   4  -3   1   85.16    7.49
   4  -3   0  345.80   28.20
  -4   3   0  319.00   20.74
  -4   3   0  335.95   37.36
   4  -3   0  339.42   24.29
   4  -3   0  322.32   20.69
   4  -3  -1 2192.10   45.56
  -4   3   1 2110.74   61.78
   4  -3  -1 2119.46   53.33
   4  -3  -1 2163.83   58.62
  -4   3   1 2132.82   40.98
   4  -3  -1 2079.99   67.21
   4  -3  -2  180.28   20.94
   4  -3  -2  200.21   17.11
   4  -3  -2  239.77   18.66
   4  -3  -3   32.63    9.16
   4  -3  -3   30.09    6.51
   4  -3  -3   22.46    6.85
   4  -3  -4  357.00   26.26
   4  -3  -4  345.78   20.99
   4  -3  -5  633.80   27.19
   4  -3  -5  636.84   37.66
   4  -3  -6    7.61    5.34
   4  -3  -7  525.66   39.92
   4  -3  -7  500.80   41.12
   4  -3  -8   19.71    8.60
   4  -3  -8   29.82   10.15
   4  -3  -9  -10.53    7.01
   4  -3  -9    6.00    6.29
   4  -3 -10  314.13   37.94
   4  -3 -10  326.87   40.39
   4  -3 -11   16.96   10.64
  -3   3 -12  128.81   31.87
  -3   3 -11   15.00    9.50
  -3   3 -10   49.63   18.58
  -3   3  -9   89.68   22.46
  -3   3  -8   25.17   10.64
  -3   3  -7  362.78   39.69
  -3   3  -6   97.01   19.66
  -3   3  -5 2017.76   86.23
   3  -3   4  439.04   22.18
  -3   3  -4  489.78   37.46
  -3   3  -4  415.50   37.45
  -3   3  -3 2370.43   80.88
   3  -3   3 2395.75   38.29
  -3   3  -3 2451.12   82.13
   3  -3   3 2293.04   71.17
   3  -3   3 2457.33   83.14
  -3   3  -2 1797.55   73.48
  -3   3  -2 1840.70   36.14
  -3   3  -2 1880.42   63.20
   3  -3   2 1793.45   58.96
   3  -3   2 1828.12   67.26
  -3   3  -1 2096.48   48.32
   3  -3   1 2034.50   65.56
   3  -3   1 2132.28   60.78
   3  -3   1 2090.05   43.81
   3  -3   0 4889.86   82.14
  -3   3   0 5004.49   71.34
  -3   3   0 5054.01   67.83
   3  -3   0 4970.69   97.72
   3  -3   0 5068.89   87.78
   3  -3  -1   15.63    2.89
   3  -3  -1    4.99    2.23
   3  -3  -1   13.97    4.87
   3  -3  -1   21.45    5.27
   3  -3  -2  572.11   29.88
   3  -3  -2  556.38   34.26
   3  -3  -2  567.24   26.03
   3  -3  -3   50.69   10.17
   3  -3  -3   82.59    9.38
   3  -3  -3   70.31   12.95
   3  -3  -4  283.55   23.75
   3  -3  -4  257.57   15.53
   3  -3  -5  342.64   28.34
   3  -3  -6   10.08    5.72
   3  -3  -6   10.82    6.31
   3  -3  -7 1342.90   66.90
   3  -3  -7 1249.11   62.95
   3  -3  -8   79.78   17.10
   3  -3  -8   72.85   16.02
   3  -3  -9  257.91   32.68
   3  -3  -9  196.45   29.52
   3  -3 -10  160.58   28.23
   3  -3 -10  191.70   30.08
   3  -3 -11    7.93    8.70
  -2   3 -13   37.36   17.34
  -2   3 -12   -2.38    6.57
  -2   3 -11   78.70   22.96
  -2   3 -10   40.95   15.70
  -2   3  -9  744.00   59.85
  -2   3  -8    5.97    6.61
  -2   3  -7   26.05   10.26
  -2   3  -6 1331.91   67.07
  -2   3  -5  983.38   55.27
  -2   3  -4 2182.49   80.46
   2  -3   4 2183.16   49.83
  -2   3  -4 2358.47   71.64
   2  -3   3   41.45    5.41
   2  -3   3   41.31   10.07
  -2   3  -3   37.64    9.58
  -2   3  -3   34.65    9.99
  -2   3  -2  306.39   30.43
  -2   3  -2  346.01   26.61
  -2   3  -2  294.12   12.03
   2  -3   2  304.59   25.19
  -2   3  -1   42.85    7.71
   2  -3   1   47.61    9.27
  -2   3  -1   38.83    8.39
   2  -3   1   44.93    7.27
   2  -3   0 1279.07   42.36
  -2   3   0 1269.68   37.96
   2  -3   0 1273.18   45.29
   2  -3  -1 3154.58   73.55
   2  -3  -1 3095.45   67.05
  -2   3   1 3176.98   56.37
   2  -3  -2 1019.99   44.29
   2  -3  -2 1117.65   42.66
   2  -3  -3 5306.37   98.42
   2  -3  -4   76.80   13.03
   2  -3  -5  191.86   21.66
   2  -3  -6  990.13   52.99
   2  -3  -6  942.56   51.89
   2  -3  -7  189.03   25.16
   2  -3  -7  184.36   24.81
   2  -3  -8  321.01   35.00
   2  -3  -8  332.35   35.56
   2  -3  -9    8.78    8.15
   2  -3  -9    6.09    4.24
   2  -3 -10  177.90   30.55
   2  -3 -10  179.81   29.50
   2  -3 -11    9.31    8.38
  -1   3 -13   27.87   16.20
  -1   3 -12   51.88   20.25
  -1   3 -11    8.78    9.87
  -1   3 -10   24.03   11.29
  -1   3  -9  332.69   38.35
  -1   3  -8   40.45   12.46
  -1   3  -7 1048.89   58.84
  -1   3  -6  117.45   18.46
  -1   3  -5    2.07    3.39
  -1   3  -4 3448.98   93.21
  -1   3  -4 3450.91   78.31
   1  -3   4 3539.87   71.15
  -1   3  -4 3260.76   73.20
  -1   3  -3  395.80   23.71
   1  -3   3  410.28   27.66
   1  -3   3  388.09   21.59
  -1   3  -3  369.56   30.35
  -1   3  -2   59.20   10.80
  -1   3  -2   68.65    9.30
   1  -3   2   57.53    9.69
  -1   3  -1  717.79   32.18
   1  -3   1  705.11   20.49
   1  -3   1  755.09   32.22
  -1   3  -1  778.40   30.73
  -1   3  -1  699.63   31.59
   1  -3   0 2866.47   64.28
  -1   3   0 2966.48   62.48
   1  -3   0 2927.21   62.56
   1  -3  -1   27.68    6.72
   1  -3  -1   29.57    6.85
  -1   3   1   23.47    4.84
   1  -3  -2  653.30   33.26
   1  -3  -2  626.93   19.34
  -1   3   2  670.58   19.65
   1  -3  -3  694.16   36.30
   1  -3  -4   31.39    9.03
   1  -3  -5 1011.80   51.04
   1  -3  -5 1033.55   50.19
   1  -3  -6  251.97   26.98
   1  -3  -6  243.00   26.97
   1  -3  -7    9.50    6.08
   1  -3  -7    2.02    3.69
   1  -3  -8   90.63   19.22
   1  -3  -8  109.72   20.72
   1  -3  -9  166.31   27.32
   1  -3  -9  207.89   30.81
   1  -3 -10   13.56    9.52
   1  -3 -10    5.02    6.48
   0   3 -13  259.43   44.19
   0   3 -12  107.99   26.73
   0   3 -11  214.66   34.14
   0   3 -10  143.12   26.14
   0   3  -9   14.78    8.73
   0   3  -8 1264.31   67.38
   0   3  -7   72.77   15.16
   0   3  -6 1080.00   59.54
   0   3  -6 1112.13   54.22
   0   3  -5   89.31   15.70
   0   3  -5   91.65   15.10
   0  -3   5   74.92    9.27
   0   3  -4 2980.29   83.68
   0   3  -4 2854.36   54.73
   0   3  -4 2979.89   81.59
   0   3  -3   79.85   13.37
   0   3  -3   64.69   12.42
   0  -3   3   74.96   10.51
   0  -3   2 1633.14   43.94
   0   3  -2 1645.44   54.30
   0   3  -2 1717.57   52.24
   0   3  -2 1648.48   43.05
   0  -3   1 9372.38  116.24
   0  -3   1 9031.11   92.46
   0   3  -1 9015.98  107.33
   0   3  -1 9194.36   90.50
   0  -3   1 8858.68  116.71
   0  -3   1 8882.92   98.85
   0   3  -1 8755.68  101.38
   0   3  -1 9000.33  120.16
   0  -3   0 1992.97   54.56
   0   3   0 2109.32   57.54
   0  -3   0 2018.00   47.31
   0  -3   0 2140.97   54.90
   0   3   0 1978.29   35.10
   0   3   0 2148.36   47.06
   0  -3  -1 2560.24   63.07
   0  -3  -2  656.49   33.92
   0  -3  -2  590.71   23.25
   0  -3  -3   22.62    5.64
   0  -3  -3   19.78    6.11
   0  -3  -4  976.78   47.68
   0  -3  -4 1049.34   41.98
   0  -3  -4  956.37   43.79
   0  -3  -5    6.19    4.39
   0  -3  -5    8.58    4.57
   0  -3  -5    1.90    5.84
   0  -3  -6  638.32   44.71
   0  -3  -6  677.18   44.12
   0  -3  -7  220.42   26.02
   0  -3  -7  142.39   22.30
   0  -3  -7  162.79   23.65
   0  -3  -8  422.69   42.49
   0  -3  -8  430.17   41.62
   0  -3  -9    2.88    5.07
   0  -3  -9   17.02    8.37
   1   3 -13   25.43   15.26
   1   3 -12   37.99   15.78
   1   3 -11    1.60    7.19
   1   3 -10  139.05   25.17
   1   3  -9   -5.28    6.95
   1   3  -8  585.32   44.73
   1   3  -7  176.80   27.42
   1   3  -7  156.64   21.36
  -1  -3   7  106.13    9.70
   1   3  -6  254.40   30.29
   1   3  -6  288.86   26.80
   1   3  -5 3501.44   86.57
   1   3  -5 3468.74  105.61
   1   3  -4  185.97   19.29
   1   3  -4  169.70   22.70
  -1  -3   3  198.38   13.97
   1   3  -3  184.87   22.76
   1   3  -3  203.07   20.09
   1   3  -2 1073.13   41.98
  -1  -3   2 1105.71   44.00
   1   3  -2 1103.85   48.52
   1   3  -2 1019.03   45.70
  -1  -3   2 1057.85   25.33
   1   3  -2 1026.52   26.92
   1   3  -1  307.68   23.72
  -1  -3   1  334.44   21.62
  -1  -3   1  311.70   21.93
  -1  -3   1  322.36   23.05
   1   3  -1  303.54   14.15
   1   3  -1  303.20   18.19
   1   3   0  342.25   17.89
   1   3   0  331.50   24.76
  -1  -3   0  322.15   19.41
  -1  -3   0  323.24   21.92
  -1  -3   0  307.19   24.21
  -1  -3  -1   83.23   11.64
  -1  -3  -2  849.79   39.46
  -1  -3  -3  203.10   20.73
  -1  -3  -3  229.86   19.06
  -1  -3  -4  924.62   47.38
  -1  -3  -4 1033.08   44.99
  -1  -3  -4  918.00   42.61
  -1  -3  -5  536.95   39.35
  -1  -3  -5  584.15   37.13
  -1  -3  -5  489.80   34.55
  -1  -3  -6  157.33   22.99
  -1  -3  -6  146.88   20.97
  -1  -3  -6  169.14   21.88
  -1  -3  -7  433.17   40.86
  -1  -3  -7  439.88   39.36
  -1  -3  -8   24.42   10.97
  -1  -3  -9   33.07   12.97
   2   3 -13   31.30   14.58
   2   3 -12   42.79   15.46
   2   3 -11   -2.98    5.09
   2   3 -10  306.04   36.65
   2   3  -9   30.20   10.23
   2   3  -8 1667.47   73.82
   2   3  -8 1641.29   92.22
   2   3  -7  211.24   24.47
   2   3  -7  240.17   33.23
   2   3  -6  239.84   23.90
   2   3  -6  237.06   32.15
   2   3  -5 2682.82  104.04
   2   3  -5 2629.80   73.05
   2   3  -4  862.66   39.58
   2   3  -4  970.75   59.41
   2   3  -3 2146.76   82.69
   2   3  -3 2117.56   61.30
   2   3  -2  205.82   17.42
   2   3  -2  205.57   21.90
   2   3  -2  195.01   22.51
  -2  -3   2  189.63   16.13
  -2  -3   1  462.55   24.94
  -2  -3   1  434.93   25.01
  -2  -3   1  502.00   33.52
   2   3  -1  465.38   15.49
   2   3  -1  486.76   32.13
  -2  -3   0  537.57   28.33
   2   3   0  597.24   35.76
   2   3   0  595.67   23.14
  -2  -3   0  595.35   24.95
  -2  -3   0  521.97   35.41
   2   3   1  661.10   39.25
  -2  -3  -1  574.80   30.89
  -2  -3  -1  672.42   43.09
  -2  -3  -2  198.02   19.41
  -2  -3  -2  230.86   16.55
  -2  -3  -3   36.62    7.74
  -2  -3  -3   38.29    9.04
  -2  -3  -3   46.48   10.34
  -2  -3  -4 1949.30   67.33
  -2  -3  -4 1848.78   60.05
  -2  -3  -4 1873.98   70.11
  -2  -3  -5    7.48    4.49
  -2  -3  -5   22.96    8.26
  -2  -3  -5   21.69    7.52
  -2  -3  -6   47.04   11.86
  -2  -3  -6   73.98   16.31
  -2  -3  -7  256.52   32.15
  -2  -3  -7  320.45   33.78
  -2  -3  -8   11.62    7.99
   3   3 -13   50.32   18.20
   3   3 -12  255.91   37.69
   3   3 -11    1.97    4.82
   3   3 -10   -2.73    5.49
   3   3  -9 1612.65  100.26
   3   3  -9 1616.62   78.58
   3   3  -8  535.50   54.77
   3   3  -8  489.38   40.31
   3   3  -7  696.54   59.93
   3   3  -7  785.98   46.75
   3   3  -6   44.99   14.85
   3   3  -6   24.97    7.72
   3   3  -5 1035.56   45.25
   3   3  -5 1091.23   69.88
   3   3  -4   67.18   16.73
  -3  -3   4   71.05    6.26
   3   3  -4   62.54   10.53
   3   3  -4   34.34    6.94
   3   3  -3    3.08    3.36
   3   3  -3   12.39    4.53
  -3  -3   2 2562.58   61.80
   3   3  -2 2678.46   55.06
   3   3  -2 2603.08   81.47
   3   3  -2 2607.79   91.43
  -3  -3   2 2635.59   47.82
   3   3  -1  998.10   56.45
  -3  -3   1  967.07   36.55
   3   3  -1  905.78   21.40
  -3  -3   1  938.68   51.94
  -3  -3   1  892.02   24.59
   3   3  -1  890.20   46.52
  -3  -3   0 4686.15   84.01
   3   3   0 4829.61  110.14
  -3  -3   0 4777.85  120.24
  -3  -3  -1    6.33    2.58
   3   3   1   18.08    7.14
  -3  -3  -1   12.17    5.20
  -3  -3  -1   12.44    3.03
  -3  -3  -1   25.77   10.34
  -3  -3  -2   20.80    4.52
  -3  -3  -2   19.96    6.64
  -3  -3  -2   21.64    9.33
  -3  -3  -3 1721.92   63.73
  -3  -3  -3 1765.02   87.32
  -3  -3  -3 1574.87   47.37
  -3  -3  -4    8.99    4.87
  -3  -3  -5  351.20   33.60
  -3  -3  -5  346.55   33.79
  -3  -3  -6    7.36    5.73
  -3  -3  -6  -13.98    7.80
  -3  -3  -7  256.02   32.40
  -3  -3  -7  175.77   27.63
   4   3 -13    1.75    7.60
   4   3 -12   89.70   22.30
   4   3 -11   16.18    9.57
   4   3 -10  317.78   48.69
   4   3 -10  339.56   38.14
   4   3  -9  432.24   53.42
   4   3  -9  375.33   37.80
   4   3  -8    1.99    3.16
   4   3  -8    4.03    7.89
   4   3  -7  344.35   31.41
   4   3  -7  356.70   45.18
   4   3  -6  612.22   58.29
   4   3  -6  604.95   38.04
  -4  -3   5   67.45    8.00
   4   3  -5   57.22   10.25
   4   3  -5   65.07   17.89
   4   3  -5   60.78   10.94
   4   3  -4  443.06   46.30
   4   3  -4  429.90   26.84
  -4  -3   3  956.55   39.30
   4   3  -3  952.57   63.82
  -4  -3   3  976.07   30.27
   4   3  -3  979.55   39.33
   4   3  -2    0.36    3.72
   4   3  -2    5.77    2.03
  -4  -3   2    7.99    3.85
   4   3  -2    2.31    4.31
   4   3  -1  849.77   28.16
   4   3  -1  905.51   59.10
   4   3  -1  866.15   49.14
  -4  -3   1  877.91   34.34
  -4  -3   0  980.76   38.46
   4   3   0  932.48   52.28
  -4  -3   0  977.20   60.37
   4   3   1    2.28    4.83
  -4  -3  -1    7.21    3.49
  -4  -3  -1   12.56    8.00
  -4  -3  -2  169.39   18.91
  -4  -3  -2  186.86   29.15
   4   3   2  158.30   23.65
  -4  -3  -3  548.46   37.17
   4   3   3  486.22   31.58
  -4  -3  -3  593.53   54.15
  -4  -3  -4   22.13    8.80
  -4  -3  -4   13.86    9.06
  -4  -3  -5    0.08    4.91
  -4  -3  -5    0.30    7.13
  -4  -3  -6  187.10   36.98
  -4  -3  -6  164.31   25.97
  -4  -3  -7    3.33    7.46
   5   3 -13   64.76   20.54
   5   3 -12   66.54   19.35
   5   3 -11  431.65   46.28
   5   3 -10   -1.90    8.93
   5   3 -10    2.03    3.48
   5   3  -9  678.53   70.48
   5   3  -9  709.91   52.25
   5   3  -8   90.26   17.68
   5   3  -8   43.52   17.05
   5   3  -7  711.41   67.36
   5   3  -7  676.40   44.05
   5   3  -6 1057.26   79.76
   5   3  -6  984.55   47.90
   5   3  -5  366.72   45.43
   5   3  -5  332.45   25.33
  -5  -3   5  253.98   14.93
   5   3  -4 3203.69   73.01
   5   3  -4 3322.40  133.30
  -5  -3   3  533.00   26.06
   5   3  -3  527.65   51.79
   5   3  -3  524.57   26.56
   5   3  -2  495.92   48.27
  -5  -3   2  492.59   24.02
   5   3  -2  460.71   38.99
   5   3  -1  651.06   55.32
  -5  -3   1  716.27   30.33
   5   3  -1  661.50   46.40
   5   3  -1  645.04   25.24
   5   3   0   34.26   11.36
   5   3   0   34.29    8.61
  -5  -3   0   34.03    7.08
   5   3   0   44.54   14.99
  -5  -3   0   36.49   13.87
   5   3   1  146.91   23.22
  -5  -3  -1  144.46   16.19
  -5  -3  -1  124.75   25.06
  -5  -3  -2    4.48    3.00
   5   3   2    2.05    4.36
  -5  -3  -2   12.04    9.90
  -5  -3  -3  774.67   45.56
  -5  -3  -3  845.02   69.33
   5   3   3  794.43   58.74
  -5  -3  -4   51.82   13.04
  -5  -3  -4   73.02   21.77
   5   3   4   53.33   16.40
  -5  -3  -5  272.25   43.94
  -5  -3  -6   73.00   23.65
   6   3 -13  116.43   26.98
   6   3 -12    9.89   10.61
   6   3 -11  107.36   23.34
   6   3 -11  146.07   37.81
   6   3 -10  443.91   61.35
   6   3 -10  426.74   43.46
   6   3  -9  140.51   23.75
   6   3  -9  127.39   31.77
   6   3  -8  593.80   65.83
   6   3  -8  536.87   42.61
   6   3  -7    2.72    2.93
   6   3  -7    5.08    6.94
   6   3  -6   63.41   12.36
   6   3  -6   50.90   18.43
   6   3  -5  430.79   28.70
   6   3  -5  488.91   56.55
  -6  -3   4   12.54    4.40
   6   3  -4    5.78    7.05
   6   3  -3  123.77   26.75
   6   3  -2   10.59    5.78
   6   3  -2    9.70    7.47
   6   3  -1 1343.07   87.62
   6   3  -1 1402.81   72.29
   6   3   0   17.31    7.04
   6   3   0   43.77   17.18
   6   3   1   88.75   19.06
   6   3   1   69.17   21.02
  -6  -3  -1  114.49   26.10
   6   3   2  669.04   54.31
  -6  -3  -2  715.01   66.43
   6   3   3   28.42   11.57
  -6  -3  -3   46.40   18.00
   6   3   4  366.24   44.17
  -6  -3  -4  334.53   49.20
  -6  -3  -5   -8.33    9.89
   6   3   5   10.03    6.40
   7   3 -12  -11.59   12.76
   7   3 -12    1.12    6.02
   7   3 -11  379.89   60.21
   7   3 -11  324.16   40.39
   7   3 -10   11.06    7.84
   7   3 -10    5.89    6.87
   7   3  -9   15.05   10.58
   7   3  -9    4.85    5.50
   7   3  -8  565.86   66.80
   7   3  -8  562.75   43.63
   7   3  -7   21.34    7.99
   7   3  -7   23.21   13.79
   7   3  -6  533.81   61.96
   7   3  -6  482.62   33.43
   7   3  -5  242.57   41.50
   7   3  -4   89.37   25.25
   7   3  -3  104.52   27.76
   7   3  -2  484.97   57.05
   7   3  -2  445.61   44.36
   7   3  -1  263.78   42.37
   7   3  -1  259.99   33.59
   7   3   0   22.54   10.20
   7   3   0   14.13    4.70
   7   3   1  560.73   64.23
   7   3   1  525.98   49.56
   7   3   2   30.43   12.53
   7   3   2   22.03   11.21
  -7  -3  -2    9.86    6.78
  -7  -3  -3   23.67   12.80
   7   3   3   20.50   11.17
   8   3 -12  394.43   47.70
   8   3 -11   13.66   13.77
   8   3 -11   17.87   11.43
   8   3 -10  395.63   42.92
   8   3 -10  394.62   61.47
   8   3  -9    0.49    5.80
   8   3  -9   -2.90    4.92
   8   3  -8  122.93   32.43
   8   3  -7  140.83   34.36
   8   3  -6  -22.50   13.87
   8   3  -5  911.91   84.71
   8   3  -4  418.02   57.35
   8   3  -3  738.48   77.34
   8   3  -2  225.69   43.38
   8   3  -1   -2.41    9.74
   8   3   0  350.75   54.78
   8   3   1  -11.54   10.69
   8   3   2  116.21   32.11
   8   3   3   -3.57    7.07
   9   3 -10   46.86   22.36
   9   3  -9  232.32   47.62
   9   3  -8    9.32   10.13
   9   3  -7  182.49   40.99
   9   3  -6  328.28   53.63
   9   3  -5   10.26   10.54
   9   3  -4   61.38   24.03
   9   3  -3  131.25   34.82
   9   3  -2   46.24   23.37
   9   3  -1    8.78   10.25
   9   3   0  105.09   32.36
   9   3   1   27.70   16.71
  10   3  -9  156.84   40.24
  10   3  -8   92.37   31.32
  10   3  -7  708.47   83.70
  10   3  -6   17.05   15.08
  10   3  -5   21.52   14.85
  10   3  -4  108.31   33.35
  10   3  -3   -1.31    6.81
  10   3  -2  140.26   39.46
  10   3  -1   16.72   11.88
 -13   4   4    5.99    9.96
  12  -4   0    1.38    7.60
 -12   4   1  107.48   31.20
  12  -4  -1  117.91   29.10
 -12   4   2   27.92   16.65
  12  -4  -2   11.89    4.53
  12  -4  -3  -11.03    8.47
 -12   4   3    9.64   11.48
  12  -4  -3    0.02    4.34
  12  -4  -4  348.46   43.27
  12  -4  -4  363.66   47.79
  12  -4  -5    1.48    6.49
 -12   4   5   -8.29    9.59
  12  -4  -5   -2.13    5.75
  12  -4  -6   80.25   22.63
  12  -4  -7   37.37   13.75
  12  -4  -7   49.97   17.20
  11  -4   4   50.22   19.46
  11  -4   4   35.96   18.11
  11  -4   3   19.50   12.61
  11  -4   3   43.50   18.12
  11  -4   2   58.20   20.50
  11  -4   2   34.30   14.20
  11  -4   1   82.61   22.39
  11  -4   1   80.53   22.46
  11  -4   0   -0.16    6.12
 -11   4   0  -12.96   11.47
  11  -4   0   -2.52    6.29
 -11   4   1  344.18   53.95
  11  -4  -1  325.89   40.66
  11  -4  -1  373.03   46.43
  11  -4  -2   26.86   10.61
 -11   4   2   17.68   11.70
  11  -4  -2   34.39   14.14
  11  -4  -3  260.94   35.91
  11  -4  -3  269.32   38.60
  11  -4  -4  257.55   35.40
  11  -4  -4  297.90   40.42
  11  -4  -5    4.22    4.68
 -11   4   5   -8.24   10.83
  11  -4  -5    0.71    7.77
  11  -4  -6  287.87   38.35
 -11   4   6   42.92   19.22
  11  -4  -7   35.26   12.27
  11  -4  -7   24.18   11.14
  11  -4  -8  109.66   23.94
  10  -4   6    9.04    9.93
  10  -4   6   27.83   16.36
  10  -4   5   81.17   25.95
  10  -4   5   99.81   28.15
  10  -4   4   76.98   23.91
  10  -4   4   64.11   21.76
  10  -4   3  481.10   56.75
  10  -4   3  426.89   50.66
  10  -4   2    3.11    5.71
  10  -4   2    2.96    6.52
  10  -4   1   72.30   20.40
 -10   4  -1   72.25   23.52
  10  -4   1   55.95   16.73
 -10   4   0  543.17   63.53
  10  -4   0  609.55   56.26
  10  -4   0  572.25   52.96
  10  -4  -1  140.41   25.54
 -10   4   1   72.36   25.00
  10  -4  -1  141.48   25.92
  10  -4  -2  722.35   57.45
  10  -4  -2  671.52   57.68
  10  -4  -3    7.70    4.38
  10  -4  -3    9.16    5.17
  10  -4  -4  302.66   37.71
  10  -4  -4  266.76   35.62
  10  -4  -5   -1.14    4.96
 -10   4   5   -0.30    4.96
  10  -4  -5   -1.99    7.61
 -10   4   6   31.76   16.66
  10  -4  -6   42.89   13.00
  10  -4  -7  377.47   41.27
 -10   4   7  155.76   38.49
  10  -4  -8  114.69   24.04
   9  -4   7   51.88   20.06
   9  -4   6   95.74   28.22
  -9   4  -6  122.66   28.48
   9  -4   6   93.15   24.99
   9  -4   5   -1.08    5.36
   9  -4   5    0.46    7.73
   9  -4   4  114.07   28.11
   9  -4   4   98.02   24.08
   9  -4   3   69.54   19.18
   9  -4   3   69.81   19.65
   9  -4   2    4.34    3.76
  -9   4  -2    5.65   10.01
   9  -4   2    0.68    3.41
   9  -4   1  264.02   36.40
  -9   4  -1  239.42   40.62
   9  -4   1  273.94   35.46
   9  -4   0   74.96   18.00
  -9   4   0   75.97   22.79
   9  -4   0   92.35   20.11
   9  -4  -1    8.71    7.27
  -9   4   1    9.04   10.28
   9  -4  -1    8.25    6.37
   9  -4  -2  236.51   31.40
  -9   4   2  158.55   34.92
   9  -4  -3  308.33   36.36
   9  -4  -3  343.57   36.90
   9  -4  -4   -0.74    4.56
   9  -4  -4   -1.02    4.84
   9  -4  -5  154.90   24.26
  -9   4   5  112.87   30.15
   9  -4  -5  187.58   28.76
  -9   4   6  137.78   33.63
   9  -4  -6  149.11   23.22
  -9   4   7   -0.15    5.97
   9  -4  -8  144.66   26.19
   9  -4  -9   25.67   12.30
   8  -4   8   -6.92    9.04
  -8   4  -7  493.05   55.13
   8  -4   7  415.49   58.92
   8  -4   6  107.84   28.79
  -8   4  -6  119.46   25.83
   8  -4   6   78.97   22.12
  -8   4  -5  227.90   34.34
   8  -4   5  264.19   43.42
  -8   4  -5  251.37   35.07
   8  -4   5  188.87   31.60
   8  -4   4   86.85   23.73
  -8   4  -4  108.93   22.55
   8  -4   4   94.92   21.34
  -8   4  -4   85.23   19.24
   8  -4   3    8.95    6.81
  -8   4  -3    4.39    8.52
   8  -4   3   18.26   11.81
   8  -4   2  589.51   53.56
   8  -4   2  667.20   52.38
  -8   4  -2  685.16   65.81
   8  -4   1    1.38    4.54
   8  -4   1    4.22    5.07
  -8   4  -1   -0.26   10.68
  -8   4   0  420.07   52.31
   8  -4   0  469.88   41.69
   8  -4   0  470.56   43.62
   8  -4  -1   72.61   17.37
   8  -4  -1   71.66   15.92
   8  -4  -1   84.24   12.41
   8  -4  -1   70.43    9.71
   8  -4  -2 1394.11   45.58
   8  -4  -2 1235.34   69.52
   8  -4  -2 1348.34   68.29
   8  -4  -3  163.09   25.38
   8  -4  -3  169.10   17.02
   8  -4  -3  172.85   24.30
  -8   4   3  193.60   37.35
  -8   4   4   40.63   19.43
   8  -4  -4   65.66   15.63
   8  -4  -4   61.99   11.12
   8  -4  -4   54.90   13.15
   8  -4  -5 1368.57   76.36
  -8   4   5 1357.93  102.47
   8  -4  -5 1475.28   57.98
   8  -4  -5 1526.04   69.06
   8  -4  -6  107.87   18.29
   8  -4  -6  124.88   18.44
  -8   4   6  123.19   32.08
   8  -4  -7  501.39   39.51
  -8   4   7  416.34   57.52
   8  -4  -8   85.91   19.99
   8  -4  -8   75.69   16.89
   8  -4  -9    5.56    8.33
   8  -4  -9    3.59    5.23
   8  -4 -10  113.68   23.34
   7  -4   9    9.85   11.99
  -7   4  -9   -0.84    4.51
   7  -4   8   94.59   28.60
  -7   4  -8   87.89   23.59
  -7   4  -8   43.02   16.65
  -7   4  -7   -3.23    6.53
   7  -4   7    9.69   11.01
  -7   4  -7    5.86    8.16
  -7   4  -6  136.64   26.05
  -7   4  -6  180.72   30.92
   7  -4   6  108.62   26.88
  -7   4  -6  140.41   26.15
   7  -4   6  105.55   23.28
  -7   4  -5    0.86    3.22
   7  -4   5    1.85    5.74
  -7   4  -5    1.91    5.69
   7  -4   5    2.64    5.87
  -7   4  -5   -0.49    5.45
  -7   4  -4  371.15   38.65
  -7   4  -4  334.60   35.50
  -7   4  -4  429.88   38.72
   7  -4   4  343.01   38.14
   7  -4   4  369.26   46.36
   7  -4   3   44.32   15.36
  -7   4  -3   64.10   15.28
   7  -4   3   38.27   13.62
  -7   4  -3   24.85   12.00
   7  -4   2  840.45   61.13
  -7   4  -2  746.98   65.18
   7  -4   2  896.08   56.19
   7  -4   1  348.69   18.15
   7  -4   1  342.52   25.16
  -7   4  -1  309.39   43.14
   7  -4   1  386.19   35.96
   7  -4   1  329.12   35.75
   7  -4   0  482.19   27.76
   7  -4   0  525.14   43.53
   7  -4   0  527.36   25.35
   7  -4   0  486.76   39.40
   7  -4  -1 1638.65   76.23
   7  -4  -1 1778.12   53.06
  -7   4   1 1707.78  104.93
   7  -4  -1 1777.92   73.25
   7  -4  -2    0.80    3.96
  -7   4   2   10.60   10.31
   7  -4  -2    3.45    3.46
   7  -4  -2   -2.41    6.99
   7  -4  -3  289.44   32.53
  -7   4   3  298.76   47.08
   7  -4  -3  282.16   22.93
   7  -4  -3  301.34   29.04
   7  -4  -4  164.66   24.99
   7  -4  -4  160.15   18.33
   7  -4  -4  148.50   20.03
  -7   4   4  153.95   33.00
   7  -4  -5   86.21   14.81
   7  -4  -5   73.00   17.59
   7  -4  -5   98.66   15.37
   7  -4  -6  286.41   28.32
   7  -4  -6  286.94   26.45
   7  -4  -7   19.20    7.81
   7  -4  -8  523.53   43.78
   7  -4  -8  601.65   52.18
   7  -4  -9   80.53   20.52
   7  -4  -9   57.95   14.70
   7  -4 -10  130.14   24.92
   6  -4  10   17.85   13.29
  -6   4  -9  154.33   32.02
   6  -4   9  139.84   33.85
   6  -4   8    7.84   11.51
  -6   4  -8   10.44    6.66
  -6   4  -8    6.73    7.06
  -6   4  -7   57.04   17.51
   6  -4   7   50.57   17.50
  -6   4  -7   43.85   15.64
   6  -4   6  132.82   28.82
  -6   4  -6  118.96   22.99
  -6   4  -6  115.16   23.16
  -6   4  -6   79.88   19.92
  -6   4  -5  109.40   22.26
  -6   4  -5  135.74   23.40
   6  -4   5  134.60   26.26
   6  -4   5  147.53   25.01
  -6   4  -5  171.14   24.24
   6  -4   4   90.75   18.68
  -6   4  -4   87.71   18.32
  -6   4  -4   80.37   17.39
   6  -4   4   77.83   10.81
   6  -4   4   69.34   18.49
  -6   4  -4   94.00   16.32
  -6   4  -4   99.08   24.92
  -6   4  -3   17.43    8.77
  -6   4  -3   12.83    7.52
  -6   4  -3    6.23    3.27
   6  -4   3   10.62    6.24
   6  -4   3    9.50    2.79
   6  -4   3    6.74    8.57
  -6   4  -3   10.14    5.08
  -6   4  -2 1934.37   71.15
  -6   4  -2 1832.78   97.77
   6  -4   2 2008.53   78.97
   6  -4   2 1703.60   39.86
   6  -4   2 1864.55   85.54
   6  -4   1   20.64    8.25
   6  -4   1   39.66   11.12
  -6   4  -1   26.63   13.55
   6  -4   0  234.21   19.79
   6  -4   0  247.91   28.47
  -6   4   0  296.39   20.88
  -6   4   0  284.76   41.15
   6  -4   0  262.20   27.13
   6  -4  -1 1653.21   72.29
  -6   4   1 1617.72   99.59
   6  -4  -1 1614.67   64.40
   6  -4  -1 1685.83   53.68
   6  -4  -2    9.13    5.38
   6  -4  -2   11.18    5.23
  -6   4   2    4.44    7.17
   6  -4  -2    6.83    3.80
  -6   4   2   18.79    4.56
   6  -4  -3  613.04   45.38
   6  -4  -3  609.89   34.84
   6  -4  -3  638.01   38.57
   6  -4  -4  248.15   23.55
   6  -4  -4  200.82   26.67
   6  -4  -4  203.50   21.21
   6  -4  -5   72.13   12.28
   6  -4  -5   81.71   14.42
   6  -4  -6  137.83   19.97
   6  -4  -7  315.24   32.24
   6  -4  -8   42.17   13.62
   6  -4  -8   50.56   13.65
   6  -4  -9   -4.32    7.77
   6  -4  -9   -1.80    5.20
   6  -4 -10  231.50   33.79
   6  -4 -10  210.54   34.48
  -5   4 -10   17.15   11.34
  -5   4 -10   12.23   12.05
  -5   4  -9   -0.49    4.78
  -5   4  -9   -3.06    5.96
  -5   4  -8  405.13   48.17
  -5   4  -8  394.62   49.86
  -5   4  -7  175.28   29.75
  -5   4  -7  222.52   35.39
  -5   4  -6 1094.04   74.87
  -5   4  -6 1206.96   72.01
  -5   4  -5    3.22    3.74
   5  -4   5    8.92    8.78
  -5   4  -5   10.21    8.05
  -5   4  -4   11.92    6.02
   5  -4   4    3.35    5.05
   5  -4   4    9.82    7.18
  -5   4  -4    9.22    5.99
   5  -4   4    8.39    2.90
  -5   4  -4   -2.03    4.48
  -5   4  -4   10.77    5.74
  -5   4  -3 3443.64  104.58
  -5   4  -3 3698.11  100.67
   5  -4   3 3337.74  115.01
  -5   4  -3 3468.03   74.30
   5  -4   3 3369.68  100.12
  -5   4  -2  385.20   29.07
  -5   4  -2  311.90   39.43
   5  -4   2  379.64   32.25
   5  -4   2  384.99   21.98
   5  -4   2  383.33   36.61
   5  -4   1 1143.43   60.00
  -5   4  -1 1184.95   45.86
  -5   4  -1 1201.57   78.95
   5  -4   1 1223.44   55.26
  -5   4   0    8.57    3.50
   5  -4   0    5.74    4.47
   5  -4   0    9.74    4.38
   5  -4   0    7.07    5.30
  -5   4   0   -1.43    7.91
   5  -4   0    7.15    2.44
   5  -4  -1 1602.35   67.72
   5  -4  -1 1607.32   53.82
  -5   4   1 1626.35   42.32
   5  -4  -1 1523.25   57.59
   5  -4  -2   65.17   14.05
   5  -4  -2   66.59   11.41
   5  -4  -2   90.45   13.48
   5  -4  -3   29.25   10.45
   5  -4  -3   35.29    8.52
   5  -4  -3   27.62    7.12
   5  -4  -4 1466.90   58.21
   5  -4  -4 1388.89   68.01
   5  -4  -4 1325.87   49.13
   5  -4  -5  784.72   45.66
   5  -4  -5  737.49   35.21
   5  -4  -6 1996.88   76.77
   5  -4  -7    1.34    3.37
   5  -4  -8   -2.86    6.82
   5  -4  -8    0.82    5.64
   5  -4  -9  221.05   31.15
   5  -4  -9  278.36   37.02
   5  -4 -10   -1.17    4.30
   5  -4 -10   -4.00    9.59
  -4   4 -11  -20.97   13.62
  -4   4 -10   26.41   13.77
  -4   4  -9   78.14   23.14
  -4   4  -8   -3.75    6.63
  -4   4  -7  312.43   40.99
  -4   4  -6  151.69   27.40
   4  -4   5   23.28   10.70
  -4   4  -5   23.44   10.14
  -4   4  -5   11.42    4.81
  -4   4  -4  167.64   25.27
   4  -4   4  159.42   10.54
  -4   4  -4  181.06   27.03
   4  -4   4  173.05   25.29
  -4   4  -3 1092.91   57.75
  -4   4  -3 1109.01   35.00
   4  -4   3 1026.13   53.11
   4  -4   3 1037.85   59.50
   4  -4   2    5.55    4.66
  -4   4  -2    9.52    5.96
  -4   4  -2   10.52    4.96
  -4   4  -2    7.03    5.34
   4  -4   2    7.32    3.57
   4  -4   2    8.78    5.60
  -4   4  -1   27.45   14.65
   4  -4   1   15.22    6.74
  -4   4  -1   15.81    4.74
   4  -4   1   15.96    6.41
   4  -4   1   20.62    4.74
   4  -4   0 1718.66   67.40
   4  -4   0 1644.43   55.05
  -4   4   0 1686.78   48.17
   4  -4   0 1647.65   58.71
  -4   4   0 1705.53   46.83
   4  -4  -1  142.19   16.40
   4  -4  -1  149.32   10.16
   4  -4  -1  128.11   15.78
  -4   4   1  134.31   13.49
   4  -4  -1  152.29   20.01
   4  -4  -2  786.40   39.52
   4  -4  -2  796.66   21.57
   4  -4  -2  858.91   48.64
   4  -4  -2  818.28   38.43
   4  -4  -3  542.22   34.33
   4  -4  -3  529.56   29.56
   4  -4  -3  504.57   38.69
   4  -4  -4   96.43   15.52
   4  -4  -4   92.60   11.85
   4  -4  -5  349.40   30.78
   4  -4  -6  152.91   21.63
   4  -4  -7  137.78   22.20
   4  -4  -7  123.48   21.65
   4  -4  -8    1.60    6.42
   4  -4  -8   -2.79    5.53
   4  -4  -9  248.57   33.92
   4  -4  -9  291.84   37.84
   4  -4 -10   22.34   10.85
   4  -4 -10   38.26   13.43
  -3   4 -12   79.01   25.71
  -3   4 -11   25.17   12.64
  -3   4 -10  457.62   54.36
  -3   4  -9   82.82   21.73
  -3   4  -8  215.60   33.20
  -3   4  -7  569.57   52.20
  -3   4  -6   95.38   20.91
  -3   4  -5  676.87   52.26
  -3   4  -5  694.67   48.79
   3  -4   5  730.91   51.32
   3  -4   4    6.28    5.26
  -3   4  -4   12.19    7.56
   3  -4   4    7.97    2.65
  -3   4  -4    1.08    4.04
  -3   4  -3 1900.16   75.30
   3  -4   3 1854.15   74.17
  -3   4  -3 1804.65   81.29
  -3   4  -2  602.37   50.50
  -3   4  -2  640.76   39.89
   3  -4   2  605.97   40.41
   3  -4   1 1321.91   57.15
  -3   4  -1 1308.65   35.73
  -3   4  -1 1342.52   48.74
   3  -4   0  865.02   40.36
   3  -4   0  985.17   47.59
  -3   4   0  900.36   36.39
   3  -4  -1  446.71   32.66
  -3   4   1  367.83   23.99
   3  -4  -1  389.03   27.36
   3  -4  -2 5405.25  116.92
   3  -4  -2 5569.17  107.79
   3  -4  -3  158.47   19.35
   3  -4  -4  667.76   40.79
   3  -4  -5  962.03   52.26
   3  -4  -6  141.40   21.10
   3  -4  -7  117.26   20.84
   3  -4  -7  134.60   22.27
   3  -4  -8   -2.80    6.56
   3  -4  -8   14.71    7.51
   3  -4  -9  336.13   39.86
   3  -4  -9  403.40   44.24
   3  -4 -10    1.73    5.04
  -2   4 -13    3.32    7.77
  -2   4 -12   17.48   12.84
  -2   4 -11  107.30   28.04
  -2   4 -10    2.82    5.38
  -2   4  -9  118.65   25.28
  -2   4  -8    8.66    6.97
  -2   4  -7 1193.83   70.74
  -2   4  -6  325.98   35.88
  -2   4  -5  362.93   36.75
  -2   4  -5  372.42   31.45
  -2   4  -4 3082.13  102.83
  -2   4  -4 3143.69   67.10
   2  -4   4 3160.83   92.36
  -2   4  -3  747.52   30.19
  -2   4  -3  773.82   51.08
   2  -4   3  756.30   43.40
  -2   4  -3  748.20   46.21
   2  -4   2 4656.31  102.71
  -2   4  -2 4608.35  102.68
  -2   4  -2 4889.60   70.05
   2  -4   1    9.83    5.35
  -2   4  -1    4.12    3.38
   2  -4   1    7.85    2.14
   2  -4   1   18.77    6.46
   2  -4   0  497.78   30.77
  -2   4   0  504.33   29.08
   2  -4   0  521.11   32.49
   2  -4  -1 1500.24   56.89
   2  -4  -1 1493.15   54.67
  -2   4   1 1490.43   51.48
   2  -4  -2  213.62   21.27
   2  -4  -2  192.77   21.49
  -2   4   2  214.00   14.21
   2  -4  -3  365.83   29.42
   2  -4  -3  346.53   14.96
   2  -4  -4  162.71   20.48
   2  -4  -4  184.28   14.05
   2  -4  -5 2282.62   81.97
   2  -4  -6   90.70   17.33
   2  -4  -6   76.66   15.92
   2  -4  -7   48.07   14.26
   2  -4  -7   62.62   15.65
   2  -4  -8  268.40   34.65
   2  -4  -8  276.89   34.53
   2  -4  -9   57.12   16.57
   2  -4  -9   40.90   14.10
   2  -4 -10  258.39   38.71
  -1   4 -13    9.66    7.43
  -1   4 -12   64.69   21.72
  -1   4 -11   18.87   10.59
  -1   4 -10   22.38   12.11
  -1   4  -9  115.66   23.86
  -1   4  -8  518.38   46.78
  -1   4  -7  195.90   27.20
  -1   4  -6    8.20    6.63
  -1   4  -6    8.67    4.88
  -1   4  -5 2310.11   75.78
  -1   4  -5 2108.95   65.31
  -1   4  -5 2324.51   88.24
  -1   4  -4  255.66   23.74
   1  -4   4  250.55   23.41
  -1   4  -4  258.81   28.45
  -1   4  -3  108.13   17.36
  -1   4  -3  124.31   15.97
   1  -4   3  100.17   14.52
   1  -4   2 2097.32   62.80
  -1   4  -2 2149.69   67.49
  -1   4  -2 2085.09   54.97
  -1   4  -2 2105.27   43.94
  -1   4  -2 2055.00   68.79
  -1   4  -1   50.55    9.68
   1  -4   1   44.01    9.70
   1  -4   1   51.26    9.50
   1  -4   1   41.72    6.67
   1  -4   0  207.93   19.07
   1  -4   0  202.77   19.91
  -1   4   0  212.91   20.13
  -1   4   0  186.07    8.34
   1  -4  -1 1240.35   49.64
   1  -4  -1 1290.73   51.31
  -1   4   1 1299.89   51.32
   1  -4  -2   28.24    7.63
  -1   4   2   33.04    5.63
   1  -4  -3    4.30    2.46
   1  -4  -3    4.23    4.14
   1  -4  -4  726.80   44.42
   1  -4  -4  752.42   30.96
   1  -4  -5  176.02   23.24
   1  -4  -5  203.46   18.61
   1  -4  -6    4.05    4.08
   1  -4  -6   15.11    7.89
   1  -4  -7  265.33   33.11
   1  -4  -7  270.25   31.44
   1  -4  -8   42.88   13.88
   1  -4  -8   34.14   12.70
   1  -4  -9   24.70   12.16
   1  -4  -9   19.54   11.33
   0   4 -13   80.46   25.03
   0   4 -12    2.29    6.64
   0   4 -11  560.60   56.92
   0   4 -10  328.10   40.37
   0   4  -9 1068.01   68.41
   0   4  -8  215.89   29.14
   0   4  -7  365.23   38.91
   0   4  -7  336.34   34.08
   0   4  -6 2133.22   87.01
   0   4  -6 2157.15   82.53
   0   4  -5  469.46   38.42
   0   4  -5  346.93   22.10
   0   4  -5  461.17   37.45
   0   4  -4 1995.30   76.47
   0  -4   4 1829.73   57.44
   0   4  -4 1807.13   71.63
   0  -4   3   10.29    4.38
   0   4  -3    3.54    2.81
   0   4  -3    2.29    2.73
   0  -4   2 1180.61   40.48
   0   4  -2 1141.13   47.00
   0   4  -2 1180.74   48.24
   0   4  -2 1127.06   51.63
   0   4  -2 1162.02   38.35
   0   4  -1   43.87    9.80
   0  -4   1   47.01    8.04
   0  -4   1   63.99   11.50
   0  -4   1   41.85    8.13
   0   4   0   82.57   13.91
   0   4   0   75.15    7.86
   0  -4   0   82.36   13.21
   0  -4   0   67.14   11.39
   0  -4  -1 5025.10  101.81
   0   4   1 5019.11  106.89
   0  -4  -2 1820.84   64.57
   0  -4  -3 1637.35   45.95
   0  -4  -3 1661.24   64.51
   0  -4  -4  303.80   29.37
   0  -4  -4  301.84   21.89
   0  -4  -5    1.97    2.30
   0  -4  -5    3.19    3.31
   0  -4  -5   -0.69    3.75
   0  -4  -6  483.73   42.28
   0  -4  -6  537.40   41.51
   0  -4  -7    4.31    4.73
   0  -4  -7   -0.87    5.93
   0  -4  -8  194.10   30.24
   0  -4  -8  232.51   31.89
   1   4 -13   34.13   16.79
   1   4 -12  100.58   24.90
   1   4 -11   18.25    9.16
   1   4 -10  136.86   25.97
   1   4  -9  107.80   21.23
   1   4  -8  117.66   25.43
   1   4  -8  117.84   21.08
   1   4  -7   14.19    8.95
   1   4  -7   -2.27    4.42
   1   4  -6  608.57   50.27
   1   4  -6  643.27   43.32
   1   4  -5  265.34   32.19
   1   4  -5  265.42   26.89
   1   4  -4  104.08   18.82
   1   4  -4   99.84   16.48
  -1  -4   4   87.06   11.05
   1   4  -3 2985.08   84.40
   1   4  -3 3056.96   92.83
  -1  -4   3 3113.63   58.93
   1   4  -2  572.23   31.92
  -1  -4   2  604.91   23.12
   1   4  -2  578.11   37.90
   1   4  -2  572.41   38.18
   1   4  -2  616.09   23.47
   1   4  -1  688.37   25.98
  -1  -4   1  650.20   36.18
  -1  -4   1  647.59   37.18
   1   4  -1  655.25   40.03
   1   4   0 2046.71   70.72
  -1  -4   0 2156.21   70.97
  -1  -4   0 2054.94   64.01
  -1  -4  -1    6.40    4.02
  -1  -4  -1    8.13    5.97
   1   4   1    4.82    4.80
  -1  -4  -2  377.12   29.96
  -1  -4  -3  128.59   18.39
  -1  -4  -4  581.72   41.79
  -1  -4  -4  559.65   35.78
  -1  -4  -5    6.33    4.98
  -1  -4  -5    8.07    5.23
  -1  -4  -5    3.05    4.82
  -1  -4  -6  248.09   30.79
  -1  -4  -6  277.90   30.14
  -1  -4  -7   55.75   15.92
  -1  -4  -8   11.72    8.76
   2   4 -13  335.56   47.11
   2   4 -12   11.09    4.44
   2   4 -11   17.60    9.83
   2   4 -10  449.99   46.03
   2   4  -9   12.22   10.76
   2   4  -9   14.02    7.89
   2   4  -8  490.10   52.19
   2   4  -8  528.21   43.33
   2   4  -7   18.71   11.31
   2   4  -7   14.28    7.74
   2   4  -6 1620.71   88.10
   2   4  -6 1460.84   63.95
   2   4  -5    4.14    7.23
   2   4  -5    2.53    2.66
   2   4  -4 1704.96   81.84
   2   4  -4 1584.41   63.06
  -2  -4   4 1545.32   38.57
   2   4  -3 1310.55   65.54
   2   4  -3 1305.75   53.67
  -2  -4   2  922.45   44.15
   2   4  -2 1011.51   39.17
   2   4  -2  897.29   52.93
   2   4  -2  918.88   50.31
   2   4  -2  874.34   21.74
   2   4  -1 4102.03   57.74
  -2  -4   1 4167.70  105.96
  -2  -4   1 4053.50   89.67
   2   4  -1 3944.08  103.07
   2   4   0  108.31   17.27
  -2  -4   0  113.20   15.40
  -2  -4   0  106.57   17.85
  -2  -4  -1   80.05   13.44
   2   4   1   87.29   15.94
  -2  -4  -1  113.10   19.53
  -2  -4  -2  289.57   26.39
  -2  -4  -2  317.79   34.37
   2   4   2  312.25   31.69
  -2  -4  -3  204.48   23.71
  -2  -4  -3  202.32   19.10
  -2  -4  -3  210.19   30.01
  -2  -4  -4  153.85   22.03
  -2  -4  -4  146.71   18.11
  -2  -4  -5   30.37   10.99
  -2  -4  -6  333.43   36.93
  -2  -4  -7   -2.01    5.65
  -2  -4  -8  159.59   29.44
   3   4 -13    2.88    5.53
   3   4 -12  191.14   33.51
   3   4 -11   66.16   18.97
   3   4 -10  816.72   77.59
   3   4 -10  817.19   61.09
   3   4  -9    9.92    7.75
   3   4  -9    7.50    8.09
   3   4  -8    8.60    6.95
   3   4  -8   23.67   12.94
   3   4  -7 2060.73  107.39
   3   4  -7 1959.96   76.94
   3   4  -6  789.28   46.17
   3   4  -6  917.38   68.85
   3   4  -5 2630.51  112.37
   3   4  -5 2444.73   77.37
  -3  -4   5 2498.90   45.79
   3   4  -4   74.63   17.73
   3   4  -4   97.79   15.37
   3   4  -3   23.45   10.13
   3   4  -3   17.65    7.68
   3   4  -3   26.56    7.25
  -3  -4   3   31.14    7.62
  -3  -4   2  378.23   27.43
  -3  -4   2  361.10   22.28
   3   4  -2  371.66   37.39
   3   4  -2  370.39   33.79
  -3  -4   1  120.06   20.29
   3   4  -1  117.82    9.12
  -3  -4   1  101.71   14.04
   3   4  -1  110.02   18.36
  -3  -4   1  108.55   12.34
  -3  -4   0 1155.52   48.68
  -3  -4   0 1239.17   66.48
   3   4   0 1206.60   62.28
  -3  -4   0 1090.79   39.52
  -3  -4  -1  431.80   31.15
   3   4   1  419.52   37.28
  -3  -4  -1  441.00   20.45
  -3  -4  -1  470.05   43.00
  -3  -4  -2 2038.75   71.64
  -3  -4  -2 2020.86   93.23
   3   4   2 1894.96   82.90
   3   4   3    5.90    6.32
  -3  -4  -3    0.85    4.41
  -3  -4  -3    4.89    3.71
  -3  -4  -4   32.77   10.60
  -3  -4  -4   41.54   16.14
  -3  -4  -5  665.19   50.30
  -3  -4  -5  689.27   65.91
  -3  -4  -6   78.47   19.05
  -3  -4  -6  144.34   33.06
  -3  -4  -7  179.08   29.94
   4   4 -13   54.44   19.67
   4   4 -12    2.10    4.59
   4   4 -11  101.10   23.10
   4   4 -11  147.70   35.30
   4   4 -10  119.63   23.72
   4   4 -10  121.99   30.96
   4   4  -9   12.24    8.29
   4   4  -9   -0.69    5.95
   4   4  -8  291.51   31.98
   4   4  -8  311.42   45.71
   4   4  -7   49.66   12.21
   4   4  -7  100.65   25.33
   4   4  -6   33.02   14.54
   4   4  -6   33.80   10.09
   4   4  -5 1119.13   51.81
   4   4  -5 1146.57   78.06
   4   4  -4  227.94   34.19
   4   4  -4  224.17   22.45
   4   4  -3   12.86    4.46
  -4  -4   3   19.56    4.78
  -4  -4   3   18.23    6.57
   4   4  -3    9.79    4.22
   4   4  -3   12.25    5.72
  -4  -4   2  988.67   42.76
   4   4  -2  963.98   65.66
  -4  -4   2  843.05   23.79
   4   4  -2 1002.64   58.91
   4   4  -1  562.29   50.73
  -4  -4   1  566.11   32.79
   4   4  -1  597.54   45.64
  -4  -4   0    5.13    3.58
  -4  -4   0    9.60    4.49
   4   4   0   10.18    6.74
  -4  -4  -1  333.32   27.78
  -4  -4  -1  297.59   37.06
   4   4   1  356.62   36.68
   4   4   2   47.74   13.97
  -4  -4  -2   47.42   10.89
  -4  -4  -2   70.78   18.94
  -4  -4  -3    7.68    6.37
  -4  -4  -3   11.58    9.20
   4   4   3   11.51    9.01
  -4  -4  -4  217.92   27.66
   4   4   4  215.38   33.60
  -4  -4  -4  214.48   36.06
   4   4   5   33.49   15.59
  -4  -4  -5   21.17    9.90
  -4  -4  -6   -0.46    7.64
   5   4 -13   60.84   20.91
   5   4 -12  123.95   27.32
   5   4 -11  195.94   42.33
   5   4 -11  217.46   33.58
   5   4 -10   23.17   11.16
   5   4 -10   19.97   13.87
   5   4  -9 1238.62   98.52
   5   4  -9 1179.81   68.90
   5   4  -8   60.06   14.35
   5   4  -8   40.72   17.83
   5   4  -7  405.35   53.60
   5   4  -7  400.56   34.61
   5   4  -6   22.07   12.09
   5   4  -6   21.41    7.93
   5   4  -5  724.30   65.66
   5   4  -5  632.72   38.94
  -5  -4   4  114.04   15.88
   5   4  -4  141.78   16.96
   5   4  -4  125.16   26.95
  -5  -4   3  177.00   17.91
   5   4  -3  143.35   27.64
   5   4  -2 2327.41  110.32
  -5  -4   2 2439.13   65.00
   5   4  -2 2367.13   97.06
  -5  -4   1  207.88   19.71
   5   4  -1  184.49   27.40
   5   4  -1  190.71   32.17
  -5  -4   0  573.14   34.54
   5   4   0  551.37   55.85
  -5  -4   0  598.69   55.66
   5   4   0  592.35   49.48
  -5  -4  -1  364.70   29.45
  -5  -4  -1  330.83   42.51
   5   4   1  349.42   39.23
   5   4   2   14.17    7.14
  -5  -4  -2    6.13    2.84
  -5  -4  -2   18.26   10.76
   5   4   3  451.77   48.01
  -5  -4  -3  412.24   51.22
  -5  -4  -4   44.44   18.42
   5   4   4   25.05   11.86
  -5  -4  -5  103.05   28.35
   5   4   5  110.09   25.76
   6   4 -13   81.88   23.55
   6   4 -12   10.62   10.17
   6   4 -12    6.12    6.88
   6   4 -11  185.18   31.16
   6   4 -11  190.85   44.42
   6   4 -10   21.34   11.17
   6   4 -10    4.42    7.63
   6   4  -9  132.06   23.27
   6   4  -9  135.35   33.32
   6   4  -8  181.36   38.64
   6   4  -8  148.79   22.84
   6   4  -7  156.32   21.57
   6   4  -7  161.75   34.41
   6   4  -6 1746.03  109.99
   6   4  -6 1577.99   63.79
   6   4  -5   25.93   12.79
   6   4  -4   26.47   12.87
   6   4  -3  609.30   62.33
   6   4  -2   26.11   11.84
   6   4  -2   17.31   10.40
   6   4  -1  321.59   46.00
   6   4  -1  383.06   41.46
   6   4   0    4.95    5.07
   6   4   0    5.27    6.02
   6   4   1  338.66   40.84
   6   4   1  272.02   43.89
  -6  -4  -1  334.13   46.70
  -6  -4  -2   18.12   12.16
   6   4   2    6.43    6.05
   6   4   3  173.56   31.34
  -6  -4  -3  149.32   32.93
   6   4   4  118.77   27.14
   7   4 -12    9.99    7.84
   7   4 -12    3.32    5.46
   7   4 -11  141.26   27.49
   7   4 -11  205.56   45.62
   7   4 -10   12.52    9.46
   7   4 -10    9.34   12.79
   7   4  -9  413.71   41.13
   7   4  -9  385.75   58.97
   7   4  -8    3.05    3.57
   7   4  -8    0.09    6.85
   7   4  -7  219.19   41.70
   7   4  -6  816.66   79.13
   7   4  -5   38.65   17.84
   7   4  -4  322.52   50.11
   7   4  -3   61.52   21.94
   7   4  -2   60.41   20.79
   7   4  -2   58.29   17.87
   7   4  -1  153.19   28.15
   7   4  -1  168.01   35.84
   7   4   0  117.79   24.82
   7   4   0  115.77   29.95
   7   4   1   -1.58    9.59
   7   4   1   10.70    6.15
   7   4   2   46.35   17.12
   7   4   2   24.42   14.34
  -7  -4  -2   23.46   13.68
   7   4   3  273.15   41.53
   8   4 -12   28.99   13.31
   8   4 -11  -14.06   14.57
   8   4 -10  802.44   89.53
   8   4  -9  258.97   49.00
   8   4  -8  380.54   59.53
   8   4  -7   93.24   29.10
   8   4  -6   87.21   27.11
   8   4  -5  163.91   37.70
   8   4  -4    0.89    5.27
   8   4  -3  607.55   74.35
   8   4  -2   88.40   27.46
   8   4  -1  491.22   66.89
   8   4   0    3.54    7.76
   8   4   1  -16.08   13.27
   9   4  -9    0.37   11.89
   9   4  -8   52.85   23.80
   9   4  -7  232.64   47.79
   9   4  -6   13.95   10.59
   9   4  -5   69.63   26.39
   9   4  -4  166.76   40.35
   9   4  -3    8.35    8.28
   9   4  -2  179.61   43.89
   9   4  -1   12.66   12.77
  10   4  -7  196.06   44.95
  10   4  -6   11.62   13.73
  10   4  -5  474.66   71.47
  10   4  -4   13.13   14.69
  12  -5   3   16.95    9.35
  12  -5   2   16.65   11.69
  12  -5   1  108.29   27.99
 -12   5   0   31.75   21.49
  12  -5   0   38.21   15.65
  12  -5   0   23.84   13.42
  12  -5  -1   57.95   18.74
 -12   5   1   42.61   21.80
  12  -5  -1   51.43   18.18
  12  -5  -2    3.37    5.33
  12  -5  -2  -15.91   10.43
 -12   5   2   12.86   12.75
  12  -5  -3  183.49   32.70
  12  -5  -3  230.17   38.96
  12  -5  -4   20.88   11.75
 -12   5   4   -6.87   10.23
 -12   5   5    0.48    5.90
  12  -5  -5    7.15    4.91
  12  -5  -5   -7.03    7.33
  12  -5  -6  254.26   39.00
  11  -5   4  239.41   43.59
  11  -5   4  209.83   40.35
  11  -5   3   26.45   15.98
  11  -5   3   16.65   10.64
  11  -5   2   76.83   23.09
  11  -5   2   67.03   20.56
  11  -5   1  193.12   34.74
 -11   5  -1  181.21   42.18
  11  -5   1  187.07   34.36
  11  -5   0    1.94    7.27
 -11   5   0   21.87   14.67
  11  -5   0   11.77    5.95
  11  -5  -1   78.71   22.49
  11  -5  -1  109.53   24.64
 -11   5   1   58.13   24.19
  11  -5  -2   26.80   10.19
  11  -5  -2   20.80   10.11
  11  -5  -3  348.16   43.71
  11  -5  -3  346.61   44.57
 -11   5   4    1.45    9.87
  11  -5  -4   -1.75    7.26
  11  -5  -4    5.59    8.41
  11  -5  -5  154.12   29.51
  11  -5  -5  166.39   29.59
 -11   5   6   20.51   14.94
  11  -5  -6   67.19   18.50
  10  -5   6   16.71   14.55
  10  -5   6    8.24    6.63
  10  -5   5  107.24   27.71
  10  -5   5  122.52   33.15
  10  -5   4    3.69    6.81
  10  -5   4    3.47    5.64
  10  -5   3   92.95   25.14
  10  -5   3  126.99   27.88
  10  -5   2    6.54    9.33
 -10   5  -2  -12.80   12.05
  10  -5   2   15.33    8.98
  10  -5   1  798.29   67.73
 -10   5  -1  720.52   78.99
  10  -5   1  750.01   63.98
  10  -5   0   39.97   12.92
 -10   5   0   75.57   25.99
  10  -5   0   52.04   16.63
  10  -5  -1   43.81   15.15
 -10   5   1   62.18   24.09
  10  -5  -1   73.72   19.19
  10  -5  -2  391.67   44.56
  10  -5  -2  410.38   45.21
  10  -5  -3  129.42   25.42
  10  -5  -3  129.43   25.68
  10  -5  -4  705.27   61.00
  10  -5  -4  729.33   58.44
  10  -5  -5    5.04    5.16
  10  -5  -5    5.99    4.31
 -10   5   6   92.27   29.95
  10  -5  -6  123.38   23.59
 -10   5   7   51.07   21.94
   9  -5   7    9.95   10.90
  -9   5  -7  -19.01   12.00
   9  -5   6   23.75   14.55
  -9   5  -6   27.57   13.47
   9  -5   5  129.32   27.86
  -9   5  -5  123.37   26.33
   9  -5   5   97.39   27.01
   9  -5   4   12.32    9.56
   9  -5   4    3.24    4.52
   9  -5   3   -2.37    5.28
  -9   5  -3    2.19    7.85
   9  -5   3    9.22    5.19
   9  -5   2  338.37   43.37
  -9   5  -2  306.32   49.56
   9  -5   2  327.07   40.44
   9  -5   1   -5.79    7.23
  -9   5  -1   -8.76    9.87
   9  -5   1   13.22    9.33
   9  -5   0    6.19    7.22
   9  -5   0    0.92    5.13
  -9   5   0   12.00    9.68
   9  -5  -1  174.96   28.71
   9  -5  -1  214.25   30.75
   9  -5  -2   98.95   20.46
   9  -5  -2   76.68   19.11
  -9   5   2   61.17   26.44
   9  -5  -3   31.35   11.66
  -9   5   3   46.98   21.37
   9  -5  -3   57.03   15.63
   9  -5  -4  287.40   37.51
  -9   5   4  176.77   39.91
   9  -5  -4  229.96   30.24
   9  -5  -5   67.77   16.16
  -9   5   5   25.96   15.56
   9  -5  -5   55.68   16.95
  -9   5   6   15.90    9.99
  -9   5   7  219.58   46.25
   9  -5  -8   13.52    9.40
  -9   5   8    1.58    6.66
  -8   5  -8   19.43   11.93
   8  -5   8   52.15   20.64
  -8   5  -7   28.43   13.44
   8  -5   7   33.43   16.34
  -8   5  -6    3.17    7.49
   8  -5   6    0.96    8.29
  -8   5  -5  584.38   52.80
  -8   5  -5  616.28   56.28
   8  -5   5  576.57   55.58
   8  -5   5  598.54   64.73
  -8   5  -4  362.84   52.75
  -8   5  -4  481.11   46.46
   8  -5   4  373.92   44.06
   8  -5   4  371.81   48.27
  -8   5  -3  944.62   61.69
   8  -5   3  842.13   62.20
  -8   5  -3  758.46   74.95
   8  -5   3  812.18   67.43
  -8   5  -2  110.71   28.24
   8  -5   2  186.64   28.35
   8  -5   2  198.11   31.45
   8  -5   1   13.50    8.08
   8  -5   1    4.74    4.01
   8  -5   1   -0.54    5.30
   8  -5   0 1012.45   45.75
   8  -5   0  941.26   64.64
   8  -5   0 1020.86   63.42
   8  -5  -1   25.65    8.02
   8  -5  -1   20.91    6.54
  -8   5   1   12.72   12.63
   8  -5  -1   16.64    8.08
   8  -5  -2  741.44   39.91
   8  -5  -2  621.41   52.11
  -8   5   2  586.48   68.98
   8  -5  -2  702.62   50.44
  -8   5   3   26.72   18.29
   8  -5  -3   20.38   10.24
   8  -5  -3   39.32   11.26
   8  -5  -3   14.07    5.55
   8  -5  -4  490.76   47.74
   8  -5  -4  538.28   37.13
  -8   5   4  528.05   67.36
   8  -5  -4  482.49   40.35
   8  -5  -5    9.38    4.15
   8  -5  -5    3.71    5.46
   8  -5  -5   11.36    7.08
  -8   5   5    3.82    7.00
   8  -5  -6    8.19    4.61
   8  -5  -7  854.91   56.00
   8  -5  -8   66.87   18.66
   8  -5  -8   52.79   14.69
   8  -5  -9  228.82   33.10
   7  -5   9  149.70   37.14
  -7   5  -9  217.40   39.48
  -7   5  -8   40.40   17.52
   7  -5   8   19.84   14.23
  -7   5  -7   61.04   19.99
  -7   5  -7  107.36   24.97
   7  -5   7   75.76   22.82
  -7   5  -6  262.57   37.92
  -7   5  -6  395.85   44.95
   7  -5   6  367.37   49.43
  -7   5  -5   46.41   14.43
   7  -5   5   18.07   10.72
  -7   5  -5   35.96   15.56
   7  -5   5   54.65   16.17
  -7   5  -5   32.66   12.76
  -7   5  -4  322.22   37.22
  -7   5  -4  387.88   39.52
   7  -5   4  317.64   42.35
   7  -5   4  299.38   36.18
  -7   5  -4  345.38   47.57
  -7   5  -3   31.34   15.47
   7  -5   3   29.23   13.29
  -7   5  -3   26.22   10.30
   7  -5   3   34.97   12.87
   7  -5   2  481.16   46.72
   7  -5   2  485.07   42.69
   7  -5   1   10.86    5.38
   7  -5   1    9.05    5.61
   7  -5   1   11.52    7.07
  -7   5  -1    7.80   11.21
   7  -5   0  638.58   37.49
   7  -5   0  626.36   50.57
  -7   5   0  540.09   63.13
   7  -5   0  629.54   46.53
   7  -5  -1  269.00   24.21
  -7   5   1  280.39   45.70
   7  -5  -1  262.17   29.13
   7  -5  -1  264.44   32.41
  -7   5   2   42.64   17.35
   7  -5  -2   33.52   11.98
  -7   5   2   41.00    7.29
   7  -5  -2   47.04   10.53
   7  -5  -2   42.35   11.70
   7  -5  -3 2201.43   96.27
   7  -5  -3 2352.93   76.18
  -7   5   3 2087.09  127.21
  -7   5   3 2399.25   63.15
   7  -5  -3 2264.83   82.25
   7  -5  -4  231.72   31.51
   7  -5  -4  195.12   23.59
   7  -5  -4  222.18   24.59
   7  -5  -5  254.85   27.75
   7  -5  -5  249.66   25.90
   7  -5  -6  255.38   29.21
   7  -5  -7   15.69    5.39
   7  -5  -8  134.67   26.59
   7  -5  -8  132.52   23.80
   7  -5  -9   -0.92    6.95
   7  -5  -9    6.25    5.74
  -6   5 -10   75.66   24.43
   6  -5  10   71.33   24.71
   6  -5   9   59.91   22.15
  -6   5  -9   61.93   20.06
  -6   5  -9   28.64   14.27
  -6   5  -8   52.66   17.44
   6  -5   8   36.65   15.17
  -6   5  -8   13.08   11.80
  -6   5  -7  509.07   55.37
  -6   5  -7  699.69   60.99
   6  -5   7  644.35   64.19
  -6   5  -6   -5.96    6.60
  -6   5  -6    7.51    5.49
   6  -5   6    4.12    7.47
  -6   5  -6    4.38    6.06
  -6   5  -5    0.47    3.67
  -6   5  -5   -3.03    5.01
  -6   5  -5    1.26    4.72
  -6   5  -5    2.55    3.33
   6  -5   5   -3.33    7.81
  -6   5  -4  338.42   37.48
  -6   5  -4  396.61   37.92
  -6   5  -4  375.44   27.31
  -6   5  -4  288.22   42.14
   6  -5   4  317.90   35.23
   6  -5   4  366.33   42.60
   6  -5   3  142.64   25.16
  -6   5  -3  115.75   18.63
  -6   5  -3   93.77   19.00
  -6   5  -3   66.78   21.20
   6  -5   3   89.13   17.91
   6  -5   2  198.80   28.59
   6  -5   2  173.95   13.76
  -6   5  -2  175.67   20.82
  -6   5  -2  170.62   35.50
   6  -5   2  183.65   24.83
   6  -5   1   26.73    9.09
   6  -5   1   28.39    8.30
  -6   5  -1   35.29   16.24
   6  -5   1   38.40   10.99
   6  -5   0  548.86   35.12
   6  -5   0  573.74   46.62
  -6   5   0  585.58   32.74
  -6   5   0  628.05   65.42
   6  -5   0  526.23   21.23
   6  -5   0  568.06   41.02
   6  -5  -1   47.50   12.77
   6  -5  -1   48.15   10.90
  -6   5   1   34.24   14.63
   6  -5  -1   42.50   10.83
  -6   5   1   58.97    9.39
   6  -5  -2  790.03   54.39
   6  -5  -2  857.83   45.44
   6  -5  -2  818.47   46.91
  -6   5   2  833.48   37.03
   6  -5  -3  578.00   48.32
   6  -5  -3  563.12   38.15
   6  -5  -3  490.68   35.45
   6  -5  -4  163.49   21.57
   6  -5  -4  145.35   18.62
   6  -5  -4  150.50   25.10
   6  -5  -5  560.32   41.67
   6  -5  -6  149.39   22.75
   6  -5  -7   59.85   15.25
   6  -5  -8   63.74   17.98
   6  -5  -8   78.99   18.86
   6  -5  -9   28.75   12.37
   6  -5  -9   52.54   16.21
  -5   5 -11  143.25   34.33
  -5   5 -10   11.24    9.81
  -5   5  -9   11.84   10.69
   5  -5   9    1.96    9.58
   5  -5   8  212.41   36.63
  -5   5  -8  178.14   34.08
   5  -5   7   20.00    9.86
  -5   5  -7   20.15   13.34
  -5   5  -6  479.05   50.25
  -5   5  -6  508.86   54.51
   5  -5   6  554.13   53.23
  -5   5  -5  255.15   34.73
  -5   5  -5  273.66   39.61
   5  -5   5  305.46   37.76
  -5   5  -4 2013.23   90.36
  -5   5  -4 1799.28   76.07
  -5   5  -4 1968.65   53.85
   5  -5   4 1934.53   92.33
  -5   5  -3    6.63    4.54
  -5   5  -3    9.95    5.38
   5  -5   3    3.08    4.36
   5  -5   3    1.94    3.66
  -5   5  -3   10.91   11.20
   5  -5   2   62.43   15.49
  -5   5  -2   60.85   11.31
  -5   5  -2   65.35   21.40
   5  -5   2   56.38   13.45
   5  -5   1 2804.25   83.42
   5  -5   1 3031.32  104.03
  -5   5  -1 3018.48   68.27
  -5   5  -1 2623.80   44.04
  -5   5  -1 2956.83  137.25
   5  -5   1 2856.24   90.34
   5  -5   0 1175.89   63.10
  -5   5   0 1166.67   44.83
   5  -5   0 1221.92   53.12
   5  -5   0 1274.33   58.54
  -5   5   0 1227.16   45.93
   5  -5  -1 2315.01   89.64
   5  -5  -1 2311.63   73.71
  -5   5   1 2345.62   63.45
   5  -5  -1 2355.30   77.22
   5  -5  -2  104.45   16.25
  -5   5   2  124.50   15.19
   5  -5  -2   86.88   17.37
   5  -5  -2  107.99   16.10
   5  -5  -3  254.14   26.21
   5  -5  -3  242.11   29.94
   5  -5  -3  279.32   25.28
   5  -5  -4  143.99   20.78
   5  -5  -4  144.10   17.16
   5  -5  -5   62.22   14.37
   5  -5  -6  755.54   52.01
   5  -5  -7  195.60   28.49
   5  -5  -8  703.12   56.56
   5  -5  -8  654.91   56.37
   5  -5  -9    9.18    6.55
   5  -5  -9   -6.37    6.77
  -4   5 -12    2.15    8.27
  -4   5 -11   26.35   15.66
  -4   5 -10   16.11   11.51
  -4   5  -9   11.01    8.03
  -4   5  -8  316.59   43.22
   4  -5   7  132.50   25.67
  -4   5  -7  118.20   26.42
   4  -5   6   22.32   11.00
  -4   5  -6    3.80    7.31
  -4   5  -6    7.35    4.73
  -4   5  -5  736.31   57.59
   4  -5   5  665.80   23.91
  -4   5  -5  632.56   54.29
  -4   5  -4   27.59   11.03
   4  -5   4   52.76   14.67
  -4   5  -4   40.07   14.78
  -4   5  -3  191.22   25.88
  -4   5  -3  128.03   26.90
   4  -5   3  188.21   26.17
   4  -5   2  537.92   42.77
  -4   5  -2  526.57   30.32
  -4   5  -2  609.32   57.38
   4  -5   1  163.07   20.44
  -4   5  -1  155.79   13.07
  -4   5  -1  161.91   19.00
   4  -5   1  157.55   22.69
   4  -5   0   13.10    6.80
   4  -5   0    9.68    4.52
  -4   5   0   13.41    5.03
   4  -5  -1  543.72   41.42
   4  -5  -1  539.44   35.88
  -4   5   1  500.93   30.77
   4  -5  -2  806.07   45.66
   4  -5  -2  824.99   52.54
  -4   5   2  832.26   41.93
   4  -5  -3  326.53   33.68
   4  -5  -3  340.55   30.71
   4  -5  -4  704.71   45.94
   4  -5  -5  274.86   30.13
   4  -5  -6    6.82    5.56
   4  -5  -7  394.05   40.42
   4  -5  -7  393.75   41.26
   4  -5  -8    1.66    4.54
   4  -5  -8   11.40    7.09
   4  -5  -9   70.37   19.88
   4  -5  -9   60.54   18.13
  -3   5 -12    9.70   10.18
  -3   5 -11   47.33   20.16
  -3   5 -10   24.46   13.71
  -3   5  -9   53.40   17.97
  -3   5  -8 1182.03   80.58
  -3   5  -7  340.26   41.27
  -3   5  -6  524.94   49.01
  -3   5  -6  434.41   42.58
   3  -5   6  509.39   44.38
   3  -5   5  325.85   19.79
  -3   5  -5  330.27   36.34
  -3   5  -5  392.74   40.86
   3  -5   5  422.91   38.43
  -3   5  -4  208.22   28.24
  -3   5  -4  128.51   22.94
   3  -5   4  220.12   26.95
  -3   5  -3 2426.36   89.20
   3  -5   3 2289.57   85.79
   3  -5   2   13.86    5.53
  -3   5  -2   12.98    5.79
  -3   5  -2   11.03    3.21
   3  -5   1  562.93   37.90
   3  -5   1  540.33   39.72
  -3   5  -1  556.27   20.77
  -3   5  -1  616.59   36.10
   3  -5   0   22.58    8.28
   3  -5   0   21.86    7.31
  -3   5   0   32.21    8.24
   3  -5  -1 2081.22   71.40
  -3   5   1 2150.47   66.78
   3  -5  -1 2140.86   78.33
   3  -5  -2  280.02   29.46
   3  -5  -2  318.02   29.08
   3  -5  -3   66.02   14.15
   3  -5  -4 1884.63   76.22
   3  -5  -5   97.60   18.42
   3  -5  -6  428.03   40.26
   3  -5  -7  195.07   29.04
   3  -5  -7  173.14   27.19
   3  -5  -8   -3.36    6.21
   3  -5  -8    6.51    6.00
   3  -5  -9   75.98   20.29
  -2   5 -13   15.12   12.44
  -2   5 -12  215.99   40.25
  -2   5 -11   21.12   13.15
  -2   5 -10    6.95    5.53
  -2   5  -9  457.76   50.80
  -2   5  -8   30.98   13.75
  -2   5  -7  745.00   58.57
   2  -5   6    4.41    4.46
  -2   5  -6    9.42    6.41
  -2   5  -6   14.93    9.08
  -2   5  -5 1110.50   48.65
  -2   5  -5 1113.89   67.24
   2  -5   5 1189.60   59.71
   2  -5   4    1.17    3.52
  -2   5  -4   -0.09    5.28
  -2   5  -4    0.21    2.65
  -2   5  -4   11.05    7.81
  -2   5  -3 1591.68   69.65
  -2   5  -3 1683.54   55.19
  -2   5  -3 1644.55   36.00
   2  -5   3 1610.08   66.51
   2  -5   2 1463.25   62.20
  -2   5  -2 1400.76   60.83
  -2   5  -2 1311.74   43.71
  -2   5  -2 1370.70   59.93
   2  -5   1 1397.09   59.98
   2  -5   1 1440.99   59.09
   2  -5   1 1532.00   38.44
  -2   5  -1 1380.19   55.99
   2  -5   0 5985.78  121.63
   2  -5   0 6016.77  122.76
  -2   5   0 5953.10  115.55
   2  -5  -1   75.16   13.70
   2  -5  -1   65.82   12.84
  -2   5   1   65.65   12.50
   2  -5  -2  192.28   22.53
   2  -5  -3  632.85   42.84
   2  -5  -4   -1.77    5.63
   2  -5  -5  475.48   40.90
   2  -5  -6   13.44    6.95
   2  -5  -6    0.98    2.53
   2  -5  -7  482.58   46.56
   2  -5  -7  422.85   41.93
   2  -5  -8   16.68    8.17
   2  -5  -8   20.56    9.10
   2  -5  -9  113.99   24.56
  -1   5 -13   19.41   13.30
  -1   5 -12  160.85   33.99
  -1   5 -11   32.81   13.93
  -1   5 -10  227.92   35.85
  -1   5  -9   82.80   20.98
  -1   5  -8   45.17   14.39
  -1   5  -7  417.69   39.72
  -1   5  -7  380.46   40.32
  -1   5  -6  145.93   22.07
  -1   5  -6  125.52   17.34
   1  -5   6  150.83   20.41
  -1   5  -6  149.82   25.08
   1  -5   5    9.63    5.38
  -1   5  -5   10.21    6.59
  -1   5  -5    6.67    4.38
  -1   5  -5    7.54    4.67
  -1   5  -4  179.49   24.92
  -1   5  -4  224.61   24.48
   1  -5   4  198.52   22.33
  -1   5  -3 1563.97   57.96
  -1   5  -3 1598.71   68.42
  -1   5  -3 1585.94   46.19
   1  -5   3 1517.43   59.81
  -1   5  -2  265.81   25.96
   1  -5   2  256.58   23.55
  -1   5  -2  255.11   26.07
   1  -5   1  324.18   28.82
   1  -5   1  291.27   24.85
  -1   5  -1  332.71   28.61
   1  -5   1  315.32   21.94
   1  -5   0 1408.47   60.07
   1  -5   0 1517.70   57.82
  -1   5   0 1499.47   61.29
  -1   5   0 1432.96   28.87
   1  -5   0 1542.12   53.49
   1  -5  -1   10.60    4.80
  -1   5   1   10.10    6.03
   1  -5  -2  301.03   29.15
  -1   5   2  276.76   19.58
   1  -5  -3  381.55   33.62
   1  -5  -4    8.43    6.50
   1  -5  -5  132.98   22.03
   1  -5  -6  308.51   35.43
   1  -5  -6  299.66   33.12
   1  -5  -7   13.78    8.70
   1  -5  -7   14.71    7.82
   1  -5  -8   25.70   11.53
   1  -5  -8   30.79   13.29
   0   5 -13   16.02   12.50
   0   5 -12   -4.93   10.84
   0   5 -11  110.01   26.58
   0   5 -10   15.30    8.72
   0   5  -9  884.36   65.41
   0   5  -8  286.04   37.43
   0   5  -8  254.62   33.66
   0   5  -7 1529.42   81.25
   0   5  -7 1541.24   78.15
   0   5  -6   42.62    8.78
   0   5  -6   29.07   10.90
   0   5  -6   24.44   10.59
   0  -5   5   46.53   10.48
   0   5  -5   52.41   13.46
   0   5  -5   45.39   13.33
   0   5  -5   29.35   10.44
   0   5  -4 6014.12  139.93
   0  -5   4 6063.39  113.54
   0  -5   3 1195.84   47.90
   0   5  -3 1128.08   55.94
   0   5  -3 1154.86   54.51
   0  -5   2 1232.22   45.69
   0   5  -2 1243.99   53.30
   0   5  -2 1288.28   60.45
   0  -5   2 1268.62   60.01
   0  -5   1  168.11   21.03
   0  -5   1  144.08   15.90
   0  -5   1  151.17   17.83
   0   5  -1  148.92   20.22
   0   5   0  494.95   22.94
   0  -5   0  436.73   33.39
   0  -5   0  465.84   32.77
   0   5   0  455.73   35.63
   0  -5  -1  218.19   24.56
   0  -5  -1  247.35   25.55
   0   5   1  235.89   26.06
   0  -5  -2   15.67    6.14
   0   5   2   27.44    8.67
   0  -5  -3 1273.27   62.43
   0  -5  -4  315.56   32.89
   0  -5  -5 1342.97   71.37
   0  -5  -5 1255.88   62.76
   0  -5  -6   19.90    7.86
   0  -5  -6   17.89    7.64
   0  -5  -7    1.46    5.31
   0  -5  -8  299.36   40.30
   1   5 -13  131.40   31.30
   1   5 -12   -4.69    6.93
   1   5 -11   76.21   21.53
   1   5 -10  144.13   26.82
   1   5  -9   17.13   10.95
   1   5  -9   12.05    7.94
   1   5  -8  958.45   72.16
   1   5  -8  879.29   60.50
   1   5  -7    2.17    5.83
   1   5  -7    3.88    4.25
   1   5  -6   29.96   11.72
   1   5  -6   18.92    4.89
   1   5  -6   19.14    7.71
  -1  -5   6   29.35    8.32
   1   5  -5  398.87   40.77
  -1  -5   5  400.46   26.65
   1   5  -5  370.32   35.28
   1   5  -4  908.07   57.55
   1   5  -4  909.54   52.73
  -1  -5   4  868.77   37.35
   1   5  -3   21.54    7.89
  -1  -5   3   34.95    6.76
   1   5  -3   40.02   12.08
   1   5  -3   46.78   12.11
   1   5  -2    9.17    3.33
   1   5  -2    9.12    6.31
  -1  -5   2    6.37    6.00
  -1  -5   2   10.71    3.67
   1   5  -2   10.94    6.52
  -1  -5   1 2217.95   75.50
  -1  -5   1 2344.82   78.40
   1   5  -1 2185.87   81.68
  -1  -5   0  154.06   19.92
  -1  -5   0  169.56   22.22
   1   5   0  171.66   23.04
  -1  -5  -1  804.09   46.47
  -1  -5  -1  846.95   52.16
   1   5   1  838.17   51.21
  -1  -5  -2  454.72   36.45
   1   5   2  493.13   41.53
  -1  -5  -2  466.85   41.39
  -1  -5  -3   93.69   17.59
  -1  -5  -4  776.93   52.50
  -1  -5  -4  704.64   43.19
  -1  -5  -5   63.63   15.83
  -1  -5  -6   58.18   16.16
  -1  -5  -7   13.70    8.25
   2   5 -13   98.18   27.31
   2   5 -12   21.95   12.68
   2   5 -11  505.65   53.30
   2   5 -10   61.11   22.04
   2   5 -10   38.65   13.65
   2   5  -9  159.40   32.41
   2   5  -9  156.80   26.68
   2   5  -8  780.18   68.52
   2   5  -8  637.75   50.37
   2   5  -7  151.26   23.07
   2   5  -7  174.64   30.96
   2   5  -6  620.30   45.92
  -2  -5   6  702.60   33.37
   2   5  -5  246.30   33.50
   2   5  -5  160.44   22.43
  -2  -5   5  207.76   16.88
   2   5  -4  595.16   41.67
  -2  -5   4  583.62   21.64
   2   5  -4  673.24   52.54
  -2  -5   3    1.43    5.09
   2   5  -3    9.29    6.13
   2   5  -3    8.52    4.95
   2   5  -3   -0.12    5.79
  -2  -5   2  949.99   50.51
   2   5  -2  885.20   54.72
   2   5  -2  955.60   28.84
   2   5  -2 1003.39   60.67
  -2  -5   1  534.18   36.82
  -2  -5   1  561.92   43.17
   2   5  -1  540.30   42.48
  -2  -5   0   48.49   11.58
   2   5   0   43.57   12.18
   2   5   1 1769.18   79.17
  -2  -5  -1 1741.62   69.01
  -2  -5  -1 1821.43   82.20
  -2  -5  -2   34.89   10.32
  -2  -5  -2   56.89   15.42
   2   5   2   40.86   13.14
  -2  -5  -3  130.60   20.78
  -2  -5  -3  105.29   22.32
   2   5   3  132.32   23.94
  -2  -5  -4  486.88   42.33
  -2  -5  -4  582.33   56.43
   2   5   4  543.15   51.76
  -2  -5  -5   20.29    9.37
  -2  -5  -5   29.43   14.66
  -2  -5  -6   29.86   12.27
  -2  -5  -6   72.30   21.45
  -2  -5  -7   42.87   14.32
   3   5 -13    1.56    7.24
   3   5 -12  232.42   38.49
   3   5 -11   66.32   24.61
   3   5 -11   35.92   12.56
   3   5 -10  637.04   70.15
   3   5 -10  608.81   54.55
   3   5  -9   -7.26   10.83
   3   5  -9    0.67    5.39
   3   5  -8  865.48   74.83
   3   5  -8  716.34   53.14
   3   5  -7   68.98   20.74
   3   5  -7   72.15   16.01
   3   5  -6  176.62   24.16
   3   5  -6  189.62   32.98
  -3  -5   6  195.68   15.01
   3   5  -5 2497.40  112.61
   3   5  -5 2390.22   85.55
   3   5  -4  918.17   49.74
   3   5  -4  930.01   65.88
  -3  -5   3 2613.56   86.27
   3   5  -3 2606.92  106.56
   3   5  -3 2677.71   72.19
   3   5  -3 2634.15  102.27
  -3  -5   2   12.78    6.55
   3   5  -2   19.68   10.63
   3   5  -2   24.84   10.47
  -3  -5   1  235.46   24.19
  -3  -5   1  262.70   32.27
   3   5  -1  208.41   27.79
  -3  -5   0 1251.26   57.03
  -3  -5   0 1280.58   72.72
   3   5   0 1258.39   69.53
  -3  -5  -1    3.31    3.37
  -3  -5  -1   -1.43    5.52
   3   5   1   -5.68    8.46
  -3  -5  -2  265.28   29.06
  -3  -5  -2  214.94   32.59
   3   5   2  225.25   31.52
  -3  -5  -3    9.93    6.68
  -3  -5  -3    9.02    7.49
   3   5   3   16.09    9.97
  -3  -5  -4  673.52   51.27
  -3  -5  -4  812.20   70.21
   3   5   4  710.31   61.75
  -3  -5  -5   33.12   12.08
  -3  -5  -5   51.81   19.47
   3   5   5   24.44   12.67
  -3  -5  -6    7.59    7.56
   4   5 -13   35.82   17.58
   4   5 -12   64.15   24.84
   4   5 -12   38.87   15.94
   4   5 -11   -5.43   11.56
   4   5 -11    1.93    5.36
   4   5 -10  116.47   31.16
   4   5 -10  102.81   22.72
   4   5  -9  479.85   59.75
   4   5  -9  397.05   41.49
   4   5  -8   16.43   14.88
   4   5  -8    7.51    6.38
   4   5  -7   67.78   21.86
   4   5  -7   61.61   15.10
   4   5  -6  822.31   70.48
   4   5  -6  701.47   47.34
   4   5  -5   39.62   15.37
   4   5  -5   29.23    9.49
   4   5  -4  124.79   16.89
  -4  -5   4   98.63   17.12
   4   5  -4  106.31   22.99
  -4  -5   3  251.20   25.44
   4   5  -3  284.63   38.06
   4   5  -3  302.73   36.26
  -4  -5   2    8.75    4.83
   4   5  -2   13.28    6.91
   4   5  -2   16.09   10.85
   4   5  -1   13.20    6.95
  -4  -5   1    9.41    3.82
   4   5  -1   11.92    6.90
  -4  -5   0  557.06   38.18
  -4  -5   0  562.54   52.55
   4   5   0  548.84   48.97
  -4  -5  -1   14.57    6.60
  -4  -5  -1   17.17    9.89
   4   5   1    7.90    7.52
  -4  -5  -2    2.56    2.53
  -4  -5  -2    5.56    6.51
   4   5   2    8.30    7.74
   4   5   3  440.75   48.71
  -4  -5  -3  477.38   41.49
  -4  -5  -3  485.87   54.55
  -4  -5  -4   -2.36    6.17
  -4  -5  -4    8.52    9.39
   4   5   4   11.11    6.37
   4   5   5   25.88   13.55
   5   5 -13    6.43    8.46
   5   5 -12  411.01   64.38
   5   5 -12  337.36   46.16
   5   5 -11  106.24   30.91
   5   5 -11   66.30   19.35
   5   5 -10  591.14   71.55
   5   5 -10  511.79   49.99
   5   5  -9  202.04   40.09
   5   5  -9  187.10   28.43
   5   5  -8  274.91   32.17
   5   5  -8  262.64   45.00
   5   5  -7 1293.69   66.14
   5   5  -7 1554.49  103.63
   5   5  -6  136.72   30.62
   5   5  -6   85.17   16.07
  -5  -5   5  418.27   36.66
   5   5  -5  412.02   33.15
   5   5  -5  376.22   49.18
  -5  -5   4   42.19   10.39
   5   5  -4   58.72   18.60
   5   5  -3   88.42   20.78
  -5  -5   3   67.01   12.75
   5   5  -3  126.15   27.79
  -5  -5   2  179.50   20.14
   5   5  -2  177.84   32.62
   5   5  -2  179.22   29.10
  -5  -5   1   47.10   10.58
   5   5  -1   32.41   14.96
   5   5  -1   49.31   15.46
   5   5   0  988.53   80.54
   5   5   0  920.87   67.34
   5   5   1  213.74   33.11
  -5  -5  -1  274.20   42.00
  -5  -5  -2  601.60   61.93
   5   5   2  550.11   55.12
   5   5   3  183.33   32.99
  -5  -5  -3  189.28   37.02
   5   5   4    7.45    7.46
   6   5 -13   49.65   18.93
   6   5 -12   62.43   24.16
   6   5 -12   54.45   18.18
   6   5 -11  236.41   48.31
   6   5 -11  179.80   31.78
   6   5 -10   16.28    8.82
   6   5 -10    5.80    4.93
   6   5  -9   89.45   27.44
   6   5  -9   55.32   16.26
   6   5  -8   34.76   16.97
   6   5  -8   14.92    7.08
   6   5  -7  172.48   35.78
   6   5  -6  375.74   52.48
   6   5  -5    1.42    5.72
   6   5  -4 1177.29   92.93
   6   5  -3   30.52   13.14
   6   5  -2  188.54   36.63
   6   5  -2  171.49   30.65
   6   5  -1  681.27   70.79
   6   5  -1  758.61   64.21
   6   5   0   54.63   17.35
   6   5   0   51.22   20.86
   6   5   1  205.60   39.99
   6   5   1  218.16   35.37
  -6  -5  -2   40.97   18.93
   6   5   2   23.05   11.96
   6   5   3   99.00   26.13
   7   5 -12   -9.82    9.08
   7   5 -11  380.95   62.16
   7   5 -11  281.72   39.95
   7   5 -10    5.78   10.11
   7   5  -9  126.22   33.81
   7   5  -8   30.56   15.92
   7   5  -7  241.33   44.35
   7   5  -6   30.81   15.23
   7   5  -5  266.10   46.51
   7   5  -4  160.14   36.98
   7   5  -3   14.60    8.41
   7   5  -2  660.72   73.91
   7   5  -2  676.98   64.64
   7   5  -1   42.68   18.59
   7   5  -1   15.83   10.92
   7   5   0   -0.58    7.13
   7   5   0    5.83    6.82
   7   5   1   69.06   21.71
   7   5   1   95.87   29.94
   7   5   2   12.03    9.88
   8   5 -10   29.91   19.78
   8   5  -9   18.84   14.01
   8   5  -8  607.91   75.45
   8   5  -7  188.83   41.55
   8   5  -6  683.11   79.28
   8   5  -5   17.73   12.00
   8   5  -4    2.31   12.39
   8   5  -3  283.89   52.63
   8   5  -2    5.45    9.16
   8   5  -1  187.97   42.94
   9   5  -8   -4.64    6.80
   9   5  -7   55.63   23.93
   9   5  -6   87.65   29.89
   9   5  -5   67.99   26.44
   9   5  -4  -12.13   12.91
  12  -6   2  115.17   29.81
  12  -6   1   26.45   15.58
  12  -6   0    3.83    6.25
 -12   6   0   15.44   16.10
  12  -6   0   -3.47   10.56
  12  -6  -1  157.33   32.34
 -12   6   1   71.53   30.94
  12  -6  -1  194.34   36.44
  12  -6  -2    4.11    6.55
 -12   6   2   11.37   14.32
  12  -6  -2   -7.42    6.57
  12  -6  -3   99.18   25.49
 -12   6   3   88.50   32.74
  12  -6  -3   87.11   23.96
 -12   6   4    7.11   11.00
  12  -6  -4   18.34   12.69
  12  -6  -5  141.67   29.50
 -12   6   5   26.48   17.66
  11  -6   4    7.57   12.36
  11  -6   4   24.75   15.39
  11  -6   3  -16.12   11.71
 -11   6  -3   -7.67   14.97
  11  -6   3   13.18    7.98
 -11   6  -2  273.80   55.09
  11  -6   2  313.43   47.01
  11  -6   2  347.29   48.12
  11  -6   1    0.99    4.70
 -11   6  -1   -6.49   10.23
  11  -6   0  176.73   32.60
 -11   6   0  114.45   34.66
  11  -6   0  186.58   34.08
  11  -6  -1  141.15   29.21
  11  -6  -1  153.92   30.70
 -11   6   2    3.41   13.22
  11  -6  -2    9.68    8.73
  11  -6  -2   -1.54    5.40
  11  -6  -3  156.68   30.76
  11  -6  -3  189.60   33.28
  11  -6  -4   31.02   14.20
  11  -6  -4   35.27   14.68
 -11   6   4  -10.81   12.26
  11  -6  -5   49.14   19.20
 -11   6   5   32.43   19.40
  11  -6  -5   39.38   14.70
 -11   6   6   27.71   17.89
 -11   6   7   33.78   20.08
  10  -6   6  325.02   53.95
  10  -6   5   15.22   12.14
  10  -6   5    4.68    6.22
 -10   6  -4   42.38   20.31
  10  -6   4   21.78   13.77
  10  -6   4   14.81   11.96
  10  -6   3  166.81   34.95
  10  -6   3  174.80   33.37
 -10   6  -3  152.29   40.09
  10  -6   2   -8.05    9.57
 -10   6  -2    2.62    7.82
  10  -6   2    4.85    6.74
  10  -6   1  328.57   44.79
 -10   6  -1  261.09   52.31
  10  -6   1  366.05   45.23
  10  -6   0    2.60    6.15
 -10   6   0  -12.80   13.03
  10  -6   0   17.72   11.72
  10  -6  -1  356.34   44.64
  10  -6  -1  372.79   44.14
  10  -6  -2   20.71   11.08
 -10   6   2    2.66   13.48
  10  -6  -2    9.90    7.86
  10  -6  -3  288.22   40.38
  10  -6  -3  292.76   38.09
 -10   6   4  240.36   50.32
  10  -6  -4  316.67   42.88
  10  -6  -4  327.10   39.83
  10  -6  -5  130.10   24.61
  10  -6  -5  173.98   32.46
 -10   6   5  109.50   34.66
 -10   6   6  445.55   68.25
 -10   6   7  -11.44   12.04
   9  -6   7   35.39   18.58
  -9   6  -7   51.07   16.78
   9  -6   6  124.51   31.84
  -9   6  -6   83.00   21.43
   9  -6   5  -16.43   11.80
  -9   6  -5   -9.61    8.16
   9  -6   5   -3.47    9.29
   9  -6   4   35.74   14.82
  -9   6  -4   38.13   19.00
   9  -6   4   47.14   16.83
   9  -6   3   75.04   20.09
  -9   6  -3   74.98   27.01
   9  -6   3  104.22   23.94
   9  -6   2    0.90    9.40
  -9   6  -2    1.72   10.97
   9  -6   2    4.16    6.93
   9  -6   1  131.76   25.52
   9  -6   1  136.11   27.47
  -9   6  -1   72.74   25.66
   9  -6   0  254.07   36.72
   9  -6   0  249.67   34.73
   9  -6  -1   17.94    8.11
   9  -6  -1   12.88    8.43
  -9   6   1   15.76   13.52
   9  -6  -2  177.43   31.15
  -9   6   2  145.01   36.93
   9  -6  -2  224.04   31.93
   9  -6  -3  269.93   38.06
  -9   6   3  279.09   51.66
   9  -6  -3  301.63   36.07
  -9   6   4   13.62    8.85
   9  -6  -4   20.15   10.77
   9  -6  -4    9.08    3.16
   9  -6  -4   11.08    7.16
  -9   6   5   28.61   19.37
   9  -6  -5   46.99   17.38
   9  -6  -5   61.07   14.29
   9  -6  -6  102.12   19.41
  -9   6   6   83.06   28.78
  -9   6   7   39.96   20.66
   8  -6   8   97.48   28.68
  -8   6  -8  103.19   26.26
   8  -6   7   30.60   17.83
  -8   6  -7   33.28   14.62
  -8   6  -7   25.63   12.73
   8  -6   6   63.01   21.68
  -8   6  -6   39.53   15.94
  -8   6  -6   25.07   12.10
   8  -6   5   90.17   25.46
  -8   6  -5  115.81   24.39
  -8   6  -5   68.11   26.30
   8  -6   4    0.18    6.55
  -8   6  -4    0.58    4.07
   8  -6   4    0.54    6.72
  -8   6  -4   17.17   12.54
  -8   6  -3  567.27   47.20
  -8   6  -3  479.31   63.55
   8  -6   3  563.10   51.70
   8  -6   3  487.01   53.24
   8  -6   2  135.89   20.55
  -8   6  -2   63.17   24.44
   8  -6   2  148.93   29.06
   8  -6   2  158.53   27.51
   8  -6   1 1014.21   71.56
   8  -6   1  952.17   51.40
   8  -6   1 1020.32   66.71
   8  -6   0   -2.90    6.73
   8  -6   0    1.81    2.97
  -8   6   0    0.94    6.43
   8  -6   0    5.84    5.56
  -8   6   1   37.00   19.67
   8  -6  -1   43.00   11.44
   8  -6  -1   35.24   12.88
   8  -6  -1   22.84    9.84
   8  -6  -2 1647.12   67.78
   8  -6  -2 1480.93   86.32
  -8   6   2 1353.05  110.17
   8  -6  -2 1555.20   77.10
   8  -6  -3   79.70   20.09
   8  -6  -3   73.22   14.85
  -8   6   3   78.24   26.11
   8  -6  -3   55.07   14.15
   8  -6  -4  338.88   42.00
   8  -6  -4  378.87   34.82
  -8   6   4  279.75   50.41
   8  -6  -4  385.58   36.89
   8  -6  -5   30.40   10.54
   8  -6  -6  197.65   27.71
   8  -6  -7   61.28   16.35
   8  -6  -8    7.81    6.45
  -7   6  -9   12.08    6.92
   7  -6   9   -2.98   10.77
  -7   6  -9    9.90    9.28
  -7   6  -8   -3.52    6.42
   7  -6   8    6.57   10.43
  -7   6  -8   -3.24    6.18
  -7   6  -7  528.07   54.80
  -7   6  -7  463.20   54.84
   7  -6   7  382.66   51.59
  -7   6  -6   25.87   12.22
  -7   6  -6   56.24   17.56
   7  -6   6   54.87   19.75
  -7   6  -6   40.74   18.83
   7  -6   5  305.37   43.46
  -7   6  -5  342.52   39.24
  -7   6  -5  298.88   39.92
  -7   6  -5  239.55   42.93
   7  -6   4  158.78   30.99
  -7   6  -4  205.38   29.04
  -7   6  -4  131.98   31.27
   7  -6   4  146.32   25.83
   7  -6   3   27.62   12.16
  -7   6  -3    5.50    9.45
  -7   6  -3   47.27   12.24
   7  -6   3   36.97   13.11
   7  -6   2 1350.62   65.23
   7  -6   2 1328.94   80.92
   7  -6   2 1431.13   75.82
   7  -6   1    3.64    4.25
   7  -6   1    3.64    3.42
  -7   6  -1   -0.03    7.95
   7  -6   1   -0.19    3.65
   7  -6   0  173.03   22.19
   7  -6   0  158.48   26.79
  -7   6   0  163.45   36.96
   7  -6   0  199.48   27.35
  -7   6   1   29.63   16.09
   7  -6  -1   43.20   13.90
   7  -6  -1   53.56   12.67
   7  -6  -1   53.20   14.10
   7  -6  -2  663.41   55.61
   7  -6  -2  740.66   46.25
  -7   6   2  585.84   68.92
   7  -6  -2  643.98   46.55
   7  -6  -3  184.80   30.44
   7  -6  -3  152.06   22.02
   7  -6  -3  166.88   22.75
  -7   6   3  166.95   19.63
   7  -6  -4    6.20    5.20
   7  -6  -4   -0.14    3.81
   7  -6  -4   12.37    6.31
  -7   6   4   10.50    5.60
   7  -6  -5 1017.56   60.65
   7  -6  -6   85.30   19.48
   7  -6  -7  396.84   42.35
   7  -6  -8  123.28   24.91
   7  -6  -8   89.86   22.89
  -6   6 -10    6.37    8.28
  -6   6 -10   15.16   11.78
   6  -6  10   18.74   12.01
   6  -6   9   18.79   12.93
  -6   6  -9    2.60    5.93
  -6   6  -9   18.22   12.03
   6  -6   8  120.34   28.61
  -6   6  -8  121.55   27.44
  -6   6  -8   71.24   21.89
  -6   6  -7   61.24   20.55
  -6   6  -7   62.05   18.37
   6  -6   7   82.54   22.12
   6  -6   6   -6.74   10.12
  -6   6  -6   11.01    8.67
  -6   6  -6    1.76    6.09
  -6   6  -6   -4.65    4.96
  -6   6  -5  647.40   58.21
  -6   6  -5  802.58   57.39
   6  -6   5  718.90   61.81
   6  -6   4   19.48    8.69
  -6   6  -4   20.07   10.00
  -6   6  -4    3.60   11.24
  -6   6  -4   39.11   12.64
   6  -6   3  148.53   26.04
  -6   6  -3  138.05   20.28
  -6   6  -3  106.37   29.35
   6  -6   2  981.58   66.59
  -6   6  -2 1020.83   47.91
   6  -6   2  904.78   57.57
  -6   6  -1    3.99    5.88
   6  -6   1    8.65    7.00
   6  -6   1    0.93    3.13
   6  -6   1   -0.14    5.43
   6  -6   0  118.75   22.35
  -6   6   0   64.05   22.63
   6  -6   0   99.14   16.93
   6  -6   0  133.27   20.87
  -6   6   0  139.63   17.66
   6  -6  -1  292.66   29.00
   6  -6  -1  284.69   34.70
   6  -6  -1  282.19   30.00
  -6   6   1  287.67   24.47
   6  -6  -2  220.85   31.24
   6  -6  -2  232.08   26.70
   6  -6  -2  237.05   26.66
  -6   6   2  252.06   23.81
   6  -6  -3    8.20    4.21
   6  -6  -3   -2.49    3.14
   6  -6  -3    6.05    4.74
  -6   6   3    7.69    5.20
   6  -6  -4  324.51   33.37
   6  -6  -4  282.74   36.93
   6  -6  -5   82.75   17.70
   6  -6  -6    1.22    4.38
   6  -6  -7  314.26   37.85
   6  -6  -8   10.32    8.69
   6  -6  -8   -1.76    4.25
  -5   6 -12   15.22   12.77
   5  -6  11  237.28   45.70
  -5   6 -11  163.63   38.10
   5  -6  10  137.53   32.78
  -5   6 -10   96.43   27.80
   5  -6   9  460.80   55.73
  -5   6  -9  370.39   52.03
   5  -6   8    0.11    6.55
  -5   6  -8   -1.77   10.59
   5  -6   7   44.62   16.93
  -5   6  -7    9.52    7.16
  -5   6  -7   36.83   16.64
  -5   6  -6  535.32   54.68
  -5   6  -6  493.90   53.92
   5  -6   6  665.82   57.82
   5  -6   5  119.47   24.07
  -5   6  -5   84.48   19.71
  -5   6  -5   57.32   18.35
  -5   6  -5  113.23   12.94
  -5   6  -4  652.69   53.78
  -5   6  -4  616.17   44.38
   5  -6   4  673.21   55.26
   5  -6   3   19.17   10.24
  -5   6  -3   13.50    7.56
  -5   6  -3   15.86    6.71
  -5   6  -3    2.06    5.11
   5  -6   2 1908.94   89.31
  -5   6  -2 2092.73   62.07
  -5   6  -2 2211.32  119.95
   5  -6   1  204.60   28.61
   5  -6   1  155.13   21.26
  -5   6  -1  162.77   33.47
  -5   6  -1  171.11   15.15
   5  -6   0  150.63   20.92
   5  -6   0  124.45   22.17
  -5   6   0  164.66   19.35
   5  -6  -1 1966.22   88.44
   5  -6  -1 1949.98   75.89
  -5   6   1 1952.57   67.37
   5  -6  -2  704.01   54.18
   5  -6  -2  768.58   48.63
  -5   6   2  694.67   40.96
   5  -6  -3 1589.32   71.87
   5  -6  -3 1650.61   83.84
  -5   6   3 1667.75   67.44
   5  -6  -4   52.53   13.72
   5  -6  -5   37.75   12.23
   5  -6  -6  341.85   38.24
   5  -6  -7   20.23   10.13
   5  -6  -8  154.04   29.12
   5  -6  -8  156.22   28.56
  -4   6 -12   42.41   20.27
  -4   6 -11   -3.57    9.62
   4  -6  11   -8.18    9.60
  -4   6 -10   23.08   13.07
   4  -6  10   39.63   14.83
   4  -6   9   59.53   18.46
  -4   6  -9   52.41   20.19
   4  -6   8   30.39   12.01
  -4   6  -8   22.99   13.32
  -4   6  -7   13.60    9.72
   4  -6   7   30.77   13.11
  -4   6  -7   17.24    7.32
  -4   6  -6  390.67   45.52
   4  -6   6  403.95   42.44
  -4   6  -5   -2.52    5.11
  -4   6  -5   -3.08    3.95
   4  -6   4    3.99    5.16
  -4   6  -4    0.43    6.43
  -4   6  -4    9.26    6.47
   4  -6   3 1632.10   79.01
  -4   6  -3 1780.74   81.96
   4  -6   2  103.87   19.91
  -4   6  -2  140.96   14.79
  -4   6  -2  122.30   10.71
   4  -6   1  245.02   30.31
  -4   6  -1  200.07   12.70
   4  -6   1  205.63   25.20
  -4   6  -1  232.36   24.29
   4  -6   0  481.78   37.88
   4  -6   0  516.21   43.27
  -4   6   0  528.37   35.36
   4  -6  -1  119.50   19.25
   4  -6  -1  126.30   22.19
  -4   6   1  124.07   17.71
   4  -6  -2  394.76   39.31
   4  -6  -2  421.59   36.26
  -4   6   2  386.83   32.15
   4  -6  -3  362.38   35.17
   4  -6  -4  336.15   34.79
   4  -6  -5   14.54    7.00
   4  -6  -6  828.66   60.11
   4  -6  -7   19.21   10.11
   4  -6  -7   29.34   12.55
   4  -6  -8   -3.92    5.75
   4  -6  -8    6.35    7.14
  -3   6 -12    2.38    6.86
  -3   6 -11   42.46   17.63
  -3   6 -10    8.53    9.13
  -3   6  -9    5.09    6.46
   3  -6   9   15.29    9.59
  -3   6  -8  178.76   32.73
   3  -6   8  224.81   33.31
   3  -6   7   -2.49    4.66
  -3   6  -7  -12.20    7.69
  -3   6  -7   -2.00    6.60
  -3   6  -6  971.21   68.90
   3  -6   6 1043.86   63.56
  -3   6  -5  615.76   52.95
  -3   6  -5  591.82   30.43
   3  -6   5  676.27   49.63
  -3   6  -4 1852.17   86.45
  -3   6  -4 1788.51   52.25
  -3   6  -4 1954.44   98.48
  -3   6  -4 1618.30   33.14
   3  -6   4 1799.92   80.80
   3  -6   3  750.17   51.00
  -3   6  -3  790.54   53.19
  -3   6  -3  801.13   36.06
   3  -6   2  242.86   28.68
  -3   6  -2  221.28   25.31
   3  -6   2  223.46   27.32
   3  -6   1 2614.16   89.61
   3  -6   1 2759.55   94.73
   3  -6   1 2838.01   49.69
  -3   6  -1 2688.15   84.54
   3  -6   0   15.67    7.70
   3  -6   0    9.08    5.54
   3  -6   0   20.53    5.61
  -3   6   0   21.41    7.77
   3  -6  -1  754.95   51.13
   3  -6  -1  687.16   45.69
  -3   6   1  684.93   43.21
   3  -6  -2  163.91   24.65
   3  -6  -2  194.58   25.00
  -3   6   2  205.26   24.27
   3  -6  -3  294.86   31.88
   3  -6  -4   25.49   10.12
   3  -6  -5   29.82   11.70
   3  -6  -6  545.96   49.73
   3  -6  -7  110.93   22.78
   3  -6  -7  118.40   23.93
   3  -6  -8  127.44   25.93
  -2   6 -13   21.34   12.60
  -2   6 -12   91.27   28.47
  -2   6 -11   24.14   14.79
  -2   6 -10  547.74   60.03
  -2   6  -9   58.07   18.67
   2  -6   8  394.51   40.59
  -2   6  -8  281.98   39.82
  -2   6  -7 1078.99   73.31
   2  -6   7 1109.22   63.81
  -2   6  -6  276.80   36.24
  -2   6  -6  248.27   26.48
   2  -6   6  284.75   30.68
  -2   6  -5 1685.55   84.45
  -2   6  -5 1792.35   68.25
  -2   6  -5 1754.09   84.64
   2  -6   5 1931.90   78.51
  -2   6  -4   50.45   14.75
   2  -6   4   29.96    9.52
  -2   6  -4   52.33   10.78
  -2   6  -4   46.28    7.49
   2  -6   3  680.22   46.59
  -2   6  -3  745.98   50.11
  -2   6  -3  758.05   39.06
   2  -6   2   12.56    8.41
   2  -6   2    3.08    3.97
  -2   6  -2    8.73    5.98
   2  -6   1  365.01   34.24
   2  -6   1  367.51   32.75
   2  -6   1  430.07   24.84
  -2   6  -1  372.56   32.72
   2  -6   0  550.11   40.53
   2  -6   0  465.75   37.98
   2  -6   0  549.16   31.47
  -2   6   0  439.57   35.49
   2  -6  -1  210.15   25.97
   2  -6  -1  193.05   24.53
  -2   6   1  207.62   24.86
   2  -6  -2 2951.43   97.90
  -2   6   2 2853.07   94.47
   2  -6  -3  346.69   34.78
   2  -6  -4  237.02   30.23
   2  -6  -5  715.10   54.84
   2  -6  -6   22.34    9.96
   2  -6  -6   28.15   11.17
   2  -6  -7  243.18   35.32
   2  -6  -7  224.53   32.33
   2  -6  -8   -0.25    3.38
  -1   6 -13   54.47   22.52
  -1   6 -12    3.30    9.45
  -1   6 -11   73.39   22.90
  -1   6 -10   53.06   17.54
  -1   6  -9   -2.70    7.33
  -1   6  -8  730.41   56.68
  -1   6  -8  620.19   55.64
   1  -6   7    1.32    2.71
  -1   6  -7    4.16    5.31
  -1   6  -7    2.51    2.68
  -1   6  -7    3.97    5.03
   1  -6   6   48.66   12.38
  -1   6  -6   39.59   12.41
  -1   6  -6   18.34    8.15
  -1   6  -6   25.15   10.75
  -1   6  -5  782.76   56.87
  -1   6  -5  916.97   57.88
  -1   6  -5  907.85   54.34
   1  -6   5  903.02   50.78
   1  -6   4  165.21   21.58
  -1   6  -4  157.89   24.23
  -1   6  -4  198.05   24.23
  -1   6  -3   22.17    8.59
   1  -6   3   19.33    7.34
  -1   6  -3   23.91    8.50
   1  -6   2  467.53   40.29
   1  -6   2  372.26   30.85
  -1   6  -2  412.16   36.33
   1  -6   1  259.32   29.15
   1  -6   1  281.84   27.12
   1  -6   1  304.16   24.69
  -1   6  -1  283.50   29.71
   1  -6   0    1.55    3.31
   1  -6   0    2.11    4.62
   1  -6   0    4.61    3.22
  -1   6   0    9.02    6.59
   1  -6  -1  907.04   54.39
  -1   6   1  822.91   50.77
   1  -6  -1  899.93   49.24
   1  -6  -2  187.72   25.45
  -1   6   2  141.20   22.45
   1  -6  -3   34.36   11.03
  -1   6   3   43.96   13.49
   1  -6  -4  414.06   40.35
   1  -6  -5  159.06   26.38
   1  -6  -6   10.15    6.13
   1  -6  -6   20.24   10.58
   1  -6  -7  109.07   24.79
   0   6 -13   58.08   21.73
   0   6 -12  329.88   48.37
   0   6 -11   -8.96   13.46
   0   6 -10    7.62    6.51
   0   6  -9  651.24   60.29
   0   6  -9  594.81   55.56
   0   6  -8   15.45    8.63
   0   6  -8    9.51    5.27
   0   6  -7  692.83   56.08
   0  -6   7  641.81   41.89
   0   6  -7  639.70   54.53
   0   6  -6  308.07   36.14
   0   6  -6  337.83   37.99
   0   6  -6  319.34   28.72
   0  -6   6  316.99   28.19
   0   6  -5 1715.29   82.35
   0   6  -5 1869.06   84.28
   0  -6   5 1847.22   67.64
   0   6  -4   14.93    7.70
   0  -6   4    3.38    2.93
   0   6  -4   13.05    7.17
   0  -6   3   17.50    6.74
   0   6  -3   15.74    7.60
   0   6  -3   13.02    6.71
   0   6  -3   15.94    7.35
   0  -6   2 3060.69  102.12
   0  -6   2 2995.11   79.30
   0   6  -2 2949.64  100.43
   0  -6   1 1179.24   61.21
   0  -6   1 1093.83   48.79
   0  -6   1 1245.92   56.47
   0   6  -1 1163.39   62.39
   0  -6   0 2305.92   80.40
   0   6   0 2109.50   84.27
   0  -6   0 2083.48   81.14
   0  -6  -1  251.13   28.65
   0  -6  -1  261.07   28.75
   0   6   1  260.78   30.42
   0  -6  -2   18.61    8.30
   0  -6  -2   16.43    7.51
   0   6   2   11.21    6.44
   0  -6  -3  303.38   33.33
   0   6   3  285.72   34.59
   0  -6  -4   57.86   15.68
   0   6   4   59.33   17.15
   0  -6  -5  376.09   40.71
   0  -6  -6   41.59   15.44
   0  -6  -7  234.36   36.19
   1   6 -13   45.85   19.60
   1   6 -12   24.14   15.88
   1   6 -11   91.26   24.80
   1   6 -10    4.24    8.18
   1   6 -10   -6.39    9.20
   1   6  -9  612.57   61.26
   1   6  -9  478.57   49.74
   1   6  -8  200.69   33.51
   1   6  -8  129.26   24.43
  -1  -6   7   77.14   13.53
   1   6  -7   95.15   21.69
   1   6  -7   61.59   17.15
   1   6  -6 1713.67   82.33
   1   6  -6 1921.51   95.66
  -1  -6   6 1919.78   63.67
  -1  -6   5   39.24    8.87
   1   6  -5   29.82    9.57
   1   6  -5   14.52    6.37
  -1  -6   4  435.35   27.40
   1   6  -4  430.03   37.73
   1   6  -4  445.67   41.34
  -1  -6   3  583.40   46.59
  -1  -6   3  558.26   29.35
   1   6  -3  579.61   40.27
   1   6  -3  563.04   46.99
   1   6  -3  585.28   45.57
  -1  -6   2   69.62   15.31
   1   6  -2   93.44   18.44
   1   6  -2   85.20   18.00
  -1  -6   1  286.24   30.63
  -1  -6   1  281.42   29.99
   1   6  -1  297.19   32.91
  -1  -6   0  256.90   28.84
  -1  -6   0  268.98   30.06
   1   6   0  263.60   31.63
  -1  -6  -1  837.52   52.79
  -1  -6  -1  882.17   57.48
   1   6   1  838.46   56.68
  -1  -6  -2  202.56   26.92
  -1  -6  -2  198.27   28.87
   1   6   2  179.95   27.31
  -1  -6  -3  678.66   51.03
  -1  -6  -3  650.20   55.29
   1   6   3  634.75   54.03
  -1  -6  -4  163.47   26.46
  -1  -6  -4  185.48   31.88
   1   6   4  156.40   28.97
  -1  -6  -5   20.37   10.27
  -1  -6  -5    8.03    8.90
   1   6   5   17.90   12.29
  -1  -6  -6  366.07   43.64
  -1  -6  -6  316.02   47.75
   1   6   6  342.47   48.47
   2   6 -13   74.11   23.87
   2   6 -12   -2.95    5.17
   2   6 -11   73.02   26.01
   2   6 -11   68.94   21.68
   2   6 -10   -0.44    7.48
   2   6 -10    4.68    6.02
   2   6  -9 1337.39   94.14
   2   6  -9 1072.91   73.24
   2   6  -8  138.85   28.77
   2   6  -8  130.13   24.86
  -2  -6   8  127.31   16.95
   2   6  -7  373.07   45.98
  -2  -6   7  309.35   24.10
   2   6  -7  324.96   36.40
   2   6  -6  528.02   45.09
   2   6  -6  569.30   54.81
  -2  -6   6  576.11   31.37
  -2  -6   5   85.00   10.53
   2   6  -5   97.82   21.94
   2   6  -5   85.77   17.44
   2   6  -4 1359.91   64.66
   2   6  -4 1515.99   81.83
   2   6  -3    5.50    4.69
  -2  -6   3   14.03    7.86
   2   6  -3    3.23    3.38
   2   6  -3   -0.39    4.05
  -2  -6   2   22.63    9.19
   2   6  -2   24.93   10.55
   2   6  -2   33.02   12.08
  -2  -6   1  115.22   19.25
  -2  -6   1  126.02   22.46
   2   6  -1  114.79   21.07
  -2  -6   0  814.43   51.08
  -2  -6   0  845.21   58.30
   2   6   0  758.95   56.00
  -2  -6  -1   13.14    6.34
  -2  -6  -1   28.44   11.75
   2   6   1   29.76   10.78
  -2  -6  -2    1.68    4.38
  -2  -6  -2    8.73    5.15
   2   6   2    7.48    6.28
  -2  -6  -3  693.67   52.51
  -2  -6  -3  736.02   62.04
   2   6   3  652.04   57.88
   2   6   4    7.03    7.84
  -2  -6  -4    1.88    4.71
  -2  -6  -4   -3.32    6.07
  -2  -6  -5  112.17   23.84
  -2  -6  -5  118.35   28.08
   2   6   5  134.83   29.31
  -2  -6  -6   66.12   19.78
   3   6 -13  340.72   50.06
   3   6 -12   29.19   17.68
   3   6 -12   22.75   12.99
   3   6 -11    6.88    7.92
   3   6 -11   -3.99    6.56
   3   6 -10  706.70   61.42
   3   6 -10  761.76   77.61
   3   6  -9  188.84   36.86
   3   6  -9  134.81   26.03
   3   6  -8  887.81   77.00
   3   6  -8  777.46   58.17
   3   6  -7    3.18    7.04
   3   6  -7    6.18    5.87
   3   6  -6  428.24   39.60
   3   6  -6  484.21   52.98
   3   6  -5  104.39   24.35
   3   6  -5   94.16   18.24
  -3  -6   4  376.85   38.46
   3   6  -4  327.84   30.19
   3   6  -4  339.17   41.35
  -3  -6   3  862.34   53.95
   3   6  -3  920.72   67.28
   3   6  -3  794.72   60.83
  -3  -6   2  554.53   41.99
   3   6  -2  558.31   53.51
   3   6  -2  451.48   45.09
  -3  -6   1 2619.73   90.75
   3   6  -1 2479.03  105.50
  -3  -6   0   39.16   11.65
  -3  -6   0   33.96   13.45
   3   6   0   31.81   12.62
  -3  -6  -1   16.74    8.70
  -3  -6  -1   16.19    9.57
   3   6   1   10.71    7.01
   3   6   2  516.35   51.93
  -3  -6  -2  554.00   45.55
  -3  -6  -2  509.09   52.98
  -3  -6  -3   21.95    9.87
  -3  -6  -3   19.85   13.06
   3   6   3   11.05   10.22
  -3  -6  -4  260.48   34.67
  -3  -6  -4  188.60   35.47
   3   6   4  210.19   36.39
  -3  -6  -5  -15.87    9.87
   4   6 -13   63.30   27.94
   4   6 -13   33.21   15.82
   4   6 -12   -8.34   10.35
   4   6 -12   -8.14    8.68
   4   6 -11  127.79   34.20
   4   6 -11  112.01   26.09
   4   6 -10  141.62   34.32
   4   6 -10  146.98   27.89
   4   6  -9    0.69    6.07
   4   6  -9   18.64    9.67
   4   6  -8  205.58   38.28
   4   6  -8  121.21   22.88
   4   6  -7  156.05   32.59
   4   6  -7  162.96   25.34
   4   6  -6    5.54    8.78
   4   6  -6    1.14    4.60
   4   6  -5  421.44   35.80
   4   6  -5  447.16   52.76
  -4  -6   5  470.14   43.86
  -4  -6   4  277.37   31.14
   4   6  -4  260.32   39.08
  -4  -6   3   60.44   13.99
   4   6  -3   42.30   15.52
   4   6  -3   67.30   17.50
  -4  -6   2  395.05   34.70
   4   6  -2  376.66   47.00
   4   6  -2  400.86   44.81
  -4  -6   1  318.55   31.40
   4   6  -1  286.44   41.72
   4   6  -1  309.22   39.51
  -4  -6   0   14.29    7.40
  -4  -6   0    8.32    6.40
   4   6   0    8.74    9.06
  -4  -6  -1   62.56   15.03
  -4  -6  -1   54.11   17.39
   4   6   1   50.85   17.14
  -4  -6  -2  178.00   26.09
  -4  -6  -2  166.24   33.14
   4   6   2  169.80   31.29
  -4  -6  -3   58.31   20.46
   4   6   3   30.52   13.18
   5   6 -13   -2.00    9.44
   5   6 -13   10.18   11.20
   5   6 -12  184.23   44.05
   5   6 -12  197.85   36.29
   5   6 -11   -6.95   10.32
   5   6 -11   15.83    9.34
   5   6 -10  439.29   61.24
   5   6 -10  351.70   43.00
   5   6  -9   53.16   21.28
   5   6  -9   55.53   15.89
   5   6  -8  310.25   48.94
   5   6  -8  307.34   35.70
   5   6  -7   21.80   13.21
   5   6  -7   22.79    9.21
   5   6  -6   39.44   16.15
  -5  -6   5 1811.04   81.64
   5   6  -5 1816.36  112.99
  -5  -6   4  188.10   24.37
   5   6  -4  168.05   33.64
   5   6  -3  365.04   49.95
   5   6  -3  340.44   44.19
   5   6  -2  280.55   43.76
   5   6  -2  274.02   39.28
   5   6  -1   59.07   20.95
   5   6  -1   50.28   16.93
   5   6   0  161.65   34.88
   5   6   0  170.02   31.23
  -5  -6  -1   15.56   10.10
   5   6   1   21.65   11.07
  -5  -6  -2  220.87   39.91
   5   6   2  141.62   30.72
   6   6 -13   31.98   16.43
   6   6 -12   67.45   27.45
   6   6 -12   62.69   21.26
   6   6 -11  218.98   46.95
   6   6 -11  137.59   28.71
   6   6 -10   -3.56   10.61
   6   6 -10   12.36    7.54
   6   6  -9  772.31   82.42
   6   6  -8   11.69   11.31
   6   6  -7  109.68   30.19
   6   6  -6  262.57   45.52
   6   6  -5   90.86   27.12
   6   6  -4   88.92   26.57
   6   6  -3    9.78   11.19
   6   6  -3    2.10    8.90
   6   6  -2  748.69   68.96
   6   6  -2  727.63   76.54
   6   6  -1   14.73    9.19
   6   6  -1   21.28   12.35
   6   6   0  191.69   40.66
   6   6   0  182.40   34.31
   6   6   1  185.19   40.04
   6   6   1  191.95   35.44
   7   6 -11   10.22   16.27
   7   6 -10   75.04   26.77
   7   6  -9  184.57   42.49
   7   6  -8   24.73   14.85
   7   6  -7  196.35   42.41
   7   6  -6  137.45   35.33
   7   6  -5   43.00   18.32
   7   6  -4    0.27   11.75
   7   6  -3  186.55   41.17
   7   6  -2   57.47   23.64
   7   6  -2   38.82   17.61
   7   6  -1   26.87   20.10
   7   6  -1   26.57   14.48
   7   6   0  156.53   33.31
   8   6  -9  101.84   31.90
   8   6  -8   24.29   14.94
   8   6  -7   34.60   19.32
   8   6  -6  574.43   75.81
   8   6  -5  214.10   46.85
   8   6  -4  419.09   66.71
  12  -7   1  -10.87   10.13
  12  -7   0  274.27   44.69
  12  -7  -1   40.99   16.93
 -12   7   1   -7.38   11.49
  12  -7  -1   18.74   11.78
  12  -7  -2   16.72   13.58
 -12   7   2    6.09   11.66
  12  -7  -2    0.94    4.87
  12  -7  -3  414.29   52.27
  12  -7  -4   -1.74    8.43
  11  -7   4   15.71   10.79
 -11   7  -4   13.88   14.37
  11  -7   3   28.04   16.30
  11  -7   3   19.71   14.01
 -11   7  -3   32.59   22.30
  11  -7   2   22.89   11.85
 -11   7  -2   17.14   14.52
  11  -7   2   27.70   13.66
  11  -7   1   23.11   12.58
 -11   7  -1   -7.55   12.09
  11  -7   1   20.64   12.14
  11  -7   0  235.95   40.15
  11  -7   0  230.14   38.33
  11  -7  -1   69.95   22.24
  11  -7  -1   78.54   22.56
  11  -7  -2  199.84   37.03
  11  -7  -2  149.84   30.51
  11  -7  -3  109.53   27.36
  11  -7  -3   85.86   22.49
  11  -7  -4   -8.24    8.65
 -11   7   4   -4.45    9.76
  11  -7  -4   16.98   10.23
 -11   7   5  108.12   36.04
  10  -7   6   38.54   17.77
 -10   7  -6   67.19   21.57
  10  -7   5   15.41   12.59
 -10   7  -5   -6.07   12.82
  10  -7   4  353.69   52.55
 -10   7  -4  285.63   57.14
  10  -7   4  377.33   49.68
  10  -7   3   74.04   22.39
 -10   7  -3   79.80   33.83
  10  -7   3  100.49   25.83
  10  -7   2   76.67   22.40
 -10   7  -2   46.15   28.02
  10  -7   2  105.37   25.46
  10  -7   1  309.81   44.62
  10  -7   1  271.02   39.57
  10  -7   0   70.01   20.98
  10  -7   0   62.25   18.50
 -10   7   0   12.99   14.84
  10  -7  -1  395.74   49.56
  10  -7  -1  338.79   43.33
  10  -7  -2   -2.00    4.58
 -10   7   2   11.39   10.25
  10  -7  -2    2.51    6.45
  10  -7  -3  349.23   47.00
 -10   7   3  197.80   46.52
  10  -7  -3  311.72   40.24
  10  -7  -4   11.38    9.41
 -10   7   4    9.50   16.22
  10  -7  -4  -14.68    9.15
 -10   7   5   68.99   27.09
  10  -7  -5  143.31   31.13
 -10   7   6   55.02   24.18
   9  -7   7   18.70   11.76
  -9   7  -7    4.34    6.48
   9  -7   6   -6.31   11.84
  -9   7  -6   20.34   10.62
   9  -7   5  120.52   29.84
  -9   7  -5   90.34   30.54
   9  -7   4   20.37   11.73
  -9   7  -4   29.69   18.02
   9  -7   3   23.53   13.25
  -9   7  -3   10.98   11.01
   9  -7   3    1.34    7.77
   9  -7   2  234.61   37.98
   9  -7   2  261.68   37.56
   9  -7   1  150.37   30.47
   9  -7   1  190.37   31.01
   9  -7   0    6.69    8.10
  -9   7   0    3.20    7.46
   9  -7   0    5.63    4.09
   9  -7  -1  200.52   25.64
   9  -7  -1  201.54   34.61
  -9   7   1  124.53   35.82
   9  -7  -1  175.04   29.16
   9  -7  -2  225.09   37.39
   9  -7  -2  216.12   26.81
  -9   7   2  159.34   40.75
   9  -7  -2  196.83   30.02
  -9   7   3   -0.96    6.31
   9  -7  -3    7.63    9.06
   9  -7  -3    0.08    5.61
   9  -7  -3    2.92    5.50
  -9   7   4  238.92   50.05
   9  -7  -4  273.56   41.08
   9  -7  -4  346.17   35.73
   9  -7  -5   25.24   10.53
  -9   7   5   37.19   18.67
   9  -7  -6   13.24    7.76
   9  -7  -7  174.56   29.50
   8  -7   8  227.92   43.77
  -8   7  -8  198.40   37.52
  -8   7  -8  247.33   41.26
   8  -7   7  104.90   28.99
  -8   7  -7   49.48   18.58
  -8   7  -7  120.06   27.74
  -8   7  -6  459.58   54.74
  -8   7  -6  516.92   53.11
  -8   7  -6  376.36   60.68
   8  -7   6  477.46   59.46
   8  -7   5   -4.85   12.56
  -8   7  -5   15.51    9.45
  -8   7  -5   -1.93   13.51
   8  -7   4    6.31    8.40
  -8   7  -4    3.92    4.14
  -8   7  -4   -4.47   11.14
   8  -7   3  274.54   37.44
   8  -7   3  253.62   39.79
   8  -7   3  247.13   31.69
   8  -7   2   18.91    8.89
   8  -7   2   37.71   13.53
   8  -7   2   33.01   10.14
  -8   7  -2    2.37   11.34
   8  -7   1  449.78   50.17
   8  -7   1  428.95   38.01
   8  -7   1  404.73   43.18
   8  -7   0   78.60   21.22
  -8   7   0   52.48   23.41
   8  -7   0   72.91   14.87
   8  -7   0   87.68   19.95
   8  -7  -1  723.95   63.42
   8  -7  -1  685.78   48.01
  -8   7   1  716.15   82.20
   8  -7  -1  649.96   52.59
   8  -7  -2   -0.61    5.81
   8  -7  -2    2.59    3.28
   8  -7  -2    2.28    4.36
  -8   7   2   10.32   11.23
   8  -7  -3   31.91   14.75
  -8   7   3   20.37   13.94
   8  -7  -3   23.76    9.32
   8  -7  -3   34.56   12.12
   8  -7  -4  667.25   62.70
   8  -7  -4  740.81   53.40
   8  -7  -5  185.78   28.20
   8  -7  -6  292.29   36.65
   8  -7  -7   67.70   18.26
  -7   7 -10    1.41   11.11
   7  -7   9   31.68   16.60
  -7   7  -9   49.91   19.88
  -7   7  -9   45.50   18.10
   7  -7   8    1.67    5.36
  -7   7  -8    3.35    7.19
  -7   7  -8   -3.92   11.36
  -7   7  -7  110.18   31.43
  -7   7  -7  113.45   27.89
  -7   7  -7  147.47   29.09
   7  -7   7  143.86   31.32
  -7   7  -6    7.53    8.09
  -7   7  -6   21.06   11.00
  -7   7  -6   21.22   12.12
   7  -7   6   20.70   11.82
  -7   7  -5  297.48   41.62
  -7   7  -5  343.93   39.32
  -7   7  -5  268.35   47.71
   7  -7   5  366.31   46.72
   7  -7   4  133.81   27.43
  -7   7  -4  175.70   25.70
   7  -7   3  669.82   60.52
  -7   7  -3  795.53   49.81
   7  -7   2  187.43   26.52
   7  -7   2  143.32   28.47
  -7   7  -2  113.64   32.24
   7  -7   1   46.33   13.89
  -7   7  -1   59.79   23.61
   7  -7   1   49.15   12.45
   7  -7   0 1397.57   85.73
   7  -7   0 1371.26   68.46
  -7   7   0 1259.61  105.94
   7  -7  -1  107.50   23.87
  -7   7   1   94.38   28.95
   7  -7  -1   83.42   17.33
   7  -7  -2  423.39   47.39
   7  -7  -2  459.41   40.37
   7  -7  -3  102.43   23.89
   7  -7  -3  135.08   22.67
   7  -7  -4   89.20   23.16
   7  -7  -4  110.59   20.66
   7  -7  -5   82.40   18.84
   7  -7  -6   25.18   11.01
   7  -7  -7  476.95   49.45
  -6   7 -11   10.06    9.24
   6  -7  10  133.66   32.15
  -6   7 -10  114.12   28.66
  -6   7 -10   92.89   27.83
   6  -7   9   -6.24   10.83
  -6   7  -9   -7.05    7.58
  -6   7  -9    2.57    8.57
  -6   7  -8   22.56   11.86
   6  -7   8   20.02   11.98
  -6   7  -8    3.81    6.65
  -6   7  -7   66.53   20.92
   6  -7   7   68.04   21.11
  -6   7  -7   65.35   18.88
  -6   7  -7   76.29   24.31
  -6   7  -6   86.28   26.66
   6  -7   6  171.50   31.72
  -6   7  -6  158.50   31.25
  -6   7  -6  165.29   27.70
   6  -7   5   21.29    8.86
  -6   7  -5    0.18    6.79
  -6   7  -5    2.59    4.39
  -6   7  -5    8.48    9.76
   6  -7   4    7.40    7.10
  -6   7  -4   20.63   11.16
  -6   7  -4    9.04    4.22
  -6   7  -4    6.11   12.26
   6  -7   3  823.44   64.21
  -6   7  -3  988.05   51.29
  -6   7  -3  746.23   77.23
   6  -7   2   32.22   12.56
  -6   7  -2   24.60   12.74
  -6   7  -2   39.04    9.14
   6  -7   2   24.14   10.10
   6  -7   1  319.01   39.34
   6  -7   1  256.21   30.19
  -6   7  -1  364.76   54.17
   6  -7   0  375.48   42.68
   6  -7   0  369.67   35.92
  -6   7   0  355.98   31.25
   6  -7  -1   -3.18    6.86
   6  -7  -1    8.19    6.04
  -6   7   1   -2.66    3.60
   6  -7  -2  567.46   53.67
   6  -7  -2  579.17   46.00
  -6   7   2  576.29   40.82
   6  -7  -3  219.54   33.40
   6  -7  -3  215.94   29.21
  -6   7   3  246.72   27.73
   6  -7  -4    4.69    4.80
  -6   7   4   18.48    8.67
   6  -7  -5   31.49   11.84
  -6   7   5   44.19   13.45
   6  -7  -6  259.90   35.35
   6  -7  -7   13.49    9.97
  -5   7 -12   23.16   14.70
   5  -7  11   17.26   13.29
  -5   7 -11   -9.48   10.08
   5  -7  10    2.14    6.00
  -5   7 -10   -3.19    7.63
   5  -7   9  177.57   33.56
  -5   7  -9  162.45   34.59
   5  -7   8  140.80   28.93
  -5   7  -8  121.05   28.66
  -5   7  -7 1175.12   85.19
  -5   7  -7 1148.29   84.84
   5  -7   7 1244.02   81.81
  -5   7  -6   48.58   16.77
   5  -7   6   75.78   19.47
  -5   7  -6   29.35   14.39
   5  -7   5    0.58    4.11
  -5   7  -5    2.93    4.66
  -5   7  -5   -2.64    5.53
   5  -7   4 1125.19   72.67
  -5   7  -4 1138.04   74.41
  -5   7  -3  181.03   35.84
  -5   7  -3  198.53   21.83
   5  -7   3  214.76   31.49
   5  -7   2 1108.77   71.07
  -5   7  -2 1189.20   42.99
  -5   7  -2 1201.02   91.77
   5  -7   2 1128.28   66.13
   5  -7   1   35.61   12.96
   5  -7   1   33.22   11.51
  -5   7  -1   26.47    9.06
   5  -7   0  446.91   45.04
   5  -7   0  419.20   38.42
  -5   7   0  429.64   35.27
   5  -7  -1   22.17   12.21
   5  -7  -1   12.01    6.67
  -5   7   1    6.92    5.32
   5  -7  -2  276.92   32.38
   5  -7  -2  268.47   36.47
  -5   7   2  301.63   30.53
   5  -7  -3  678.00   58.41
   5  -7  -3  644.80   50.59
  -5   7   3  655.39   46.71
   5  -7  -4  434.55   42.63
  -5   7   4  381.50   38.23
   5  -7  -5 1258.40   75.97
   5  -7  -6   -4.84    7.33
   5  -7  -7   72.72   19.61
   4  -7  12    3.04    7.11
  -4   7 -12   -0.85    8.56
   4  -7  11   92.26   26.19
  -4   7 -11   68.21   23.03
   4  -7  10   29.28   13.53
  -4   7 -10   26.63   13.76
   4  -7   9   12.76    8.00
  -4   7  -9   23.35   11.95
  -4   7  -8  250.82   40.09
  -4   7  -8  236.80   37.62
   4  -7   8  267.76   37.03
  -4   7  -7   50.90   16.95
   4  -7   7  110.35   22.92
  -4   7  -7   76.78   21.06
  -4   7  -6   15.44    8.17
  -4   7  -6   18.79   12.70
   4  -7   6   39.37   13.97
  -4   7  -5   52.50   16.02
   4  -7   5   36.39   11.83
  -4   7  -5   37.32   15.94
  -4   7  -4  472.73   46.22
  -4   7  -4  347.41   17.61
  -4   7  -4  530.84   56.35
   4  -7   4  483.16   45.53
   4  -7   3   20.04    8.96
  -4   7  -3    5.71    8.24
  -4   7  -3   16.48    4.80
   4  -7   2  286.28   33.42
   4  -7   2  265.76   33.53
  -4   7  -2  313.81   20.04
   4  -7   1  935.50   62.31
   4  -7   1  876.87   57.03
  -4   7  -1  926.20   53.79
   4  -7   0  171.11   24.87
   4  -7   0  159.78   26.29
   4  -7   0  189.56   15.61
  -4   7   0  168.61   22.66
   4  -7  -1 1120.35   70.39
   4  -7  -1 1097.89   62.96
  -4   7   1 1077.37   57.93
   4  -7  -2  386.37   41.73
   4  -7  -2  379.53   37.88
  -4   7   2  387.42   35.58
   4  -7  -3    7.20    6.69
  -4   7   3    2.24    3.33
   4  -7  -4  306.25   36.52
  -4   7   4  290.37   34.46
   4  -7  -5   99.11   21.39
   4  -7  -6  137.44   26.35
   4  -7  -7   -0.26    4.50
   4  -7  -7    8.58    7.61
   3  -7  12   -8.98    9.59
  -3   7 -12   -1.33    9.45
  -3   7 -11  296.46   47.41
   3  -7  11  314.36   46.26
   3  -7  10  173.05   31.93
  -3   7 -10   99.55   26.54
  -3   7  -9  186.77   34.34
   3  -7   9  194.67   32.53
  -3   7  -8   83.18   20.04
   3  -7   8  115.63   22.46
  -3   7  -8  115.08   26.07
   3  -7   7    6.65    7.56
  -3   7  -7   -0.42    7.54
  -3   7  -7    5.37    6.61
  -3   7  -6  318.84   41.10
  -3   7  -6  322.26   26.42
   3  -7   6  350.29   37.26
  -3   7  -5    7.55    5.65
   3  -7   5   18.92    8.31
  -3   7  -5   22.71   11.17
  -3   7  -5   27.81    7.90
   3  -7   4  838.89   56.97
  -3   7  -4  863.67   61.98
  -3   7  -4  904.00   69.31
  -3   7  -4  885.88   43.70
   3  -7   3   23.82    8.75
  -3   7  -3   30.32   11.50
  -3   7  -3   28.73    7.43
   3  -7   2 1586.38   79.31
   3  -7   2 1591.43   78.28
  -3   7  -2 1563.86   74.48
   3  -7   1   27.49   10.91
   3  -7   1   23.41    9.19
   3  -7   1   42.11    7.64
  -3   7  -1   29.53   10.09
   3  -7   0   55.06   14.78
   3  -7   0   42.79   12.67
   3  -7   0   59.67   10.51
  -3   7   0   23.92    8.82
   3  -7  -1 2119.72   92.36
   3  -7  -1 2152.43   89.13
  -3   7   1 2144.06   84.92
   3  -7  -2  121.51   21.82
  -3   7   2  101.88   18.84
   3  -7  -3  147.38   24.68
  -3   7   3  156.83   24.54
   3  -7  -4  128.46   24.71
  -3   7   4  135.53   24.57
   3  -7  -5   68.16   18.69
  -3   7   5   75.43   19.96
   3  -7  -6   96.76   22.99
   3  -7  -7   14.89    9.08
  -2   7 -13   27.94   16.96
  -2   7 -12   42.04   22.14
  -2   7 -11    4.69    9.50
   2  -7  11    4.11    6.15
   2  -7  10  149.51   27.96
  -2   7 -10  116.04   29.18
   2  -7   9   -0.91    4.88
  -2   7  -9   12.11   12.05
  -2   7  -8 1022.82   76.37
  -2   7  -8 1212.05   68.23
   2  -7   8 1083.63   65.51
  -2   7  -7  174.94   25.15
  -2   7  -7  175.77   30.64
   2  -7   7  203.19   27.66
  -2   7  -6  388.25   43.76
  -2   7  -6  405.09   35.78
  -2   7  -6  301.74   36.73
   2  -7   6  408.75   38.03
  -2   7  -5  509.78   48.15
  -2   7  -5  483.35   47.17
  -2   7  -5  531.37   39.50
   2  -7   5  504.18   41.99
   2  -7   4  365.67   36.15
  -2   7  -4  416.63   41.63
  -2   7  -4  428.04   35.08
   2  -7   3 2961.49  102.18
  -2   7  -3 3154.41  109.97
  -2   7  -3 3033.22   86.60
   2  -7   2  114.18   19.67
   2  -7   2  123.17   22.17
  -2   7  -2  142.05   22.47
   2  -7   1  193.87   25.99
   2  -7   1  220.00   29.07
   2  -7   1  221.32   20.75
  -2   7  -1  188.76   26.06
   2  -7   0  277.07   31.40
   2  -7   0  290.52   33.34
   2  -7   0  339.19   27.42
  -2   7   0  304.13   32.52
   2  -7  -1  358.20   37.05
   2  -7  -1  432.66   33.71
  -2   7   1  389.73   37.31
   2  -7  -2  211.78   28.66
  -2   7   2  211.69   28.50
   2  -7  -3   28.03   11.52
  -2   7   3   23.62   10.33
   2  -7  -4 1009.25   66.88
  -2   7   4  995.41   68.53
   2  -7  -5   96.51   21.85
  -2   7   5   91.32   22.23
   2  -7  -6  213.21   33.55
   2  -7  -6  196.69   30.62
  -1   7 -13   61.97   23.48
  -1   7 -12   12.30   10.93
  -1   7 -11   18.27   12.50
   1  -7  10   10.99    7.33
  -1   7 -10   -3.75    5.76
  -1   7  -9  277.02   37.62
  -1   7  -9  183.43   33.72
   1  -7   9  201.68   28.51
   1  -7   8   65.78   15.46
  -1   7  -8   14.20    7.17
  -1   7  -8   44.33   14.40
  -1   7  -8   59.17   17.78
   1  -7   7   44.49   11.72
  -1   7  -7   45.92   13.72
  -1   7  -7    9.79    5.92
  -1   7  -7   21.20   10.88
  -1   7  -6  600.28   53.16
  -1   7  -6  671.29   51.23
  -1   7  -6  712.54   51.91
   1  -7   6  685.37   46.38
  -1   7  -5   23.82   10.49
   1  -7   5   27.84    9.40
  -1   7  -5   18.43    7.57
   1  -7   4  232.22   27.20
  -1   7  -4  265.25   32.61
  -1   7  -4  250.51   28.26
   1  -7   3  888.11   62.42
   1  -7   3 1006.26   55.16
  -1   7  -3 1060.85   61.67
  -1   7  -3  918.05   52.96
  -1   7  -3  916.67   61.73
   1  -7   2    8.14    5.29
   1  -7   2    1.16    5.81
  -1   7  -2   -1.72    5.63
   1  -7   1   40.55   11.38
   1  -7   1   18.28    9.07
   1  -7   1   20.86    7.11
  -1   7  -1   42.81   12.98
   1  -7   0  771.80   53.99
   1  -7   0  846.46   48.34
  -1   7   0  750.25   52.97
   1  -7  -1   66.44   15.66
   1  -7  -1   66.14   14.86
  -1   7   1   83.01   18.37
   1  -7  -2   31.16   12.04
   1  -7  -2   23.48    8.96
  -1   7   2   18.29    9.36
   1  -7  -3  444.03   43.55
   1  -7  -3  453.35   43.46
  -1   7   3  446.14   44.93
   1  -7  -4    8.73    5.70
  -1   7   4   21.84   10.50
   1  -7  -5   79.64   20.48
   1  -7  -5   67.35   16.78
  -1   7   5   81.44   22.25
   1  -7  -6  157.74   29.48
  -1   7   6  177.41   34.87
   0   7 -13    1.09    5.81
   0   7 -12  263.59   44.64
   0   7 -11  205.29   37.10
   0   7 -10  814.94   71.15
   0  -7  10  658.91   52.18
   0   7 -10  633.02   62.64
   0  -7   9    7.88    5.84
   0   7  -9   -8.73   11.49
   0   7  -9    4.00    6.24
   0  -7   8    2.70    4.18
   0   7  -8    1.11    3.56
   0   7  -7 1065.38   71.77
   0  -7   7 1213.37   58.31
   0   7  -6  312.51   37.47
   0   7  -6  327.88   38.33
   0  -7   6  336.60   30.48
   0  -7   5  888.29   49.65
   0   7  -5  860.22   60.07
   0   7  -5  962.72   63.11
   0   7  -4    1.38    3.22
   0  -7   4    3.36    3.24
   0   7  -4   -3.02    3.31
   0  -7   3  745.84   57.87
   0  -7   3  754.16   43.78
   0   7  -3  760.94   52.29
   0   7  -3  735.93   56.48
   0  -7   2   44.57   10.47
   0  -7   2   49.38   13.83
   0   7  -2   40.37   13.23
   0  -7   1  103.78   20.14
   0  -7   1   92.52   16.75
   0   7  -1   95.81   19.82
   0  -7   0 1742.73   81.79
   0  -7   0 1884.83   78.83
   0  -7  -1  514.87   44.95
   0  -7  -1  514.03   43.46
   0   7   1  482.66   45.69
   0  -7  -2 1144.43   69.10
   0  -7  -2 1160.28   68.52
   0   7   2 1058.67   68.98
   0   7   3    9.36    5.59
   0  -7  -3    7.82    7.37
   0  -7  -3   -5.45    7.98
   0  -7  -4   16.32    9.58
   0  -7  -4   23.85   10.38
   0   7   4   24.34   12.13
   0  -7  -5  298.33   39.67
   0  -7  -5  348.96   46.57
   0   7   5  307.23   43.72
   1   7 -13   43.80   19.87
   1   7 -12    1.28    9.92
   1   7 -11  176.09   36.43
   1   7 -11  116.20   28.02
   1   7 -10   15.13   12.50
   1   7 -10   -8.49    9.84
  -1  -7  10   17.60    8.55
   1   7  -9  208.43   37.03
   1   7  -9  134.88   26.19
  -1  -7   9  144.48   20.71
  -1  -7   8   23.16    7.87
   1   7  -8   24.14   11.22
   1   7  -8    8.24    5.93
   1   7  -7  355.97   40.44
   1   7  -7  374.08   44.78
  -1  -7   7  390.92   30.83
  -1  -7   6   24.96    8.10
   1   7  -6   16.96   10.21
   1   7  -6   11.46    6.05
   1   7  -5   22.79    9.36
  -1  -7   5   38.41    9.43
   1   7  -5   35.37   12.55
  -1  -7   4 2342.13  105.11
  -1  -7   4 2421.65   68.10
   1   7  -4 2580.76   96.22
   1   7  -4 2434.68  101.92
  -1  -7   3  197.10   29.37
  -1  -7   3  179.85   17.91
   1   7  -3  210.98   30.11
   1   7  -3  187.85   29.47
  -1  -7   2  344.48   37.47
   1   7  -2  307.78   37.41
   1   7  -2  349.68   39.64
  -1  -7   1  516.79   44.77
  -1  -7   1  541.76   45.40
   1   7  -1  437.29   44.02
  -1  -7   0   14.83    6.89
  -1  -7   0   17.59    8.73
   1   7   0    3.31    4.52
  -1  -7  -1  492.52   44.70
  -1  -7  -1  493.78   45.88
   1   7   1  464.48   46.94
  -1  -7  -2   40.38   13.63
  -1  -7  -2   36.86   12.85
   1   7   2   50.03   16.14
  -1  -7  -3  197.65   30.21
  -1  -7  -3  224.79   34.81
   1   7   3  215.37   34.26
  -1  -7  -4   16.05    8.97
  -1  -7  -4    4.27    6.53
   1   7   4   20.82   11.53
  -1  -7  -5  334.48   42.47
  -1  -7  -5  341.45   47.60
   2   7 -13    1.13    5.96
   2   7 -12   30.40   16.58
   2   7 -12   43.04   19.44
   2   7 -11   48.13   19.78
   2   7 -11   81.93   23.39
   2   7 -10   11.27   12.33
   2   7 -10   10.12    7.61
   2   7  -9  260.95   41.91
   2   7  -9  160.85   29.71
   2   7  -8   12.11    7.69
   2   7  -8   17.47   10.77
   2   7  -7  369.48   40.17
   2   7  -7  408.99   48.69
   2   7  -6  107.79   24.38
   2   7  -6   66.20   16.95
   2   7  -5  886.70   57.74
   2   7  -5  846.17   67.02
  -2  -7   4  406.92   43.86
   2   7  -4  375.06   34.94
   2   7  -4  407.84   44.64
  -2  -7   3   47.16   13.83
   2   7  -3   63.03   18.10
   2   7  -3   68.31   18.80
  -2  -7   2 1445.81   76.11
   2   7  -2 1477.17   86.79
   2   7  -2 1440.06   83.32
  -2  -7   1    9.95    6.03
   2   7  -1   15.73    7.93
  -2  -7   0  127.39   22.47
  -2  -7   0  126.41   23.94
   2   7   0  121.15   24.48
  -2  -7  -1  157.36   25.45
  -2  -7  -1  204.27   31.83
   2   7   1  189.83   31.51
  -2  -7  -2   45.94   13.41
  -2  -7  -2   82.04   21.00
   2   7   2   63.36   18.97
  -2  -7  -3   19.85   10.33
  -2  -7  -3   14.98    9.71
   2   7   3    7.79    7.28
  -2  -7  -4   43.74   15.10
  -2  -7  -4   73.74   21.99
   2   7   4   58.65   19.32
   3   7 -13  237.04   49.60
   3   7 -13  140.68   33.50
   3   7 -12   24.97   15.67
   3   7 -12   16.88   12.92
   3   7 -11  498.01   64.71
   3   7 -11  439.39   54.17
   3   7 -10   26.79   17.34
   3   7 -10   16.11   11.35
   3   7  -9  196.57   37.78
   3   7  -9  123.60   25.64
   3   7  -8  834.54   74.57
   3   7  -8  674.11   55.80
   3   7  -7  373.16   39.83
   3   7  -7  419.44   52.28
   3   7  -6 1303.64   72.05
   3   7  -6 1276.87   88.29
   3   7  -5   16.29    6.37
  -3  -7   5   15.02    9.58
   3   7  -5    3.04    4.75
  -3  -7   4  160.12   26.85
   3   7  -4  146.46   29.09
  -3  -7   3   52.95   15.64
   3   7  -3   81.08   22.01
   3   7  -3   30.82   12.71
  -3  -7   2   65.44   16.27
   3   7  -2   64.23   19.20
   3   7  -2   45.08   15.30
  -3  -7   1  326.25   35.26
   3   7  -1  333.15   45.63
   3   7  -1  298.67   39.81
   3   7   0   36.18   14.44
  -3  -7   0   75.65   17.33
  -3  -7   0   57.06   17.40
  -3  -7  -1  761.28   56.26
  -3  -7  -1  790.79   66.90
   3   7   1  692.06   63.54
   3   7   2   94.87   24.56
  -3  -7  -2   91.47   20.39
  -3  -7  -2  137.01   28.97
  -3  -7  -3   64.32   17.73
  -3  -7  -3   57.62   20.49
   3   7   3   75.55   23.57
  -3  -7  -4  291.17   39.07
   4   7 -13   25.47   17.57
   4   7 -13   -4.79    9.54
   4   7 -12  127.26   34.16
   4   7 -12   90.05   25.33
   4   7 -11   25.28   15.92
   4   7 -11    7.24   11.68
   4   7 -10   38.11   20.11
   4   7 -10   32.88   14.57
   4   7  -9  291.21   47.54
   4   7  -9  190.72   30.73
   4   7  -8   15.67   11.31
   4   7  -8   11.99    8.04
   4   7  -7   26.17   14.43
   4   7  -7    1.90    3.81
  -4  -7   6  208.60   32.37
   4   7  -6  242.98   29.64
   4   7  -6  262.50   42.68
  -4  -7   5  120.91   24.12
   4   7  -5  141.12   31.53
  -4  -7   4   13.42    7.57
   4   7  -4    7.22    7.84
  -4  -7   3  412.74   39.80
   4   7  -3  390.84   50.68
   4   7  -3  404.56   49.71
  -4  -7   2   66.38   15.82
   4   7  -2   63.20   21.17
   4   7  -2   51.75   18.09
  -4  -7   1   25.20   10.24
   4   7  -1   25.29   11.03
   4   7  -1   11.48    8.45
  -4  -7   0  576.52   47.45
   4   7   0  650.04   68.83
   4   7   0  623.22   61.34
  -4  -7  -1   14.85    8.45
   4   7   1   12.77    8.22
  -4  -7  -2   32.44   16.97
   4   7   2   14.46    9.92
   5   7 -13   82.33   26.05
   5   7 -12   12.39    8.78
   5   7 -12    1.16    4.81
   5   7 -11   30.69   16.93
   5   7 -11   25.77   14.17
   5   7 -10  575.38   70.73
   5   7 -10  418.82   47.79
   5   7  -9   24.96   15.64
   5   7  -9    6.73    6.64
   5   7  -8  194.71   38.94
   5   7  -7    2.68    4.80
   5   7  -6  544.10   64.99
   5   7  -5   47.42   19.50
   5   7  -4   21.57   13.32
   5   7  -3  656.36   70.86
   5   7  -3  780.88   71.67
   5   7  -2  160.31   35.51
   5   7  -2  113.32   26.49
   5   7  -1  542.06   66.00
   5   7  -1  585.99   62.06
   5   7   0   70.79   24.35
   5   7   0   72.41   21.13
   5   7   1    7.45    9.00
   6   7 -11   11.25   14.59
   6   7 -10  158.80   39.14
   6   7  -9  173.71   40.07
   6   7  -8   37.71   16.66
   6   7  -7  787.62   82.71
   6   7  -6   -3.41    7.55
   6   7  -5  154.81   37.27
   6   7  -4  241.70   46.49
   6   7  -3   -2.95    7.43
   6   7  -3   -1.50    7.17
   6   7  -2  217.51   44.25
   6   7  -2  224.68   41.54
   6   7  -1   21.93   15.90
   6   7  -1   62.38   21.40
   6   7   0  165.19   34.52
   7   7  -9   36.23   19.32
   7   7  -8   80.88   26.40
   7   7  -7  147.70   37.89
   7   7  -6    4.40    8.43
   7   7  -5  275.85   52.80
   7   7  -4   18.57   14.41
   7   7  -2   84.07   26.22
  12  -8  -3   -6.66    8.06
  11  -8   3   34.72   17.95
 -11   8  -3   30.47   20.59
  11  -8   3   42.37   18.03
  11  -8   2   58.24   19.34
 -11   8  -2   34.68   20.87
  11  -8   2   63.68   21.81
  11  -8   1   14.61   10.00
 -11   8  -1   -7.55   11.72
  11  -8   1   24.92   14.01
  11  -8   0   65.96   22.07
  11  -8   0   36.16   14.41
  11  -8  -1   33.11   16.83
 -11   8   1    2.37    8.04
  11  -8  -1   20.06   11.55
  11  -8  -2   77.42   24.41
 -11   8   2   35.56   25.35
  11  -8  -2   44.48   17.76
 -11   8   3   11.77   13.48
  11  -8  -3    1.95    5.02
 -10   8  -6   57.05   21.20
 -10   8  -6   32.68   23.03
 -10   8  -5   13.24    8.81
  10  -8   5    7.01    9.06
  10  -8   4   65.32   21.72
 -10   8  -4   22.35   20.46
  10  -8   3    5.42    7.33
 -10   8  -3   -9.46   15.47
  10  -8   2  424.90   55.15
  10  -8   2  472.75   54.52
  10  -8   1   84.86   24.53
  10  -8   1   70.34   20.42
 -10   8  -1   18.88   21.95
  10  -8   0  219.46   39.00
  10  -8   0  191.24   33.87
  10  -8  -1  117.07   28.88
 -10   8   1   56.46   30.28
  10  -8  -1  113.67   25.99
  10  -8  -2   45.24   16.85
 -10   8   2   25.99   19.28
  10  -8  -2   51.73   16.96
  10  -8  -3  622.44   67.36
  10  -8  -3  644.18   57.28
 -10   8   4   16.63   10.29
  10  -8  -4    2.38    7.44
  -9   8  -8   -7.07    9.77
   9  -8   7   10.90    8.06
  -9   8  -7    4.24    6.32
   9  -8   6  136.67   32.62
  -9   8  -6   71.32   31.64
  -9   8  -6  148.79   29.24
   9  -8   5   -3.67   10.87
  -9   8  -5    0.53    3.56
   9  -8   4    5.92    6.60
  -9   8  -4    6.96   17.44
   9  -8   3  167.96   33.72
  -9   8  -3   39.28   23.99
   9  -8   2    4.09    6.88
   9  -8   2    2.98    4.84
  -9   8  -2    2.25   10.81
   9  -8   1  126.09   29.36
   9  -8   1  130.46   23.09
   9  -8   0  130.94   29.48
  -9   8   0   67.30   26.48
   9  -8   0  144.92   23.70
   9  -8  -1   19.65   10.84
  -9   8   1    7.74    8.76
   9  -8  -1   24.26    9.45
  -9   8   2   31.19   18.78
   9  -8  -2   55.78   18.76
   9  -8  -2   31.52   12.01
  -9   8   3  250.36   52.97
   9  -8  -3  275.95   42.78
   9  -8  -3  348.21   38.39
   9  -8  -4   93.49   25.05
   9  -8  -4   98.01   21.84
  -9   8   4   92.84   31.64
   9  -8  -5   -5.52    6.09
   9  -8  -6  272.61   37.22
  -8   8  -9    9.76   10.64
  -8   8  -9   40.08   17.48
   8  -8   8   -5.02    8.57
  -8   8  -8   -8.21    9.37
  -8   8  -8    5.36    6.72
  -8   8  -7    0.94    9.23
   8  -8   7    8.48   13.45
  -8   8  -7   28.56   15.52
  -8   8  -7    9.76    7.01
  -8   8  -6  491.56   52.02
   8  -8   6  388.06   52.14
   8  -8   5  187.29   35.33
  -8   8  -5  213.92   32.11
   8  -8   4  607.57   63.05
  -8   8  -4  686.11   52.41
   8  -8   3   -3.09    4.57
   8  -8   3   -2.44    6.65
  -8   8  -3   -7.88   10.60
   8  -8   2   16.60   12.43
   8  -8   2    8.68    7.12
  -8   8  -2   23.61   17.27
   8  -8   1  647.57   63.16
   8  -8   1  610.73   49.92
  -8   8  -1  618.03   78.37
  -8   8   0   11.23    8.76
   8  -8   0   13.79    8.69
   8  -8   0   14.32    9.97
  -8   8   1  238.15   49.25
   8  -8  -1  260.77   40.65
   8  -8  -1  260.10   32.62
   8  -8  -2    1.43    7.23
  -8   8   2    4.07    6.33
   8  -8  -2    2.68    3.51
   8  -8  -3  417.52   52.88
   8  -8  -3  503.69   46.69
   8  -8  -4    0.25    7.05
   8  -8  -4    9.39    9.06
   8  -8  -5   23.41   10.85
   8  -8  -6  335.13   41.81
  -7   8 -10   80.86   26.92
   7  -8   9   58.61   22.45
  -7   8  -9   53.63   22.05
  -7   8  -9   33.35   15.45
   7  -8   8  103.94   29.15
  -7   8  -8  102.71   28.32
  -7   8  -8  118.15   27.15
  -7   8  -8  136.19   35.38
   7  -8   7   97.58   25.77
  -7   8  -7  112.74   28.25
  -7   8  -7   93.70   23.02
  -7   8  -7   16.47   14.63
   7  -8   6   -4.81    8.66
  -7   8  -6    3.33    5.48
  -7   8  -6    3.16    7.75
  -7   8  -6   -4.59    6.02
   7  -8   5  320.08   44.38
  -7   8  -5  355.42   39.46
   7  -8   4  -23.07   12.42
  -7   8  -4   11.37    6.47
  -7   8  -4  -11.02    7.81
   7  -8   3  235.70   32.97
   7  -8   3  254.56   38.99
  -7   8  -3  308.35   29.73
  -7   8  -3  169.40   39.54
   7  -8   2    9.83    5.72
  -7   8  -2    4.40    8.70
   7  -8   2   -0.20    5.05
   7  -8   1  577.50   58.07
   7  -8   1  503.75   45.87
  -7   8  -1  589.75   74.69
   7  -8   0   10.60   11.30
   7  -8   0    9.19    7.77
  -7   8   0   16.34   11.05
   7  -8  -1   17.86   10.19
   7  -8  -1   19.94    9.16
   7  -8  -2 1240.89   88.00
   7  -8  -2 1317.30   74.50
   7  -8  -3   82.90   22.92
   7  -8  -3  110.12   22.56
   7  -8  -4  257.55   34.71
   7  -8  -5   48.63   16.22
   7  -8  -6    0.52    3.85
  -6   8 -11   52.53   20.91
  -6   8 -10   21.10   13.93
   6  -8  10   29.08   16.07
  -6   8  -9   16.49   10.80
   6  -8   9   -4.80    9.34
  -6   8  -8  242.73   42.33
   6  -8   8  316.70   45.15
  -6   8  -8  179.39   37.31
   6  -8   7   -1.88    6.86
  -6   8  -7   12.20   11.05
  -6   8  -7   16.24   12.46
   6  -8   6   36.93   14.67
  -6   8  -6   33.01   16.50
  -6   8  -6   30.61   12.52
  -6   8  -6   28.70   14.60
   6  -8   5  174.71   30.84
  -6   8  -5  215.93   29.58
  -6   8  -5  198.35   34.29
   6  -8   4    9.39    5.79
  -6   8  -4   34.68   10.95
  -6   8  -4   19.35   13.62
   6  -8   3   69.97   19.53
  -6   8  -3   80.97   26.26
  -6   8  -3   68.13   13.19
   6  -8   3   84.35   19.79
   6  -8   2  276.52   39.01
   6  -8   2  261.56   34.12
  -6   8  -2  362.30   54.67
   6  -8   1  302.64   40.84
   6  -8   1  250.47   32.67
   6  -8   0   66.60   19.30
   6  -8   0   30.19   10.62
  -6   8   0   38.12   11.56
   6  -8  -1  365.12   45.56
   6  -8  -1  367.52   39.63
  -6   8   1  390.70   36.57
   6  -8  -2  226.12   36.55
   6  -8  -2  199.38   29.33
  -6   8   2  201.99   26.84
   6  -8  -3   15.27   10.71
   6  -8  -3    6.70    7.93
  -6   8   3    8.93    6.30
   6  -8  -4  258.46   35.19
  -6   8   4  275.00   34.01
   6  -8  -5   41.22   15.04
  -6   8   5   55.81   16.39
   6  -8  -6   29.99   13.76
  -6   8   6   39.70   15.62
  -6   8   7  138.37   29.29
   5  -8  11    3.19    7.03
  -5   8 -11    9.60   11.02
   5  -8  10   11.36    9.60
  -5   8 -10   16.86   12.64
   5  -8   9   38.10   16.21
  -5   8  -9   16.77   11.66
  -5   8  -8    9.52   10.66
   5  -8   8   15.34    8.88
  -5   8  -8   -4.90    5.25
  -5   8  -7  278.94   42.64
  -5   8  -7  157.13   33.78
   5  -8   7  264.45   38.14
  -5   8  -6   38.56   16.28
   5  -8   6  123.83   25.15
  -5   8  -6  100.34   24.35
   5  -8   5 1037.80   72.19
  -5   8  -5 1006.57   75.26
   5  -8   4  260.33   35.87
  -5   8  -4  321.46   31.25
  -5   8  -4  332.70   49.26
   5  -8   3  211.99   32.08
   5  -8   3  213.94   33.13
  -5   8  -3  224.27   21.81
  -5   8  -3  263.68   43.91
   5  -8   2 1083.06   74.76
   5  -8   2 1047.36   68.91
   5  -8   1  464.53   49.04
   5  -8   1  437.73   43.52
  -5   8  -1  491.07   42.82
   5  -8   0 1134.86   77.54
   5  -8   0 1045.19   66.65
  -5   8   0 1123.90   63.10
   5  -8  -1    6.86    8.02
   5  -8  -1   -0.26    3.84
  -5   8   1    1.98    3.33
   5  -8  -2  292.30   40.73
   5  -8  -2  303.85   36.48
  -5   8   2  305.04   34.27
   5  -8  -3   29.66   12.89
  -5   8   3   63.61   16.29
   5  -8  -4  139.92   26.17
  -5   8   4  108.60   21.34
   5  -8  -5  260.70   37.09
  -5   8   5  263.20   36.57
   5  -8  -6   -1.85    4.75
  -5   8   6   26.29   13.94
   4  -8  12   28.70   15.81
  -4   8 -12   -4.76    8.23
   4  -8  11   63.53   21.53
  -4   8 -11   29.94   17.63
   4  -8  10  -13.49   12.29
  -4   8 -10   12.59    9.62
  -4   8  -9  121.10   27.00
   4  -8   9  184.54   31.84
  -4   8  -9  109.48   27.88
   4  -8   8    5.49    7.25
  -4   8  -8    4.00    5.98
  -4   8  -7    2.51    4.91
   4  -8   7   -2.06    3.90
  -4   8  -7    4.62    6.31
  -4   8  -6  634.78   60.16
   4  -8   6  615.97   53.49
   4  -8   5   13.20    7.76
  -4   8  -5   11.26    7.56
  -4   8  -5   26.89   14.26
   4  -8   4  204.18   31.31
  -4   8  -4  242.77   35.14
  -4   8  -4  234.82   41.01
   4  -8   3  376.03   42.64
   4  -8   3  400.19   43.66
  -4   8  -3  429.29   28.88
   4  -8   2  264.24   34.84
   4  -8   2  271.03   35.83
  -4   8  -2  269.46   33.10
   4  -8   1   25.52   12.12
   4  -8   1   16.55    9.23
  -4   8  -1   15.30    8.38
   4  -8   0  301.33   39.00
   4  -8   0  316.50   36.84
  -4   8   0  381.26   37.63
   4  -8  -1  601.70   55.07
   4  -8  -1  597.95   51.28
  -4   8   1  587.74   47.23
   4  -8  -2   41.22   14.27
  -4   8   2   42.57   13.49
   4  -8  -3  633.82   54.68
  -4   8   3  604.03   51.46
   4  -8  -4   15.31    9.07
  -4   8   4    6.98    5.31
   4  -8  -5    3.20    4.65
  -4   8   5   11.18    9.03
  -4   8   6  306.05   43.19
   3  -8  12   89.21   25.67
  -3   8 -12   54.93   23.28
   3  -8  11   22.99   13.07
  -3   8 -11   27.25   18.25
   3  -8  10   12.66   11.66
  -3   8 -10  -12.78   10.55
  -3   8  -9  493.70   58.14
   3  -8   9  548.21   51.87
   3  -8   8  103.73   21.38
  -3   8  -8   45.85   16.72
  -3   8  -8  101.79   25.85
  -3   8  -7  740.54   65.63
   3  -8   7  887.42   61.99
  -3   8  -6  103.14   23.24
   3  -8   6  106.16   21.51
  -3   8  -6   63.26   19.23
  -3   8  -5   53.57   18.20
   3  -8   5   34.87   11.42
  -3   8  -5   44.56   15.35
  -3   8  -5   66.26   13.35
   3  -8   4  952.13   64.67
  -3   8  -4 1014.69   69.49
  -3   8  -4 1041.69   53.16
   3  -8   3   23.53   10.23
   3  -8   3   40.99   15.70
  -3   8  -3   34.94    9.58
   3  -8   2  236.46   33.30
   3  -8   2  267.29   34.27
  -3   8  -2  285.87   34.65
   3  -8   1    8.37    6.20
   3  -8   1   12.72    5.25
  -3   8  -1   13.94    6.97
   3  -8   0  719.64   57.70
   3  -8   0  714.90   56.36
   3  -8   0  807.29   41.82
  -3   8   0  659.95   51.34
  -3   8   1   14.21    7.40
   3  -8  -1   18.34    9.25
   3  -8  -1   12.46    7.81
   3  -8  -1   21.36    7.70
   3  -8  -2   63.32   17.16
   3  -8  -2   48.64   12.99
  -3   8   2   64.75   16.16
   3  -8  -3  689.28   57.66
  -3   8   3  650.12   54.98
   3  -8  -4   87.99   22.42
  -3   8   4   66.71   18.48
   3  -8  -5  312.52   41.42
  -3   8   5  304.39   41.95
   2  -8  13  228.14   41.13
   2  -8  12   24.50   14.42
  -2   8 -12   -3.04   10.00
   2  -8  11   56.95   18.33
  -2   8 -11   63.56   20.42
   2  -8  10   86.36   20.32
  -2   8 -10   92.37   25.51
   2  -8   9   35.33   12.47
  -2   8  -9   34.34   15.21
  -2   8  -8  434.37   51.21
  -2   8  -8  480.35   43.66
   2  -8   8  425.92   41.13
   2  -8   7   -0.57    5.46
  -2   8  -7   -2.25    3.04
  -2   8  -7    0.02    2.89
  -2   8  -7    0.74    6.25
   2  -8   6  461.49   41.77
  -2   8  -6  370.51   44.14
  -2   8  -6  435.24   38.87
  -2   8  -6  446.11   47.08
   2  -8   5  133.74   22.60
  -2   8  -5  134.29   25.95
  -2   8  -5  140.78   21.60
   2  -8   4  686.50   52.14
  -2   8  -4  765.33   59.32
  -2   8  -4  703.55   47.29
   2  -8   3  388.87   44.13
   2  -8   3  343.75   36.74
  -2   8  -3  356.85   33.09
  -2   8  -3  301.72   37.20
   2  -8   2  354.36   41.09
   2  -8   2  369.97   38.48
  -2   8  -2  345.60   38.71
   2  -8   1 2188.74  100.05
   2  -8   1 2123.95   93.08
   2  -8   1 2300.99   75.07
  -2   8  -1 2075.30   93.27
   2  -8   0  263.82   33.53
   2  -8   0  263.49   34.88
   2  -8   0  279.39   27.51
  -2   8   0  241.34   31.66
   2  -8  -1  299.12   36.95
   2  -8  -1  327.19   31.70
  -2   8   1  282.62   34.93
   2  -8  -2  249.29   34.32
   2  -8  -2  270.29   30.82
  -2   8   2  304.50   37.90
   2  -8  -3   -1.79    6.43
   2  -8  -3   12.34    7.54
  -2   8   3   -5.56   10.22
   2  -8  -4  179.27   30.95
   2  -8  -4  175.78   29.04
  -2   8   4  166.56   29.98
   2  -8  -5   23.73   13.11
  -2   8   5   15.60   10.68
   1  -8  13   64.35   22.38
   1  -8  12   -8.55    8.25
  -1   8 -12   -3.36   11.21
   1  -8  11   82.03   20.75
  -1   8 -11   71.77   22.86
   1  -8  10    3.28    3.35
  -1   8 -10   10.12    7.42
  -1   8 -10    2.59    6.84
   1  -8   9   -2.80    4.01
  -1   8  -9   20.66   11.34
  -1   8  -9   19.82   11.15
  -1   8  -8  273.54   35.87
  -1   8  -8  164.84   30.81
   1  -8   8  225.07   28.23
  -1   8  -7  105.65   20.55
  -1   8  -7  147.44   25.82
  -1   8  -7  127.02   26.64
   1  -8   7  148.51   22.40
  -1   8  -6    6.84    6.22
   1  -8   6    2.67    2.80
  -1   8  -6    5.64    5.57
   1  -8   5  249.51   29.70
  -1   8  -5  274.92   36.27
  -1   8  -5  316.30   35.83
   1  -8   4  608.65   56.82
   1  -8   4  613.68   46.18
  -1   8  -4  675.12   54.74
  -1   8  -4  685.66   50.29
   1  -8   3    9.69    5.23
  -1   8  -3    1.81    3.24
  -1   8  -3   -0.53    4.06
   1  -8   2  294.33   37.86
   1  -8   2  361.33   35.74
  -1   8  -2  324.60   38.81
   1  -8   1  313.71   38.18
   1  -8   1  279.12   31.92
   1  -8   1  325.02   31.56
  -1   8  -1  286.14   36.22
   1  -8   0   17.10    9.84
   1  -8   0   18.69    8.80
  -1   8   0   26.80   10.81
   1  -8  -1  390.20   42.73
   1  -8  -1  372.54   36.52
  -1   8   1  328.86   39.20
   1  -8  -2  211.98   32.45
   1  -8  -2  232.69   30.71
  -1   8   2  200.77   31.28
   1  -8  -3    1.88    8.00
   1  -8  -3   -1.11    5.48
  -1   8   3   -0.96    4.10
   1  -8  -4  142.13   28.13
   1  -8  -4   74.77   19.99
  -1   8   4   95.91   23.47
   1  -8  -5  298.33   41.98
   0  -8  14   -6.18    5.78
   0  -8  13   29.32   12.82
   0   8 -13    5.77    9.10
   0  -8  12   74.24   20.16
   0   8 -12   44.46   18.99
   0  -8  11    4.79    7.36
   0   8 -11    2.08    9.20
   0   8 -11    7.54   10.34
   0   8 -10  292.05   42.48
   0   8 -10  187.54   35.38
   0  -8  10  228.41   29.27
   0  -8   9  125.20   20.59
   0   8  -9  100.63   23.88
   0   8  -9  117.71   26.48
   0   8  -8 1098.35   77.25
   0  -8   8 1216.22   61.30
   0  -8   7   42.26   11.26
   0   8  -7   36.26   13.23
   0   8  -7   45.04   15.06
   0   8  -6   14.04    8.80
   0  -8   6    9.65    5.27
   0   8  -6    2.42    4.17
   0  -8   5 1440.04   65.73
   0   8  -5 1609.13   85.32
   0   8  -5 1477.24   83.39
   0  -8   4  221.46   35.05
   0  -8   4  173.45   22.83
   0   8  -4  216.67   30.17
   0   8  -4  173.23   27.43
   0  -8   3 1153.58   77.31
   0  -8   3 1064.24   55.48
   0   8  -3 1078.69   67.70
   0   8  -3 1132.17   75.50
   0  -8   2   25.96    9.88
   0   8  -2   15.63    9.15
   0   8  -2   22.41    9.81
   0  -8   1  136.71   25.54
   0  -8   1  137.15   22.88
   0   8  -1   97.95   21.73
   0  -8   0   62.48   17.08
   0  -8   0   80.28   17.66
   0   8   0   77.01   19.02
   0  -8  -1  147.17   26.29
   0  -8  -1  185.24   27.73
   0   8   1  173.60   29.54
   0  -8  -2  292.42   38.63
   0  -8  -2  360.13   40.73
   0   8   2  284.73   39.14
   0  -8  -3  184.06   31.92
   0  -8  -3  138.81   27.50
   0   8   3  142.84   28.89
   0  -8  -4  558.21   55.73
   0  -8  -4  635.23   60.58
   0   8   4  603.57   62.23
   1   8 -13   -2.85    7.50
   1   8 -12  209.01   40.87
   1   8 -12   95.96   27.15
   1   8 -11   -2.75    5.00
   1   8 -11   19.79   13.87
   1   8 -10   10.27    9.17
   1   8 -10   23.55   13.36
   1   8  -9  617.51   58.79
   1   8  -9  835.62   71.98
   1   8  -8   10.62    8.83
   1   8  -8    7.78    5.09
   1   8  -7   99.61   24.11
   1   8  -7  119.32   24.21
   1   8  -6   39.68   13.76
   1   8  -6   48.95   16.33
   1   8  -5  275.03   34.48
   1   8  -5  306.06   40.46
  -1  -8   5  232.51   36.14
  -1  -8   4   39.28   15.81
   1   8  -4   26.95   12.41
  -1  -8   3   22.32    9.87
   1   8  -3   47.83   14.60
   1   8  -3   59.76   17.83
  -1  -8   2  782.05   61.87
   1   8  -2  797.20   63.87
   1   8  -2  780.69   64.15
  -1  -8   1  156.00   27.10
   1   8  -1  157.91   28.98
  -1  -8   0  752.61   59.11
  -1  -8   0  854.30   61.92
   1   8   0  799.41   65.28
  -1  -8  -1  182.02   29.70
  -1  -8  -1  133.88   25.25
   1   8   1  142.27   27.96
  -1  -8  -2   10.23    7.81
  -1  -8  -2   11.75    7.28
   1   8   2   12.89    8.50
  -1  -8  -3  305.16   40.51
  -1  -8  -3  370.29   46.12
   1   8   3  351.10   47.72
  -1  -8  -4    4.94    5.30
  -1  -8  -4   16.20   11.25
   2   8 -13   -5.56    9.35
   2   8 -13    1.92    6.88
   2   8 -12  318.82   51.99
   2   8 -12  209.33   39.87
   2   8 -11  116.48   30.24
   2   8 -11   66.45   21.45
   2   8 -10  181.87   36.67
   2   8 -10  125.44   26.66
   2   8  -9  202.46   33.78
   2   8  -9  248.06   41.28
   2   8  -8    2.68   10.09
   2   8  -8   -1.90    6.64
   2   8  -7  226.72   32.50
   2   8  -7  276.84   41.19
   2   8  -6   69.16   17.48
   2   8  -6   53.72   16.19
  -2  -8   5  277.36   40.10
   2   8  -5  266.72   32.70
   2   8  -5  316.79   43.11
  -2  -8   4   -0.40    8.69
   2   8  -4    3.61    7.04
  -2  -8   3  607.23   55.48
   2   8  -3  537.36   55.02
   2   8  -3  532.55   55.33
  -2  -8   2    4.62    5.08
   2   8  -2   -1.27    4.28
  -2  -8   1   16.63    8.27
   2   8  -1   13.35    9.17
  -2  -8   0  894.52   64.81
  -2  -8   0  901.51   68.95
   2   8   0  826.13   68.87
  -2  -8  -1    2.92    5.22
   2   8   1   -2.75    5.61
  -2  -8  -2   36.65   14.66
  -2  -8  -2   26.10   12.34
   2   8   2   27.56   15.02
  -2  -8  -3  108.87   24.91
  -2  -8  -3  117.73   27.98
   3   8 -13  163.60   39.62
   3   8 -13  136.80   34.38
   3   8 -12   20.39   14.24
   3   8 -12   15.68   11.50
   3   8 -11  282.21   48.96
   3   8 -11  163.82   33.56
   3   8 -10    2.40   11.61
   3   8 -10   12.91    8.39
   3   8  -9  420.39   46.96
   3   8  -9  540.95   63.00
   3   8  -8   46.33   18.51
   3   8  -8    9.23    5.47
   3   8  -7  116.16   23.08
   3   8  -7  130.14   30.09
  -3  -8   6  382.76   47.31
   3   8  -6  468.60   43.83
   3   8  -6  485.94   57.45
  -3  -8   5  233.58   36.13
   3   8  -5  255.84   41.30
  -3  -8   4 1463.90   86.78
   3   8  -4 1460.20   97.40
  -3  -8   3   85.21   20.08
   3   8  -3   68.18   21.15
   3   8  -3   69.20   20.99
  -3  -8   2   28.32   12.69
   3   8  -2   19.19   11.96
   3   8  -2   50.96   17.84
  -3  -8   1  223.10   32.59
   3   8  -1  279.19   43.91
   3   8  -1  247.79   39.15
  -3  -8   0   13.10    5.71
   3   8   0   27.18   13.51
  -3  -8  -1  127.03   25.30
  -3  -8  -1  118.01   27.45
   3   8   1  110.07   26.91
  -3  -8  -2  -13.07    9.04
  -3  -8  -2   -5.95   11.36
   4   8 -13   18.48   14.58
   4   8 -12    5.78    7.48
   4   8 -12  -17.66   11.94
   4   8 -11   24.98   15.31
   4   8 -11   11.97    9.68
   4   8 -10  197.86   40.98
   4   8 -10  121.35   26.74
   4   8  -9    8.26    8.39
   4   8  -9    4.89    6.89
   4   8  -8   69.13   22.55
  -4  -8   7  134.78   27.53
   4   8  -7  171.85   37.45
  -4  -8   6   -8.03    7.70
   4   8  -6    2.49    4.96
  -4  -8   5  295.11   39.46
   4   8  -5  290.58   46.81
  -4  -8   4  206.27   32.11
   4   8  -4  235.53   41.94
  -4  -8   3   32.45   12.42
   4   8  -3   37.29   16.17
   4   8  -3   34.43   14.91
   4   8  -2   43.29   17.98
   4   8  -2   33.45   16.64
   4   8  -1  408.81   56.73
   4   8  -1  421.02   53.65
   4   8   0    5.20    6.28
   4   8   0   14.99   10.64
   5   8 -12   33.13   15.81
   5   8 -11  303.38   53.14
   5   8 -10   55.92   23.76
   5   8  -9   17.36   16.30
   5   8  -8  660.03   74.62
   5   8  -7   58.83   24.59
   5   8  -6  311.09   51.94
   5   8  -5   53.35   20.81
   5   8  -4   90.05   27.63
   5   8  -3   28.52   17.23
   5   8  -3    7.19    7.43
   5   8  -2   84.57   27.16
   5   8  -2   59.40   21.28
   5   8  -1  402.03   54.93
   6   8 -10  140.04   37.24
   6   8  -9   28.70   17.02
   6   8  -8   42.13   18.39
   6   8  -7   28.25   18.20
   6   8  -6   19.01   15.34
   6   8  -5  581.26   75.70
   6   8  -4   97.73   30.79
 -10   9  -7  219.04   39.68
 -10   9  -5   58.43   29.94
  10  -9   4   94.88   27.61
 -10   9  -4   23.87   19.98
  10  -9   3   16.76   11.69
 -10   9  -3  -19.66   16.55
  10  -9   2  205.50   39.80
 -10   9  -2   -8.46   11.96
  10  -9   1    6.60    8.40
 -10   9  -1    9.63   12.27
  10  -9   0  283.35   46.61
 -10   9   0  145.86   44.43
  10  -9  -1   47.83   19.35
 -10   9   1   13.37   16.78
 -10   9   2  158.74   44.23
  10  -9  -2  174.48   37.13
  -9   9  -8   35.92   17.58
  -9   9  -7    5.30    7.07
  -9   9  -7   -2.50    7.77
   9  -9   6   15.28   10.11
  -9   9  -6   18.60   11.09
  -9   9  -6   31.99   20.44
   9  -9   5   59.10   20.69
  -9   9  -5   12.56   17.16
   9  -9   4  103.55   27.21
   9  -9   4   91.51   21.88
   9  -9   3    8.38    9.00
   9  -9   3   19.90   10.56
  -9   9  -3   -4.30    9.22
   9  -9   2  124.99   29.28
   9  -9   2  139.53   25.72
   9  -9   1  181.98   35.92
   9  -9   1  182.71   29.31
  -9   9  -1  110.09   36.38
   9  -9   0   17.01    9.98
  -9   9   0   -4.54   12.62
   9  -9   0   -3.73    7.16
  -9   9   1  181.69   45.80
   9  -9  -1  192.07   38.87
   9  -9  -1  134.80   24.59
  -9   9   2   79.83   30.88
   9  -9  -2   55.72   20.80
   9  -9  -2   77.73   19.12
   9  -9  -3    7.08    8.79
   9  -9  -3   19.84   10.12
   9  -9  -4   49.43   16.04
  -8   9  -9   59.03   22.84
  -8   9  -9  109.53   28.44
   8  -9   8   -0.72    7.76
  -8   9  -8  -13.15   11.11
  -8   9  -8  -16.72   14.06
  -8   9  -8   13.33    9.89
   8  -9   7   54.78   21.35
  -8   9  -7   26.86   13.96
  -8   9  -7   43.95   19.37
  -8   9  -7   29.48   20.82
   8  -9   6   24.12   11.88
  -8   9  -6   -1.44   11.26
   8  -9   5   25.46   13.06
  -8   9  -5  -12.66   12.53
   8  -9   4  162.93   33.39
   8  -9   4  172.09   31.03
   8  -9   3   64.19   20.52
   8  -9   3   47.01   15.66
   8  -9   2  820.01   74.49
   8  -9   2  859.59   65.11
  -8   9  -1    6.64    7.88
   8  -9   1   -4.17   12.61
   8  -9   1   -3.20    7.27
   8  -9   0    0.28    7.63
   8  -9   0    1.67    5.25
   8  -9  -1  478.23   58.45
   8  -9  -1  482.26   47.89
  -8   9   1  532.22   75.52
   8  -9  -2   14.90   10.90
   8  -9  -2   13.33    9.51
   8  -9  -3  351.20   50.79
   8  -9  -3  309.83   40.20
   8  -9  -4   22.83   12.11
  -7   9 -10    1.02    6.21
   7  -9   9  -12.68   11.20
  -7   9  -9    4.33    9.51
  -7   9  -9   -1.78    5.25
   7  -9   8  171.90   35.43
  -7   9  -8  148.69   37.35
  -7   9  -8  149.43   34.25
  -7   9  -8  190.68   34.41
  -7   9  -7   30.53   19.19
   7  -9   7   66.57   21.50
  -7   9  -7   83.11   26.82
  -7   9  -7   70.39   20.35
   7  -9   6  347.35   47.12
  -7   9  -6  399.03   53.48
  -7   9  -6  495.01   49.69
   7  -9   5   23.19   12.91
  -7   9  -5   -2.73    7.57
   7  -9   4   48.96   17.89
   7  -9   4   31.11   12.48
  -7   9  -4   -3.52    9.51
   7  -9   3  646.44   64.17
   7  -9   3  634.65   57.75
  -7   9  -3  572.06   74.60
  -7   9  -2   -5.77    9.43
   7  -9   2  -13.83   10.09
   7  -9   2    0.38    8.15
   7  -9   1  255.97   41.30
   7  -9   1  240.99   34.33
  -7   9  -1  317.03   55.11
   7  -9   0    0.44    5.97
   7  -9   0    1.95    6.21
   7  -9  -1  272.50   43.68
   7  -9  -1  233.96   33.93
   7  -9  -2   16.95   13.80
   7  -9  -2   24.19   11.28
   7  -9  -3   13.48    7.49
   7  -9  -3    3.49    5.26
   7  -9  -4  391.67   45.88
  -6   9 -10   13.33   12.63
   6  -9  10   -8.42    6.85
  -6   9  -9   87.13   26.54
   6  -9   9   75.05   22.47
  -6   9  -9   75.22   24.34
   6  -9   8    3.79    5.79
  -6   9  -8    9.74    8.36
  -6   9  -8    0.68    5.70
   6  -9   7   18.59   10.53
  -6   9  -7   11.06   10.56
  -6   9  -7   17.56   12.85
   6  -9   6  495.83   53.61
  -6   9  -6  486.05   57.19
  -6   9  -6  483.84   47.32
   6  -9   5   22.91   11.44
  -6   9  -5   29.72   11.37
  -6   9  -5   -7.55   12.61
   6  -9   4   54.78   17.33
   6  -9   4   79.01   21.43
  -6   9  -4   73.70   24.68
   6  -9   3  229.01   35.17
   6  -9   3  259.89   39.70
  -6   9  -3  323.32   53.28
   6  -9   2   11.07    9.95
   6  -9   2   -2.40    7.35
  -6   9  -2    4.69    8.07
   6  -9   1   46.51   16.00
   6  -9   1   67.90   18.01
   6  -9   0  171.21   33.29
   6  -9   0  161.15   28.13
  -6   9   0  169.59   26.83
   6  -9  -1   39.55   17.06
   6  -9  -1   26.98   11.06
  -6   9   1   33.96   12.15
   6  -9  -2   19.09   11.84
   6  -9  -2   28.34   13.20
  -6   9   2   32.54   12.61
   6  -9  -3  341.92   42.48
  -6   9   3  315.92   38.31
   6  -9  -4   15.86   10.56
  -6   9   4   22.07   11.62
  -6   9   5    7.49    7.49
   5  -9  11   73.52   24.07
  -5   9 -11   18.47   14.25
  -5   9 -10  334.54   51.13
   5  -9  10  368.51   49.35
  -5   9  -9   35.20   17.68
   5  -9   9   38.35   16.55
  -5   9  -8   13.48   10.56
   5  -9   8   23.28   10.98
  -5   9  -8   21.27   12.75
  -5   9  -7  236.68   39.89
   5  -9   7  264.87   37.91
   5  -9   6   29.58   12.69
  -5   9  -6   12.65   11.92
  -5   9  -6    0.05    5.69
   5  -9   5  271.98   38.29
  -5   9  -5  294.80   42.27
  -5   9  -5  193.10   38.38
   5  -9   4    3.49    5.00
  -5   9  -4   13.84   11.42
   5  -9   4   22.94    7.02
   5  -9   3  924.79   70.98
   5  -9   3  964.67   73.76
  -5   9  -3 1111.61   93.33
   5  -9   2   85.97   21.99
   5  -9   2   70.72   19.00
   5  -9   1  325.07   43.92
   5  -9   1  305.01   39.40
  -5   9  -1  293.40   35.74
   5  -9   0  468.04   53.37
   5  -9   0  455.21   47.81
  -5   9   0  440.76   43.35
   5  -9  -1  153.54   31.33
   5  -9  -1  160.61   28.42
  -5   9   1  169.63   27.31
   5  -9  -2 1369.99   83.65
  -5   9   2 1371.48   78.83
   5  -9  -3    2.56    6.11
  -5   9   3   16.19    9.49
   5  -9  -4   91.63   23.44
  -5   9   4  108.25   24.94
  -5   9   5   87.72   22.93
   4  -9  12  -10.47    9.84
   4  -9  11   38.13   15.50
  -4   9 -11   41.84   19.71
   4  -9  10    4.18    6.62
  -4   9 -10   -3.28    6.68
  -4   9  -9   16.74   10.35
   4  -9   9    2.70    4.61
  -4   9  -8   21.53   12.90
   4  -9   8   11.79    8.94
  -4   9  -8   -8.04    8.05
  -4   9  -7  425.79   52.28
   4  -9   7  399.90   44.33
   4  -9   6   -0.02    5.60
  -4   9  -6    3.21    6.49
  -4   9  -6   -5.73    7.23
  -4   9  -5    6.91   10.21
   4  -9   5   10.83    9.45
  -4   9  -5   19.06    9.92
   4  -9   4  725.26   64.17
   4  -9   4  717.11   60.48
   4  -9   3   16.19   10.21
   4  -9   3    7.19    5.82
   4  -9   2  487.40   51.99
   4  -9   2  472.44   50.47
  -4   9  -2  421.74   44.44
   4  -9   1  107.87   25.22
   4  -9   1   91.64   23.00
  -4   9  -1  125.91   23.97
   4  -9   0    0.60    5.14
   4  -9   0   -1.03    4.52
  -4   9   0    4.32    5.50
   4  -9  -1  124.42   27.71
   4  -9  -1  126.62   25.67
  -4   9   1  125.29   23.85
   4  -9  -2  161.12   29.27
  -4   9   2  129.62   25.48
   4  -9  -3   60.82   18.44
  -4   9   3  115.24   24.78
   4  -9  -4   28.19   13.60
  -4   9   4    5.32    6.21
  -4   9   5  347.56   46.52
   3  -9  12   76.62   22.56
  -3   9 -12   75.97   26.53
   3  -9  11   52.92   18.23
  -3   9 -11    6.49    8.67
   3  -9  10   31.97   13.39
  -3   9 -10   19.82   14.41
   3  -9   9   26.18   12.12
  -3   9  -9    9.28    9.73
  -3   9  -8   43.28   17.24
   3  -9   8   34.80   12.45
  -3   9  -8   -0.89    4.42
   3  -9   7  497.06   46.82
  -3   9  -7  466.45   53.14
  -3   9  -6  123.09   28.12
   3  -9   6  140.51   25.00
  -3   9  -6  133.20   27.99
   3  -9   5  809.49   61.40
  -3   9  -5  851.77   69.13
  -3   9  -5  828.14   71.35
   3  -9   4   27.45   11.96
   3  -9   4   37.78   15.58
  -3   9  -4   36.93   10.81
   3  -9   3   -1.25    9.70
   3  -9   3   -6.23    9.04
  -3   9  -3    0.35    3.21
   3  -9   2 1144.97   75.93
   3  -9   2 1079.41   76.55
  -3   9  -2 1091.84   73.02
   3  -9   1   19.78   10.45
   3  -9   1    8.78    7.54
  -3   9  -1   11.65    6.65
   3  -9   0  164.19   30.38
   3  -9   0  190.55   31.93
  -3   9   0  167.51   28.22
   3  -9  -1  118.40   25.54
  -3   9   1  116.27   23.84
   3  -9  -2  200.89   33.59
  -3   9   2  233.88   34.72
   3  -9  -3   -0.64    6.66
  -3   9   3   -2.09    4.83
   3  -9  -4   57.89   19.82
  -3   9   4   72.83   21.91
   2  -9  13   27.41   14.12
   2  -9  12  -16.57   10.89
  -2   9 -12    3.65    7.55
  -2   9 -11  211.64   39.95
   2  -9  11  327.62   41.25
   2  -9  10  110.48   23.30
  -2   9 -10  134.92   30.75
  -2   9  -9  144.25   31.16
   2  -9   9  213.97   30.39
  -2   9  -8  172.16   33.14
   2  -9   8  239.91   31.35
  -2   9  -7   94.71   23.40
   2  -9   7   76.76   17.65
  -2   9  -7   55.59   17.15
   2  -9   6  652.14   52.00
  -2   9  -6  707.42   62.69
  -2   9  -6  715.50   62.43
  -2   9  -6  722.05   52.71
   2  -9   5   28.93   10.23
  -2   9  -5   36.09   14.04
  -2   9  -5   20.84    9.97
   2  -9   4  349.57   46.12
   2  -9   4  337.83   38.68
  -2   9  -4  382.38   37.86
   2  -9   3   22.25   11.61
   2  -9   3   19.30   12.34
  -2   9  -3   12.80    7.07
  -2   9  -3    5.16    5.76
   2  -9   2  345.47   44.18
   2  -9   2  335.54   39.33
  -2   9  -2  328.20   40.82
   2  -9   1   28.51   11.85
   2  -9   1   24.86   12.07
  -2   9  -1   15.70   10.67
   2  -9   0   10.37    7.91
  -2   9   0    2.03    7.57
   2  -9  -1 1441.01   87.94
  -2   9   1 1377.83   84.16
   2  -9  -2  146.25   29.07
  -2   9   2  129.43   26.15
   2  -9  -3  202.30   34.32
  -2   9   3  172.25   31.90
   1  -9  13   -0.14    4.17
   1  -9  12   55.63   17.91
  -1   9 -12   55.47   21.71
   1  -9  11    9.30    7.05
  -1   9 -11    3.49    8.29
   1  -9  10   17.02    9.69
  -1   9 -10   -6.14    9.42
  -1   9  -9  211.20   36.22
   1  -9   9  231.32   29.73
  -1   9  -8   27.84   12.34
   1  -9   8   23.08   10.07
  -1   9  -8   31.25   12.19
  -1   9  -7   31.55   14.55
   1  -9   7   43.04   12.86
  -1   9  -7   34.09   14.32
   1  -9   6  178.54   26.02
  -1   9  -6  198.48   32.72
  -1   9  -6  205.92   30.61
   1  -9   5   33.39   11.83
  -1   9  -5   26.00   10.38
  -1   9  -5   28.24   11.56
   1  -9   5   14.54   11.73
   1  -9   4    9.09    4.52
  -1   9  -4   18.57    9.30
   1  -9   3  634.21   61.40
   1  -9   3  542.09   46.44
  -1   9  -3  600.17   50.66
  -1   9  -3  586.10   57.24
   1  -9   2   31.46   11.77
   1  -9   2   28.02   12.24
  -1   9  -2   47.64   14.52
  -1   9  -2   39.79   15.56
   1  -9   1   19.99   12.62
  -1   9  -1   16.38    8.68
   1  -9   0  502.55   52.67
   1  -9   0  522.61   44.45
  -1   9   0  492.54   51.16
   1  -9  -1  108.85   24.95
   1  -9  -1   95.94   19.80
  -1   9   1  105.46   24.63
   1  -9  -2   10.59    9.52
   1  -9  -2   21.43   10.98
  -1   9   2   14.90   10.38
   1  -9  -3  157.93   30.87
  -1   9   3  136.70   29.77
   0   9 -12    1.68    6.09
   0   9 -11   11.33    9.05
   0   9 -10  184.22   34.61
   0   9 -10  136.52   29.73
   0   9  -9   -3.05    5.59
   0   9  -9    5.00    4.23
   0   9  -8  375.09   46.81
   0   9  -8  497.48   52.96
   0   9  -7   34.34   15.07
   0   9  -7   44.79   14.62
   0   9  -6  802.33   64.33
   0   9  -6  868.44   67.17
   0   9  -5   18.67    9.15
   0  -9   5   40.03   15.79
   0   9  -5   31.48   13.44
   0  -9   4  171.13   33.17
   0   9  -4  206.73   31.83
   0  -9   3  897.77   73.07
   0   9  -3  920.64   67.90
   0   9  -3  951.86   75.30
   0  -9   2  378.35   46.53
   0   9  -2  436.67   47.74
   0   9  -2  406.17   47.98
   0  -9   1  849.01   68.36
   0   9  -1  894.58   70.55
   0  -9   0   41.00   15.34
   0  -9   0   42.10   14.23
   0   9   0   37.24   15.41
   0  -9  -1   59.95   18.97
   0  -9  -1   66.17   18.39
   0   9   1   66.82   19.64
   0  -9  -2   86.76   22.93
   0  -9  -2   76.59   21.22
   0   9   2   93.72   24.33
   0  -9  -3   68.11   21.07
   0  -9  -3   68.47   20.79
   1   9 -12   88.72   25.85
   1   9 -11   24.85   14.00
   1   9 -11    9.59   10.18
   1   9 -10  203.34   37.32
   1   9 -10  138.26   30.04
   1   9  -9   34.95   14.48
   1   9  -9   12.54    8.76
   1   9  -8  -15.52    9.83
   1   9  -8   12.44    8.93
   1   9  -7  742.35   62.28
   1   9  -7  711.28   65.49
   1   9  -6  105.90   23.10
   1   9  -6   94.89   23.44
  -1  -9   6   98.71   24.52
  -1  -9   5  325.53   46.05
   1   9  -5  306.78   43.06
  -1  -9   4  331.55   45.95
   1   9  -4  331.21   43.83
  -1  -9   3   28.69   13.79
   1   9  -3   35.06   15.84
   1   9  -3   51.52   18.34
  -1  -9   2   74.68   21.55
   1   9  -2   58.58   18.71
   1   9  -2   62.22   19.74
  -1  -9   1   97.13   23.01
   1   9  -1   57.52   18.98
  -1  -9   0  421.56   48.45
  -1  -9   0  447.20   48.34
   1   9   0  357.24   47.02
  -1  -9  -1   32.55   14.30
  -1  -9  -1   48.84   16.41
   1   9   1   22.89    9.91
  -1  -9  -2  294.16   41.53
  -1  -9  -2  295.42   41.14
   2   9 -13   35.83   22.19
   2   9 -12   61.49   22.62
   2   9 -12   22.07   15.01
   2   9 -11   -1.74    9.48
   2   9 -11   -5.41    7.20
   2   9 -10  243.76   38.60
   2   9 -10  380.97   52.78
   2   9  -9   14.70   10.82
   2   9  -9   20.90   11.89
   2   9  -8  373.19   44.44
   2   9  -8  365.50   50.06
   2   9  -7   81.74   20.46
   2   9  -7   82.26   24.31
   2   9  -6   23.89   11.50
  -2  -9   6    4.48    7.86
   2   9  -6   20.23    9.17
  -2  -9   5  579.92   60.98
   2   9  -5  593.75   62.63
  -2  -9   4   51.96   19.17
   2   9  -4   40.88   16.83
  -2  -9   3   27.21   12.55
   2   9  -3   34.58   15.28
   2   9  -3   28.12   13.03
  -2  -9   2   26.82   13.06
   2   9  -2   32.34   14.63
   2   9  -2   15.20    9.71
  -2  -9   1  239.95   36.76
   2   9  -1  223.46   40.45
   2   9  -1  259.17   41.31
  -2  -9   0    2.34    5.15
   2   9   0  -24.39   13.07
  -2  -9  -1   50.41   16.92
  -2  -9  -1   13.85   10.35
  -2  -9  -2  164.51   31.55
   3   9 -13   -8.42   10.99
   3   9 -12   25.61   15.84
   3   9 -12   48.03   20.13
   3   9 -11  122.84   32.03
   3   9 -11   79.79   23.38
   3   9 -10   72.69   24.89
   3   9 -10   31.69   13.72
   3   9  -9  319.49   41.88
   3   9  -9  464.73   59.99
   3   9  -8    8.15    7.94
   3   9  -8  -21.12   13.30
  -3  -9   7   89.27   24.43
   3   9  -7   81.56   24.48
  -3  -9   6   16.22   11.72
   3   9  -6   -1.79    5.14
  -3  -9   5  177.91   33.85
   3   9  -5  193.80   38.67
  -3  -9   4  188.05   33.92
   3   9  -4  179.93   36.47
  -3  -9   3  113.14   25.74
   3   9  -3   64.33   22.53
   3   9  -3   94.49   26.23
  -3  -9   2  919.64   71.19
   3   9  -2  958.39   85.40
   3   9  -2  928.89   81.27
  -3  -9   1   10.02    6.51
   3   9  -1    4.36    7.69
   3   9  -1   12.10   10.05
   4   9 -12   23.25   17.58
   4   9 -12   10.83    8.25
   4   9 -11   24.97   13.97
   4   9 -11   14.04   10.20
   4   9 -10    7.53    6.43
   4   9  -9  138.41   34.52
  -4  -9   8  110.59   27.65
   4   9  -8  125.99   32.70
  -4  -9   7    6.23    7.70
   4   9  -7   12.14    8.05
   4   9  -6  286.74   49.26
   4   9  -5   97.62   27.55
   4   9  -4   -6.14    9.95
   4   9  -3  172.61   38.63
   4   9  -3  186.46   38.54
   4   9  -2   31.97   17.01
   4   9  -2   26.93   15.67
   5   9 -10    4.84    8.16
   5   9  -9  385.42   59.51
   5   9  -8   -3.49   12.89
   5   9  -7  -11.39   11.86
   5   9  -6  511.70   69.25
   5   9  -5    7.13    7.14
 -10  10  -4    5.28    9.33
 -10  10  -3   24.46   20.87
  10 -10   2   73.93   24.84
 -10  10  -2    6.23   10.58
  10 -10   1   -6.47   11.46
 -10  10  -1  -10.46   13.52
  -9  10  -7  -20.55   16.42
  -9  10  -6   45.20   24.74
   9 -10   5   -3.36    5.71
   9 -10   5    8.23    8.06
  -9  10  -5  -13.18   14.00
   9 -10   4   20.26   13.43
   9 -10   4   13.26    8.73
  -9  10  -4   35.06   19.74
   9 -10   3   39.79   17.07
   9 -10   3   32.33   13.25
   9 -10   2  102.56   27.92
   9 -10   2   87.50   22.06
  -9  10  -2   48.82   25.62
   9 -10   1    4.91    9.36
  -9  10  -1   -3.67   12.76
   9 -10   1    5.25    6.01
  -9  10   0  118.25   37.32
   9 -10   0  131.41   32.61
   9 -10   0  114.98   25.39
  -9  10   1   50.13   25.56
   9 -10  -1   34.81   16.81
   9 -10  -1   73.06   20.50
   9 -10  -2   13.55    9.26
   9 -10  -3  241.90   37.03
  -8  10  -9  114.92   29.08
  -8  10  -8   74.74   26.39
  -8  10  -8   33.22   20.39
  -8  10  -7   88.93   29.33
   8 -10   7  270.38   44.63
   8 -10   6   -1.08    5.97
  -8  10  -6   -1.71   11.58
   8 -10   5    4.52   11.12
   8 -10   5    7.60    6.62
  -8  10  -5    0.04    8.33
   8 -10   4   61.18   21.27
   8 -10   4   53.77   18.17
  -8  10  -4   -3.77    6.24
   8 -10   3   -8.01   12.99
   8 -10   3    5.82    6.74
  -8  10  -3    0.47    6.68
   8 -10   2  201.75   38.77
  -8  10  -2  184.90   45.34
   8 -10   2  168.91   30.94
  -8  10  -1    0.33    5.41
   8 -10   1   15.90    8.98
   8 -10   1    8.92    7.75
   8 -10   0  438.53   58.85
   8 -10   0  392.64   46.50
  -8  10   0  478.16   73.11
   8 -10  -1   20.87   15.06
   8 -10  -1   29.94   12.45
   8 -10  -2   53.10   23.15
   8 -10  -2   66.90   19.11
   8 -10  -3  344.09   45.02
   7 -10   9   -1.68    5.96
  -7  10  -9    4.26    8.05
  -7  10  -9    1.18    4.94
   7 -10   8   34.35   14.82
  -7  10  -8   -0.39    5.69
  -7  10  -8   25.37   13.10
  -7  10  -8   27.93   17.23
   7 -10   7    4.66    7.12
  -7  10  -7  -23.68   14.42
  -7  10  -7   -0.44   11.20
  -7  10  -6   49.98   23.36
   7 -10   6  198.64   37.56
   7 -10   5   37.21   14.13
   7 -10   5   26.13   15.17
  -7  10  -5   17.03   14.73
   7 -10   4  375.75   48.30
   7 -10   4  384.46   51.43
  -7  10  -4  276.16   52.73
   7 -10   3    3.73    5.77
   7 -10   3   -1.71    5.73
  -7  10  -2    0.34   11.28
   7 -10   2    0.83    7.70
   7 -10   2  -20.86   11.66
   7 -10   1  677.50   71.15
   7 -10   1  674.92   61.51
  -7  10  -1  829.17   93.58
   7 -10   0  127.02   30.81
   7 -10   0   88.60   22.59
   7 -10  -1  208.40   40.75
   7 -10  -1  192.72   33.03
   7 -10  -2   42.17   19.87
   7 -10  -2   39.08   15.40
   7 -10  -3   46.93   17.23
   6 -10  10   -3.51    6.72
  -6  10 -10   -0.43    5.67
   6 -10   9    7.32    8.19
  -6  10  -9  -11.76   10.74
   6 -10   8   12.70    9.89
  -6  10  -8   19.56   11.55
  -6  10  -8   -9.64   10.29
   6 -10   7   68.02   20.57
  -6  10  -7   75.03   23.79
   6 -10   6    5.68    6.28
  -6  10  -6    2.10    8.37
   6 -10   5    9.41    8.33
  -6  10  -5   23.90   16.31
   6 -10   5   30.13   14.55
  -6  10  -4  145.03   36.25
   6 -10   4  135.01   29.96
   6 -10   4  132.77   29.61
  -6  10  -3   10.59   11.53
   6 -10   3    2.05    4.80
   6 -10   3   -0.24    5.74
   6 -10   2  241.72   37.78
   6 -10   2  241.91   40.49
   6 -10   1  130.87   30.84
   6 -10   1   90.37   23.24
   6 -10   0   15.65    8.79
   6 -10   0   -5.37    6.65
  -6  10   0   13.00    8.10
   6 -10  -1  157.72   33.78
   6 -10  -1  200.59   33.92
  -6  10   1  181.95   30.35
   6 -10  -2  179.13   32.93
  -6  10   2  182.45   30.81
   6 -10  -3   13.18    9.14
   5 -10  11   30.89   16.12
  -5  10 -10   53.70   21.41
   5 -10  10   34.37   15.39
  -5  10  -9   70.08   23.17
   5 -10   9   93.40   24.42
   5 -10   8  554.40   55.98
  -5  10  -8  539.16   63.26
   5 -10   7   51.63   15.36
  -5  10  -7   45.45   17.97
  -5  10  -7   -3.61    7.10
   5 -10   6  162.88   30.42
  -5  10  -6  182.79   36.09
  -5  10  -6   86.33   25.98
   5 -10   5  271.21   39.75
  -5  10  -5  265.86   45.79
   5 -10   5  239.52   39.07
   5 -10   4   57.27   17.81
   5 -10   4   49.32   17.91
  -5  10  -4  104.98   29.86
   5 -10   3  637.18   62.64
   5 -10   3  701.95   65.90
   5 -10   2   29.91   13.62
   5 -10   2   24.99   13.45
   5 -10   1  386.95   51.45
   5 -10   1  373.69   46.91
  -5  10  -1  389.59   45.01
   5 -10   0   12.05    9.63
   5 -10   0   -1.22    9.04
  -5  10   0    0.52    6.34
   5 -10  -1  278.13   45.00
   5 -10  -1  271.30   40.32
  -5  10   1  306.03   40.02
   5 -10  -2  194.39   34.39
  -5  10   2  214.42   33.94
  -5  10   3   40.20   15.01
  -5  10   4  476.62   54.80
  -4  10 -11    7.58    6.68
   4 -10  11    9.39    8.79
  -4  10 -10   11.72   13.41
   4 -10  10    7.14    7.74
  -4  10  -9  126.33   30.38
   4 -10   9  139.85   27.74
   4 -10   8   -5.43    8.07
  -4  10  -8   -4.85   10.54
   4 -10   7  115.92   24.32
  -4  10  -7  121.39   29.01
   4 -10   6   59.36   18.08
  -4  10  -6   27.34   15.37
  -4  10  -6   26.42   13.95
   4 -10   5  162.03   32.90
   4 -10   5  198.57   33.57
  -4  10  -5  241.86   41.70
   4 -10   4    3.66    4.54
   4 -10   4    3.02    7.60
   4 -10   3  153.54   29.90
   4 -10   3  139.57   29.84
   4 -10   2  345.45   46.28
   4 -10   2  369.74   48.03
  -4  10  -2  340.73   43.22
   4 -10   1  130.83   29.38
   4 -10   1  118.25   27.11
  -4  10  -1  130.11   26.16
   4 -10   0  468.30   54.81
   4 -10   0  541.14   57.39
  -4  10   0  490.92   51.06
   4 -10  -1   18.40   12.59
  -4  10   1   47.89   16.82
   4 -10  -2   30.70   14.06
  -4  10   2    2.20    4.88
  -4  10   3  110.99   26.18
   3 -10  12  191.60   34.88
   3 -10  11   46.44   16.20
  -3  10 -11   33.53   15.88
  -3  10 -10  129.10   31.31
   3 -10  10  171.19   29.84
  -3  10  -9   38.32   17.31
   3 -10   9   11.99    8.78
  -3  10  -8   26.43   13.36
   3 -10   8   22.92   10.40
   3 -10   7  142.63   26.85
  -3  10  -7  135.15   30.45
  -3  10  -7   74.59   21.08
  -3  10  -6   10.17    9.41
   3 -10   6   14.84    8.40
  -3  10  -6   11.34    8.04
   3 -10   5  104.98   23.29
   3 -10   5   96.91   26.05
   3 -10   4   20.23   10.52
   3 -10   4    3.16    6.93
   3 -10   3  802.45   72.11
   3 -10   3  801.75   66.52
   3 -10   2   13.22    9.60
   3 -10   2    4.78    5.62
  -3  10  -2    7.77    6.17
  -3  10  -2    6.81    7.95
   3 -10   1   -2.70    5.52
   3 -10   1    1.24    7.63
  -3  10  -1   11.04    8.48
   3 -10   0  541.04   57.76
  -3  10   0  541.99   54.34
   3 -10  -1   -0.99    4.47
  -3  10   1   14.97    9.19
   3 -10  -2  173.56   32.98
  -3  10   2  156.08   30.77
   2 -10  12    4.14    6.40
   2 -10  11   30.84   12.93
  -2  10 -11   22.03   15.35
   2 -10  10    4.89    4.47
  -2  10 -10    1.27    9.17
  -2  10  -9  297.02   46.28
   2 -10   9  302.06   36.35
  -2  10  -8   90.38   24.10
   2 -10   8   71.72   17.76
   2 -10   7  593.32   51.12
  -2  10  -7  504.14   55.92
   2 -10   6   82.18   19.25
  -2  10  -6   68.83   20.17
   2 -10   5  147.48   26.09
   2 -10   5  127.71   30.31
   2 -10   4 1270.13   92.92
   2 -10   4 1239.19   78.26
  -2  10  -4 1244.56   73.42
   2 -10   3   20.31   10.14
   2 -10   3   49.14   19.48
  -2  10  -3   37.20   13.41
  -2  10  -3   24.96   11.28
   2 -10   2  223.06   33.99
   2 -10   2  238.20   39.13
  -2  10  -2  242.98   33.48
  -2  10  -2  295.58   41.72
   2 -10   1   40.84   15.79
  -2  10  -1   26.07   12.51
   2 -10   0  140.18   30.12
  -2  10   0  119.69   25.94
   2 -10  -1   75.18   22.24
  -2  10   1   80.10   21.42
   2 -10  -2   13.46    7.17
  -2  10   2    0.63    7.19
  -1  10 -11    1.21    5.45
  -1  10 -10   81.67   23.74
  -1  10  -9   -7.92    8.20
  -1  10  -8   57.22   19.73
  -1  10  -7  206.28   34.97
   1 -10   6   14.11    9.64
  -1  10  -6   12.37   10.27
  -1  10  -6   17.07   10.31
   1 -10   5  130.42   30.36
  -1  10  -5  128.67   25.59
   1 -10   4  275.03   43.98
  -1  10  -4  290.37   37.97
   1 -10   3   12.69    9.99
  -1  10  -3   15.65    9.15
  -1  10  -3   21.57   12.59
   1 -10   2   42.71   17.66
  -1  10  -2   26.35   11.61
  -1  10  -2   24.14   13.93
   1 -10   1  267.25   42.01
  -1  10  -1  260.60   39.82
   1 -10   0   12.64    9.82
  -1  10   0   12.31    9.46
   1 -10  -1   29.55   12.14
  -1  10   1   45.04   18.30
   0  10 -11  294.28   46.58
   0  10 -10   15.46    9.97
   0  10  -9   17.22   11.03
   0  10  -8  439.19   51.37
   0  10  -8  442.67   51.11
   0  10  -7   57.70   17.68
   0  10  -7   37.26   14.96
   0 -10   6  301.30   45.76
   0  10  -6  200.50   33.72
   0  10  -6  216.24   35.54
   0 -10   5   -5.50    8.78
   0  10  -5   -1.45    4.74
   0 -10   4  516.18   60.46
   0  10  -4  470.25   51.87
   0 -10   3   -5.22    8.89
   0  10  -3   -9.72    8.32
   0  10  -3   -6.63    7.77
   0 -10   2  157.19   32.07
   0  10  -2  114.72   26.06
   0  10  -2  125.82   28.88
   0 -10   1  290.38   43.47
   0  10  -1  265.17   41.67
   0 -10   0   38.56   15.90
   0  10   0   58.15   20.68
   0 -10  -1  710.86   68.86
   1  10 -12   51.60   20.49
   1  10 -11   -1.78    6.17
   1  10 -10   88.48   25.33
   1  10 -10   60.76   20.28
   1  10  -9   16.41   10.64
   1  10  -9   12.21    8.25
   1  10  -8  269.05   39.40
   1  10  -8  294.13   43.87
  -1 -10   7    1.31    7.74
   1  10  -7   -3.24    6.08
   1  10  -7   -0.34    7.19
  -1 -10   6    4.35   10.69
   1  10  -6    7.86    8.92
  -1 -10   5  597.08   65.92
   1  10  -5  652.82   65.07
  -1 -10   4   90.17   25.07
   1  10  -4   97.17   25.23
  -1 -10   3  417.41   54.08
   1  10  -3  366.00   49.16
   1  10  -3  385.71   52.46
  -1 -10   2   56.81   19.63
   1  10  -2   67.57   21.76
   1  10  -2   65.35   22.40
  -1 -10   1    9.29    8.25
   1  10  -1  -11.19    9.66
   1  10  -1   11.52    9.60
  -1 -10   0  188.27   35.25
   2  10 -11    1.76    5.90
   2  10 -11    6.77   12.99
   2  10 -10   41.38   17.45
   2  10 -10   40.18   17.01
   2  10  -9   63.50   20.03
   2  10  -9   82.63   25.47
   2  10  -8  119.39   25.01
   2  10  -8  169.63   35.75
  -2 -10   7   38.58   17.42
   2  10  -7   23.94   14.30
  -2 -10   6  253.85   43.32
   2  10  -6  338.57   50.16
  -2 -10   5   27.98   14.63
   2  10  -5   -1.02    7.11
  -2 -10   4    0.64    8.40
   2  10  -4   13.24   10.76
  -2 -10   3  296.47   44.84
   2  10  -3  277.53   45.50
   2  10  -3  301.91   48.32
  -2 -10   2   24.55   13.10
   2  10  -2    2.96    8.04
   2  10  -2    8.00    9.31
  -2 -10   1   56.73   19.51
  -2 -10   0  107.59   27.01
   3  10 -12  289.14   51.28
   3  10 -11   50.98   21.15
   3  10 -11   59.42   19.61
   3  10 -10  123.27   33.19
   3  10  -9  187.86   39.00
  -3 -10   8  122.36   29.64
   3  10  -8  116.92   31.36
  -3 -10   7  550.74   63.73
   3  10  -7  458.84   61.64
  -3 -10   6   -2.77    6.41
   3  10  -6  -15.08   12.02
  -3 -10   5  158.75   33.22
   3  10  -5  188.54   40.43
  -3 -10   4   65.62   21.44
   3  10  -4   41.37   17.70
  -3 -10   3  103.60   27.04
   3  10  -3   75.73   25.09
   4  10 -10  110.92   31.96
   4  10  -9   40.87   18.06
   4  10  -8   40.87   20.71
   4  10  -7   88.12   28.54
   4  10  -6   61.92   24.31
   9 -11   6   11.35   12.73
  -9  11  -6   -8.50   16.18
  -9  11  -5   -9.69   12.44
   9 -11   5   28.29   14.94
   9 -11   4   46.68   18.12
  -9  11  -4    8.85   14.09
   9 -11   3   12.02   16.47
   9 -11   3    7.72    8.43
  -9  11  -3  -27.46   19.26
   9 -11   2   82.90   25.75
  -9  11  -2   59.23   27.86
   9 -11   2   59.08   19.04
   9 -11   1   52.92   18.44
   9 -11   0   20.44   11.99
  -8  11  -8    1.30    6.99
  -8  11  -7    5.26    9.55
  -8  11  -6  -13.64   13.13
   8 -11   6   44.16   18.77
   8 -11   6   31.61   14.97
   8 -11   5  347.51   51.66
   8 -11   5  338.55   48.80
   8 -11   4    8.42    9.15
   8 -11   4    5.69    9.08
  -8  11  -4   -2.91    8.45
   8 -11   3   10.67   10.65
   8 -11   3   -2.99    4.95
  -8  11  -2  281.69   57.02
   8 -11   2  210.37   42.29
   8 -11   2  231.80   38.78
  -8  11  -1    0.04    7.71
   8 -11   1   16.44   13.89
   8 -11   1  -12.30    9.55
   8 -11   0   74.53   25.27
   8 -11   0   73.72   22.11
  -7  11  -8   32.85   18.37
  -7  11  -8   -0.44    6.29
   7 -11   7  -16.80   11.71
  -7  11  -7   -8.02   10.23
   7 -11   6  116.21   28.70
   7 -11   6  174.85   35.58
   7 -11   5    9.02    9.15
  -7  11  -5   -2.08    7.43
   7 -11   4   93.78   26.34
  -7  11  -4  102.19   31.74
   7 -11   4   64.90   22.43
  -7  11  -3  -11.71   12.90
   7 -11   3    3.66    7.62
   7 -11   3   17.59   10.37
   7 -11   2  432.55   58.71
   7 -11   2  428.79   53.66
  -7  11  -2  504.21   74.13
   7 -11   1    2.46    5.60
   7 -11   1   25.38   14.09
   7 -11   0   17.46   11.41
   7 -11   0  -10.09    9.06
   7 -11  -1  407.14   59.09
   7 -11  -1  389.65   49.99
   6 -11   9   58.33   19.99
   6 -11   8    4.81    5.23
  -6  11  -8    5.53    7.11
   6 -11   7   36.16   16.83
  -6  11  -7   10.18   10.38
   6 -11   6   73.70   22.75
   6 -11   6  108.56   27.29
  -6  11  -6   21.59   16.16
   6 -11   5    3.18    7.14
  -6  11  -5   24.30   18.85
   6 -11   5    5.26    7.46
  -6  11  -4    1.38    7.68
   6 -11   4    1.88    5.62
   6 -11   4   -1.77    9.07
   6 -11   3  150.01   33.16
   6 -11   3  133.37   30.82
  -6  11  -3  206.99   46.23
   6 -11   2   59.96   21.60
   6 -11   2   68.56   22.27
   6 -11   1   -1.50    6.23
   6 -11   1    7.82    9.62
   6 -11   0  184.10   38.50
   6 -11   0  212.30   37.96
   6 -11  -1   37.60   19.76
   6 -11  -1   15.58   11.07
   5 -11  10   10.17    9.66
   5 -11   9    7.77   10.44
  -5  11  -9  -18.47   12.92
   5 -11   8   78.43   21.95
  -5  11  -8   71.34   24.96
   5 -11   7    7.24    6.97
  -5  11  -7    5.80    7.85
  -5  11  -7   -6.14    8.87
   5 -11   6  625.88   65.99
   5 -11   6  658.39   62.48
  -5  11  -6  448.97   60.64
  -5  11  -5  162.00   36.99
   5 -11   5  150.14   30.78
   5 -11   5   97.78   27.45
   5 -11   4  275.74   44.44
   5 -11   4  217.29   37.89
  -5  11  -4  295.44   50.95
   5 -11   3  208.58   37.95
   5 -11   3  242.26   41.65
   5 -11   2   56.81   19.84
   5 -11   2   47.72   18.99
   5 -11   1  475.38   59.51
   5 -11   1  526.70   59.75
  -5  11  -1  509.91   55.48
   5 -11   0   -7.92    9.29
   5 -11   0    1.03    9.83
  -5  11   0   11.78    8.54
  -5  11   1  121.47   27.27
  -5  11   2   27.29   14.10
   4 -11  11    2.33    5.72
  -4  11 -10  107.00   29.70
   4 -11  10   87.50   22.43
   4 -11   9    5.93    7.26
  -4  11  -9    8.90    8.41
   4 -11   8    2.82    5.59
  -4  11  -8   -3.88   10.21
   4 -11   7  350.43   43.97
  -4  11  -7  416.05   55.50
   4 -11   6   23.25   14.45
  -4  11  -6   26.10   16.39
   4 -11   6   15.31    7.73
   4 -11   5   96.54   23.75
   4 -11   5   83.16   24.94
  -4  11  -5  138.46   33.57
   4 -11   4   80.35   22.31
   4 -11   4   58.59   20.87
   4 -11   3  107.88   26.32
   4 -11   3   76.93   24.39
   4 -11   2   -8.06    8.83
  -4  11  -2    0.07    4.41
   4 -11   1   72.89   23.10
   4 -11   1   91.56   25.40
  -4  11  -1   77.68   22.05
   4 -11   0  136.98   31.15
  -4  11   0   73.03   21.44
  -4  11   1   17.10    8.25
   3 -11  11   19.61   10.51
  -3  11 -10   98.62   28.08
   3 -11  10  107.72   23.68
  -3  11  -9   69.20   23.44
   3 -11   9   91.21   21.69
   3 -11   8  294.06   38.41
  -3  11  -8  352.37   49.61
   3 -11   7   11.67    9.17
  -3  11  -7    6.26    9.78
   3 -11   6   13.61    8.53
   3 -11   6    4.17    5.48
  -3  11  -6   -0.74    5.21
   3 -11   5  191.16   32.65
   3 -11   5  197.97   39.11
   3 -11   4    0.28    5.69
   3 -11   4   -4.82   10.21
   3 -11   3  107.88   25.33
   3 -11   3   96.08   27.27
   3 -11   2    4.34    7.42
   3 -11   2   16.86   10.32
  -3  11  -2   -2.45    4.79
   3 -11   1  304.06   46.84
  -3  11  -1  251.27   40.18
   3 -11   0   -0.84    6.43
  -3  11   0    9.70    8.37
  -3  11   1   61.77   20.79
  -2  11 -10   13.66    9.33
  -2  11  -9  144.95   32.29
  -2  11  -8    8.30    4.55
  -2  11  -7  257.43   41.39
   2 -11   6   62.36   22.59
   2 -11   5  361.32   52.76
   2 -11   4   39.79   17.87
   2 -11   3  -22.44   13.98
   2 -11   2  892.97   81.74
  -2  11  -2  824.35   65.42
  -2  11  -2  810.56   73.91
   2 -11   1  150.66   34.30
  -2  11  -1  106.32   26.57
   2 -11   0  217.75   40.77
  -2  11   0  213.89   37.75
  -1  11 -10    3.34    9.24
  -1  11  -9   42.99   17.11
  -1  11  -8  109.32   27.13
   1 -11   7   13.56   10.84
  -1  11  -7   -2.60    7.49
   1 -11   6  143.82   33.38
   1 -11   5   25.83   14.89
   1 -11   4   18.10   12.66
  -1  11  -4  -10.37    8.49
   1 -11   3  223.03   42.49
  -1  11  -3  254.66   38.36
  -1  11  -3  242.40   41.71
   1 -11   2   48.51   19.71
  -1  11  -2   62.03   19.74
  -1  11  -2   31.82   14.83
   1 -11   1   12.42   12.02
  -1  11  -1   16.40   10.19
  -1  11  -1  -12.46   10.17
   0  11 -11   55.04   20.14
   0  11 -10   40.12   17.01
   0  11  -9  490.89   56.56
   0  11  -8   28.41   14.86
   0  11  -7   73.64   21.63
   0 -11   7   86.23   26.05
   0 -11   6  312.01   49.52
   0  11  -6  288.95   44.03
   0 -11   5   49.66   17.98
   0  11  -5   63.91   21.40
   0 -11   4  389.73   55.91
   0  11  -4  433.50   52.77
   0 -11   3   15.73   12.72
   0  11  -3   27.04   14.56
   0  11  -3   12.02   12.51
   0 -11   2   79.49   25.21
   0  11  -2   51.47   18.68
   0  11  -2   76.19   24.13
   0 -11   1    1.55    9.39
   0  11  -1   10.16    9.99
   1  11 -11   12.67   10.05
   1  11 -10  189.97   35.41
   1  11  -9    1.93    7.35
   1  11  -8  100.69   25.32
  -1 -11   8  159.89   34.50
   1  11  -8  204.03   37.95
  -1 -11   7   27.16   15.15
   1  11  -7   44.07   17.40
  -1 -11   6  105.57   29.09
   1  11  -6   69.86   22.99
  -1 -11   5   11.89   11.42
   1  11  -5   14.80    7.94
  -1 -11   4   73.30   26.06
   1  11  -4   52.37   19.63
  -1 -11   3  231.39   42.44
   1  11  -3  268.62   44.40
  -1 -11   2  157.54   34.90
   1  11  -2   98.17   26.39
   2  11 -11   38.04   17.83
   2  11 -10    8.27   10.32
   2  11 -10  -16.51   12.39
   2  11  -9    2.67    6.41
  -2 -11   9   23.96   15.69
  -2 -11   8   70.70   24.40
   2  11  -8   57.46   21.86
  -2 -11   7   -7.67   13.76
   2  11  -7   17.65   11.38
  -2 -11   6   44.55   20.27
   2  11  -6   18.84   11.82
  -2 -11   5   11.23   10.85
   2  11  -5    7.51    7.31
  -2 -11   4  222.82   41.96
   2  11  -4  282.11   48.16
  -2 -11   3   12.98   10.63
  -3 -11   9   13.17    9.02
   3  11  -9    6.28   10.15
  -3 -11   8  156.81   35.49
   3  11  -8  143.79   37.12
   3  11  -7   61.86   23.50
  -8  12  -7   21.10   16.82
  -8  12  -6    4.32    9.18
  -8  12  -5   -4.60   10.03
  -8  12  -4   -3.45    9.07
   7 -12   7  210.65   38.28
  -7  12  -7    9.12   11.38
   7 -12   6    1.44    5.85
   7 -12   6  -15.87   12.20
  -7  12  -6   -6.35    9.81
   7 -12   5    2.36    7.60
   7 -12   5  -14.10   11.55
  -7  12  -5   -4.90    9.50
  -7  12  -4  199.01   46.42
   7 -12   4  173.62   36.94
   7 -12   4  138.45   33.13
  -7  12  -3   37.37   22.42
   7 -12   3   13.37   13.02
   7 -12   3   20.33   14.01
   7 -12   2  106.97   30.74
  -7  12  -2  194.48   48.03
   7 -12   1    9.43   11.06
   6 -12   8    4.52    7.35
   6 -12   7   79.29   24.31
   6 -12   7   92.56   24.56
   6 -12   6  -15.36   11.03
   6 -12   6    2.91    6.51
  -6  12  -6   20.44   14.94
   6 -12   5   83.39   23.70
  -6  12  -5   85.26   29.55
   6 -12   5   59.24   21.35
  -6  12  -4   78.87   29.31
   6 -12   4   91.82   26.13
   6 -12   4   76.02   24.10
   6 -12   3   28.25   15.06
  -6  12  -3   19.47   15.51
   6 -12   3   10.32    9.36
   6 -12   2   35.31   18.83
   6 -12   1  175.44   38.34
   6 -12   0    0.46   13.71
   5 -12   9   36.44   15.51
   5 -12   8   57.60   19.69
   5 -12   7   -2.19    7.02
   5 -12   7    3.75    8.93
   5 -12   6  107.22   26.51
  -5  12  -6   68.41   25.06
   5 -12   6  120.39   30.92
  -5  12  -5    6.46    9.83
   5 -12   5  -29.58   14.82
   5 -12   5  -23.79   14.77
   5 -12   4  247.91   42.18
  -5  12  -4  293.84   53.24
   5 -12   4  212.97   41.68
   5 -12   3   11.34    5.93
   5 -12   3   27.30   13.00
   5 -12   2  308.55   48.71
   5 -12   1   36.78   17.91
  -5  12  -1   50.61   19.05
  -5  12   0   76.68   23.22
   4 -12   8  111.39   25.18
  -4  12  -8  202.63   40.21
   4 -12   7   -6.34    7.33
   4 -12   7   -3.30    5.05
  -4  12  -6   44.56   19.80
   4 -12   6   54.15   18.46
   4 -12   6   21.31   12.25
  -4  12  -5  179.59   39.32
   4 -12   5  138.38   33.77
   4 -12   4   54.75   20.61
   4 -12   3  275.70   47.76
  -4  12  -1   26.31   14.27
  -3  12  -8   81.37   25.44
   3 -12   7    3.73    9.67
   3 -12   6  377.17   55.51
   3 -12   5   -2.75    8.79
   3 -12   4   26.01   16.19
   3 -12   3  314.58   52.15
  -3  12  -2   -8.78    9.81
  -2  12  -9   27.00   13.40
  -2  12  -8    8.83   10.08
   2 -12   8    8.78    9.39
   2 -12   7  364.81   53.36
   2 -12   6    0.48   11.19
   2 -12   5  135.96   33.82
   2 -12   4   -9.24   10.35
   2 -12   3  246.57   48.13
  -1  12  -9  -21.55   13.03
  -1  12  -8   48.07   19.51
   1 -12   8   38.82   17.71
   1 -12   7  114.65   31.38
   1 -12   6  -10.79   10.65
   1 -12   5    5.91   10.03
   1 -12   4  267.07   49.24
   0  12  -9   70.82   22.28
   0 -12   8    1.01    5.44
   0 -12   7  268.99   47.29
   0 -12   6   45.04   20.53
   0 -12   5  112.61   32.14
   0  12  -4  197.41   38.05
   0  12  -3   31.17   15.46
  -1 -12   7   19.68   13.79
  -1 -12   6  147.28   36.75
   1  12  -6  117.29   30.94
   1  12  -5   36.81   14.68
   6 -13   6   82.78   24.96
  -6  13  -6   59.74   24.14
  -6  13  -5   41.99   22.03
   6 -13   5   54.95   20.14
   6 -13   4   -3.35    7.62
   6 -13   3   75.88   26.10
  -5  13  -5    8.20   12.63

TITL exp_dantemp100_1 in P-1
REM P-1 (#2 in standard setting)
CELL 0.71073   9.165446   9.183901  10.099499 113.8411 100.4302 108.0009
ZERR    2.00   0.000539   0.000834   0.000956   0.0094   0.0063   0.0070
LATT  1
SFAC C H N Cl I Pt
UNIT 28.00 44.00 8.00 4.00 12.00 2.00
TREF
HKLF 4
END
_computing_structure_solution     'SHELXT 2014/4 (Sheldrick, 2014)'
;
_shelx_hkl_checksum              10364
_olex2_submission_special_instructions 'No special instructions were received'
loop_
_space_group_symop_operation_xyz
'x, y, z'
'-x, -y, -z'
loop_
_atom_site_label
_atom_site_type_symbol
_atom_site_fract_x
_atom_site_fract_y
_atom_site_fract_z
_atom_site_U_iso_or_equiv
_atom_site_adp_type
_atom_site_occupancy
_atom_site_site_symmetry_order
_atom_site_calc_flag
_atom_site_refinement_flags_posn
_atom_site_refinement_flags_adp
_atom_site_refinement_flags_occupancy
Pt1 Pt 0.0000 0.0000 0.0000 0.02254(11) Uani 1 2 d S T P
I1S I 0.45291(5) 0.16225(6) 0.42257(6) 0.02719(13) Uani 1 1 d . . .
I2S I 0.83564(6) 0.14713(6) 0.41651(6) 0.03187(14) Uani 1 1 d . . .
I3S I 0.81842(6) 0.54174(6) 0.67220(7) 0.03542(15) Uani 1 1 d . . .
Cl1 Cl 0.06431(19) -0.0106(2) 0.2287(2) 0.0250(4) Uani 1 1 d . . .
N1 N 0.2335(7) 0.1208(7) 0.0376(7) 0.0259(14) Uani 1 1 d . . .
N2 N 0.5247(7) 0.2872(8) 0.0927(8) 0.0321(16) Uani 1 1 d . . .
C1S C 0.7067(8) 0.2596(9) 0.5535(8) 0.0240(15) Uani 1 1 d . . .
H1S H 0.7105 0.2239 0.6329 0.029 Uiso 1 1 calc R . .
C1 C 0.3701(9) 0.1970(9) 0.0621(9) 0.0265(16) Uani 1 1 d . . .
C2 C 0.6152(9) 0.2103(9) 0.0031(9) 0.0295(18) Uani 1 1 d . . .
H2A H 0.5400 0.0992 -0.0881 0.035 Uiso 1 1 calc R . .
H2B H 0.6909 0.1883 0.0648 0.035 Uiso 1 1 calc R . .
C6 C 0.6220(9) 0.4609(10) 0.2306(9) 0.0345(19) Uani 1 1 d . . .
H6A H 0.6989 0.4530 0.3042 0.041 Uiso 1 1 calc R . .
H6B H 0.5505 0.5027 0.2796 0.041 Uiso 1 1 calc R . .
C5 C 0.7140(9) 0.5876(10) 0.1831(10) 0.036(2) Uani 1 1 d . . .
H5A H 0.6365 0.6053 0.1189 0.043 Uiso 1 1 calc R . .
H5B H 0.7848 0.7004 0.2745 0.043 Uiso 1 1 calc R . .
C4 C 0.8141(9) 0.5195(10) 0.0963(11) 0.037(2) Uani 1 1 d . . .
H4A H 0.8990 0.5135 0.1641 0.045 Uiso 1 1 calc R . .
H4B H 0.8671 0.5998 0.0623 0.045 Uiso 1 1 calc R . .
C3 C 0.7088(9) 0.3372(11) -0.0440(10) 0.037(2) Uani 1 1 d . . .
H3A H 0.6320 0.3455 -0.1173 0.045 Uiso 1 1 calc R . .
H3B H 0.7783 0.2930 -0.0944 0.045 Uiso 1 1 calc R . .
loop_
_atom_site_aniso_label
_atom_site_aniso_U_11
_atom_site_aniso_U_22
_atom_site_aniso_U_33
_atom_site_aniso_U_23
_atom_site_aniso_U_13
_atom_site_aniso_U_12
Pt1 0.01927(19) 0.01412(17) 0.0281(2) 0.00528(16) 0.01200(16) 0.00471(14)
I1S 0.0284(3) 0.0220(2) 0.0300(3) 0.0118(2) 0.0127(2) 0.00929(19)
I2S 0.0344(3) 0.0307(3) 0.0344(3) 0.0153(2) 0.0189(2) 0.0156(2)
I3S 0.0338(3) 0.0212(2) 0.0420(4) 0.0104(2) 0.0115(2) 0.0087(2)
Cl1 0.0193(8) 0.0232(8) 0.0259(10) 0.0085(7) 0.0103(7) 0.0046(6)
N1 0.020(3) 0.020(3) 0.028(4) 0.006(3) 0.012(3) 0.003(2)
N2 0.021(3) 0.024(3) 0.030(4) 0.003(3) 0.016(3) -0.004(3)
C1S 0.027(4) 0.024(3) 0.019(4) 0.009(3) 0.010(3) 0.010(3)
C1 0.040(4) 0.018(3) 0.021(4) 0.009(3) 0.012(3) 0.013(3)
C2 0.028(4) 0.023(4) 0.037(5) 0.008(3) 0.022(3) 0.013(3)
C6 0.036(4) 0.030(4) 0.022(4) 0.007(3) 0.011(3) 0.003(3)
C5 0.033(4) 0.023(4) 0.034(5) 0.006(3) 0.003(4) 0.009(3)
C4 0.029(4) 0.026(4) 0.053(6) 0.019(4) 0.021(4) 0.004(3)
C3 0.030(4) 0.041(5) 0.041(5) 0.019(4) 0.019(4) 0.012(4)
loop_
_atom_type_symbol
_atom_type_description
_atom_type_scat_dispersion_real
_atom_type_scat_dispersion_imag
_atom_type_scat_source
C C 0.0033 0.0016 'International Tables Vol C Tables 4.2.6.8 and 6.1.1.4'
H H 0.0000 0.0000 'International Tables Vol C Tables 4.2.6.8 and 6.1.1.4'
Cl Cl 0.1484 0.1585 'International Tables Vol C Tables 4.2.6.8 and 6.1.1.4'
I I -0.4742 1.8119 'International Tables Vol C Tables 4.2.6.8 and 6.1.1.4'
N N 0.0061 0.0033 'International Tables Vol C Tables 4.2.6.8 and 6.1.1.4'
Pt Pt -1.7033 8.3905 'International Tables Vol C Tables 4.2.6.8 and 6.1.1.4'
loop_
_geom_angle_atom_site_label_1
_geom_angle_atom_site_label_2
_geom_angle_atom_site_label_3
_geom_angle
_geom_angle_site_symmetry_1
_geom_angle_site_symmetry_3
Cl1 Pt1 Cl1 180.0 . 2
N1 Pt1 Cl1 90.8(2) 2 2
N1 Pt1 Cl1 89.2(2) 2 .
N1 Pt1 Cl1 89.2(2) . 2
N1 Pt1 Cl1 90.8(2) . .
N1 Pt1 N1 180.0 . 2
C1 N1 Pt1 177.7(6) . .
C1 N2 C2 121.2(6) . .
C1 N2 C6 122.1(6) . .
C2 N2 C6 116.1(6) . .
I1S C1S I3S 109.9(3) . .
I1S C1S H1S 107.0 . .
I2S C1S I1S 112.6(3) . .
I2S C1S I3S 113.0(3) . .
I2S C1S H1S 107.0 . .
I3S C1S H1S 107.0 . .
N1 C1 N2 178.3(8) . .
N2 C2 H2A 109.9 . .
N2 C2 H2B 109.9 . .
N2 C2 C3 108.7(6) . .
H2A C2 H2B 108.3 . .
C3 C2 H2A 109.9 . .
C3 C2 H2B 109.9 . .
N2 C6 H6A 109.9 . .
N2 C6 H6B 109.9 . .
N2 C6 C5 109.0(7) . .
H6A C6 H6B 108.3 . .
C5 C6 H6A 109.9 . .
C5 C6 H6B 109.9 . .
C6 C5 H5A 109.4 . .
C6 C5 H5B 109.4 . .
H5A C5 H5B 108.0 . .
C4 C5 C6 111.0(7) . .
C4 C5 H5A 109.4 . .
C4 C5 H5B 109.4 . .
C5 C4 H4A 109.4 . .
C5 C4 H4B 109.4 . .
C5 C4 C3 111.3(6) . .
H4A C4 H4B 108.0 . .
C3 C4 H4A 109.4 . .
C3 C4 H4B 109.4 . .
C2 C3 C4 111.1(7) . .
C2 C3 H3A 109.4 . .
C2 C3 H3B 109.4 . .
C4 C3 H3A 109.4 . .
C4 C3 H3B 109.4 . .
H3A C3 H3B 108.0 . .
loop_
_geom_bond_atom_site_label_1
_geom_bond_atom_site_label_2
_geom_bond_distance
_geom_bond_site_symmetry_2
Pt1 Cl1 2.327(2) 2
Pt1 Cl1 2.327(2) .
Pt1 N1 1.963(6) .
Pt1 N1 1.963(6) 2
I1S C1S 2.146(7) .
I2S C1S 2.137(7) .
I3S C1S 2.146(7) .
N1 C1 1.152(9) .
N2 C1 1.303(9) .
N2 C2 1.458(8) .
N2 C6 1.468(9) .
C1S H1S 0.9800 .
C2 H2A 0.9700 .
C2 H2B 0.9700 .
C2 C3 1.516(11) .
C6 H6A 0.9700 .
C6 H6B 0.9700 .
C6 C5 1.512(11) .
C5 H5A 0.9700 .
C5 H5B 0.9700 .
C5 C4 1.485(11) .
C4 H4A 0.9700 .
C4 H4B 0.9700 .
C4 C3 1.526(11) .
C3 H3A 0.9700 .
C3 H3B 0.9700 .
