#------------------------------------------------------------------------------
#$Date: 2016-05-06 03:10:19 +0300 (Fri, 06 May 2016) $
#$Revision: 182595 $
#$URL: svn://www.crystallography.net/cod/cif/7/11/89/7118944.cif $
#------------------------------------------------------------------------------
#
# This file is available in the Crystallography Open Database (COD),
# http://www.crystallography.net/
#
# All data on this site have been placed in the public domain by the
# contributors.
#
data_7118944
loop_
_publ_author_name
'Laugeois, Maxime'
'Ponra, Sudipta'
'Ratovelomanana-Vidal, Virginie'
'Michelet, V\'eronique'
'Vitale, Maxime R.'
_publ_section_title
;
 Asymmetric preparation of polysubstituted cyclopentanes by synergistic
 Pd(0)/amine catalyzed formal [3+2] cycloadditions of vinyl cyclopropanes
 with enals.
;
_journal_issue                   30
_journal_name_full
'Chemical communications (Cambridge, England)'
_journal_page_first              5332
_journal_page_last               5335
_journal_paper_doi               10.1039/c6cc01775d
_journal_volume                  52
_journal_year                    2016
_chemical_absolute_configuration unk
_chemical_formula_moiety         'C16 H14 N2 O'
_chemical_formula_sum            'C16 H14 N2 O'
_chemical_formula_weight         250.29
_space_group_crystal_system      monoclinic
_space_group_IT_number           4
_space_group_name_Hall           'P 2yb'
_space_group_name_H-M_alt        'P 1 21 1'
_symmetry_space_group_name_Hall  'P 2yb'
_symmetry_space_group_name_H-M   'P 1 21 1'
_atom_sites_solution_hydrogens   geom
_atom_sites_solution_primary     dual
_atom_sites_solution_secondary   difmap
_audit_creation_method           SHELXL-2014/7
_audit_update_record
;
2016-03-16 deposited with the CCDC.
2016-03-18 downloaded from the CCDC.
;
_cell_angle_alpha                90
_cell_angle_beta                 104.4060(10)
_cell_angle_gamma                90
_cell_formula_units_Z            2
_cell_length_a                   9.0535(2)
_cell_length_b                   7.4148(2)
_cell_length_c                   10.4203(3)
_cell_measurement_reflns_used    9742
_cell_measurement_temperature    200(2)
_cell_measurement_theta_max      67.65
_cell_measurement_theta_min      4.38
_cell_volume                     677.52(3)
_computing_cell_refinement       'Bruker SAINT'
_computing_data_collection       'Bruker APEX2'
_computing_data_reduction        'Bruker SAINT'
_computing_molecular_graphics    'DIAMOND (Brandenburg, 2006)'
_computing_publication_material  'WinGX publication routines (Farrugia, 2012)'
_computing_structure_refinement  'SHELXL-2014/7 (Sheldrick, 2014)'
_computing_structure_solution    'SUPERFLIP (Palatinus & Chapuis,2007)'
_diffrn_ambient_temperature      200(2)
_diffrn_measured_fraction_theta_full 0.998
_diffrn_measured_fraction_theta_max 0.998
_diffrn_measurement_device_type  'Bruker APEX-II CCD'
_diffrn_measurement_method       '\f and \w scans'
_diffrn_radiation_monochromator  'multi layer miror'
_diffrn_radiation_type           CuK\a
_diffrn_radiation_wavelength     1.54178
_diffrn_reflns_av_R_equivalents  0.0171
_diffrn_reflns_av_unetI/netI     0.0136
_diffrn_reflns_Laue_measured_fraction_full 0.998
_diffrn_reflns_Laue_measured_fraction_max 0.998
_diffrn_reflns_limit_h_max       9
_diffrn_reflns_limit_h_min       -10
_diffrn_reflns_limit_k_max       8
_diffrn_reflns_limit_k_min       -8
_diffrn_reflns_limit_l_max       12
_diffrn_reflns_limit_l_min       -12
_diffrn_reflns_number            12413
_diffrn_reflns_point_group_measured_fraction_full 0.993
_diffrn_reflns_point_group_measured_fraction_max 0.993
_diffrn_reflns_theta_full        67.659
_diffrn_reflns_theta_max         67.659
_diffrn_reflns_theta_min         5.044
_diffrn_source                   'micro focus sealed tube'
_exptl_absorpt_coefficient_mu    0.619
_exptl_absorpt_correction_T_max  0.753
_exptl_absorpt_correction_T_min  0.707
_exptl_absorpt_correction_type   multi-scan
_exptl_absorpt_process_details
;
SADABS, Bruker AXS Inc., Madison, 
Wisconsin, USA. 
;
_exptl_crystal_colour            colorless
_exptl_crystal_density_diffrn    1.227
_exptl_crystal_density_method    'not measured'
_exptl_crystal_description       plate-like
_exptl_crystal_F_000             264
_exptl_crystal_size_max          0.18
_exptl_crystal_size_mid          0.15
_exptl_crystal_size_min          0.08
_refine_diff_density_max         0.123
_refine_diff_density_min         -0.117
_refine_diff_density_rms         0.023
_refine_ls_abs_structure_details
;
 Flack x determined using 1094 quotients [(I+)-(I-)]/[(I+)+(I-)]
 (Parsons, Flack and Wagner, Acta Cryst. B69 (2013) 249-259).
;
_refine_ls_abs_structure_Flack   0.17(11)
_refine_ls_extinction_coef       0.0144(15)
_refine_ls_extinction_expression Fc^*^=kFc[1+0.001xFc^2^\l^3^/sin(2\q)]^-1/4^
_refine_ls_extinction_method     'SHELXL-2014/7 (Sheldrick 2014'
_refine_ls_goodness_of_fit_ref   1.138
_refine_ls_hydrogen_treatment    constr
_refine_ls_matrix_type           full
_refine_ls_number_parameters     173
_refine_ls_number_reflns         2436
_refine_ls_number_restraints     1
_refine_ls_restrained_S_all      1.138
_refine_ls_R_factor_all          0.0255
_refine_ls_R_factor_gt           0.0253
_refine_ls_shift/su_max          0.000
_refine_ls_shift/su_mean         0.000
_refine_ls_structure_factor_coef Fsqd
_refine_ls_weighting_details
'w=1/[\s^2^(Fo^2^)+(0.0285P)^2^+0.0783P] where P=(Fo^2^+2Fc^2^)/3'
_refine_ls_weighting_scheme      calc
_refine_ls_wR_factor_gt          0.0644
_refine_ls_wR_factor_ref         0.0646
_reflns_Friedel_coverage         0.836
_reflns_Friedel_fraction_full    0.988
_reflns_Friedel_fraction_max     0.987
_reflns_number_gt                2418
_reflns_number_total             2436
_reflns_threshold_expression     'I > 2\s(I)'
_cod_data_source_file            c6cc01775d2.cif
_cod_data_source_block           shelx
_cod_depositor_comments
'Adding full bibliography for 7118943--7118945.cif.'
_cod_database_code               7118944
_shelx_shelxl_version_number     2014/7
_shelx_space_group_comment
;
The symmetry employed for this shelxl refinement is uniquely defined
by the following loop, which should always be used as a source of
symmetry information in preference to the above space-group names.
They are only intended as comments.
;
_shelx_res_file
;
 
    shelx.res created by SHELXL-2014/7
 
TITL ml081f2_0m in P2(1)
CELL  1.54178   9.0535   7.4148  10.4203   90.000  104.406   90.000
ZERR     2.00   0.0002   0.0002   0.0003    0.000    0.001    0.000
LATT  -1
SYMM  - X, 1/2 + Y, - Z
SFAC  C    H    O    N
UNIT  32 28 2 4
MERG   2
OMIT     0   0   1
OMIT     2   0   0
OMIT    -2   0   0
FMAP   2
PLAN   20
ACTA
BOND   $H
TEMP -73
L.S.  10
WGHT    0.028500    0.078300
EXTI    0.014426
FVAR       0.47652
O1    3    0.093408    0.167120   -0.015655    11.00000    0.05825    0.13916 =
         0.04512   -0.03369    0.01490   -0.03345
N1    4    0.525218    0.466193    0.594571    11.00000    0.05403    0.06136 =
         0.04482   -0.00274    0.00079   -0.01905
N2    4    0.107330    0.716159    0.375466    11.00000    0.09421    0.05153 =
         0.07460    0.01651    0.05277    0.03246
C1    1    0.271049    0.422464    0.413147    11.00000    0.03303    0.03114 =
         0.03036    0.00103    0.00954    0.00014
C2    1    0.305060    0.359853    0.279791    11.00000    0.02590    0.02712 =
         0.03124    0.00103    0.00746    0.00382
AFIX  13
H2    2    0.374708    0.253392    0.300818    11.00000   -1.20000
AFIX   0
C3    1    0.148296    0.288419    0.204011    11.00000    0.02802    0.03640 =
         0.03410    0.00025    0.00765   -0.00231
AFIX  13
H3    2    0.079289    0.390780    0.166027    11.00000   -1.20000
AFIX   0
C4    1    0.086082    0.186784    0.310625    11.00000    0.03268    0.02961 =
         0.03951    0.00344    0.00925   -0.00177
AFIX  13
H4    2    0.113361    0.056375    0.308060    11.00000   -1.20000
AFIX   0
C5    1    0.173693    0.265084    0.445907    11.00000    0.03462    0.04048 =
         0.03417    0.00662    0.00841   -0.00610
AFIX  23
H5A   2    0.239848    0.171900    0.499328    11.00000   -1.20000
H5B   2    0.101616    0.309585    0.496242    11.00000   -1.20000
AFIX   0
C6    1    0.413241    0.449794    0.516506    11.00000    0.04454    0.03630 =
         0.03281   -0.00076    0.01063   -0.00958
C7    1    0.182081    0.591064    0.393248    11.00000    0.05280    0.03720 =
         0.04029    0.00223    0.02608    0.00542
C8    1    0.382752    0.496735    0.212005    11.00000    0.03064    0.02875 =
         0.02750   -0.00331    0.01035    0.00007
C9    1    0.542108    0.499275    0.241503    11.00000    0.03038    0.03544 =
         0.03674   -0.00165    0.00975    0.00099
AFIX  43
H9    2    0.598816    0.415709    0.303746    11.00000   -1.20000
AFIX   0
C10   1    0.618031    0.621827    0.181224    11.00000    0.03375    0.04496 =
         0.04589   -0.00609    0.01639   -0.00786
AFIX  43
H10   2    0.726328    0.622204    0.202121    11.00000   -1.20000
AFIX   0
C11   1    0.536376    0.744160    0.090337    11.00000    0.05191    0.03899 =
         0.03828   -0.00410    0.02133   -0.01117
AFIX  43
H11   2    0.588412    0.828445    0.048697    11.00000   -1.20000
AFIX   0
C12   1    0.379143    0.743083    0.060537    11.00000    0.05147    0.03346 =
         0.03222    0.00205    0.01409   -0.00048
AFIX  43
H12   2    0.323032    0.826672   -0.002033    11.00000   -1.20000
AFIX   0
C13   1    0.302462    0.620974    0.121199    11.00000    0.03434    0.03513 =
         0.03229    0.00149    0.01009    0.00236
AFIX  43
H13   2    0.194178    0.622212    0.100546    11.00000   -1.20000
AFIX   0
C14   1    0.162999    0.160514    0.096695    11.00000    0.04291    0.06309 =
         0.04833   -0.01872    0.01727   -0.01763
AFIX  43
H14   2    0.234743    0.065301    0.120945    11.00000   -1.20000
AFIX   0
C16   1   -0.083154    0.200974    0.285240    11.00000    0.03392    0.04472 =
         0.04294    0.00410    0.01048   -0.00338
AFIX  43
H16   2   -0.124638    0.315890    0.296433    11.00000   -1.20000
AFIX   0
C17   1   -0.178308    0.068103    0.248954    11.00000    0.04034    0.06484 =
         0.04947    0.00650    0.00451   -0.01709
AFIX  93
H17A  2   -0.141267   -0.048886    0.236712    11.00000   -1.20000
H17B  2   -0.284809    0.088101    0.234709    11.00000   -1.20000
AFIX   0
HKLF    4
 
REM  ml081f2_0m in P2(1)
REM R1 =  0.0253 for    2418 Fo > 4sig(Fo)  and  0.0255 for all    2436 data
REM    173 parameters refined using      1 restraints
 
END
 
WGHT      0.0362      0.0808
 
REM Highest difference peak  0.123,  deepest hole -0.117,  1-sigma level  0.023
Q1    1   0.2291  0.3331  0.2362  11.00000  0.05    0.12
Q2    1   0.1137  0.2255  0.2496  11.00000  0.05    0.12
Q3    1   0.0569  0.2773 -0.0089  11.00000  0.05    0.11
Q4    1   0.3005  0.4030  0.3450  11.00000  0.05    0.10
Q5    1   0.3482  0.4322  0.4578  11.00000  0.05    0.10
Q6    1   0.5006  0.4737  0.5024  11.00000  0.05    0.10
Q7    1   0.3459  0.4345  0.2514  11.00000  0.05    0.09
Q8    1   0.3424  0.5144  0.1379  11.00000  0.05    0.09
Q9    1   0.1305  0.2289  0.3785  11.00000  0.05    0.08
Q10   1   0.1811  0.2332  0.5376  11.00000  0.05    0.08
Q11   1   0.4632  0.5406  0.2618  11.00000  0.05    0.08
Q12   1   0.0866  0.1121  0.0455  11.00000  0.05    0.08
Q13   1   0.3434  0.2890  0.3061  11.00000  0.05    0.08
Q14   1   0.2226  0.5007  0.4042  11.00000  0.05    0.07
Q15   1   0.4585  0.4567  0.2051  11.00000  0.05    0.07
Q16   1   0.1426  0.2460  0.1405  11.00000  0.05    0.07
Q17   1   0.2330  0.3419  0.4318  11.00000  0.05    0.07
Q18   1   0.4154  0.5049  0.5605  11.00000  0.05    0.07
Q19   1   0.1334  0.1560 -0.1022  11.00000  0.05    0.07
Q20   1  -0.0084  0.1349  0.2858  11.00000  0.05    0.07
;
_shelx_res_checksum              53037
_shelx_hkl_file
;
   1   0   0    7.82    0.15
   1   0   0    8.11    0.18
   1   0   0    8.28    0.18
  -1   0   0    8.02    0.18
  -1   0   0    8.54    0.18
  -2   0   0    1.04    0.04
  -2   0   0    1.00    0.04
   2   0   0    1.00    0.04
   2   0   0    1.00    0.05
   3   0   0  218.88    4.62
   3   0   0  207.30    3.88
   4   0   0  234.48    4.29
   5   0   0   28.43    0.57
  -6   0   0    0.81    0.09
  -6   0   0    0.82    0.02
   6   0   0    0.75    0.06
  -7   0   0    1.58    0.04
  -7   0   0    1.53    0.04
  -7   0   0    1.65    0.10
  -7   0   0    1.64    0.11
   7   0   0    1.52    0.09
  -8   0   0    4.07    0.18
  -8   0   0    4.36    0.17
  -9   0   0   15.98    0.37
  -9   0   0   16.13    0.40
 -10   0   0    3.65    0.13
 -10   0   0    3.74    0.15
   0  -1   0   -0.46    0.01
   0  -1   0   -0.46    0.01
   0  -1   0   -0.46    0.01
   0   1   0   -0.41    0.01
   0   1   0   -0.46    0.01
   0   1   0   -0.45    0.01
   1  -1   0  347.71    7.03
   1  -1   0  347.44    8.45
  -1  -1   0  364.76    6.44
  -1  -1   0  357.75    6.44
  -1  -1   0  349.66    7.67
   1  -1   0  356.18    7.07
  -1  -1   0  363.29    9.25
   1   1   0  348.94    7.55
  -1   1   0  346.13    8.15
  -1   1   0  369.03    8.12
   2  -1   0   31.55    0.58
  -2  -1   0   31.25    0.59
   2  -1   0   30.54    0.58
  -2  -1   0   29.93    0.70
  -2  -1   0   33.14    0.71
   2  -1   0   31.33    0.69
   2   1   0   30.94    0.71
   2   1   0   31.82    0.60
   3  -1   0   72.32    1.28
  -3  -1   0   71.29    1.55
  -3  -1   0   69.34    1.54
   3   1   0   71.42    1.59
   3   1   0   72.71    1.33
  -4  -1   0   14.51    0.37
  -4  -1   0   14.59    0.34
   4  -1   0   14.63    0.29
   4   1   0   14.48    0.31
  -5  -1   0   15.68    0.42
   5  -1   0   15.82    0.33
   5   1   0   16.39    0.37
  -6  -1   0   14.03    0.23
  -6  -1   0   13.30    0.23
   6  -1   0   13.58    0.31
  -6  -1   0   13.80    0.34
   6   1   0   13.55    0.33
  -6   1   0   13.72    0.33
  -6   1   0   13.14    0.32
  -7  -1   0    0.77    0.09
  -7  -1   0    0.59    0.04
  -7  -1   0    0.60    0.07
  -7   1   0    0.56    0.02
  -7   1   0    0.67    0.02
  -7   1   0    0.49    0.08
  -7   1   0    0.58    0.07
  -8  -1   0   25.29    0.53
  -8  -1   0   25.52    0.46
  -8  -1   0   25.33    0.57
  -8   1   0   25.46    0.57
  -8   1   0   25.26    0.28
  -8   1   0   25.18    0.53
  -9  -1   0    8.54    0.24
  -9  -1   0    8.36    0.19
  -9  -1   0    8.58    0.26
  -9   1   0    8.59    0.24
  -9   1   0    8.50    0.26
 -10  -1   0    0.67    0.04
 -10  -1   0    0.67    0.07
 -10  -1   0    0.68    0.07
 -10   1   0    0.61    0.06
 -10   1   0    0.78    0.08
   0  -2   0  295.25    5.60
   0  -2   0  313.98    6.71
   0  -2   0  312.47    5.61
   0   2   0  310.80    5.62
   0   2   0  303.34    6.74
   0   2   0  310.50    6.78
  -1  -2   0  568.58   10.34
  -1  -2   0  567.09   12.35
  -1  -2   0  549.43   10.33
   1  -2   0  585.41   10.29
   1  -2   0  572.34   12.29
   1   2   0  549.20   11.68
  -1   2   0  539.77   12.83
   1   2   0  525.66    9.77
  -1   2   0  535.43   11.57
  -2  -2   0    3.65    0.13
   2  -2   0    3.57    0.12
   2  -2   0    3.78    0.10
  -2  -2   0    3.61    0.11
   2   2   0    3.51    0.11
  -2   2   0    3.57    0.10
  -2   2   0    3.68    0.10
   2   2   0    3.76    0.14
  -3  -2   0   26.43    0.63
   3  -2   0   26.38    0.51
   3   2   0   25.50    0.52
   3   2   0   25.23    0.62
  -4  -2   0  125.05    2.59
   4  -2   0  122.99    2.25
  -4  -2   0  123.87    2.70
   4   2   0  121.02    2.24
  -5  -2   0   22.59    0.57
   5  -2   0   22.72    0.45
  -5  -2   0   21.77    0.52
   5   2   0   22.65    0.50
  -6  -2   0    0.53    0.06
  -6  -2   0    0.55    0.05
  -6  -2   0    0.54    0.05
  -6  -2   0    0.42    0.06
   6  -2   0    0.52    0.05
  -6  -2   0    0.68    0.09
  -6  -2   0    0.43    0.05
  -6   2   0    0.53    0.07
   6   2   0    0.50    0.07
  -6   2   0    0.52    0.07
  -6   2   0    0.49    0.07
  -7  -2   0   14.87    0.37
  -7  -2   0   14.20    0.31
  -7  -2   0   14.82    0.35
  -7  -2   0   14.67    0.31
  -7   2   0   15.17    0.36
  -7   2   0   14.32    0.37
  -7   2   0   14.66    0.17
  -7   2   0   14.67    0.17
  -8  -2   0    1.67    0.08
  -8  -2   0    1.51    0.12
  -8  -2   0    1.45    0.08
  -8  -2   0    1.64    0.06
  -8  -2   0    1.68    0.05
  -8  -2   0    1.63    0.11
  -8   2   0    1.73    0.11
  -8   2   0    1.59    0.04
  -8   2   0    1.67    0.12
  -9  -2   0    0.39    0.04
  -9  -2   0    0.51    0.05
  -9  -2   0    0.54    0.07
  -9  -2   0    0.48    0.06
  -9   2   0    0.38    0.06
  -9   2   0    0.39    0.06
  -9   2   0    0.39    0.05
  -9   2   0    0.39    0.02
 -10  -2   0    2.13    0.11
 -10  -2   0    2.22    0.10
 -10  -2   0    2.20    0.07
 -10  -2   0    2.22    0.07
 -10   2   0    2.02    0.09
   0  -3   0   -0.01    0.02
   0  -3   0   -0.02    0.03
   0   3   0   -0.02    0.02
   0   3   0    0.08    0.02
   1  -3   0    0.64    0.05
  -1  -3   0    0.71    0.06
   1  -3   0    0.55    0.06
  -1  -3   0    0.60    0.07
   1   3   0    0.50    0.05
  -1   3   0    0.57    0.05
   1   3   0    0.45    0.06
  -2  -3   0   67.02    1.52
  -2  -3   0   66.00    1.27
   2  -3   0   67.68    1.25
  -2   3   0   67.73    1.45
   2   3   0   65.84    1.51
   2   3   0   65.08    1.26
  -3  -3   0   27.39    0.68
   3  -3   0   26.82    0.54
   3   3   0   25.86    0.66
   3   3   0   25.60    0.55
   4  -3   0   55.40    1.04
  -4  -3   0   54.12    1.23
  -4  -3   0   54.75    1.27
   4   3   0   55.31    1.10
  -5  -3   0    8.80    0.31
   5  -3   0    8.31    0.21
  -5  -3   0    8.38    0.21
  -5  -3   0    8.61    0.23
  -5  -3   0    8.79    0.20
  -5  -3   0    8.41    0.21
  -5  -3   0    8.59    0.23
  -5   3   0    8.25    0.24
  -5   3   0    8.15    0.24
   5   3   0    7.94    0.23
  -5   3   0    8.30    0.10
  -5   3   0    8.31    0.10
   5   3   0    8.65    0.26
  -6  -3   0   27.38    0.51
  -6  -3   0   28.45    0.73
  -6  -3   0   27.75    0.52
   6  -3   0   27.49    0.57
  -6  -3   0   28.08    0.54
  -6  -3   0   28.06    0.51
  -6  -3   0   27.37    0.55
  -6  -3   0   27.14    0.50
  -6   3   0   27.61    0.30
  -6   3   0   27.70    0.29
  -6   3   0   27.68    0.57
  -6   3   0   28.05    0.59
  -7  -3   0   75.20    1.30
  -7  -3   0   73.97    1.27
  -7  -3   0   75.07    1.38
  -7  -3   0   74.47    1.21
  -7  -3   0   75.63    1.23
  -7  -3   0   75.53    1.31
  -7  -3   0   75.31    1.21
  -7  -3   0   76.37    1.20
  -7   3   0   73.46    1.37
  -7   3   0   74.74    1.31
  -7   3   0   74.41    0.75
  -8  -3   0    2.02    0.11
  -8  -3   0    1.96    0.12
  -8  -3   0    1.97    0.09
  -8  -3   0    1.86    0.07
  -8  -3   0    1.92    0.09
  -8  -3   0    1.97    0.09
  -8   3   0    1.87    0.12
  -8   3   0    1.93    0.12
  -8   3   0    1.91    0.04
  -9  -3   0    0.03    0.02
  -9  -3   0    0.01    0.03
  -9  -3   0   -0.03    0.03
  -9  -3   0    0.03    0.02
  -9   3   0    0.02    0.03
  -9   3   0    0.07    0.03
  -9   3   0    0.09    0.01
   0  -4   0   84.04    1.61
   0  -4   0   85.30    1.93
   0   4   0   80.80    1.82
  -1  -4   0   25.47    0.56
  -1  -4   0   25.70    0.67
   1  -4   0   25.60    0.55
   1   4   0   22.39    0.60
  -1   4   0   23.18    0.57
   2  -4   0  151.19    2.77
  -2  -4   0  149.30    3.33
   2   4   0  140.81    2.66
  -2   4   0  143.34    3.10
   2   4   0  146.00    3.19
   3  -4   0   42.60    0.86
  -3  -4   0   43.29    0.77
  -3  -4   0   42.75    1.06
   3   4   0   43.68    1.08
   3   4   0   42.75    0.89
  -4  -4   0    5.20    0.14
  -4  -4   0    5.46    0.16
  -4  -4   0    5.24    0.18
  -4  -4   0    5.44    0.18
  -4  -4   0    5.44    0.18
  -4  -4   0    5.22    0.16
   4  -4   0    5.14    0.17
  -4  -4   0    5.57    0.24
  -4   4   0    5.49    0.19
  -4   4   0    5.26    0.20
   4   4   0    5.51    0.19
   4   4   0    5.54    0.20
  -5  -4   0   20.92    0.46
  -5  -4   0   21.24    0.42
   5  -4   0   21.04    0.47
  -5  -4   0   21.05    0.60
  -5  -4   0   21.18    0.45
  -5  -4   0   21.25    0.40
  -5  -4   0   21.30    0.40
  -5  -4   0   21.81    0.45
  -5  -4   0   21.35    0.47
  -5   4   0   20.59    0.49
   5   4   0   20.72    0.46
  -5   4   0   20.76    0.46
   5   4   0   20.48    0.52
  -5   4   0   20.75    0.23
  -6  -4   0   43.82    1.10
  -6  -4   0   45.62    0.81
  -6  -4   0   44.26    0.87
  -6  -4   0   46.09    0.76
  -6  -4   0   45.28    0.85
  -6  -4   0   44.90    0.82
  -6  -4   0   44.83    0.79
  -6   4   0   43.87    0.84
  -6   4   0   43.78    0.46
   6   4   0   43.46    0.82
  -7  -4   0    4.20    0.15
  -7  -4   0    4.00    0.14
  -7  -4   0    4.02    0.12
  -7  -4   0    3.85    0.21
  -7  -4   0    3.82    0.17
  -7  -4   0    3.95    0.12
  -7  -4   0    4.08    0.13
  -7  -4   0    3.90    0.16
  -7  -4   0    4.21    0.14
  -7   4   0    4.04    0.17
  -7   4   0    3.91    0.07
  -8  -4   0    4.62    0.14
  -8  -4   0    4.75    0.13
  -8  -4   0    4.38    0.16
  -8  -4   0    4.53    0.15
  -8  -4   0    4.39    0.16
  -8  -4   0    4.43    0.11
  -8   4   0    4.44    0.17
  -9  -4   0    0.30    0.04
  -9  -4   0    0.35    0.05
  -9  -4   0    0.38    0.03
  -9  -4   0    0.35    0.05
  -9   4   0    0.32    0.05
  -9   4   0    0.38    0.05
   0  -5   0    0.00    0.03
   0   5   0    0.00    0.02
  -1  -5   0    5.67    0.21
   1  -5   0    5.33    0.20
   1   5   0    5.18    0.17
  -1   5   0    5.57    0.19
   1   5   0    5.28    0.13
  -1   5   0    5.37    0.14
  -1   5   0    5.18    0.17
  -2  -5   0    2.15    0.11
  -2  -5   0    1.87    0.11
  -2  -5   0    2.18    0.11
   2  -5   0    2.14    0.12
  -2   5   0    1.96    0.10
  -2   5   0    2.03    0.08
  -2   5   0    1.90    0.09
  -2   5   0    1.89    0.11
  -2   5   0    2.27    0.12
   2   5   0    2.08    0.12
   2   5   0    1.92    0.12
  -2   5   0    2.11    0.10
  -2   5   0    2.04    0.10
   2   5   0    1.93    0.11
   2   5   0    2.10    0.11
  -3  -5   0   20.82    0.47
  -3  -5   0   20.73    0.37
  -3  -5   0   20.72    0.48
  -3  -5   0   21.24    0.45
  -3  -5   0   20.43    0.43
  -3  -5   0   21.10    0.41
   3  -5   0   20.39    0.49
  -3   5   0   20.50    0.46
   3   5   0   21.17    0.46
  -3   5   0   20.27    0.40
  -3   5   0   21.10    0.39
  -3   5   0   20.87    0.41
   3   5   0   20.46    0.45
  -3   5   0   20.92    0.51
  -4  -5   0    1.31    0.10
  -4  -5   0    0.99    0.10
  -4  -5   0    0.96    0.09
  -4  -5   0    1.02    0.08
  -4  -5   0    1.05    0.10
  -4  -5   0    1.02    0.06
  -4  -5   0    1.10    0.14
  -4  -5   0    1.28    0.08
  -4   5   0    1.08    0.07
   4   5   0    1.04    0.10
  -4   5   0    1.14    0.11
   4   5   0    1.02    0.10
  -4   5   0    1.08    0.10
  -5  -5   0   19.37    0.59
  -5  -5   0   20.25    0.45
  -5  -5   0   20.19    0.41
  -5  -5   0   19.23    0.37
  -5  -5   0   19.77    0.44
  -5  -5   0   20.06    0.46
  -5  -5   0   19.58    0.44
  -5  -5   0   20.00    0.39
  -5   5   0   18.48    0.44
   5   5   0   20.07    0.45
  -5   5   0   19.10    0.48
   5   5   0   19.79    0.44
  -5   5   0   19.02    0.38
  -6  -5   0   10.93    0.27
  -6  -5   0   10.53    0.26
  -6  -5   0   10.76    0.29
  -6  -5   0   11.07    0.29
  -6  -5   0   11.17    0.40
  -6  -5   0   10.95    0.29
  -6  -5   0   10.60    0.23
   6   5   0   10.38    0.28
  -6   5   0   10.18    0.29
  -6   5   0   10.23    0.30
  -7  -5   0   12.80    0.26
  -7  -5   0   12.60    0.25
  -7  -5   0   13.16    0.31
  -7  -5   0   12.79    0.28
  -7  -5   0   12.27    0.32
  -7  -5   0   13.09    0.29
  -7  -5   0   12.73    0.30
  -7   5   0   12.80    0.32
  -8  -5   0    1.83    0.08
  -8  -5   0    1.80    0.06
  -8  -5   0    1.91    0.09
  -8  -5   0    2.01    0.10
  -8  -5   0    1.81    0.06
  -8  -5   0    1.61    0.09
  -8   5   0    1.77    0.09
  -8   5   0    1.76    0.10
   0  -6   0    7.52    0.24
   0  -6   0    7.32    0.26
   0   6   0    7.51    0.23
   0   6   0    7.40    0.18
   0   6   0    7.49    0.24
   0   6   0    7.76    0.21
   0   6   0    7.24    0.20
   0   6   0    7.19    0.22
  -1  -6   0   15.36    0.37
   1   6   0   14.50    0.32
  -1   6   0   15.21    0.33
   1   6   0   15.04    0.36
   1   6   0   15.18    0.38
   1   6   0   15.11    0.28
   1   6   0   14.71    0.38
  -1   6   0   15.24    0.37
  -1   6   0   15.06    0.31
  -1   6   0   14.99    0.38
   1   6   0   15.70    0.35
  -1   6   0   15.05    0.35
  -1   6   0   15.13    0.42
  -2  -6   0   10.71    0.31
  -2  -6   0   10.79    0.29
  -2   6   0   10.42    0.26
   2   6   0   10.40    0.30
   2   6   0   10.36    0.30
  -2   6   0   10.51    0.30
  -2   6   0   10.84    0.33
   2   6   0   10.18    0.28
   2   6   0   10.87    0.30
  -2   6   0   10.20    0.29
  -2   6   0   10.60    0.24
  -2   6   0   10.99    0.26
  -2   6   0   10.52    0.26
  -3  -6   0    4.10    0.17
  -3  -6   0    4.20    0.16
  -3  -6   0    4.04    0.18
  -3  -6   0    4.13    0.17
   3   6   0    4.10    0.17
  -3   6   0    3.80    0.13
  -3   6   0    4.24    0.12
   3   6   0    4.02    0.18
  -3   6   0    4.08    0.18
  -3   6   0    4.25    0.19
   3   6   0    4.00    0.18
  -3   6   0    4.08    0.15
  -3   6   0    3.92    0.12
   3   6   0    4.19    0.18
  -4  -6   0    0.68    0.07
  -4  -6   0    0.54    0.07
  -4  -6   0    0.50    0.10
  -4  -6   0    0.61    0.08
  -4  -6   0    0.51    0.08
  -4  -6   0    0.68    0.09
  -4   6   0    0.49    0.07
   4   6   0    0.48    0.08
   4   6   0    0.70    0.09
   4   6   0    0.53    0.08
  -4   6   0    0.66    0.07
  -4   6   0    0.57    0.06
  -4   6   0    0.44    0.08
  -5  -6   0   13.54    0.30
  -5  -6   0   13.25    0.28
  -5  -6   0   13.86    0.34
  -5  -6   0   13.34    0.33
  -5  -6   0   13.48    0.35
  -5  -6   0   13.55    0.46
  -5  -6   0   13.85    0.34
  -5   6   0   12.81    0.28
  -5   6   0   13.44    0.29
   5   6   0   12.97    0.34
  -5   6   0   13.01    0.36
  -5   6   0   13.27    0.34
   5   6   0   13.16    0.34
   5   6   0   13.26    0.33
  -6  -6   0    5.65    0.18
  -6  -6   0    5.48    0.18
  -6  -6   0    5.47    0.16
  -6  -6   0    5.77    0.18
  -6  -6   0    5.66    0.17
  -6   6   0    5.44    0.16
   6   6   0    5.50    0.19
  -6   6   0    5.30    0.15
  -6   6   0    5.45    0.15
  -6   6   0    5.25    0.18
  -6   6   0    5.63    0.19
   6   6   0    5.36    0.18
   6   6   0    5.21    0.18
  -7  -6   0    3.87    0.14
  -7  -6   0    3.74    0.10
  -7  -6   0    3.95    0.12
  -7  -6   0    3.86    0.13
  -7  -6   0    3.95    0.12
  -7  -6   0    3.83    0.10
  -7   6   0    3.58    0.11
   7   6   0    3.79    0.14
  -7   6   0    3.68    0.12
   7   6   0    3.54    0.13
   7   6   0    3.81    0.14
  -7   6   0    3.76    0.14
   0  -7   0    0.06    0.05
   0   7   0    0.17    0.06
   0   7   0   -0.01    0.04
   0   7   0   -0.02    0.03
   0   7   0    0.01    0.04
   0   7   0   -0.02    0.02
  -1  -7   0   10.24    0.29
   1   7   0   10.27    0.29
   1   7   0   10.39    0.25
  -1   7   0    9.89    0.29
   1   7   0   10.17    0.30
  -1   7   0   10.48    0.32
  -1   7   0   10.14    0.23
  -1   7   0   10.07    0.26
   1   7   0    9.98    0.28
  -1   7   0   10.32    0.26
   1   7   0   10.20    0.25
  -2  -7   0   14.86    0.35
  -2  -7   0   14.34    0.37
   2   7   0   14.65    0.35
  -2   7   0   13.78    0.32
  -2   7   0   14.18    0.29
  -2   7   0   13.89    0.39
   2   7   0   14.24    0.37
  -2   7   0   13.95    0.29
   2   7   0   13.72    0.36
  -2   7   0   13.80    0.29
   2   7   0   13.85    0.32
  -3  -7   0    2.27    0.17
  -3  -7   0    2.33    0.12
  -3  -7   0    2.14    0.13
  -3  -7   0    2.32    0.14
  -3  -7   0    2.50    0.13
  -3   7   0    2.18    0.14
   3   7   0    2.36    0.13
  -3   7   0    2.24    0.11
   3   7   0    2.26    0.13
   3   7   0    2.29    0.13
  -3   7   0    2.32    0.13
   3   7   0    2.27    0.12
  -3   7   0    2.18    0.09
  -4  -7   0    9.54    0.26
  -4  -7   0    9.77    0.27
  -4  -7   0    9.82    0.23
  -4  -7   0    9.67    0.27
  -4  -7   0    9.71    0.28
  -4   7   0    9.67    0.23
  -4   7   0    9.13    0.26
   4   7   0    9.33    0.26
  -4   7   0    9.23    0.29
  -4   7   0    9.22    0.22
   4   7   0    9.33    0.25
   4   7   0    9.32    0.27
   4   7   0    9.63    0.27
  -5  -7   0    1.52    0.09
  -5  -7   0    1.47    0.09
  -5  -7   0    1.46    0.09
  -5  -7   0    1.39    0.09
   5   7   0    1.40    0.09
   5   7   0    1.32    0.09
   5   7   0    1.37    0.09
  -5   7   0    1.55    0.08
  -5   7   0    1.42    0.07
  -5   7   0    1.29    0.10
  -5   7   0    1.47    0.09
  -6  -7   0    0.90    0.07
  -6  -7   0    0.78    0.06
  -6   7   0    0.70    0.06
  -6   7   0    0.79    0.05
   6   7   0    0.69    0.07
   6   7   0    0.78    0.07
   6   7   0    0.83    0.07
  -6   7   0    0.60    0.06
  -6   7   0    0.64    0.06
   0  -8   0    7.06    0.21
   0   8   0    7.02    0.21
   0   8   0    7.11    0.22
   0   8   0    6.90    0.19
   0   8   0    6.81    0.18
   1  -8   0   17.96    0.39
  -1  -8   0   18.08    0.39
  -1   8   0   16.52    0.34
   1   8   0   16.05    0.38
   1   8   0   17.14    0.37
   1   8   0   17.28    0.39
  -1   8   0   16.76    0.32
  -1   8   0   17.23    0.42
  -1   8   0   16.94    0.33
  -2  -8   0    0.78    0.08
  -2  -8   0    0.84    0.08
  -2  -8   0    0.89    0.09
   2   8   0    0.88    0.09
   2   8   0    0.88    0.05
   2   8   0    1.06    0.09
  -2   8   0    0.98    0.09
   2   8   0    0.91    0.08
  -2   8   0    0.85    0.05
  -2   8   0    0.97    0.07
  -3  -8   0    1.85    0.10
  -3  -8   0    1.75    0.11
  -3  -8   0    1.91    0.10
  -3  -8   0    1.94    0.09
   3   8   0    2.12    0.11
   3   8   0    1.85    0.10
  -3   8   0    1.89    0.11
  -3   8   0    1.88    0.07
   3   8   0    1.79    0.10
   3   8   0    1.94    0.08
  -3   8   0    1.90    0.09
  -4  -8   0    0.02    0.04
  -4  -8   0    0.08    0.03
  -4  -8   0    0.09    0.03
   4   8   0    0.08    0.04
  -4   8   0    0.00    0.04
  -4   8   0    0.01    0.03
   4   8   0    0.06    0.04
   4   8   0   -0.03    0.04
   4   8   0    0.04    0.04
  -4   8   0    0.08    0.02
 -10   0   1    0.28    0.05
 -10   0   1    0.23    0.04
  -9   0   1    0.04    0.04
  -9   0   1    0.04    0.04
  -8   0   1   15.53    0.18
  -8   0   1   15.64    0.40
  -8   0   1   15.22    0.36
  -7   0   1    1.38    0.10
   7   0  -1    1.29    0.07
  -7   0   1    1.36    0.03
  -7   0   1    1.28    0.11
  -7   0   1    1.31    0.09
  -7   0   1    1.35    0.03
   6   0  -1    1.67    0.07
   5   0  -1   44.16    0.83
   4   0  -1    0.14    0.02
   3   0  -1   19.56    0.36
   3   0  -1   19.18    0.44
   3   0  -1   19.43    0.36
   2   0  -1   53.71    1.15
   1   0  -1  197.63    4.53
   1   0  -1  194.25    3.76
  -1   0   1  193.60    4.39
  -1   0   1  202.09    4.52
   1   0  -1  196.06    4.56
   1   0  -1  201.01    3.74
   0   0  -1    2.38    0.07
   0   0   1    2.24    0.07
   0   0  -1    2.35    0.07
   0   0   1    2.45    0.07
   0   0  -1    2.42    0.07
   0   0  -1    2.37    0.06
   1   0   1  326.87    7.14
  -1   0  -1  329.16    8.27
   1   0   1  333.09    6.95
  -1   0  -1  335.21    5.99
  -1   0  -1  331.89    8.21
  -2   0  -1    9.11    0.22
   2   0   1    9.10    0.23
   2   0   1    8.89    0.19
   3   0   1   90.35    2.00
  -3   0  -1   94.29    2.00
   3   0   1   92.96    1.68
  -3   0  -1   89.77    1.98
   4   0   1  106.47    1.95
   5   0   1   21.38    0.46
  -6   0  -1    5.96    0.09
  -6   0  -1    5.87    0.19
   6   0   1    5.97    0.19
  -6   0  -1    6.13    0.20
  -7   0  -1    0.80    0.09
  -7   0  -1    0.59    0.04
  -7   0  -1    0.60    0.08
  -8   0  -1    1.99    0.12
  -8   0  -1    2.04    0.13
  -9   0  -1    0.89    0.09
  -9   0  -1    1.07    0.09
 -10   0  -1    0.16    0.05
 -10   0  -1    0.14    0.04
 -10  -1   1    0.02    0.04
 -10  -1   1    0.02    0.03
 -10   1   1    0.07    0.04
  -9  -1   1    5.35    0.18
  -9  -1   1    5.11    0.19
  -9   1   1    5.07    0.08
  -9   1   1    5.13    0.18
  -9   1   1    5.02    0.20
  -8  -1   1    6.64    0.23
  -8  -1   1    6.41    0.21
  -8   1   1    5.79    0.22
  -8   1   1    6.38    0.08
  -8   1   1    6.38    0.09
  -8   1   1    6.16    0.19
  -8   1   1    6.28    0.22
  -8   1   1    6.47    0.21
  -7  -1   1    0.84    0.10
  -7  -1   1    0.84    0.03
  -7  -1   1    0.79    0.08
  -7  -1   1    0.84    0.04
  -7  -1   1    1.25    0.10
  -7  -1   1    0.89    0.04
   7   1  -1    0.73    0.07
  -7   1   1    0.82    0.09
  -7   1   1    1.02    0.10
  -7   1   1    1.10    0.10
  -7   1   1    1.02    0.10
  -7   1   1    0.79    0.08
   6  -1  -1    9.19    0.21
  -6  -1   1    8.93    0.11
  -6   1   1    8.98    0.26
   6   1  -1    8.91    0.23
  -6   1   1    8.84    0.25
   5  -1  -1   20.68    0.40
  -5  -1   1   21.37    0.53
   5   1  -1   21.03    0.44
   4  -1  -1   12.43    0.23
  -4  -1   1   12.05    0.33
   4   1  -1   12.75    0.28
  -3  -1   1  245.59    5.11
  -3  -1   1  255.64    5.45
  -3  -1   1  257.72    5.46
   3   1  -1  259.41    5.68
   3   1  -1  260.70    4.75
  -2  -1   1  273.68    5.99
   2  -1  -1  275.52    5.91
  -2  -1   1  281.33    6.00
   2   1  -1  287.35    5.19
   2   1  -1  282.19    6.21
  -1  -1   1  214.42    4.85
  -1  -1   1  234.22    4.09
   1  -1  -1  221.23    4.57
  -1  -1   1  226.62    4.89
   1  -1  -1  225.49    4.84
   1   1  -1  224.50    4.15
  -1   1   1  225.04    5.20
   1   1  -1  224.68    4.97
  -1   1   1  235.05    4.89
   0  -1   1  214.29    4.08
   0  -1   1  224.00    4.89
   0  -1  -1  231.30    4.90
   0  -1  -1  217.32    4.09
   0  -1   1  236.02    4.91
   0   1  -1  209.62    4.66
   0   1  -1  217.64    3.93
   0   1   1  218.47    3.91
   0   1   1  212.56    4.66
   0   1  -1  213.71    4.66
   0   1   1  215.93    4.68
  -1  -1  -1  551.35   12.03
  -1  -1  -1  548.68   11.64
  -1  -1  -1  575.87   12.04
   1  -1   1  569.87   11.33
   1  -1   1  545.81   13.51
  -1   1  -1  532.80   12.77
  -1   1  -1  537.49   12.63
   1   1   1  527.25   13.31
   1   1   1  530.25   10.94
  -1   1  -1  523.30   10.16
  -2  -1  -1   98.57    2.09
  -2  -1  -1   93.32    1.72
   2  -1   1   93.44    1.75
   2  -1   1   96.55    2.04
  -2  -1  -1   91.25    2.05
   2   1   1   91.45    1.72
  -2   1  -1   93.44    2.04
  -2   1  -1   98.19    2.08
   2   1   1   94.34    2.05
  -3  -1  -1   66.77    1.47
   3  -1   1   66.39    1.22
  -3   1  -1   65.85    1.43
  -3   1  -1   67.23    1.43
   3   1   1   68.07    1.24
   3   1   1   65.50    1.48
  -4  -1  -1   14.92    0.37
   4  -1   1   14.74    0.31
  -4  -1  -1   14.49    0.37
   4   1   1   15.07    0.34
   5  -1   1    3.73    0.12
   5   1   1    3.64    0.13
  -6  -1  -1    5.04    0.14
   6  -1   1    5.02    0.16
  -6  -1  -1    5.26    0.12
  -6  -1  -1    5.09    0.17
  -6  -1  -1    5.02    0.15
  -6  -1  -1    4.98    0.12
  -6  -1  -1    5.19    0.14
  -6  -1  -1    4.96    0.18
  -6   1  -1    4.85    0.17
  -6   1  -1    5.09    0.07
   6   1   1    5.06    0.18
  -6   1  -1    5.12    0.10
  -6   1  -1    5.10    0.17
  -6   1  -1    5.02    0.18
  -7  -1  -1    9.56    0.22
  -7  -1  -1    9.82    0.23
  -7  -1  -1   10.16    0.29
  -7  -1  -1    9.57    0.27
  -7   1  -1    9.46    0.28
  -7   1  -1    9.82    0.14
  -7   1  -1    9.74    0.27
  -7   1  -1    9.59    0.13
  -8  -1  -1   13.19    0.28
  -8  -1  -1   12.75    0.19
  -8  -1  -1   13.01    0.35
  -8  -1  -1   12.92    0.33
  -8  -1  -1   12.88    0.19
  -8   1  -1   13.16    0.34
  -8   1  -1   13.28    0.35
  -9  -1  -1    0.21    0.05
  -9  -1  -1    0.18    0.03
  -9  -1  -1    0.25    0.06
  -9  -1  -1    0.23    0.03
  -9   1  -1    0.36    0.06
  -9   1  -1    0.14    0.04
 -10  -1  -1    0.12    0.03
 -10  -1  -1    0.10    0.05
 -10  -1  -1    0.13    0.04
 -10   1  -1    0.12    0.04
 -10   1  -1    0.17    0.04
 -10  -2   1    1.40    0.08
 -10  -2   1    1.33    0.06
 -10  -2   1    1.61    0.09
 -10  -2   1    1.33    0.06
 -10   2   1    1.37    0.03
  -9  -2   1    2.39    0.09
  -9  -2   1    2.27    0.11
  -9  -2   1    2.68    0.13
  -9   2   1    2.14    0.10
  -9   2   1    2.23    0.04
  -9   2   1    2.37    0.12
  -9   2   1    2.09    0.12
  -8  -2   1    3.66    0.13
  -8  -2   1    3.66    0.15
  -8  -2   1    3.80    0.08
  -8  -2   1    3.84    0.08
  -8  -2   1    3.83    0.17
  -8   2   1    3.74    0.17
  -8   2   1    3.81    0.16
  -8   2   1    3.62    0.06
  -8   2   1    3.59    0.06
  -7  -2   1   11.79    0.27
  -7  -2   1   11.61    0.32
  -7  -2   1   12.04    0.27
  -7  -2   1   12.21    0.21
  -7  -2   1   12.67    0.31
  -7  -2   1   12.06    0.31
  -7   2   1   11.24    0.32
  -7   2   1   11.46    0.30
  -7   2   1   11.70    0.31
  -7   2   1   11.33    0.30
  -6  -2   1    8.76    0.19
  -6  -2   1    9.07    0.22
  -6  -2   1    9.20    0.19
  -6  -2   1    9.20    0.25
  -6  -2   1    8.91    0.31
  -6  -2   1    9.26    0.21
  -6  -2   1    9.22    0.24
  -6   2   1    9.33    0.26
  -6   2   1    8.95    0.27
   6   2  -1    8.93    0.25
  -6   2   1    8.79    0.26
  -6   2   1    8.69    0.24
   5  -2  -1   14.45    0.29
  -5  -2   1   14.59    0.41
   5   2  -1   15.24    0.36
  -4  -2   1    4.23    0.17
   4  -2  -1    4.46    0.11
  -4  -2   1    4.59    0.15
   4   2  -1    4.59    0.15
   3  -2  -1    6.24    0.14
  -3  -2   1    6.60    0.20
  -3  -2   1    6.39    0.21
   3   2  -1    5.89    0.20
   3   2  -1    6.04    0.16
   2  -2  -1  202.75    3.76
   2  -2  -1  203.73    4.46
  -2  -2   1  207.69    4.52
  -2  -2   1  204.83    3.72
   2   2  -1  200.47    3.74
   2   2  -1  208.28    4.55
   1  -2  -1  132.35    2.92
   1  -2  -1  135.66    2.50
  -1  -2   1  134.37    2.97
  -1  -2   1  136.09    2.44
   1   2  -1  124.45    2.75
  -1   2   1  126.64    2.70
   1   2  -1  120.21    2.27
   0  -2   1  317.01    8.47
   0  -2  -1  304.54    5.69
   0  -2  -1  311.11    6.76
   0  -2   1  308.96    5.65
   0   2   1  292.38    6.53
   0   2  -1  302.21    6.57
   0   2  -1  295.96    5.51
   0   2   1  305.21    5.48
   0   2   1  304.13    6.55
   1  -2   1  331.58    6.01
  -1  -2  -1  324.30    6.02
   1  -2   1  330.74    7.18
  -1  -2  -1  328.35    7.23
  -1   2  -1  322.61    6.80
  -1   2  -1  299.49    6.74
   1   2   1  311.54    5.75
   1   2   1  317.90    6.86
  -1   2  -1  302.52    5.66
   2  -2   1   53.04    1.20
  -2  -2  -1   54.14    1.22
  -2  -2  -1   53.89    1.02
   2  -2   1   54.39    1.00
   2   2   1   53.58    1.20
  -2   2  -1   53.49    1.16
   2   2   1   52.19    1.01
  -2   2  -1   53.23    1.16
  -2   2  -1   52.48    1.17
  -3  -2  -1    4.52    0.17
   3  -2   1    4.63    0.12
   3   2   1    4.24    0.17
   3   2   1    4.55    0.14
  -4  -2  -1   18.58    0.47
   4  -2   1   18.59    0.38
  -4  -2  -1   18.17    0.48
   4   2   1   18.09    0.41
  -5  -2  -1   11.97    0.27
   5  -2   1   12.68    0.29
  -5  -2  -1   12.03    0.36
  -5  -2  -1   12.28    0.33
   5   2   1   12.56    0.33
  -6  -2  -1    2.64    0.10
   6  -2   1    2.68    0.11
  -6  -2  -1    2.89    0.11
  -6  -2  -1    2.80    0.11
  -6  -2  -1    2.60    0.09
  -6  -2  -1    2.52    0.12
  -6  -2  -1    2.62    0.09
  -6   2  -1    2.77    0.13
  -6   2  -1    2.45    0.13
  -6   2  -1    2.59    0.05
  -6   2  -1    2.44    0.13
   6   2   1    2.59    0.14
  -7  -2  -1    6.18    0.17
  -7  -2  -1    6.14    0.22
  -7  -2  -1    5.91    0.16
  -7  -2  -1    6.11    0.16
  -7  -2  -1    5.99    0.12
  -7  -2  -1    6.25    0.12
  -7  -2  -1    6.31    0.21
  -7  -2  -1    6.18    0.18
  -7   2  -1    6.15    0.21
  -7   2  -1    6.13    0.09
  -7   2  -1    6.09    0.21
  -8  -2  -1    0.77    0.08
  -8  -2  -1    0.82    0.10
  -8  -2  -1    0.65    0.06
  -8  -2  -1    0.73    0.05
  -8  -2  -1    0.72    0.05
  -8  -2  -1    0.71    0.06
  -8  -2  -1    0.79    0.07
  -8   2  -1    0.63    0.08
  -8   2  -1    0.64    0.08
  -9  -2  -1    0.81    0.05
  -9  -2  -1    0.88    0.06
  -9  -2  -1    0.91    0.09
  -9  -2  -1    0.81    0.08
  -9   2  -1    0.95    0.07
  -9   2  -1    0.87    0.09
 -10  -3   1    1.85    0.07
 -10  -3   1    1.87    0.07
  -9  -3   1    0.04    0.02
  -9  -3   1    0.01    0.03
  -9  -3   1    0.06    0.02
  -9  -3   1    0.03    0.03
  -9   3   1    0.11    0.04
  -9   3   1    0.04    0.04
  -9   3   1    0.03    0.01
  -8  -3   1    1.44    0.08
  -8  -3   1    1.41    0.06
  -8  -3   1    1.45    0.06
  -8  -3   1    1.24    0.07
  -8  -3   1    1.42    0.08
  -8  -3   1    1.70    0.11
  -8  -3   1    1.33    0.10
  -8   3   1    1.39    0.03
  -8   3   1    1.27    0.10
  -8   3   1    1.39    0.03
  -7  -3   1    9.35    0.34
  -7  -3   1    9.27    0.26
  -7  -3   1    9.39    0.18
  -7  -3   1    9.14    0.18
  -7  -3   1    9.14    0.24
  -7  -3   1    9.08    0.23
  -7  -3   1    9.49    0.27
  -7  -3   1    8.79    0.21
  -7  -3   1    9.24    0.26
  -7  -3   1    9.09    0.19
  -7  -3   1    9.09    0.22
  -7   3   1    8.98    0.10
  -7   3   1    8.77    0.26
  -7   3   1    9.00    0.11
  -7   3   1    8.87    0.27
  -7   3   1    8.90    0.28
  -7   3   1    8.83    0.26
  -6  -3   1   28.58    0.60
  -6  -3   1   29.15    0.56
  -6  -3   1   29.63    0.57
  -6  -3   1   29.19    0.54
  -6  -3   1   29.34    0.53
  -6  -3   1   29.62    0.53
  -6  -3   1   29.21    0.76
  -6  -3   1   28.82    0.53
  -6   3   1   27.49    0.59
  -6   3   1   28.28    0.57
   6   3  -1   27.98    0.57
   6   3  -1   28.41    0.64
  -6   3   1   29.34    0.61
  -6   3   1   28.04    0.59
  -5  -3   1   20.20    0.54
  -5  -3   1   18.25    0.40
  -5  -3   1   19.04    0.39
   5  -3  -1   18.77    0.39
  -5  -3   1   18.69    0.39
  -5   3   1   18.24    0.42
   5   3  -1   18.40    0.40
   5   3  -1   19.34    0.45
  -5   3   1   18.55    0.44
  -5   3   1   18.76    0.42
  -4  -3   1   45.77    1.04
  -4  -3   1   44.85    1.06
   4  -3  -1   45.16    0.86
   4   3  -1   44.94    0.91
   3  -3  -1   21.18    0.43
  -3  -3   1   21.13    0.54
   3   3  -1   21.15    0.46
   3   3  -1   20.91    0.56
  -2  -3   1    8.41    0.22
  -2  -3   1    8.60    0.27
   2  -3  -1    8.44    0.21
   2  -3  -1    8.68    0.21
  -2   3   1    8.06    0.21
   2   3  -1    8.24    0.22
   2   3  -1    8.50    0.27
  -1  -3   1   13.78    0.32
  -1  -3   1   14.30    0.38
   1  -3  -1   14.18    0.31
   1  -3  -1   13.74    0.38
   1   3  -1   13.28    0.30
  -1   3   1   13.77    0.35
   1   3  -1   13.15    0.37
   0  -3  -1    5.66    0.19
   0  -3   1    5.19    0.18
   0  -3  -1    4.92    0.15
   0  -3   1    4.96    0.15
   0   3   1    4.80    0.17
   0   3  -1    5.00    0.14
   0   3  -1    5.00    0.17
  -1  -3  -1   16.21    0.45
   1  -3   1   17.25    0.36
   1  -3   1   16.61    0.44
  -1  -3  -1   16.62    0.37
   1   3   1   15.67    0.42
  -1   3  -1   16.24    0.40
   1   3   1   15.93    0.35
  -2  -3  -1  122.64    2.73
   2  -3   1  123.86    2.27
  -2  -3  -1  124.02    2.29
  -2  -3  -1  123.14    2.28
  -2   3  -1  121.65    2.61
   2   3   1  119.73    2.23
   2   3   1  119.78    2.67
   3  -3   1   10.77    0.26
  -3  -3  -1   10.85    0.34
   3   3   1   10.56    0.34
   3   3   1   10.77    0.28
  -4  -3  -1    2.02    0.12
  -4  -3  -1    1.96    0.09
  -4  -3  -1    1.85    0.12
   4  -3   1    1.94    0.09
   4   3   1    2.16    0.11
  -4   3  -1    1.97    0.06
   5  -3   1   15.75    0.36
  -5  -3  -1   16.11    0.32
  -5  -3  -1   15.96    0.35
  -5  -3  -1   15.67    0.33
  -5  -3  -1   16.44    0.47
  -5  -3  -1   16.10    0.36
  -5  -3  -1   16.06    0.35
  -5   3  -1   15.84    0.18
   5   3   1   16.04    0.42
  -5   3  -1   16.39    0.37
  -5   3  -1   15.58    0.37
  -5   3  -1   16.01    0.37
  -6  -3  -1   24.54    0.47
  -6  -3  -1   24.46    0.46
  -6  -3  -1   24.03    0.48
  -6  -3  -1   25.22    0.51
  -6  -3  -1   24.85    0.50
  -6  -3  -1   25.78    0.48
  -6   3  -1   25.55    0.54
  -6   3  -1   24.59    0.28
  -6   3  -1   24.71    0.54
  -7  -3  -1    5.97    0.22
  -7  -3  -1    5.67    0.18
  -7  -3  -1    6.00    0.20
  -7  -3  -1    5.83    0.14
  -7  -3  -1    5.91    0.15
  -7  -3  -1    5.90    0.16
  -7  -3  -1    5.84    0.17
  -7  -3  -1    5.93    0.18
  -7   3  -1    5.28    0.20
  -7   3  -1    5.03    0.19
  -8  -3  -1    1.54    0.10
  -8  -3  -1    1.43    0.10
  -8  -3  -1    1.37    0.06
  -8  -3  -1    1.38    0.07
  -8  -3  -1    1.55    0.08
  -8  -3  -1    1.32    0.08
  -8   3  -1    1.45    0.10
  -9  -3  -1    1.24    0.10
  -9  -3  -1    1.18    0.06
  -9  -3  -1    1.10    0.06
  -9  -3  -1    1.12    0.08
  -9   3  -1    1.15    0.07
  -9   3  -1    1.19    0.09
  -9  -4   1    3.95    0.12
  -9  -4   1    3.51    0.13
  -9  -4   1    4.19    0.11
  -9  -4   1    3.89    0.13
  -9   4   1    3.87    0.13
  -9   4   1    3.75    0.06
  -8  -4   1    5.21    0.14
  -8  -4   1    4.97    0.15
  -8  -4   1    5.10    0.12
  -8  -4   1    5.21    0.16
  -8  -4   1    4.81    0.17
  -8  -4   1    5.14    0.18
  -8   4   1    4.92    0.16
  -8   4   1    4.92    0.08
  -8   4   1    4.92    0.17
  -7  -4   1   22.98    0.50
  -7  -4   1   22.64    0.48
  -7  -4   1   22.34    0.50
  -7  -4   1   23.34    0.45
  -7  -4   1   22.28    0.47
  -7  -4   1   22.62    0.43
  -7  -4   1   23.02    0.41
  -7  -4   1   22.78    0.46
  -7  -4   1   21.89    0.63
  -7  -4   1   22.38    0.41
  -7   4   1   22.33    0.49
  -7   4   1   22.52    0.25
   7   4  -1   22.04    0.50
  -6  -4   1   25.48    0.49
  -6  -4   1   24.12    0.54
  -6  -4   1   24.74    0.49
  -6  -4   1   25.38    0.47
  -6  -4   1   25.14    0.52
  -6  -4   1   24.45    0.49
  -6  -4   1   25.26    0.70
  -6  -4   1   25.69    0.52
  -6   4   1   23.80    0.55
  -6   4   1   23.87    0.51
  -6   4   1   23.92    0.26
   6   4  -1   23.75    0.51
  -5  -4   1   12.11    0.30
  -5  -4   1   11.85    0.30
  -5  -4   1   11.92    0.28
  -5  -4   1   11.87    0.26
   5  -4  -1   11.58    0.29
  -5  -4   1   12.07    0.40
  -5  -4   1   11.54    0.31
  -5  -4   1   11.69    0.29
  -5   4   1   11.74    0.14
  -5   4   1   11.59    0.30
  -5   4   1   12.07    0.32
   5   4  -1   11.15    0.30
  -5   4   1   11.81    0.33
   5   4  -1   11.42    0.34
  -4  -4   1    2.82    0.17
  -4  -4   1    2.58    0.12
   4  -4  -1    2.81    0.11
  -4  -4   1    3.17    0.10
  -4  -4   1    2.82    0.13
  -4  -4   1    2.92    0.11
  -4  -4   1    2.52    0.12
   4   4  -1    2.89    0.13
   4   4  -1    2.55    0.13
  -4   4   1    2.60    0.05
  -3  -4   1   36.47    0.92
   3  -4  -1   37.49    0.74
  -3  -4   1   36.00    0.68
   3   4  -1   36.04    0.76
   2  -4  -1    1.14    0.08
  -2  -4   1    0.81    0.09
  -2   4   1    1.05    0.06
   2   4  -1    0.99    0.08
   2   4  -1    0.99    0.10
   1  -4  -1   35.09    0.71
  -1  -4   1   34.41    0.72
   1   4  -1   33.81    0.83
  -1   4   1   33.27    0.80
   0  -4  -1   21.42    0.47
   0  -4   1   21.10    0.47
   0  -4  -1   21.50    0.57
   0  -4   1   20.67    0.57
   0   4  -1   19.34    0.50
   0   4   1   18.43    0.50
  -1  -4  -1   20.77    0.57
   1  -4   1   20.80    0.46
  -1  -4  -1   20.09    0.47
   1   4   1   19.49    0.53
  -1   4  -1   19.08    0.50
  -2  -4  -1    4.95    0.22
   2  -4   1    5.09    0.17
  -2   4  -1    4.94    0.17
   2   4   1    4.88    0.22
  -3  -4  -1    6.54    0.19
   3  -4   1    6.56    0.20
  -3   4  -1    6.27    0.18
  -3   4  -1    6.06    0.15
   3   4   1    6.15    0.26
   3   4   1    6.13    0.21
  -4  -4  -1   13.13    0.31
  -4  -4  -1   12.64    0.32
  -4  -4  -1   12.51    0.30
  -4  -4  -1   13.30    0.26
   4  -4   1   12.22    0.31
  -4  -4  -1   12.63    0.28
  -4  -4  -1   12.92    0.28
   4   4   1   12.32    0.35
  -4   4  -1   12.54    0.23
  -4   4  -1   12.33    0.28
  -4   4  -1   12.45    0.32
  -4   4  -1   12.35    0.27
  -4   4  -1   12.17    0.27
   4   4   1   12.78    0.31
  -4   4  -1   12.71    0.23
  -4   4  -1   12.56    0.34
  -5  -4  -1   23.95    0.52
  -5  -4  -1   23.08    0.44
  -5  -4  -1   24.20    0.49
  -5  -4  -1   23.58    0.66
  -5  -4  -1   23.91    0.44
  -5  -4  -1   24.17    0.46
  -5  -4  -1   24.04    0.50
  -5   4  -1   23.48    0.51
   5   4   1   23.52    0.50
  -6  -4  -1   33.56    0.62
  -6  -4  -1   33.95    0.65
  -6  -4  -1   34.39    0.60
  -6  -4  -1   34.52    0.65
  -6  -4  -1   34.50    0.87
  -6  -4  -1   34.14    0.67
  -6   4  -1   33.47    0.68
  -7  -4  -1   10.88    0.27
  -7  -4  -1   10.97    0.30
  -7  -4  -1   10.54    0.26
  -7  -4  -1   10.71    0.23
  -7  -4  -1   10.85    0.29
  -7  -4  -1   10.63    0.24
  -7  -4  -1   11.10    0.26
  -7   4  -1   11.17    0.31
  -8  -4  -1    0.14    0.05
  -8  -4  -1    0.23    0.04
  -8  -4  -1    0.23    0.03
  -8  -4  -1    0.20    0.03
  -8  -4  -1    0.31    0.05
  -8  -4  -1    0.25    0.04
  -8   4  -1    0.25    0.05
  -9  -4  -1    1.70    0.09
  -9  -4  -1    1.77    0.07
  -9  -4  -1    1.95    0.09
  -9   4  -1    1.85    0.09
  -9   4  -1    1.64    0.09
  -8  -5   1    6.67    0.19
  -8  -5   1    7.21    0.17
  -8  -5   1    6.78    0.15
  -8  -5   1    7.03    0.14
  -8  -5   1    6.64    0.18
  -8   5   1    6.54    0.18
  -8   5   1    6.66    0.18
  -7  -5   1    6.65    0.21
  -7  -5   1    6.39    0.18
  -7  -5   1    6.83    0.16
  -7  -5   1    6.25    0.16
  -7  -5   1    6.53    0.16
  -7  -5   1    6.93    0.20
  -7  -5   1    6.54    0.18
  -7  -5   1    6.86    0.21
  -7   5   1    6.47    0.21
  -7   5   1    6.47    0.19
   7   5  -1    6.17    0.20
  -6  -5   1    6.93    0.23
  -6  -5   1    6.83    0.20
  -6  -5   1    6.89    0.21
  -6  -5   1    6.79    0.22
  -6  -5   1    6.70    0.30
  -6  -5   1    6.57    0.17
  -6  -5   1    6.87    0.20
  -6   5   1    6.44    0.23
   6   5  -1    6.62    0.22
  -6   5   1    6.90    0.22
  -5  -5   1    7.21    0.21
  -5  -5   1    7.02    0.18
  -5  -5   1    7.68    0.23
  -5  -5   1    7.81    0.32
  -5  -5   1    7.11    0.23
  -5  -5   1    7.23    0.24
  -5  -5   1    7.08    0.18
  -5  -5   1    7.41    0.22
  -5   5   1    7.19    0.25
  -5   5   1    6.85    0.23
   5   5  -1    6.69    0.23
  -4  -5   1    3.79    0.14
  -4  -5   1    3.63    0.11
  -4  -5   1    3.59    0.16
  -4  -5   1    3.64    0.16
  -4  -5   1    3.66    0.21
  -4  -5   1    3.66    0.14
  -4  -5   1    3.79    0.16
  -4  -5   1    3.45    0.16
  -4   5   1    3.46    0.12
  -4   5   1    3.77    0.17
   4   5  -1    3.55    0.16
  -4   5   1    3.45    0.15
   4   5  -1    3.57    0.16
  -3  -5   1    5.69    0.14
  -3  -5   1    5.67    0.19
  -3  -5   1    5.49    0.17
   3  -5  -1    5.97    0.20
  -3  -5   1    5.20    0.18
  -3  -5   1    5.56    0.20
  -3  -5   1    5.45    0.20
  -3   5   1    5.21    0.16
  -3   5   1    5.53    0.13
   3   5  -1    5.43    0.19
  -3   5   1    5.26    0.13
   3   5  -1    5.21    0.19
  -3   5   1    5.49    0.19
  -2  -5   1   14.85    0.34
   2  -5  -1   14.70    0.38
  -2  -5   1   14.83    0.37
  -2  -5   1   14.98    0.35
  -2   5   1   14.71    0.38
  -2   5   1   14.18    0.31
  -2   5   1   14.03    0.30
   2   5  -1   14.40    0.34
  -2   5   1   14.54    0.35
   2   5  -1   14.73    0.34
  -2   5   1   14.53    0.29
  -2   5   1   14.33    0.34
   2   5  -1   14.14    0.36
  -2   5   1   14.38    0.31
   1  -5  -1   21.35    0.51
   1   5  -1   19.85    0.43
   1   5  -1   20.20    0.36
  -1   5   1   20.50    0.37
  -1   5   1   19.59    0.42
   0  -5  -1    1.63    0.11
   0  -5   1    1.65    0.11
   0   5   1    1.63    0.07
   0   5   1    1.62    0.10
   0   5  -1    1.60    0.10
   0   5   1    1.55    0.10
   0   5  -1    1.64    0.07
   1  -5   1    4.30    0.17
  -1  -5  -1    4.02    0.18
  -1   5  -1    4.12    0.18
  -1   5  -1    3.96    0.12
   1   5   1    4.01    0.15
   1   5   1    4.06    0.11
  -1   5  -1    4.00    0.15
   1   5   1    3.88    0.15
  -1   5  -1    4.27    0.16
  -1   5  -1    4.01    0.14
  -2  -5  -1    2.40    0.12
   2  -5   1    2.33    0.12
  -2  -5  -1    2.32    0.12
  -2  -5  -1    2.28    0.13
   2   5   1    2.27    0.12
  -2   5  -1    2.16    0.10
  -2   5  -1    2.25    0.12
  -2   5  -1    2.17    0.12
   2   5   1    2.06    0.12
  -2   5  -1    2.35    0.10
   2   5   1    2.29    0.11
   2   5   1    2.35    0.13
  -2   5  -1    2.18    0.09
  -2   5  -1    2.43    0.12
  -3  -5  -1   15.52    0.32
  -3  -5  -1   15.53    0.38
  -3  -5  -1   15.48    0.39
  -3  -5  -1   15.67    0.36
   3  -5   1   16.10    0.40
  -3  -5  -1   15.45    0.35
  -3   5  -1   15.38    0.37
  -3   5  -1   15.55    0.35
   3   5   1   15.03    0.36
  -3   5  -1   15.58    0.33
   3   5   1   15.26    0.37
  -3   5  -1   14.47    0.30
   3   5   1   15.44    0.41
  -3   5  -1   15.28    0.32
  -3   5  -1   15.33    0.31
  -4  -5  -1    4.92    0.19
  -4  -5  -1    5.17    0.25
  -4  -5  -1    5.32    0.17
  -4  -5  -1    5.08    0.19
  -4  -5  -1    4.91    0.18
  -4  -5  -1    5.11    0.16
  -4  -5  -1    5.05    0.13
  -4  -5  -1    4.98    0.18
   4   5   1    4.83    0.18
  -4   5  -1    4.82    0.10
   4   5   1    5.07    0.19
  -4   5  -1    4.57    0.20
  -4   5  -1    4.92    0.11
  -4   5  -1    4.70    0.19
  -4   5  -1    4.90    0.16
  -5  -5  -1   20.43    0.45
  -5  -5  -1   20.46    0.41
  -5  -5  -1   19.83    0.40
  -5  -5  -1   20.24    0.45
  -5  -5  -1   20.19    0.37
  -5  -5  -1   21.06    0.47
  -5  -5  -1   20.00    0.60
  -5   5  -1   19.46    0.45
   5   5   1   19.24    0.44
   5   5   1   20.19    0.45
  -5   5  -1   18.92    0.39
  -5   5  -1   19.43    0.48
  -6  -5  -1    9.48    0.20
  -6  -5  -1    9.11    0.35
  -6  -5  -1    9.94    0.26
  -6  -5  -1    9.78    0.25
  -6  -5  -1    9.06    0.23
  -6  -5  -1    9.46    0.26
   6   5   1    9.17    0.26
  -6   5  -1    9.87    0.28
  -6   5  -1    9.45    0.23
   6   5   1    9.37    0.27
  -7  -5  -1    4.29    0.15
  -7  -5  -1    4.29    0.12
  -7  -5  -1    4.40    0.14
  -7  -5  -1    4.55    0.16
  -7  -5  -1    4.41    0.17
  -7  -5  -1    4.16    0.13
  -7  -5  -1    4.26    0.11
  -7   5  -1    4.41    0.17
  -8  -5  -1    2.66    0.10
  -8  -5  -1    2.93    0.11
  -8  -5  -1    2.67    0.09
  -8  -5  -1    2.67    0.08
  -8  -5  -1    2.72    0.11
  -8   5  -1    2.78    0.11
  -8   5  -1    2.75    0.12
  -7  -6   1    2.48    0.09
  -7  -6   1    2.33    0.07
  -7  -6   1    2.48    0.11
  -7  -6   1    2.18    0.10
  -7  -6   1    2.20    0.10
  -7  -6   1    2.39    0.09
  -7  -6   1    2.36    0.07
  -7   6   1    2.33    0.09
   7   6  -1    2.31    0.11
  -7   6   1    2.21    0.10
   7   6  -1    2.08    0.10
   7   6  -1    2.26    0.10
  -6  -6   1    3.09    0.13
  -6  -6   1    2.91    0.12
  -6  -6   1    3.06    0.11
  -6  -6   1    2.75    0.13
  -6  -6   1    2.83    0.13
  -6   6   1    2.58    0.11
  -6   6   1    2.71    0.14
   6   6  -1    2.85    0.13
  -6   6   1    2.84    0.13
   6   6  -1    2.85    0.14
  -6   6   1    2.82    0.10
   6   6  -1    3.01    0.14
  -5  -6   1    6.16    0.21
  -5  -6   1    6.02    0.20
  -5  -6   1    5.68    0.20
  -5  -6   1    5.77    0.21
  -5  -6   1    5.76    0.17
  -5  -6   1    5.76    0.28
  -5   6   1    5.30    0.21
  -5   6   1    5.20    0.16
   5   6  -1    5.35    0.20
   5   6  -1    5.60    0.21
  -5   6   1    5.77    0.20
   5   6  -1    5.65    0.20
  -4  -6   1    7.43    0.32
  -4  -6   1    7.35    0.20
  -4  -6   1    7.15    0.23
  -4  -6   1    7.04    0.24
  -4  -6   1    7.35    0.24
  -4  -6   1    7.22    0.24
  -4  -6   1    7.08    0.20
  -4   6   1    7.12    0.23
  -4   6   1    7.14    0.19
  -4   6   1    6.96    0.20
   4   6  -1    7.43    0.23
   4   6  -1    6.99    0.24
  -4   6   1    7.02    0.26
   4   6  -1    7.17    0.24
  -3  -6   1    1.55    0.13
  -3  -6   1    1.34    0.11
  -3  -6   1    1.38    0.11
  -3  -6   1    1.43    0.16
  -3  -6   1    1.27    0.12
  -3   6   1    1.28    0.07
  -3   6   1    1.49    0.12
   3   6  -1    1.07    0.10
   3   6  -1    1.44    0.12
  -3   6   1    1.46    0.06
  -3   6   1    1.30    0.08
   3   6  -1    1.45    0.13
   3   6  -1    1.16    0.11
  -3   6   1    1.37    0.11
  -3   6   1    1.38    0.06
  -2  -6   1   11.76    0.31
  -2  -6   1   12.08    0.34
  -2  -6   1   11.66    0.31
  -2   6   1   11.44    0.34
  -2   6   1   11.38    0.31
   2   6  -1   11.74    0.32
  -2   6   1   11.24    0.27
  -2   6   1   11.31    0.26
  -2   6   1   11.99    0.26
  -2   6   1   11.49    0.27
   2   6  -1   11.49    0.33
   2   6  -1   11.38    0.30
   2   6  -1   11.74    0.31
  -2   6   1   11.36    0.31
  -1  -6   1   14.87    0.36
  -1   6   1   14.12    0.34
  -1   6   1   14.63    0.32
   1   6  -1   14.77    0.37
  -1   6   1   14.53    0.40
  -1   6   1   14.38    0.30
  -1   6   1   14.65    0.37
   1   6  -1   14.64    0.35
   1   6  -1   14.06    0.37
   1   6  -1   14.58    0.32
   1   6  -1   14.96    0.34
   0  -6   1    3.63    0.16
   0  -6   1    3.84    0.17
   0   6   1    3.71    0.17
   0   6  -1    3.76    0.14
   0   6   1    3.80    0.14
   0   6  -1    3.49    0.16
   0   6   1    3.71    0.12
   0   6   1    3.53    0.15
   0   6  -1    3.62    0.13
   0   6   1    3.45    0.16
   0   6  -1    3.66    0.17
   0   6   1    3.79    0.16
   0   6  -1    3.50    0.11
   0   6  -1    3.56    0.16
   0   6   1    3.77    0.13
  -1  -6  -1    6.99    0.23
  -1   6  -1    6.62    0.23
  -1   6  -1    6.59    0.22
   1   6   1    6.71    0.22
   1   6   1    6.31    0.19
  -1   6  -1    6.47    0.19
   1   6   1    6.42    0.19
  -1   6  -1    6.47    0.21
   1   6   1    6.52    0.15
   1   6   1    6.74    0.22
   1   6   1    6.62    0.22
  -1   6  -1    6.54    0.17
  -1   6  -1    6.46    0.22
  -2  -6  -1   13.62    0.36
   2   6   1   14.39    0.37
  -2   6  -1   14.73    0.33
  -2   6  -1   14.23    0.30
  -2   6  -1   14.58    0.37
  -2   6  -1   14.15    0.32
   2   6   1   14.80    0.36
  -2   6  -1   14.26    0.36
   2   6   1   14.24    0.34
  -2   6  -1   14.23    0.33
   2   6   1   14.34    0.37
  -3  -6  -1    8.42    0.28
  -3  -6  -1    9.07    0.27
  -3  -6  -1    8.83    0.25
  -3  -6  -1    9.24    0.26
   3   6   1    8.81    0.27
  -3   6  -1    8.82    0.27
   3   6   1    8.91    0.28
  -3   6  -1    8.25    0.21
   3   6   1    8.90    0.27
  -3   6  -1    8.95    0.23
  -3   6  -1    8.79    0.29
   3   6   1    8.85    0.25
  -3   6  -1    8.63    0.20
  -4  -6  -1    3.59    0.15
  -4  -6  -1    3.35    0.16
  -4  -6  -1    3.47    0.13
  -4  -6  -1    3.52    0.15
  -4  -6  -1    3.52    0.22
  -4  -6  -1    3.47    0.16
   4   6   1    3.28    0.15
   4   6   1    3.36    0.16
  -4   6  -1    3.57    0.17
  -4   6  -1    3.57    0.14
   4   6   1    3.46    0.16
  -4   6  -1    3.22    0.16
  -4   6  -1    3.53    0.12
  -5  -6  -1    5.26    0.18
  -5  -6  -1    5.71    0.19
  -5  -6  -1    5.57    0.26
  -5  -6  -1    5.12    0.16
  -5  -6  -1    5.32    0.14
  -5  -6  -1    5.33    0.19
  -5   6  -1    5.35    0.15
   5   6   1    5.27    0.19
   5   6   1    5.26    0.19
   5   6   1    5.28    0.19
  -5   6  -1    5.50    0.20
  -5   6  -1    5.30    0.16
  -5   6  -1    5.03    0.20
  -6  -6  -1    1.21    0.07
  -6  -6  -1    1.49    0.09
  -6  -6  -1    1.27    0.09
  -6  -6  -1    1.46    0.08
   6   6   1    1.38    0.09
  -6   6  -1    1.34    0.07
   6   6   1    1.28    0.09
  -6   6  -1    1.22    0.07
  -6   6  -1    1.14    0.10
   6   6   1    1.27    0.09
  -7  -6  -1    6.45    0.13
  -7  -6  -1    6.64    0.13
  -7  -6  -1    6.58    0.18
  -7  -6  -1    6.44    0.18
  -7  -6  -1    6.44    0.18
  -7  -6  -1    6.33    0.15
  -7  -6  -1    6.45    0.16
   7   6   1    6.18    0.17
  -7   6  -1    6.10    0.14
  -7   6  -1    6.23    0.14
  -7   6  -1    5.94    0.15
  -7   6  -1    6.11    0.18
  -6  -7   1    0.08    0.03
  -6  -7   1    0.02    0.03
  -6  -7   1    0.07    0.03
  -6  -7   1    0.15    0.04
  -6   7   1    0.09    0.02
   6   7  -1    0.14    0.04
   6   7  -1    0.09    0.04
  -6   7   1    0.11    0.04
   6   7  -1    0.12    0.05
  -6   7   1    0.08    0.02
  -5  -7   1    1.16    0.09
  -5  -7   1    1.12    0.09
  -5  -7   1    1.07    0.09
  -5  -7   1    1.18    0.10
  -5   7   1    1.25    0.06
   5   7  -1    1.22    0.10
   5   7  -1    0.94    0.09
   5   7  -1    1.26    0.09
  -5   7   1    0.95    0.06
  -5   7   1    0.95    0.09
  -5   7   1    1.01    0.08
  -4  -7   1    6.18    0.20
  -4  -7   1    6.46    0.21
  -4  -7   1    6.39    0.21
  -4  -7   1    6.62    0.22
  -4  -7   1    6.25    0.17
  -4   7   1    6.20    0.17
   4   7  -1    6.27    0.22
  -4   7   1    6.34    0.20
   4   7  -1    6.24    0.21
   4   7  -1    6.01    0.21
  -4   7   1    6.23    0.17
  -4   7   1    6.64    0.23
   4   7  -1    6.46    0.20
  -3  -7   1    6.11    0.28
  -3  -7   1    6.37    0.23
  -3  -7   1    6.27    0.20
  -3  -7   1    5.94    0.20
  -3  -7   1    6.15    0.22
  -3  -7   1    6.50    0.22
  -3   7   1    6.08    0.23
  -3   7   1    6.02    0.16
   3   7  -1    5.91    0.21
   3   7  -1    6.08    0.22
   3   7  -1    5.81    0.19
  -3   7   1    6.18    0.18
   3   7  -1    6.04    0.21
  -2  -7   1    0.62    0.08
  -2  -7   1    0.56    0.10
  -2  -7   1    0.65    0.09
  -2   7   1    0.61    0.09
  -2   7   1    0.51    0.06
  -2   7   1    0.58    0.05
   2   7  -1    0.73    0.09
   2   7  -1    0.77    0.09
   2   7  -1    0.72    0.09
   2   7  -1    0.73    0.08
  -2   7   1    0.57    0.05
  -1  -7   1   16.13    0.39
   1   7  -1   14.83    0.40
  -1   7   1   14.37    0.36
   1   7  -1   15.05    0.38
  -1   7   1   15.17    0.41
  -1   7   1   14.96    0.33
  -1   7   1   15.21    0.34
   1   7  -1   14.83    0.33
   1   7  -1   15.42    0.38
  -1   7   1   14.77    0.30
   1   7  -1   14.81    0.35
  -1   7   1   15.15    0.38
   0  -7  -1   15.78    0.38
   0  -7   1   15.72    0.39
   0   7  -1   14.51    0.30
   0   7  -1   15.85    0.37
   0   7   1   15.33    0.38
   0   7   1   14.39    0.35
   0   7   1   14.78    0.33
   0   7  -1   15.09    0.38
   0   7   1   14.69    0.39
   0   7   1   14.99    0.29
   0   7   1   14.80    0.36
   0   7  -1   15.24    0.33
   0   7  -1   15.37    0.42
  -1  -7  -1    2.32    0.13
   1   7   1    2.26    0.13
   1   7   1    2.27    0.10
   1   7   1    2.27    0.10
   1   7   1    2.37    0.14
   1   7   1    2.36    0.13
  -1   7  -1    2.19    0.11
  -1   7  -1    2.37    0.13
  -1   7  -1    2.20    0.11
  -1   7  -1    2.10    0.14
  -1   7  -1    2.24    0.09
  -2  -7  -1    0.72    0.09
  -2  -7  -1    0.91    0.09
  -2   7  -1    0.74    0.07
  -2   7  -1    0.80    0.07
   2   7   1    0.67    0.08
   2   7   1    0.67    0.07
   2   7   1    0.68    0.08
  -2   7  -1    0.69    0.09
  -2   7  -1    0.69    0.06
  -2   7  -1    0.55    0.08
  -2   7  -1    0.63    0.06
   2   7   1    0.77    0.09
  -3  -7  -1    4.28    0.15
  -3  -7  -1    4.23    0.17
  -3  -7  -1    4.08    0.18
  -3  -7  -1    3.86    0.17
  -3   7  -1    3.99    0.17
   3   7   1    4.06    0.17
  -3   7  -1    3.94    0.13
   3   7   1    4.06    0.15
   3   7   1    4.03    0.17
  -3   7  -1    4.14    0.18
   3   7   1    4.04    0.17
  -3   7  -1    3.99    0.14
  -4  -7  -1    0.91    0.08
  -4  -7  -1    0.88    0.08
  -4  -7  -1    0.63    0.08
  -4  -7  -1    0.79    0.07
  -4  -7  -1    0.82    0.09
  -4   7  -1    0.64    0.06
   4   7   1    0.82    0.08
   4   7   1    0.60    0.07
  -4   7  -1    0.67    0.06
  -4   7  -1    0.55    0.08
  -4   7  -1    0.59    0.07
   4   7   1    0.85    0.09
   4   7   1    0.82    0.09
  -5  -7  -1    0.93    0.08
  -5  -7  -1    0.94    0.08
  -5  -7  -1    1.06    0.08
  -5   7  -1    1.10    0.09
   5   7   1    1.08    0.09
  -5   7  -1    0.95    0.08
  -5   7  -1    1.06    0.07
  -5   7  -1    1.04    0.06
   5   7   1    1.04    0.09
   5   7   1    1.21    0.08
  -6  -7  -1    2.30    0.10
  -6  -7  -1    2.36    0.10
  -6   7  -1    2.16    0.08
   6   7   1    2.16    0.10
  -6   7  -1    2.24    0.10
  -6   7  -1    2.21    0.08
  -4  -8   1    1.68    0.10
  -4  -8   1    1.56    0.10
  -4  -8   1    1.64    0.09
  -4   8   1    1.66    0.07
   4   8  -1    1.66    0.08
  -4   8   1    1.70    0.07
   4   8  -1    1.58    0.09
  -4   8   1    1.54    0.10
   4   8  -1    1.48    0.09
   4   8  -1    1.51    0.09
  -3  -8   1    0.77    0.07
  -3  -8   1    0.86    0.08
  -3  -8   1    0.77    0.08
  -3  -8   1    0.85    0.08
  -3   8   1    0.79    0.05
   3   8  -1    0.79    0.06
   3   8  -1    0.77    0.08
  -3   8   1    0.80    0.08
   3   8  -1    0.93    0.09
  -3   8   1    0.84    0.06
   3   8  -1    0.83    0.07
  -2  -8   1    2.64    0.12
  -2  -8   1    2.60    0.13
  -2  -8   1    2.83    0.13
   2   8  -1    2.59    0.12
  -2   8   1    2.47    0.13
   2   8  -1    2.62    0.12
  -2   8   1    2.59    0.10
   2   8  -1    2.62    0.11
   2   8  -1    2.40    0.09
  -2   8   1    2.32    0.08
  -1  -8   1    0.95    0.08
  -1   8   1    0.82    0.08
  -1   8   1    0.99    0.06
   1   8  -1    1.25    0.09
  -1   8   1    1.10    0.07
   1   8  -1    1.16    0.09
   0  -8   1   10.24    0.27
   0  -8  -1   10.32    0.26
   0   8   1    9.53    0.22
   0   8  -1    9.70    0.24
   0   8   1    9.82    0.23
   0   8  -1    9.26    0.22
   0   8  -1    9.21    0.27
  -1  -8  -1    8.04    0.22
   1  -8   1    7.64    0.23
  -1   8  -1    7.37    0.17
   1   8   1    7.00    0.21
   1   8   1    7.65    0.20
  -1   8  -1    7.18    0.19
  -1   8  -1    7.53    0.18
   1   8   1    7.34    0.22
  -1   8  -1    7.54    0.24
  -2  -8  -1    1.78    0.10
  -2  -8  -1    2.02    0.10
  -2  -8  -1    2.03    0.11
  -2   8  -1    1.90    0.09
   2   8   1    1.84    0.10
   2   8   1    2.07    0.11
  -2   8  -1    2.01    0.12
   2   8   1    2.00    0.11
  -3  -8  -1    6.76    0.17
  -3  -8  -1    6.65    0.20
  -3  -8  -1    6.87    0.19
  -3   8  -1    6.29    0.16
   3   8   1    6.35    0.19
   3   8   1    6.38    0.19
   3   8   1    6.42    0.15
  -3   8  -1    6.61    0.21
   3   8   1    6.56    0.19
  -3   8  -1    6.34    0.14
  -4  -8  -1    0.94    0.08
   4   8   1    1.01    0.08
  -4   8  -1    0.86    0.08
   4   8   1    1.17    0.08
   4   8   1    0.86    0.07
   4   8   1    0.99    0.06
  -4   8  -1    0.94    0.06
 -10   0   2    3.13    0.14
  -9   0   2    0.04    0.04
  -9   0   2    0.01    0.04
  -8   0   2   11.47    0.32
  -8   0   2   11.06    0.13
  -8   0   2   11.09    0.13
  -8   0   2   11.36    0.31
  -7   0   2    0.12    0.05
  -7   0   2    0.00    0.04
  -7   0   2    0.07    0.04
  -7   0   2    0.04    0.04
   6   0  -2    4.00    0.12
   5   0  -2   14.09    0.29
   4   0  -2   32.44    0.60
   3   0  -2   47.21    1.04
   3   0  -2   48.76    0.87
   3   0  -2   47.70    0.87
   2   0  -2   11.72    0.27
   2   0  -2   11.63    0.23
   2   0  -2   12.06    0.23
   1   0  -2   82.17    1.46
  -1   0   2   79.95    1.75
  -1   0   2   80.21    1.77
   1   0  -2   79.56    1.73
   0   0   2   43.60    0.99
   0   0  -2   44.78    0.83
   0   0  -2   45.59    0.99
   0   0   2   45.10    0.83
   0   0   2   46.13    0.99
  -1   0  -2   13.98    0.29
   1   0   2   14.91    0.35
  -1   0  -2   13.96    0.36
  -1   0  -2   14.86    0.35
  -2   0  -2   25.48    0.50
   2   0   2   26.84    0.61
  -2   0  -2   26.32    0.60
   2   0   2   26.29    0.51
  -2   0  -2   24.13    0.60
  -3   0  -2    0.42    0.05
   3   0   2    0.40    0.04
   4   0   2    0.93    0.06
  -4   0  -2    0.97    0.06
  -5   0  -2   38.61    0.69
  -5   0  -2   39.37    0.67
   5   0   2   39.51    0.80
  -6   0  -2   10.38    0.23
  -6   0  -2   10.83    0.25
  -6   0  -2   10.51    0.29
  -6   0  -2   10.70    0.23
   6   0   2   10.22    0.29
  -6   0  -2   10.93    0.28
  -6   0  -2   10.87    0.20
  -6   0  -2   10.47    0.20
  -7   0  -2    1.01    0.07
  -7   0  -2    1.16    0.11
  -7   0  -2    1.01    0.10
  -7   0  -2    0.96    0.07
  -7   0  -2    0.97    0.05
  -8   0  -2    2.53    0.13
  -8   0  -2    2.52    0.10
  -8   0  -2    2.45    0.13
  -9   0  -2    0.12    0.03
  -9   0  -2    0.16    0.03
  -9   0  -2    0.11    0.04
  -9   0  -2    0.15    0.04
 -10  -1   2    0.41    0.06
 -10   1   2    0.37    0.06
  -9  -1   2    3.87    0.16
  -9  -1   2    4.43    0.17
  -9   1   2    4.05    0.14
  -9   1   2    4.16    0.18
  -9   1   2    4.24    0.06
  -9   1   2    4.09    0.06
  -9   1   2    3.97    0.16
  -8  -1   2    5.24    0.20
  -8  -1   2    5.08    0.17
  -8  -1   2    5.19    0.19
  -8   1   2    4.94    0.19
  -8   1   2    5.24    0.17
  -8   1   2    5.39    0.20
  -8   1   2    5.50    0.20
  -7  -1   2    1.88    0.10
  -7  -1   2    2.03    0.12
  -7  -1   2    2.04    0.04
  -7  -1   2    2.05    0.05
  -7  -1   2    1.95    0.04
  -7  -1   2    2.10    0.11
  -7   1   2    2.13    0.12
  -7   1   2    2.14    0.13
  -7   1   2    2.02    0.10
  -7   1   2    2.00    0.12
   7   1  -2    2.04    0.10
  -7   1   2    2.20    0.12
  -6  -1   2   10.09    0.12
  -6   1   2   10.23    0.29
  -6   1   2   10.61    0.28
   6   1  -2   10.69    0.26
  -5  -1   2   46.15    1.04
   5   1  -2   47.42    0.91
  -4  -1   2    4.28    0.16
   4   1  -2    4.13    0.12
  -3  -1   2  133.74    2.87
  -3  -1   2  144.94    3.05
  -3  -1   2  141.27    3.02
   3   1  -2  141.50    3.09
   3   1  -2  145.12    2.67
  -2  -1   2  425.10    9.02
   2  -1  -2  420.98    8.16
   2  -1  -2  412.26    9.47
   2  -1  -2  419.53    7.95
  -2  -1   2  411.53   10.38
   2   1  -2  428.60    9.41
   2   1  -2  439.68    7.89
   1  -1  -2  113.13    2.49
  -1  -1   2  112.90    2.07
  -1  -1   2  115.61    2.51
  -1  -1   2  108.34    2.44
   1  -1  -2  113.82    2.08
   1   1  -2  109.52    2.02
  -1   1   2  118.12    2.44
   1   1  -2  106.04    2.44
   0  -1  -2  137.59    3.07
   0  -1  -2  137.76    2.61
   0  -1   2  148.18    2.61
   0  -1   2  136.13    3.05
   0   1  -2  136.75    2.60
   0   1   2  136.68    2.53
   0   1  -2  145.11    3.11
   0   1   2  137.93    3.07
   0   1   2  140.64    3.10
  -1  -1  -2  272.74    5.02
  -1  -1  -2  269.61    5.91
   1  -1   2  269.76    4.97
   1  -1   2  270.87    7.50
  -1   1  -2  246.08    5.45
  -1   1  -2  248.88    4.58
  -1   1  -2  257.19    5.45
   1   1   2  251.09    4.61
   1   1   2  245.66    5.45
   2  -1   2   87.05    1.59
   2  -1   2   87.06    1.89
  -2  -1  -2   85.39    1.60
  -2  -1  -2   86.98    1.90
  -2   1  -2   84.50    1.81
   2   1   2   82.80    1.83
   2   1   2   84.71    1.54
  -2   1  -2   79.78    1.81
  -3  -1  -2   36.91    0.87
   3  -1   2   37.41    0.72
   3   1   2   35.75    0.72
   3   1   2   36.49    0.87
  -3   1  -2   37.71    0.83
   4  -1   2   24.80    0.51
  -4  -1  -2   24.64    0.60
  -4   1  -2   25.01    0.55
   4   1   2   24.55    0.53
  -5  -1  -2   25.92    0.49
   5  -1   2   26.60    0.56
   5   1   2   25.86    0.56
  -5   1  -2   25.84    0.44
  -5   1  -2   24.36    0.46
  -6  -1  -2    5.27    0.15
  -6  -1  -2    5.46    0.14
  -6  -1  -2    4.92    0.15
  -6  -1  -2    5.46    0.19
  -6  -1  -2    5.23    0.15
  -6  -1  -2    5.32    0.18
   6  -1   2    5.03    0.18
  -6   1  -2    5.12    0.18
  -6   1  -2    5.06    0.14
   6   1   2    5.64    0.20
  -6   1  -2    5.08    0.16
  -6   1  -2    5.33    0.19
  -6   1  -2    5.53    0.19
  -7  -1  -2    6.82    0.18
  -7  -1  -2    6.92    0.22
  -7  -1  -2    6.72    0.19
  -7  -1  -2    6.57    0.23
  -7  -1  -2    6.62    0.17
  -7   1  -2    6.73    0.22
  -7   1  -2    6.89    0.18
  -7   1  -2    6.77    0.23
  -7   1  -2    6.72    0.22
  -7   1  -2    6.81    0.13
  -8  -1  -2    0.77    0.09
  -8  -1  -2    0.69    0.06
  -8  -1  -2    0.65    0.06
  -8  -1  -2    0.74    0.04
  -8  -1  -2    0.63    0.08
  -8   1  -2    0.70    0.08
  -8   1  -2    0.69    0.08
  -8   1  -2    0.78    0.06
  -9  -1  -2    1.21    0.09
  -9  -1  -2    1.16    0.06
  -9  -1  -2    1.20    0.06
  -9  -1  -2    1.40    0.09
  -9   1  -2    1.39    0.09
  -9   1  -2    1.16    0.06
  -9   1  -2    1.38    0.09
 -10  -2   2    1.36    0.09
 -10  -2   2    1.49    0.06
 -10   2   2    1.33    0.07
 -10   2   2    1.38    0.03
 -10   2   2    1.35    0.03
  -9  -2   2    1.56    0.10
  -9  -2   2    1.40    0.07
  -9  -2   2    1.42    0.10
  -9   2   2    1.53    0.03
  -9   2   2    1.45    0.11
  -9   2   2    1.48    0.03
  -9   2   2    1.22    0.10
  -9   2   2    1.43    0.09
  -8  -2   2    3.33    0.06
  -8  -2   2    3.25    0.06
  -8  -2   2    3.23    0.14
  -8  -2   2    3.22    0.12
  -8  -2   2    3.11    0.15
  -8  -2   2    3.29    0.15
  -8   2   2    3.17    0.15
  -8   2   2    3.02    0.13
  -8   2   2    3.25    0.16
  -8   2   2    3.01    0.15
  -7  -2   2   15.59    0.38
  -7  -2   2   15.38    0.32
  -7  -2   2   15.69    0.24
  -7  -2   2   15.68    0.38
  -7  -2   2   15.63    0.35
  -7  -2   2   15.86    0.25
  -7   2   2   15.10    0.38
  -7   2   2   15.29    0.39
  -7   2   2   16.15    0.41
  -7   2   2   15.88    0.39
  -6  -2   2    7.95    0.25
  -6  -2   2    7.27    0.22
  -6  -2   2    8.27    0.29
  -6  -2   2    7.54    0.20
  -6  -2   2    7.92    0.16
  -6  -2   2    7.57    0.18
  -6  -2   2    7.70    0.23
  -6  -2   2    7.97    0.15
  -6   2   2    7.95    0.24
   6   2  -2    8.15    0.23
  -6   2   2    7.37    0.24
  -6   2   2    7.87    0.24
  -6   2   2    7.75    0.24
  -5  -2   2   13.13    0.39
   5   2  -2   12.58    0.31
   4  -2  -2   11.98    0.24
  -4  -2   2   12.13    0.31
  -4  -2   2   11.86    0.34
   4   2  -2   11.88    0.28
  -3  -2   2  115.13    2.42
   3  -2  -2  117.33    2.10
  -3  -2   2  116.63    2.53
   3   2  -2  109.62    2.44
   3   2  -2  113.03    2.05
   2  -2  -2   51.64    0.95
  -2  -2   2   50.83    1.10
  -2  -2   2   50.22    0.96
  -2  -2   2   52.24    1.15
   2  -2  -2   52.15    1.15
   2   2  -2   52.03    1.15
   2   2  -2   49.07    0.96
  -1  -2   2   69.82    1.31
   1  -2  -2   71.46    1.56
   1  -2  -2   71.01    1.31
  -1  -2   2   70.71    1.56
   1   2  -2   70.04    1.27
   1   2  -2   68.18    1.52
  -1   2   2   68.97    1.49
  -1   2   2   66.42    1.49
   0  -2   2   62.33    1.16
   0  -2   2   63.29    1.39
   0  -2  -2   62.51    1.16
   0  -2  -2   61.34    1.39
   0   2   2   58.98    1.11
   0   2  -2   59.07    1.11
   0   2   2   60.32    1.33
   0   2  -2   61.10    1.33
   1  -2   2   25.39    0.61
  -1  -2  -2   25.96    0.52
   1  -2   2   25.96    0.51
  -1  -2  -2   25.70    0.62
   1   2   2   24.52    0.59
  -1   2  -2   23.86    0.48
   1   2   2   24.40    0.49
  -1   2  -2   24.60    0.57
  -2  -2  -2    5.69    0.20
   2  -2   2    5.74    0.15
  -2  -2  -2    5.55    0.16
   2  -2   2    5.57    0.18
  -2   2  -2    5.58    0.17
  -2   2  -2    5.64    0.17
   2   2   2    5.50    0.20
   2   2   2    5.83    0.16
  -3  -2  -2   44.87    1.07
   3  -2   2   46.30    0.88
   3   2   2   46.89    1.11
  -3   2  -2   46.66    1.04
   3   2   2   46.53    0.92
  -4  -2  -2    4.67    0.18
   4  -2   2    4.69    0.15
  -4  -2  -2    4.49    0.18
   4   2   2    4.71    0.17
  -5  -2  -2   28.75    0.50
  -5  -2  -2   28.91    0.54
  -5  -2  -2   29.30    0.54
  -5  -2  -2   28.56    0.51
  -5  -2  -2   28.10    0.56
   5  -2   2   28.49    0.60
  -5  -2  -2   28.90    0.56
  -5   2  -2   27.55    0.55
  -5   2  -2   28.00    0.46
  -5   2  -2   27.88    0.46
   5   2   2   27.60    0.62
  -5   2  -2   27.25    0.51
  -5   2  -2   27.86    0.55
  -6  -2  -2   29.62    0.53
  -6  -2  -2   29.46    0.59
  -6  -2  -2   29.38    0.54
  -6  -2  -2   29.86    0.54
  -6  -2  -2   29.63    0.58
  -6  -2  -2   29.41    0.55
  -6  -2  -2   29.98    0.57
  -6   2  -2   28.25    0.41
  -6   2  -2   29.03    0.58
  -6   2  -2   29.10    0.59
  -6   2  -2   27.93    0.59
  -7  -2  -2    2.94    0.11
  -7  -2  -2    2.98    0.09
  -7  -2  -2    2.88    0.11
  -7  -2  -2    2.97    0.12
  -7  -2  -2    2.71    0.14
  -7  -2  -2    2.78    0.12
  -7  -2  -2    2.91    0.09
  -7  -2  -2    3.03    0.15
  -7   2  -2    2.97    0.12
  -7   2  -2    2.83    0.15
  -7   2  -2    3.18    0.15
  -7   2  -2    2.87    0.14
  -8  -2  -2    2.57    0.11
  -8  -2  -2    2.62    0.08
  -8  -2  -2    2.63    0.10
  -8  -2  -2    2.62    0.10
  -8  -2  -2    2.62    0.13
  -8  -2  -2    2.64    0.14
  -8   2  -2    2.68    0.13
  -8   2  -2    2.75    0.14
  -9  -2  -2    4.35    0.12
  -9  -2  -2    4.48    0.12
  -9  -2  -2    4.50    0.15
  -9  -2  -2    4.41    0.16
  -9   2  -2    4.33    0.15
  -9   2  -2    4.34    0.13
  -9   2  -2    4.45    0.15
 -10  -3   2    2.41    0.08
 -10  -3   2    2.30    0.08
 -10   3   2    2.31    0.04
 -10   3   2    2.37    0.09
  -9  -3   2    0.27    0.05
  -9  -3   2    0.23    0.04
  -9  -3   2    0.19    0.03
  -9   3   2    0.13    0.04
  -9   3   2    0.28    0.02
  -9   3   2    0.30    0.02
  -8  -3   2   14.27    0.31
  -8  -3   2   14.50    0.36
  -8  -3   2   14.44    0.34
  -8  -3   2   14.58    0.31
  -8  -3   2   14.09    0.36
  -8  -3   2   14.45    0.23
  -8  -3   2   14.72    0.31
  -8  -3   2   14.82    0.23
  -8   3   2   14.32    0.32
  -8   3   2   14.47    0.16
  -8   3   2   14.45    0.16
  -8   3   2   13.99    0.37
  -8   3   2   14.80    0.37
  -7  -3   2    3.96    0.11
  -7  -3   2    3.99    0.12
  -7  -3   2    3.88    0.14
  -7  -3   2    4.12    0.22
  -7  -3   2    4.11    0.13
  -7  -3   2    4.23    0.15
  -7  -3   2    3.93    0.15
  -7  -3   2    3.79    0.16
  -7  -3   2    3.79    0.16
  -7   3   2    3.80    0.17
  -7   3   2    4.12    0.18
  -7   3   2    3.98    0.18
  -6  -3   2   47.12    1.12
  -6  -3   2   46.65    0.89
  -6  -3   2   47.56    0.85
  -6  -3   2   47.18    0.79
  -6  -3   2   46.50    0.84
  -6  -3   2   46.78    0.81
  -6  -3   2   47.02    0.79
  -6  -3   2   45.89    0.80
  -6   3   2   45.53    0.94
  -6   3   2   46.06    0.89
   6   3  -2   45.46    0.95
  -6   3   2   46.25    0.90
   6   3  -2   44.66    0.85
  -6   3   2   46.52    0.90
  -6   3   2   46.16    0.88
   5  -3  -2   25.96    0.52
  -5  -3   2   26.06    0.52
  -5  -3   2   27.43    0.69
  -5  -3   2   26.60    0.52
  -5  -3   2   25.77    0.49
  -5  -3   2   26.71    0.51
  -5   3   2   25.42    0.55
   5   3  -2   26.68    0.58
  -5   3   2   25.70    0.54
   4  -3  -2    8.46    0.20
  -4  -3   2    8.46    0.29
  -4  -3   2    8.31    0.26
   4   3  -2    8.36    0.24
  -3  -3   2   72.27    1.65
  -3  -3   2   73.48    1.59
   3  -3  -2   74.39    1.37
   3   3  -2   74.06    1.41
   2  -3  -2   62.50    1.18
  -2  -3   2   63.21    1.43
  -2   3   2   61.00    1.30
   2   3  -2   57.86    1.38
   2   3  -2   61.25    1.15
  -1  -3   2   58.33    1.34
  -1  -3   2   58.19    1.12
   1  -3  -2   60.33    1.12
  -1   3   2   59.01    1.30
   1   3  -2   58.32    1.11
   1   3  -2   57.28    1.33
   0  -3  -2   10.35    0.26
   0  -3   2   10.11    0.25
   0  -3  -2   10.34    0.31
   0  -3   2   10.54    0.31
   0   3  -2    9.90    0.29
   0   3   2   10.09    0.29
   0   3  -2    9.72    0.24
  -1  -3  -2    1.13    0.08
   1  -3   2    1.19    0.07
   1  -3   2    1.16    0.08
  -1  -3  -2    0.96    0.09
   1   3   2    1.04    0.07
  -1   3  -2    1.08    0.07
   1   3   2    1.04    0.08
  -2  -3  -2   36.03    0.75
  -2  -3  -2   36.80    0.90
   2  -3   2   36.67    0.73
   2   3   2   33.04    0.69
  -2   3  -2   33.72    0.78
   2   3   2   33.66    0.83
   3  -3   2   33.49    0.68
  -3  -3  -2   33.51    0.85
  -3   3  -2   32.80    0.75
   3   3   2   33.19    0.84
   3   3   2   32.71    0.70
  -4  -3  -2    6.98    0.20
   4  -3   2    7.00    0.20
  -4  -3  -2    7.02    0.17
   4   3   2    7.34    0.24
  -4   3  -2    7.26    0.17
  -4   3  -2    7.10    0.19
  -4   3  -2    7.21    0.17
  -5  -3  -2   13.80    0.30
   5  -3   2   13.74    0.34
  -5  -3  -2   13.78    0.28
  -5  -3  -2   13.80    0.32
  -5  -3  -2   13.29    0.31
  -5  -3  -2   14.06    0.33
  -5   3  -2   13.22    0.30
  -5   3  -2   13.03    0.28
  -5   3  -2   13.86    0.34
   5   3   2   13.85    0.38
  -5   3  -2   12.97    0.33
  -6  -3  -2    4.37    0.16
  -6  -3  -2    4.21    0.16
  -6  -3  -2    4.43    0.15
  -6  -3  -2    4.52    0.14
  -6  -3  -2    4.52    0.15
  -6  -3  -2    4.38    0.15
  -6  -3  -2    4.37    0.17
  -6   3  -2    4.14    0.17
  -6   3  -2    4.10    0.13
  -6   3  -2    3.99    0.17
  -7  -3  -2   17.34    0.40
  -7  -3  -2   16.39    0.33
  -7  -3  -2   17.05    0.42
  -7  -3  -2   15.78    0.36
  -7  -3  -2   16.49    0.32
  -7  -3  -2   16.79    0.36
  -7  -3  -2   16.20    0.35
  -7  -3  -2   17.22    0.33
  -7   3  -2   15.81    0.39
  -7   3  -2   16.06    0.32
  -8  -3  -2    0.10    0.03
  -8  -3  -2    0.04    0.02
  -8  -3  -2    0.09    0.04
  -8  -3  -2    0.13    0.04
  -8  -3  -2    0.08    0.04
  -8  -3  -2    0.04    0.02
  -8   3  -2    0.05    0.04
  -9  -3  -2    1.98    0.08
  -9  -3  -2    1.96    0.07
  -9  -3  -2    2.09    0.11
  -9  -3  -2    1.87    0.10
  -9   3  -2    1.95    0.09
  -9   3  -2    1.93    0.10
  -9  -4   2    2.23    0.09
  -9  -4   2    2.30    0.08
  -9   4   2    2.29    0.10
  -9   4   2    2.26    0.04
  -8  -4   2    1.68    0.09
  -8  -4   2    1.62    0.06
  -8  -4   2    1.63    0.10
  -8  -4   2    1.52    0.09
  -8  -4   2    1.65    0.09
  -8  -4   2    1.56    0.08
  -8   4   2    1.64    0.04
  -8   4   2    1.87    0.10
  -7  -4   2   30.17    0.53
  -7  -4   2   30.77    0.64
  -7  -4   2   29.88    0.81
  -7  -4   2   31.43    0.58
  -7  -4   2   30.49    0.61
  -7  -4   2   31.12    0.53
  -7  -4   2   31.39    0.60
  -7  -4   2   30.79    0.57
  -7  -4   2   30.92    0.56
  -7   4   2   30.98    0.33
   7   4  -2   30.27    0.62
  -7   4   2   30.68    0.32
  -7   4   2   30.66    0.57
  -6  -4   2   40.43    0.77
  -6  -4   2   41.02    0.72
  -6  -4   2   40.54    0.72
  -6  -4   2   39.69    0.73
  -6  -4   2   39.17    0.75
  -6  -4   2   40.63    0.70
  -6  -4   2   39.92    0.80
  -6  -4   2   40.11    1.01
  -6   4   2   38.56    0.76
  -6   4   2   37.85    0.82
  -6   4   2   38.79    0.40
   6   4  -2   37.76    0.75
  -6   4   2   38.81    0.40
  -6   4   2   40.40    0.78
  -5  -4   2    3.32    0.19
  -5  -4   2    3.17    0.14
  -5  -4   2    3.20    0.14
  -5  -4   2    3.03    0.12
  -5  -4   2    3.07    0.11
  -5  -4   2    3.02    0.14
  -5  -4   2    3.04    0.13
   5  -4  -2    3.09    0.12
  -5   4   2    3.03    0.15
  -5   4   2    3.00    0.13
   5   4  -2    3.00    0.14
  -5   4   2    2.85    0.14
   5   4  -2    3.07    0.15
  -5   4   2    3.03    0.05
  -5   4   2    3.22    0.15
   5   4  -2    2.93    0.15
  -5   4   2    2.98    0.05
   4  -4  -2    9.85    0.26
  -4  -4   2   10.12    0.27
  -4  -4   2    9.93    0.24
  -4  -4   2    9.58    0.26
  -4  -4   2    9.84    0.22
  -4  -4   2   10.21    0.27
  -4  -4   2    9.98    0.27
  -4  -4   2   10.27    0.35
   4   4  -2    9.79    0.27
  -4   4   2   10.26    0.29
  -4   4   2    9.65    0.12
   4   4  -2    9.73    0.29
  -4   4   2    9.49    0.26
   3  -4  -2   16.63    0.38
  -3  -4   2   16.38    0.47
  -3  -4   2   16.54    0.36
   3   4  -2   16.18    0.40
  -3   4   2   16.10    0.29
   2  -4  -2   39.75    0.80
  -2  -4   2   39.28    0.97
  -2   4   2   37.89    0.85
   2   4  -2   37.90    0.78
   2   4  -2   37.98    0.95
  -1  -4   2   17.51    0.41
  -1  -4   2   17.39    0.49
   1  -4  -2   17.35    0.41
  -1   4   2   16.29    0.43
   1   4  -2   16.30    0.46
   0  -4   2   26.25    0.69
   0  -4   2   27.12    0.57
   0  -4  -2   26.08    0.58
   0   4  -2   25.92    0.66
   0   4   2   25.69    0.66
   1  -4   2    5.90    0.19
  -1  -4  -2    5.36    0.24
  -1  -4  -2    5.88    0.20
  -1   4  -2    5.16    0.20
   1   4   2    5.55    0.22
  -2  -4  -2    4.51    0.22
   2  -4   2    4.63    0.16
  -2   4  -2    4.47    0.15
   2   4   2    4.55    0.21
  -2   4  -2    4.65    0.17
   3  -4   2    3.27    0.13
  -3  -4  -2    3.13    0.09
  -3  -4  -2    3.56    0.14
  -3  -4  -2    3.12    0.13
  -3   4  -2    3.04    0.11
  -3   4  -2    2.91    0.12
  -3   4  -2    2.98    0.11
  -3   4  -2    3.13    0.13
   3   4   2    3.02    0.13
  -4  -4  -2    4.57    0.16
  -4  -4  -2    4.51    0.14
  -4  -4  -2    4.25    0.17
  -4  -4  -2    4.57    0.17
  -4  -4  -2    4.24    0.14
  -4  -4  -2    4.39    0.12
   4  -4   2    4.45    0.16
  -4   4  -2    4.11    0.11
  -4   4  -2    4.01    0.17
   4   4   2    3.94    0.16
   4   4   2    4.17    0.16
  -4   4  -2    4.30    0.12
  -4   4  -2    4.12    0.14
   4   4   2    4.05    0.18
  -4   4  -2    4.03    0.13
  -4   4  -2    4.03    0.15
  -4   4  -2    3.84    0.16
  -5  -4  -2   19.93    0.38
  -5  -4  -2   20.91    0.44
  -5  -4  -2   21.22    0.58
  -5  -4  -2   19.26    0.39
  -5  -4  -2   19.44    0.45
  -5  -4  -2   20.37    0.44
  -5  -4  -2   19.99    0.40
   5   4   2   19.25    0.42
  -5   4  -2   18.93    0.40
  -5   4  -2   19.29    0.38
  -5   4  -2   19.07    0.44
  -6  -4  -2    5.10    0.14
  -6  -4  -2    5.15    0.18
  -6  -4  -2    4.64    0.16
  -6  -4  -2    5.08    0.17
  -6  -4  -2    5.07    0.19
  -6  -4  -2    5.08    0.18
  -6   4  -2    5.26    0.16
  -6   4  -2    4.93    0.20
  -7  -4  -2    8.04    0.22
  -7  -4  -2    8.58    0.19
  -7  -4  -2    7.94    0.23
  -7  -4  -2    8.00    0.21
  -7  -4  -2    8.21    0.19
  -7  -4  -2    8.29    0.25
  -7  -4  -2    7.98    0.21
  -7   4  -2    8.00    0.20
  -7   4  -2    8.01    0.25
  -8  -4  -2    3.30    0.13
  -8  -4  -2    3.04    0.11
  -8  -4  -2    3.43    0.14
  -8  -4  -2    3.09    0.09
  -8  -4  -2    3.20    0.09
  -8  -4  -2    3.09    0.11
  -8   4  -2    3.05    0.13
  -8  -5   2    2.88    0.08
  -8  -5   2    2.83    0.09
  -8  -5   2    2.71    0.11
  -8  -5   2    2.93    0.11
  -8  -5   2    2.84    0.12
  -8  -5   2    2.82    0.11
  -8   5   2    2.86    0.05
  -8   5   2    2.89    0.11
  -7  -5   2    8.88    0.22
  -7  -5   2    8.85    0.23
  -7  -5   2    8.53    0.19
  -7  -5   2    9.14    0.24
  -7  -5   2    8.98    0.19
  -7  -5   2    9.21    0.26
  -7  -5   2    9.10    0.21
  -7   5   2    8.35    0.11
  -7   5   2    8.34    0.25
  -7   5   2    8.48    0.22
   7   5  -2    8.20    0.24
  -6  -5   2    0.81    0.12
  -6  -5   2    0.97    0.09
  -6  -5   2    0.83    0.07
  -6  -5   2    0.83    0.08
  -6  -5   2    0.99    0.09
  -6  -5   2    0.81    0.07
  -6  -5   2    1.01    0.08
  -6  -5   2    0.67    0.08
   6   5  -2    0.96    0.10
  -6   5   2    0.82    0.09
  -6   5   2    0.90    0.08
  -6   5   2    0.79    0.09
  -6   5   2    0.89    0.03
  -5  -5   2    7.30    0.22
  -5  -5   2    7.43    0.19
  -5  -5   2    7.54    0.32
  -5  -5   2    7.60    0.24
  -5  -5   2    7.39    0.24
  -5  -5   2    7.12    0.23
  -5  -5   2    7.26    0.21
  -5   5   2    6.93    0.20
  -5   5   2    7.40    0.26
  -5   5   2    7.08    0.22
   5   5  -2    7.48    0.24
  -4  -5   2    3.21    0.11
  -4  -5   2    2.92    0.14
  -4  -5   2    2.94    0.12
  -4  -5   2    2.94    0.14
  -4  -5   2    3.25    0.20
  -4  -5   2    2.93    0.14
  -4  -5   2    2.80    0.15
  -4  -5   2    3.11    0.12
   4   5  -2    2.72    0.15
   4   5  -2    2.74    0.14
  -4   5   2    2.90    0.11
   4   5  -2    2.47    0.14
  -4   5   2    2.88    0.13
  -3  -5   2    4.26    0.22
  -3  -5   2    4.09    0.17
  -3  -5   2    4.12    0.17
  -3  -5   2    4.26    0.12
  -3  -5   2    4.40    0.17
  -3  -5   2    4.17    0.15
   3  -5  -2    4.36    0.17
  -3  -5   2    4.49    0.15
  -3   5   2    3.81    0.15
   3   5  -2    4.39    0.17
  -3   5   2    4.27    0.11
  -3   5   2    4.15    0.13
  -3   5   2    4.03    0.11
   3   5  -2    4.34    0.17
   3   5  -2    3.93    0.18
  -2  -5   2    3.39    0.14
  -2  -5   2    3.61    0.15
  -2  -5   2    3.61    0.15
  -2  -5   2    3.69    0.16
  -2  -5   2    3.43    0.16
   2  -5  -2    3.44    0.15
  -2   5   2    3.63    0.12
   2   5  -2    3.19    0.15
  -2   5   2    3.46    0.14
   2   5  -2    3.70    0.17
   2   5  -2    3.52    0.15
  -2   5   2    3.53    0.15
  -2   5   2    3.46    0.11
   2   5  -2    3.50    0.15
  -2   5   2    3.50    0.16
  -2   5   2    3.54    0.12
  -2   5   2    3.27    0.12
  -1  -5   2    8.54    0.24
   1  -5  -2    8.72    0.27
   1   5  -2    8.79    0.27
  -1   5   2    8.00    0.23
  -1   5   2    8.51    0.24
   1   5  -2    8.29    0.27
   1   5  -2    8.40    0.18
  -1   5   2    8.22    0.19
   1   5  -2    8.56    0.23
   1   5  -2    8.61    0.25
  -1   5   2    8.45    0.21
  -1   5   2    8.70    0.22
   0  -5  -2    7.97    0.26
   0  -5   2    7.84    0.25
   0   5  -2    8.40    0.25
   0   5  -2    8.59    0.24
   0   5   2    7.68    0.23
   0   5  -2    8.14    0.21
   0   5  -2    8.34    0.22
   0   5   2    7.95    0.20
   0   5   2    8.21    0.19
   0   5   2    8.41    0.26
   0   5   2    8.56    0.23
   0   5  -2    8.20    0.19
   1  -5   2    9.11    0.28
  -1  -5  -2    9.20    0.27
  -1  -5  -2    9.04    0.29
   1   5   2    9.53    0.24
  -1   5  -2    9.52    0.22
  -1   5  -2    9.24    0.23
  -1   5  -2    9.47    0.27
  -1   5  -2    9.35    0.21
   1   5   2    8.81    0.26
   1   5   2    9.26    0.20
   1   5   2    9.16    0.26
  -1   5  -2    9.12    0.25
   1   5   2    8.68    0.22
  -1   5  -2    9.49    0.26
   1   5   2    9.19    0.25
  -2  -5  -2    1.78    0.10
   2  -5   2    1.74    0.11
  -2  -5  -2    1.97    0.12
  -2   5  -2    1.72    0.08
  -2   5  -2    1.97    0.11
  -2   5  -2    1.95    0.10
  -2   5  -2    1.78    0.10
  -2   5  -2    1.91    0.11
   2   5   2    1.67    0.11
   2   5   2    1.95    0.11
   2   5   2    1.63    0.11
  -2   5  -2    1.73    0.11
   2   5   2    1.85    0.10
  -3  -5  -2    6.65    0.23
  -3  -5  -2    6.67    0.22
  -3  -5  -2    7.06    0.21
  -3  -5  -2    6.54    0.20
  -3   5  -2    6.41    0.18
  -3   5  -2    6.41    0.18
  -3   5  -2    6.71    0.19
   3   5   2    6.29    0.21
  -3   5  -2    6.68    0.17
  -3   5  -2    6.48    0.22
   3   5   2    6.64    0.22
   3   5   2    6.64    0.23
  -3   5  -2    6.34    0.20
  -4  -5  -2    0.65    0.08
  -4  -5  -2    0.72    0.09
  -4  -5  -2    0.67    0.08
  -4  -5  -2    0.67    0.07
  -4  -5  -2    0.72    0.07
  -4   5  -2    0.68    0.04
  -4   5  -2    0.65    0.07
  -4   5  -2    0.70    0.09
  -4   5  -2    0.76    0.07
  -4   5  -2    0.75    0.05
   4   5   2    0.86    0.09
  -4   5  -2    0.61    0.06
   4   5   2    0.71    0.08
   4   5   2    0.59    0.08
  -4   5  -2    0.72    0.09
  -5  -5  -2    2.29    0.12
  -5  -5  -2    2.36    0.11
  -5  -5  -2    2.25    0.17
  -5  -5  -2    2.21    0.10
  -5  -5  -2    2.24    0.13
  -5  -5  -2    2.17    0.12
  -5   5  -2    2.14    0.10
   5   5   2    2.34    0.13
  -5   5  -2    1.97    0.09
   5   5   2    2.06    0.12
   5   5   2    2.20    0.12
  -5   5  -2    2.23    0.13
  -6  -5  -2    3.68    0.15
  -6  -5  -2    3.63    0.13
  -6  -5  -2    3.47    0.14
  -6  -5  -2    3.48    0.13
  -6   5  -2    3.53    0.12
  -6   5  -2    3.22    0.15
   6   5   2    3.12    0.14
  -6   5  -2    3.12    0.11
  -7  -5  -2    3.18    0.11
  -7  -5  -2    2.90    0.13
  -7  -5  -2    3.22    0.11
  -7  -5  -2    3.19    0.10
  -7  -5  -2    3.27    0.12
  -7  -5  -2    3.24    0.13
  -7   5  -2    3.30    0.14
  -7   5  -2    3.16    0.11
  -7   5  -2    3.06    0.10
  -8  -5  -2    1.68    0.07
  -8  -5  -2    1.70    0.09
  -8   5  -2    1.76    0.10
  -8   5  -2    1.73    0.08
   8   6  -2    3.35    0.12
  -7  -6   2    0.86    0.04
  -7  -6   2    0.89    0.04
  -7  -6   2    0.83    0.06
  -7  -6   2    0.79    0.07
  -7  -6   2    0.94    0.07
  -7  -6   2    0.97    0.08
  -7  -6   2    0.88    0.06
  -7   6   2    0.85    0.08
   7   6  -2    1.04    0.09
   7   6  -2    0.74    0.07
  -7   6   2    0.89    0.07
  -6  -6   2    7.67    0.20
  -6  -6   2    7.72    0.23
  -6  -6   2    7.98    0.24
  -6  -6   2    7.84    0.22
  -6  -6   2    7.02    0.21
  -6  -6   2    7.53    0.20
  -6   6   2    7.47    0.24
   6   6  -2    7.72    0.23
   6   6  -2    7.50    0.23
  -6   6   2    7.23    0.19
  -5  -6   2    3.98    0.16
  -5  -6   2    3.97    0.23
  -5  -6   2    4.17    0.17
  -5  -6   2    3.92    0.14
  -5  -6   2    4.07    0.17
  -5  -6   2    3.98    0.17
   5   6  -2    3.45    0.16
  -5   6   2    3.95    0.16
  -5   6   2    4.00    0.13
  -5   6   2    3.73    0.18
   5   6  -2    3.75    0.17
  -4  -6   2    8.52    0.26
  -4  -6   2    8.13    0.22
  -4  -6   2    8.13    0.27
  -4  -6   2    8.53    0.26
  -4  -6   2    8.13    0.34
  -4  -6   2    8.50    0.26
  -4  -6   2    8.37    0.22
  -4   6   2    7.81    0.24
   4   6  -2    8.31    0.25
  -4   6   2    7.97    0.27
   4   6  -2    8.13    0.26
   4   6  -2    7.98    0.26
  -4   6   2    7.49    0.20
  -3  -6   2    2.66    0.15
  -3  -6   2    2.71    0.13
  -3  -6   2    2.65    0.14
  -3  -6   2    2.61    0.18
  -3  -6   2    2.39    0.15
   3   6  -2    2.37    0.14
  -3   6   2    2.51    0.07
  -3   6   2    2.58    0.11
   3   6  -2    2.55    0.15
  -3   6   2    2.37    0.15
  -3   6   2    2.59    0.10
   3   6  -2    2.71    0.14
  -3   6   2    2.54    0.07
   3   6  -2    2.55    0.14
  -3   6   2    2.89    0.14
  -2  -6   2    2.57    0.15
  -2  -6   2    2.61    0.14
  -2  -6   2    3.02    0.19
  -2  -6   2    2.44    0.13
  -2   6   2    2.35    0.10
  -2   6   2    2.59    0.10
  -2   6   2    2.41    0.10
   2   6  -2    2.37    0.13
   2   6  -2    2.78    0.14
  -2   6   2    2.28    0.11
  -2   6   2    2.55    0.15
   2   6  -2    2.61    0.15
   2   6  -2    2.59    0.13
   2   6  -2    2.48    0.15
  -1  -6   2   34.39    0.68
  -1  -6   2   34.42    0.68
   1   6  -2   32.20    0.71
  -1   6   2   32.66    0.67
  -1   6   2   33.85    0.65
   1   6  -2   32.51    0.68
   1   6  -2   33.14    0.66
   1   6  -2   32.75    0.64
  -1   6   2   32.53    0.57
   1   6  -2   33.07    0.60
  -1   6   2   33.10    0.63
  -1   6   2   31.88    0.72
   1   6  -2   31.66    0.64
  -1   6   2   32.97    0.60
   0  -6   2   31.37    0.63
   0  -6   2   30.68    0.63
   0   6   2   29.42    0.53
   0   6  -2   29.78    0.57
   0   6   2   29.30    0.55
   0   6  -2   30.96    0.66
   0   6   2   30.78    0.61
   0   6   2   30.26    0.61
   0   6  -2   30.44    0.62
   0   6   2   29.99    0.63
   0   6  -2   30.29    0.58
   0   6   2   30.06    0.56
   0   6  -2   30.77    0.63
   0   6  -2   30.49    0.52
  -1   6  -2    0.95    0.10
  -1   6  -2    1.03    0.07
   1   6   2    0.96    0.10
   1   6   2    0.83    0.05
   1   6   2    0.88    0.08
   1   6   2    0.90    0.10
  -1   6  -2    0.79    0.09
  -1   6  -2    0.84    0.08
   1   6   2    0.82    0.09
   1   6   2    1.04    0.08
  -1   6  -2    1.15    0.11
  -1   6  -2    0.93    0.07
  -2  -6  -2    6.04    0.22
  -2  -6  -2    6.25    0.20
  -2   6  -2    6.04    0.19
  -2   6  -2    6.08    0.21
   2   6   2    6.33    0.22
   2   6   2    6.34    0.20
  -2   6  -2    6.29    0.17
  -2   6  -2    6.59    0.23
  -2   6  -2    6.30    0.20
   2   6   2    6.39    0.22
   2   6   2    6.23    0.22
  -3  -6  -2    0.08    0.05
  -3  -6  -2    0.07    0.05
  -3  -6  -2    0.07    0.04
  -3  -6  -2    0.05    0.04
   3   6   2    0.06    0.04
  -3   6  -2    0.12    0.05
  -3   6  -2    0.08    0.03
   3   6   2    0.08    0.04
  -3   6  -2    0.15    0.03
  -3   6  -2    0.12    0.04
  -3   6  -2    0.05    0.03
  -3   6  -2    0.06    0.03
  -3   6  -2    0.09    0.05
   3   6   2    0.04    0.04
   3   6   2    0.09    0.05
  -4  -6  -2    8.71    0.27
  -4  -6  -2    8.76    0.23
  -4  -6  -2    9.10    0.27
  -4  -6  -2    8.63    0.25
  -4  -6  -2    8.79    0.35
   4   6   2    7.87    0.25
   4   6   2    8.27    0.24
   4   6   2    8.50    0.25
  -4   6  -2    8.04    0.27
   4   6   2    8.40    0.26
  -4   6  -2    8.34    0.21
  -4   6  -2    8.27    0.22
  -4   6  -2    7.79    0.25
  -5  -6  -2    1.28    0.10
  -5  -6  -2    1.40    0.10
  -5  -6  -2    1.39    0.07
  -5  -6  -2    1.36    0.10
  -5   6  -2    1.21    0.10
   5   6   2    1.42    0.10
  -5   6  -2    1.39    0.07
  -5   6  -2    1.52    0.12
   5   6   2    1.30    0.09
  -5   6  -2    1.32    0.08
   5   6   2    1.36    0.09
  -6  -6  -2    2.24    0.11
  -6  -6  -2    2.20    0.11
  -6  -6  -2    2.43    0.10
  -6  -6  -2    2.24    0.11
   6   6   2    2.02    0.10
  -6   6  -2    2.08    0.11
  -6   6  -2    2.11    0.08
   6   6   2    2.31    0.11
  -6   6  -2    2.15    0.09
  -7  -6  -2    1.59    0.09
   7   6   2    1.61    0.08
  -7   6  -2    1.56    0.09
  -7   6  -2    1.53    0.07
  -7   6  -2    1.58    0.07
  -6  -7   2    0.09    0.03
  -6  -7   2    0.08    0.04
  -6  -7   2    0.08    0.04
  -6  -7   2    0.07    0.04
  -6  -7   2    0.06    0.03
   6   7  -2    0.05    0.04
  -6   7   2    0.04    0.02
  -6   7   2    0.10    0.04
  -6   7   2    0.02    0.02
   6   7  -2    0.03    0.03
   6   7  -2    0.06    0.04
  -5  -7   2    1.12    0.09
  -5  -7   2    0.86    0.08
  -5  -7   2    0.91    0.08
  -5  -7   2    0.96    0.08
   5   7  -2    0.89    0.08
  -5   7   2    0.94    0.09
   5   7  -2    0.95    0.09
  -5   7   2    0.87    0.06
  -5   7   2    0.92    0.06
   5   7  -2    1.01    0.09
  -4  -7   2    2.29    0.12
  -4  -7   2    2.39    0.13
  -4  -7   2    2.60    0.14
  -4  -7   2    2.36    0.10
  -4  -7   2    2.28    0.13
   4   7  -2    2.37    0.12
  -4   7   2    2.35    0.14
   4   7  -2    2.27    0.13
  -4   7   2    2.45    0.10
  -4   7   2    2.32    0.09
   4   7  -2    2.30    0.13
   4   7  -2    2.27    0.12
  -3  -7   2    0.46    0.07
  -3  -7   2    0.34    0.07
  -3  -7   2    0.43    0.08
  -3  -7   2    0.51    0.08
  -3  -7   2    0.36    0.06
   3   7  -2    0.41    0.07
   3   7  -2    0.31    0.06
  -3   7   2    0.45    0.05
   3   7  -2    0.31    0.06
  -3   7   2    0.36    0.05
  -3   7   2    0.44    0.07
   3   7  -2    0.34    0.07
  -2  -7   2   12.30    0.31
  -2  -7   2   11.46    0.42
  -2  -7   2   12.24    0.34
  -2   7   2   11.96    0.28
   2   7  -2   12.48    0.34
   2   7  -2   11.92    0.30
  -2   7   2   11.91    0.25
  -2   7   2   11.49    0.34
  -2   7   2   11.99    0.25
   2   7  -2   11.82    0.31
  -2   7   2   12.33    0.26
   2   7  -2   12.11    0.32
  -1  -7   2   15.74    0.38
  -1   7   2   14.84    0.37
  -1   7   2   14.67    0.33
  -1   7   2   15.06    0.40
   1   7  -2   15.62    0.38
  -1   7   2   15.05    0.30
  -1   7   2   14.72    0.33
   1   7  -2   15.10    0.38
  -1   7   2   15.03    0.37
   1   7  -2   14.75    0.33
  -1   7   2   14.68    0.32
   0  -7  -2   10.50    0.29
   0  -7   2   10.60    0.30
   0   7  -2   10.75    0.26
   0   7  -2   10.53    0.24
   0   7   2   10.91    0.28
   0   7   2   10.60    0.30
   0   7  -2   10.61    0.29
   0   7  -2   10.91    0.30
   0   7   2   10.79    0.26
   0   7   2   10.51    0.22
   0   7   2   10.11    0.28
   1  -7   2    8.07    0.25
  -1  -7  -2    8.01    0.24
   1  -7   2    7.68    0.25
   1   7   2    7.59    0.19
   1   7   2    8.13    0.24
  -1   7  -2    7.47    0.21
   1   7   2    8.30    0.25
  -1   7  -2    7.85    0.18
  -1   7  -2    7.84    0.28
   1   7   2    7.71    0.20
   1   7   2    7.76    0.25
  -1   7  -2    7.76    0.23
  -2  -7  -2    2.44    0.13
  -2  -7  -2    2.65    0.14
  -2   7  -2    2.47    0.10
  -2   7  -2    2.67    0.14
   2   7   2    2.28    0.13
   2   7   2    2.34    0.13
  -2   7  -2    2.26    0.14
  -2   7  -2    2.45    0.10
   2   7   2    2.69    0.14
   2   7   2    2.59    0.11
  -2   7  -2    2.53    0.12
  -2   7  -2    2.65    0.10
  -3  -7  -2    2.87    0.13
  -3  -7  -2    2.84    0.16
  -3  -7  -2    2.92    0.14
  -3  -7  -2    3.09    0.13
   3   7   2    2.95    0.14
  -3   7  -2    2.91    0.12
  -3   7  -2    2.66    0.10
  -3   7  -2    2.92    0.15
   3   7   2    2.71    0.12
  -3   7  -2    2.88    0.14
   3   7   2    3.26    0.15
   3   7   2    2.85    0.14
  -4  -7  -2    1.29    0.09
  -4  -7  -2    1.04    0.09
  -4  -7  -2    1.37    0.08
  -4   7  -2    1.07    0.07
  -4   7  -2    1.06    0.10
  -4   7  -2    1.03    0.10
   4   7   2    1.08    0.09
  -4   7  -2    1.11    0.06
   4   7   2    1.08    0.09
   4   7   2    1.05    0.08
   4   7   2    1.11    0.09
  -5  -7  -2    0.56    0.06
  -5  -7  -2    0.52    0.06
  -5  -7  -2    0.44    0.06
   5   7   2    0.61    0.06
  -5   7  -2    0.56    0.05
   5   7   2    0.52    0.06
   5   7   2    0.74    0.08
  -5   7  -2    0.57    0.05
  -5   7  -2    0.50    0.06
  -5   7  -2    0.54    0.07
  -4  -8   2    2.00    0.10
  -4  -8   2    1.67    0.10
  -4  -8   2    1.89    0.10
  -4   8   2    1.68    0.07
   4   8  -2    1.73    0.10
  -4   8   2    1.97    0.11
   4   8  -2    1.74    0.09
   4   8  -2    1.89    0.10
   4   8  -2    1.76    0.10
  -4   8   2    1.75    0.07
  -3  -8   2    4.53    0.16
  -3  -8   2    4.57    0.17
  -3  -8   2    4.76    0.17
  -3  -8   2    4.75    0.14
  -3   8   2    4.83    0.17
   3   8  -2    4.39    0.15
   3   8  -2    4.46    0.16
  -3   8   2    4.40    0.13
   3   8  -2    4.59    0.13
   3   8  -2    4.65    0.16
  -3   8   2    4.43    0.12
  -2  -8   2    0.28    0.06
  -2  -8   2    0.29    0.06
  -2  -8   2    0.23    0.05
   2   8  -2    0.28    0.06
   2   8  -2    0.24    0.04
  -2   8   2    0.23    0.05
  -2   8   2    0.24    0.04
   2   8  -2    0.36    0.06
  -2   8   2    0.29    0.03
  -1  -8   2   15.37    0.34
  -1   8   2   14.23    0.28
  -1   8   2   14.79    0.30
   1   8  -2   14.98    0.34
  -1   8   2   14.69    0.28
   1   8  -2   14.97    0.34
   1   8  -2   14.87    0.37
   0  -8  -2    0.55    0.07
   0  -8   2    0.56    0.07
   0   8   2    0.45    0.05
   0   8  -2    0.40    0.06
   0   8  -2    0.60    0.06
   0   8   2    0.49    0.05
   0   8   2    0.43    0.05
   1  -8   2    3.17    0.13
  -1  -8  -2    3.28    0.13
  -1   8  -2    3.05    0.14
  -1   8  -2    2.84    0.09
   1   8   2    2.87    0.11
  -1   8  -2    2.91    0.10
   1   8   2    2.88    0.13
  -1   8  -2    2.91    0.10
   1   8   2    3.06    0.13
  -2  -8  -2    3.87    0.13
  -2  -8  -2    3.94    0.14
  -2  -8  -2    4.04    0.15
  -2   8  -2    3.98    0.16
   2   8   2    3.99    0.14
   2   8   2    3.77    0.14
   2   8   2    3.91    0.14
  -2   8  -2    3.82    0.12
  -3  -8  -2    1.21    0.08
  -3  -8  -2    1.26    0.09
   3   8   2    1.36    0.09
   3   8   2    1.08    0.08
  -3   8  -2    1.27    0.09
   3   8   2    1.13    0.07
  -3   8  -2    1.27    0.07
 -10   0   3    4.20    0.16
 -10   0   3    4.46    0.15
  -9   0   3    6.22    0.22
  -9   0   3    6.53    0.22
  -8   0   3    0.16    0.05
  -8   0   3    0.24    0.06
  -8   0   3    0.22    0.01
  -8   0   3    0.34    0.07
  -8   0   3    0.23    0.01
  -8   0   3    0.39    0.07
  -7   0   3    0.39    0.07
  -7   0   3    0.46    0.07
  -7   0   3    0.33    0.06
  -7   0   3    0.56    0.08
  -7   0   3    0.37    0.06
   6   0  -3   20.15    0.40
   5   0  -3  129.47    2.34
   4   0  -3   66.14    1.21
   3   0  -3    8.26    0.18
  -2   0   3  245.87    5.19
   2   0  -3  238.35    5.19
  -2   0   3  228.28    5.17
   2   0  -3  244.84    4.37
  -1   0   3  881.87   21.57
  -1   0   3  876.16   21.63
   1   0  -3 1000.00   18.44
  -1   0   3  915.19   17.31
   1   0  -3  887.71   20.69
   0   0   3    1.55    0.06
   0   0  -3    1.52    0.08
   0   0  -3    1.49    0.06
   0   0   3    1.49    0.07
  -1   0  -3   15.59    0.40
   1   0   3   16.85    0.41
  -1   0  -3   16.14    0.34
   1   0   3   16.44    0.34
   2   0   3    5.00    0.17
  -2   0  -3    5.34    0.18
   2   0   3    5.14    0.15
  -3   0  -3    4.38    0.16
   3   0   3    4.01    0.14
   4   0   3   27.52    0.57
  -4   0  -3   25.82    0.65
  -5   0  -3   47.83    0.80
  -5   0  -3   47.61    0.86
  -5   0  -3   45.92    0.88
  -5   0  -3   46.31    0.82
  -5   0  -3   46.09    0.85
  -5   0  -3   48.49    0.80
  -5   0  -3   46.83    0.82
  -5   0  -3   48.10    0.86
   5   0   3   47.10    0.96
  -6   0  -3    6.03    0.20
  -6   0  -3    5.59    0.14
  -6   0  -3    5.68    0.16
  -6   0  -3    5.69    0.16
  -6   0  -3    5.75    0.19
  -6   0  -3    5.67    0.19
  -6   0  -3    5.49    0.16
  -6   0  -3    5.54    0.17
  -6   0  -3    5.68    0.14
  -7   0  -3   34.90    0.69
  -7   0  -3   35.10    0.71
  -7   0  -3   34.89    0.62
  -7   0  -3   34.00    0.64
  -7   0  -3   35.00    0.60
  -8   0  -3    2.19    0.09
  -8   0  -3    2.10    0.12
  -8   0  -3    2.08    0.05
  -8   0  -3    1.99    0.08
  -8   0  -3    2.05    0.12
  -9   0  -3    3.32    0.10
  -9   0  -3    3.30    0.13
  -9   0  -3    3.26    0.13
  -9   0  -3    3.30    0.10
 -10  -1   3    6.72    0.19
 -10  -1   3    6.75    0.20
 -10   1   3    6.61    0.20
 -10   1   3    6.77    0.09
  -9  -1   3    3.03    0.14
  -9  -1   3    2.74    0.14
  -9   1   3    2.99    0.14
  -9   1   3    2.89    0.04
  -9   1   3    2.80    0.14
  -9   1   3    2.90    0.15
  -9   1   3    2.83    0.04
  -9   1   3    2.97    0.12
  -8  -1   3   10.91    0.30
  -8  -1   3   10.18    0.29
  -8   1   3   10.60    0.31
  -8   1   3    9.93    0.31
  -8   1   3   10.37    0.30
  -8   1   3   10.57    0.26
  -8   1   3   10.28    0.30
  -7  -1   3    3.17    0.15
  -7  -1   3    3.05    0.14
  -7  -1   3    3.31    0.16
  -7  -1   3    3.05    0.14
  -7   1   3    3.14    0.13
  -7   1   3    3.20    0.16
  -7   1   3    3.53    0.16
   7   1  -3    2.90    0.12
  -7   1   3    3.18    0.15
  -7   1   3    3.34    0.15
  -7   1   3    3.19    0.15
  -6  -1   3   14.88    0.16
   6   1  -3   15.21    0.34
  -6   1   3   14.90    0.36
  -6   1   3   14.82    0.36
  -6   1   3   15.14    0.37
   5   1  -3    3.01    0.10
  -4  -1   3   11.24    0.32
   4  -1  -3   11.10    0.22
   4   1  -3   10.83    0.24
  -3  -1   3   59.12    1.26
  -3  -1   3   57.90    1.24
   3  -1  -3   57.27    1.06
   3   1  -3   59.22    1.10
  -2  -1   3  168.85    3.71
   2  -1  -3  175.90    3.16
  -2  -1   3  177.59    3.82
   2  -1  -3  168.39    3.75
  -2   1   3  172.24    3.69
   2   1  -3  167.71    3.17
   2   1  -3  171.75    3.74
  -2   1   3  174.54    3.69
   1  -1  -3  361.73    6.56
   1  -1  -3  348.17    7.74
  -1  -1   3  358.43    6.54
  -1  -1   3  361.01    7.79
   1   1  -3  342.03    7.56
   1   1  -3  338.44    6.34
  -1   1   3  344.48    7.50
  -1   1   3  359.26    7.52
   0  -1   3  372.74    6.73
   0  -1   3  364.47    8.00
   0  -1  -3  354.27    7.96
   0  -1  -3  372.56    6.72
   0   1   3  344.11    6.23
   0   1  -3  316.08    7.43
   0   1   3  364.16    7.51
  -1  -1  -3  132.03    2.43
  -1  -1  -3  137.11    2.89
   1  -1   3  128.93    2.88
   1  -1   3  133.22    2.45
  -1   1  -3  125.51    2.37
  -1   1  -3  131.98    2.89
   1   1   3  130.65    2.83
  -1   1  -3  131.72    2.90
   1   1   3  131.06    2.38
  -2  -1  -3  125.49    2.37
   2  -1   3  131.35    2.81
  -2  -1  -3  130.80    2.82
   2  -1   3  128.61    2.36
  -2   1  -3  130.11    2.75
   2   1   3  125.27    2.77
   2   1   3  123.26    2.32
  -3  -1  -3   24.80    0.63
   3  -1   3   25.13    0.52
  -3   1  -3   25.71    0.61
   3   1   3   24.51    0.65
   3   1   3   25.14    0.54
   4  -1   3   80.17    1.51
  -4  -1  -3   79.30    1.80
  -4   1  -3   75.86    1.67
   4   1   3   75.78    1.46
   5  -1   3   40.57    0.83
  -5  -1  -3   39.93    0.73
  -5  -1  -3   40.36    0.69
  -5  -1  -3   40.25    0.74
  -5  -1  -3   40.02    0.67
  -5  -1  -3   40.04    0.75
  -5  -1  -3   41.19    0.72
  -5   1  -3   40.03    0.70
  -5   1  -3   39.48    0.69
  -5   1  -3   38.24    0.77
  -5   1  -3   39.50    0.73
  -5   1  -3   39.86    0.67
  -5   1  -3   38.92    0.73
  -5   1  -3   38.94    0.73
  -5   1  -3   39.32    0.67
   5   1   3   39.88    0.83
  -6  -1  -3    0.08    0.03
  -6  -1  -3    0.13    0.03
  -6  -1  -3    0.10    0.05
  -6  -1  -3    0.04    0.02
  -6  -1  -3    0.06    0.03
  -6  -1  -3    0.12    0.03
  -6  -1  -3    0.08    0.03
  -6  -1  -3    0.07    0.04
  -6   1  -3    0.25    0.05
  -6   1  -3    0.06    0.03
  -6   1  -3    0.10    0.02
  -6   1  -3    0.09    0.05
  -6   1  -3    0.09    0.04
  -6   1  -3    0.10    0.02
  -6   1  -3    0.09    0.03
  -6   1  -3    0.07    0.04
  -7  -1  -3    3.29    0.15
  -7  -1  -3    3.24    0.15
  -7  -1  -3    3.23    0.12
  -7  -1  -3    3.63    0.12
  -7  -1  -3    3.31    0.13
  -7  -1  -3    3.47    0.11
  -7   1  -3    3.56    0.16
  -7   1  -3    3.52    0.16
  -7   1  -3    3.35    0.13
  -7   1  -3    3.25    0.15
  -7   1  -3    3.48    0.12
  -7   1  -3    3.46    0.09
  -8  -1  -3    1.73    0.09
  -8  -1  -3    1.69    0.08
  -8  -1  -3    1.81    0.09
  -8  -1  -3    1.73    0.11
  -8  -1  -3    1.82    0.06
  -8  -1  -3    1.73    0.11
  -8   1  -3    1.87    0.08
  -8   1  -3    1.75    0.10
  -8   1  -3    1.74    0.07
  -8   1  -3    1.60    0.11
  -9  -1  -3    5.26    0.17
  -9  -1  -3    5.45    0.17
  -9  -1  -3    5.29    0.14
  -9  -1  -3    5.33    0.13
  -9   1  -3    5.25    0.13
  -9   1  -3    5.31    0.17
  -9   1  -3    5.36    0.13
 -10  -2   3    4.65    0.15
 -10   2   3    4.81    0.06
 -10   2   3    4.70    0.13
  -9  -2   3    3.45    0.14
  -9  -2   3    3.25    0.15
  -9   2   3    3.54    0.16
  -9   2   3    3.53    0.13
  -9   2   3    3.59    0.16
  -8  -2   3    6.23    0.21
  -8  -2   3    6.02    0.21
  -8   2   3    6.30    0.23
  -8   2   3    6.12    0.22
  -8   2   3    6.33    0.24
  -8   2   3    6.22    0.22
  -8   2   3    6.17    0.19
  -7  -2   3   57.52    0.75
  -7  -2   3   56.59    1.07
  -7  -2   3   57.18    1.13
  -7  -2   3   57.95    0.75
  -7   2   3   58.05    0.95
  -7   2   3   57.32    1.09
  -7   2   3   58.23    1.11
  -7   2   3   57.92    1.10
  -7   2   3   57.58    1.08
  -6  -2   3    5.94    0.15
  -6  -2   3    5.99    0.13
  -6  -2   3    6.12    0.12
  -6  -2   3    6.21    0.20
  -6  -2   3    6.10    0.12
  -6  -2   3    6.00    0.17
  -6  -2   3    6.42    0.26
  -6  -2   3    6.20    0.22
  -6   2   3    6.30    0.18
  -6   2   3    6.36    0.22
   6   2  -3    6.46    0.20
  -6   2   3    6.29    0.21
  -6   2   3    6.09    0.21
  -5  -2   3  111.90    2.38
   5   2  -3  109.20    2.04
  -4  -2   3   33.96    0.80
   4  -2  -3   34.07    0.64
  -4  -2   3   34.61    0.78
   4   2  -3   34.59    0.70
  -3  -2   3  137.76    2.90
  -3  -2   3  140.28    3.04
   3  -2  -3  142.94    2.57
   3   2  -3  140.15    2.57
   2  -2  -3  115.52    2.10
  -2  -2   3  116.21    2.51
  -2  -2   3  114.04    2.38
  -2   2   3  119.95    2.56
  -2   2   3  115.92    2.55
   2   2  -3  121.17    2.60
   2   2  -3  118.29    2.18
  -1  -2   3  450.55   12.29
  -1  -2   3  445.63    8.18
   1  -2  -3  454.21    8.21
   1  -2  -3  440.36    9.76
   1   2  -3  432.81    7.90
  -1   2   3  427.69    9.34
   0  -2  -3   93.06    2.09
   0  -2   3   91.73    1.74
   0  -2  -3   97.24    1.76
   0  -2   3   96.70    2.08
   0   2   3   93.73    2.01
   0   2   3   90.78    1.68
   0   2  -3   91.16    1.68
   0   2  -3   89.35    2.01
  -1  -2  -3    0.06    0.04
   1  -2   3    0.07    0.03
   1  -2   3    0.07    0.03
  -1  -2  -3    0.06    0.03
   1   2   3    0.03    0.03
  -1   2  -3    0.00    0.03
   1   2   3    0.03    0.02
   2  -2   3   26.52    0.54
  -2  -2  -3   26.07    0.67
  -2  -2  -3   26.20    0.56
   2   2   3   24.91    0.53
   2   2   3   24.67    0.64
  -2   2  -3   24.80    0.60
   3  -2   3   25.61    0.53
  -3  -2  -3   24.86    0.65
  -3   2  -3   24.70    0.59
   3   2   3   24.80    0.66
   3   2   3   24.10    0.54
  -4  -2  -3   43.41    0.78
   4  -2   3   45.17    0.89
  -4   2  -3   41.75    0.75
  -4   2  -3   43.49    0.74
   4   2   3   43.07    0.89
  -5  -2  -3   18.57    0.39
   5  -2   3   17.82    0.43
  -5  -2  -3   18.91    0.40
  -5  -2  -3   18.54    0.36
  -5  -2  -3   17.79    0.40
  -5  -2  -3   17.99    0.39
  -5  -2  -3   18.64    0.35
  -5   2  -3   18.18    0.38
  -5   2  -3   17.80    0.35
  -5   2  -3   17.82    0.40
   5   2   3   17.62    0.46
  -5   2  -3   18.29    0.34
  -5   2  -3   18.24    0.34
  -5   2  -3   17.61    0.37
  -5   2  -3   17.73    0.41
  -6  -2  -3   90.47    1.47
  -6  -2  -3   89.83    1.42
  -6  -2  -3   88.26    1.51
  -6  -2  -3   89.31    1.43
  -6  -2  -3   90.81    1.57
  -6  -2  -3   89.87    1.50
  -6  -2  -3   87.70    1.53
  -6   2  -3   86.38    1.45
  -6   2  -3   88.47    1.51
  -6   2  -3   87.36    1.39
  -6   2  -3   85.94    1.48
  -7  -2  -3   14.98    0.36
  -7  -2  -3   14.60    0.32
  -7  -2  -3   15.03    0.38
  -7  -2  -3   15.44    0.28
  -7  -2  -3   15.44    0.34
  -7  -2  -3   14.76    0.28
  -7  -2  -3   14.63    0.30
  -7  -2  -3   14.74    0.32
  -7   2  -3   15.11    0.32
  -7   2  -3   15.43    0.37
  -7   2  -3   14.75    0.37
  -8  -2  -3    3.37    0.15
  -8  -2  -3    3.35    0.14
  -8  -2  -3    3.43    0.11
  -8  -2  -3    3.28    0.12
  -8  -2  -3    3.29    0.12
  -8   2  -3    3.21    0.11
  -8   2  -3    3.20    0.10
  -8   2  -3    3.42    0.15
  -9  -2  -3    8.93    0.23
  -9  -2  -3    8.63    0.19
  -9  -2  -3    8.60    0.18
  -9  -2  -3    8.86    0.22
  -9   2  -3    8.32    0.18
  -9   2  -3    8.21    0.18
  -9   2  -3    8.95    0.22
 -10  -3   3    3.41    0.10
 -10  -3   3    3.51    0.10
 -10   3   3    3.45    0.11
  -9  -3   3    0.91    0.06
  -9  -3   3    0.96    0.09
  -9  -3   3    0.95    0.06
  -9   3   3    0.98    0.08
  -8  -3   3   16.88    0.35
  -8  -3   3   17.34    0.41
  -8  -3   3   17.16    0.25
  -8  -3   3   17.06    0.35
  -8  -3   3   16.99    0.25
  -8   3   3   16.33    0.36
  -8   3   3   16.75    0.41
  -8   3   3   17.00    0.41
  -7  -3   3    6.44    0.18
  -7  -3   3    6.40    0.19
  -7  -3   3    6.14    0.18
  -7  -3   3    6.35    0.14
  -7  -3   3    6.69    0.22
  -7   3   3    6.23    0.23
  -7   3   3    6.10    0.22
  -7   3   3    6.44    0.23
   7   3  -3    6.22    0.21
  -7   3   3    6.04    0.19
  -6  -3   3   38.02    0.71
  -6  -3   3   38.20    0.95
  -6  -3   3   38.10    0.79
  -6  -3   3   38.00    0.67
  -6  -3   3   38.37    0.65
  -6  -3   3   37.98    0.75
  -6  -3   3   37.70    0.70
  -6   3   3   35.64    0.78
  -6   3   3   37.21    0.75
  -6   3   3   37.61    0.65
   6   3  -3   36.46    0.79
  -6   3   3   37.35    0.75
  -6   3   3   37.50    0.74
  -5  -3   3    3.73    0.13
   5  -3  -3    3.79    0.11
  -5  -3   3    3.82    0.13
  -5  -3   3    4.15    0.20
  -5  -3   3    3.65    0.15
  -5  -3   3    3.74    0.14
  -5  -3   3    3.90    0.14
  -5   3   3    3.71    0.15
  -5   3   3    4.08    0.16
  -5   3   3    3.67    0.16
   5   3  -3    3.81    0.16
  -5   3   3    3.71    0.16
  -5   3   3    4.00    0.14
   4  -3  -3   22.73    0.46
  -4  -3   3   22.19    0.56
  -4  -3   3   22.36    0.45
  -4  -3   3   23.24    0.59
   4   3  -3   21.31    0.48
  -3  -3   3   24.90    0.62
   3  -3  -3   24.97    0.52
  -3  -3   3   25.83    0.63
   3   3  -3   26.08    0.56
  -2  -3   3  244.43    5.18
   2  -3  -3  243.57    4.42
  -2  -3   3  230.63    4.88
   2   3  -3  240.30    4.35
   2   3  -3  231.32    5.12
  -2   3   3  238.50    5.10
  -1  -3   3   32.54    0.78
   1  -3  -3   32.06    0.65
  -1  -3   3   31.26    0.72
  -1  -3   3   31.37    0.64
   1   3  -3   31.83    0.78
   1   3  -3   32.23    0.65
  -1   3   3   32.28    0.76
   0  -3   3   49.43    1.16
   0  -3   3   50.74    0.97
   0  -3  -3   50.09    0.98
   0  -3  -3   49.37    1.17
   0   3  -3   50.44    1.16
   0   3   3   49.68    1.16
   1  -3   3   11.60    0.28
  -1  -3  -3   11.19    0.29
  -1  -3  -3   10.67    0.35
   1  -3   3   11.67    0.34
  -1   3  -3   11.42    0.32
   1   3   3   10.82    0.34
   2  -3   3   51.91    1.02
  -2  -3  -3   52.57    1.25
  -2   3  -3   51.59    1.17
   2   3   3   50.42    1.22
   2   3   3   51.18    1.02
  -2   3  -3   51.18    1.17
   3  -3   3    1.15    0.08
  -3  -3  -3    1.15    0.08
  -3   3  -3    1.14    0.08
  -3   3  -3    1.19    0.08
   3   3   3    1.43    0.10
   3   3   3    1.18    0.11
  -4  -3  -3    2.48    0.09
  -4  -3  -3    2.66    0.10
   4  -3   3    2.52    0.12
  -4  -3  -3    2.43    0.10
  -4  -3  -3    2.44    0.12
  -4  -3  -3    2.26    0.11
  -4  -3  -3    2.38    0.11
  -4   3  -3    2.29    0.12
   4   3   3    2.41    0.14
  -4   3  -3    2.46    0.11
  -4   3  -3    2.51    0.13
  -4   3  -3    2.64    0.10
  -4   3  -3    2.60    0.11
  -4   3  -3    2.60    0.10
  -4   3  -3    2.39    0.10
  -5  -3  -3   16.23    0.32
  -5  -3  -3   16.73    0.37
  -5  -3  -3   16.15    0.32
  -5  -3  -3   16.90    0.34
  -5  -3  -3   16.56    0.37
  -5  -3  -3   15.87    0.38
  -5   3  -3   15.71    0.38
  -5   3  -3   16.20    0.29
  -5   3  -3   16.22    0.35
  -5   3  -3   15.95    0.39
  -5   3  -3   15.86    0.29
  -5   3  -3   16.22    0.33
  -5   3  -3   15.65    0.34
  -6  -3  -3   32.92    0.66
  -6  -3  -3   32.67    0.62
  -6  -3  -3   33.45    0.58
  -6  -3  -3   32.74    0.62
  -6  -3  -3   32.92    0.60
  -6  -3  -3   33.05    0.65
  -6  -3  -3   33.49    0.64
  -6   3  -3   33.27    0.67
  -6   3  -3   32.64    0.59
  -6   3  -3   32.61    0.62
  -6   3  -3   33.30    0.67
  -7  -3  -3    8.99    0.22
  -7  -3  -3    9.05    0.25
  -7  -3  -3    8.86    0.24
  -7  -3  -3    9.24    0.22
  -7  -3  -3    8.64    0.20
  -7  -3  -3    8.99    0.27
  -7  -3  -3    8.48    0.20
  -7  -3  -3    8.67    0.20
  -7   3  -3    9.01    0.26
  -7   3  -3    8.67    0.21
  -7   3  -3    8.82    0.20
  -8  -3  -3    9.80    0.18
  -8  -3  -3    9.80    0.20
  -8  -3  -3    9.63    0.23
  -8  -3  -3    9.63    0.22
  -8  -3  -3    9.85    0.25
  -8  -3  -3    9.80    0.26
  -8   3  -3    9.33    0.20
  -8   3  -3    9.53    0.21
  -8   3  -3    9.51    0.25
  -9  -4   3    2.13    0.08
  -9  -4   3    2.16    0.10
  -9  -4   3    2.31    0.09
  -9   4   3    2.13    0.04
  -9   4   3    2.10    0.10
  -8  -4   3    0.60    0.06
  -8  -4   3    0.84    0.05
  -8  -4   3    0.71    0.07
  -8  -4   3    0.73    0.04
  -8  -4   3    0.68    0.08
  -8  -4   3    0.63    0.06
   8   4  -3    0.60    0.07
  -8   4   3    0.73    0.02
  -8   4   3    0.71    0.02
  -8   4   3    0.89    0.08
  -7  -4   3    9.07    0.24
  -7  -4   3    8.90    0.22
  -7  -4   3    9.14    0.22
  -7  -4   3    9.10    0.18
  -7  -4   3    8.99    0.18
  -7  -4   3    9.24    0.27
  -7  -4   3    8.72    0.34
  -7  -4   3    8.90    0.25
  -7   4   3    8.72    0.11
  -7   4   3    8.68    0.23
  -7   4   3    8.67    0.11
  -7   4   3    8.49    0.27
   7   4  -3    8.77    0.26
  -7   4   3    8.54    0.27
  -6  -4   3   24.26    0.47
  -6  -4   3   25.52    0.69
  -6  -4   3   24.16    0.48
  -6  -4   3   24.09    0.47
  -6  -4   3   24.31    0.47
  -6  -4   3   24.60    0.54
  -6  -4   3   24.85    0.51
  -6  -4   3   24.66    0.51
   6   4  -3   23.15    0.52
  -6   4   3   23.10    0.55
  -6   4   3   23.53    0.53
  -6   4   3   23.34    0.25
  -6   4   3   24.03    0.53
  -6   4   3   22.65    0.53
  -6   4   3   23.41    0.25
  -6   4   3   23.67    0.46
   5  -4  -3    7.99    0.22
  -5  -4   3    8.48    0.24
  -5  -4   3    8.36    0.21
  -5  -4   3    8.14    0.25
  -5  -4   3    8.22    0.32
  -5  -4   3    8.17    0.22
  -5  -4   3    8.70    0.23
  -5  -4   3    7.86    0.24
  -5   4   3    8.48    0.22
  -5   4   3    8.16    0.27
  -5   4   3    8.32    0.25
  -5   4   3    8.62    0.27
   5   4  -3    8.04    0.27
   5   4  -3    8.30    0.25
  -5   4   3    8.21    0.10
   5   4  -3    7.93    0.27
  -5   4   3    8.30    0.10
  -4  -4   3    0.69    0.08
  -4  -4   3    1.00    0.06
  -4  -4   3    0.94    0.09
  -4  -4   3    1.06    0.12
  -4  -4   3    1.00    0.09
   4  -4  -3    0.73    0.07
  -4  -4   3    1.30    0.09
   4  -4  -3    0.80    0.06
  -4  -4   3    1.06    0.10
  -4  -4   3    0.95    0.08
  -4  -4   3    0.86    0.07
  -4   4   3    0.89    0.09
   4   4  -3    0.78    0.10
   4   4  -3    0.98    0.09
  -4   4   3    0.89    0.03
  -4   4   3    0.92    0.09
   3  -4  -3   21.70    0.48
  -3  -4   3   21.69    0.58
  -3  -4   3   21.27    0.39
  -3  -4   3   21.54    0.45
  -3   4   3   20.14    0.35
  -3   4   3   19.68    0.35
  -3   4   3   20.15    0.43
   3   4  -3   19.90    0.47
  -2  -4   3    2.10    0.11
  -2  -4   3    2.44    0.14
   2  -4  -3    2.12    0.11
  -2  -4   3    2.03    0.13
  -2   4   3    2.05    0.08
   2   4  -3    2.15    0.14
   2   4  -3    2.19    0.11
   1  -4  -3   59.46    1.17
  -1  -4   3   58.36    1.39
  -1  -4   3   58.73    1.29
  -1   4   3   55.07    1.28
   1   4  -3   57.23    1.33
   0  -4   3   16.10    0.39
   0  -4  -3   16.45    0.40
   0  -4   3   16.03    0.47
   0   4  -3   15.94    0.45
   0   4   3   15.93    0.46
   1  -4   3   17.72    0.41
  -1  -4  -3   16.93    0.52
  -1  -4  -3   16.56    0.43
   1   4   3   16.72    0.49
  -1   4  -3   16.16    0.46
  -1   4  -3   16.32    0.36
  -2  -4  -3    3.98    0.14
   2  -4   3    3.63    0.15
   2   4   3    3.86    0.14
  -2   4  -3    3.63    0.11
  -2   4  -3    3.96    0.15
  -2   4  -3    3.78    0.15
  -2   4  -3    3.65    0.14
  -3  -4  -3    2.25    0.11
  -3  -4  -3    2.40    0.11
  -3  -4  -3    2.23    0.12
  -3  -4  -3    2.47    0.08
  -3  -4  -3    2.40    0.10
   3  -4   3    2.29    0.12
  -3  -4  -3    2.42    0.12
  -3   4  -3    2.36    0.12
  -3   4  -3    2.34    0.12
  -3   4  -3    2.27    0.12
  -3   4  -3    2.34    0.11
   3   4   3    2.46    0.12
  -3   4  -3    2.36    0.12
  -3   4  -3    2.30    0.09
  -3   4  -3    2.32    0.10
  -3   4  -3    2.21    0.10
   3   4   3    2.36    0.12
  -4  -4  -3   12.39    0.32
  -4  -4  -3   12.73    0.31
  -4  -4  -3   12.15    0.25
  -4  -4  -3   12.69    0.33
  -4  -4  -3   12.71    0.29
  -4  -4  -3   12.40    0.28
  -4   4  -3   12.31    0.26
  -4   4  -3   12.03    0.26
   4   4   3   12.04    0.31
  -4   4  -3   12.10    0.32
  -4   4  -3   12.00    0.30
  -4   4  -3   12.72    0.33
   4   4   3   12.39    0.31
  -4   4  -3   12.23    0.30
  -4   4  -3   11.97    0.28
  -4   4  -3   12.14    0.26
  -5  -4  -3   18.35    0.34
  -5  -4  -3   17.59    0.42
  -5  -4  -3   18.37    0.38
  -5  -4  -3   18.63    0.41
  -5  -4  -3   18.23    0.36
  -5  -4  -3   18.82    0.41
   5   4   3   17.87    0.41
  -5   4  -3   17.70    0.39
  -5   4  -3   17.88    0.37
  -5   4  -3   18.30    0.35
  -5   4  -3   18.04    0.43
  -6  -4  -3    2.41    0.12
  -6  -4  -3    2.23    0.12
  -6  -4  -3    2.30    0.11
  -6  -4  -3    2.19    0.08
  -6  -4  -3    2.20    0.10
  -6  -4  -3    2.27    0.12
  -6   4  -3    2.20    0.09
  -6   4  -3    2.09    0.11
  -6   4  -3    2.18    0.10
  -6   4  -3    2.24    0.13
  -7  -4  -3    2.89    0.14
  -7  -4  -3    3.05    0.11
  -7  -4  -3    2.98    0.11
  -7  -4  -3    2.86    0.09
  -7  -4  -3    2.96    0.09
  -7  -4  -3    2.75    0.12
  -7  -4  -3    2.82    0.13
  -7   4  -3    2.80    0.13
  -7   4  -3    2.68    0.10
  -7   4  -3    2.63    0.10
  -8  -4  -3    2.31    0.07
  -8  -4  -3    2.32    0.09
  -8  -4  -3    2.36    0.11
  -8  -4  -3    2.37    0.11
  -8  -4  -3    2.26    0.09
  -8   4  -3    2.27    0.08
  -8   4  -3    2.30    0.08
  -8   4  -3    2.40    0.11
  -8  -5   3    1.21    0.05
  -8  -5   3    1.32    0.09
  -8  -5   3    1.20    0.07
  -8  -5   3    1.13    0.07
  -8  -5   3    1.15    0.06
  -8   5   3    1.20    0.03
   8   5  -3    0.98    0.08
  -8   5   3    1.11    0.08
  -7  -5   3    5.84    0.16
  -7  -5   3    5.78    0.16
  -7  -5   3    5.54    0.18
  -7  -5   3    5.81    0.20
  -7  -5   3    5.60    0.17
  -7  -5   3    5.67    0.13
  -7  -5   3    5.47    0.13
   7   5  -3    5.67    0.20
  -7   5   3    5.57    0.08
  -7   5   3    5.68    0.17
  -7   5   3    5.39    0.20
  -6  -5   3    7.88    0.21
  -6  -5   3    7.66    0.23
  -6  -5   3    8.24    0.26
  -6  -5   3    8.12    0.24
  -6  -5   3    8.06    0.33
  -6  -5   3    7.47    0.19
  -6  -5   3    7.62    0.22
  -6  -5   3    7.34    0.20
  -6   5   3    7.37    0.21
  -6   5   3    7.53    0.26
   6   5  -3    7.68    0.25
  -6   5   3    7.59    0.11
  -5  -5   3   18.37    0.37
  -5  -5   3   18.67    0.43
  -5  -5   3   18.42    0.40
  -5  -5   3   18.40    0.42
  -5  -5   3   19.23    0.45
  -5  -5   3   18.68    0.44
  -5  -5   3   19.65    0.58
  -5   5   3   18.35    0.47
   5   5  -3   18.13    0.44
  -5   5   3   17.86    0.37
   5   5  -3   18.69    0.48
  -4  -5   3   13.77    0.35
  -4  -5   3   13.43    0.31
  -4  -5   3   13.70    0.45
  -4  -5   3   13.62    0.36
  -4  -5   3   13.69    0.28
  -4  -5   3   13.34    0.35
  -4  -5   3   14.18    0.32
  -4  -5   3   13.37    0.35
   4   5  -3   13.40    0.38
  -4   5   3   13.21    0.28
  -4   5   3   13.24    0.37
   4   5  -3   13.46    0.35
   4   5  -3   12.56    0.34
  -3  -5   3   48.14    0.91
  -3  -5   3   47.55    0.87
  -3  -5   3   47.85    0.89
  -3  -5   3   48.62    1.14
  -3  -5   3   47.94    0.78
   3  -5  -3   47.30    0.99
  -3  -5   3   47.73    0.94
  -3  -5   3   47.37    0.83
  -3  -5   3   48.89    0.92
  -3   5   3   46.13    0.96
   3   5  -3   46.23    0.87
   3   5  -3   46.24    0.87
  -3   5   3   46.39    0.76
   3   5  -3   46.80    0.97
  -3   5   3   46.33    0.79
  -3   5   3   46.02    0.76
  -2  -5   3   18.45    0.52
   2  -5  -3   18.73    0.46
   2  -5  -3   17.95    0.46
  -2  -5   3   18.88    0.42
  -2  -5   3   18.33    0.45
  -2  -5   3   18.89    0.41
  -2  -5   3   18.02    0.43
  -2  -5   3   18.60    0.41
  -2   5   3   17.78    0.35
  -2   5   3   18.35    0.36
   2   5  -3   17.50    0.41
   2   5  -3   17.83    0.41
   2   5  -3   17.58    0.43
  -2   5   3   17.73    0.39
  -2   5   3   17.67    0.36
  -2   5   3   18.12    0.41
  -2   5   3   17.86    0.39
   2   5  -3   17.97    0.40
  -2   5   3   18.16    0.35
   2   5  -3   18.54    0.46
  -2   5   3   17.35    0.44
  -1  -5   3   64.49    1.12
  -1  -5   3   61.33    1.17
   1  -5  -3   64.48    1.29
  -1  -5   3   64.13    1.13
   1  -5  -3   65.04    1.29
   1   5  -3   63.04    1.11
   1   5  -3   61.94    1.13
   1   5  -3   64.06    1.25
   1   5  -3   62.79    1.16
  -1   5   3   63.33    1.11
  -1   5   3   64.93    1.04
  -1   5   3   63.69    1.14
   1   5  -3   64.27    1.05
  -1   5   3   62.73    1.02
  -1   5   3   64.24    1.24
  -1   5   3   63.58    1.12
   1   5  -3   61.52    1.20
   0  -5  -3   24.20    0.57
   0  -5   3   22.49    0.55
   0  -5   3   23.76    0.50
   0  -5  -3   23.42    0.56
   0   5   3   24.98    0.44
   0   5   3   24.55    0.50
   0   5  -3   24.72    0.51
   0   5  -3   24.28    0.53
   0   5  -3   24.03    0.49
   0   5   3   24.24    0.46
   0   5  -3   23.71    0.43
   0   5   3   25.00    0.46
   0   5  -3   24.65    0.55
   0   5   3   23.73    0.51
   0   5  -3   24.85    0.47
   0   5  -3   23.01    0.56
   1  -5   3    1.77    0.11
  -1   5  -3    1.71    0.11
   1   5   3    1.77    0.07
   1   5   3    1.61    0.10
  -1   5  -3    1.53    0.10
  -1   5  -3    1.76    0.09
   1   5   3    1.69    0.11
  -1   5  -3    1.73    0.09
  -1   5  -3    1.65    0.11
  -1   5  -3    1.82    0.08
   1   5   3    1.48    0.10
   1   5   3    1.65    0.09
   1   5   3    1.74    0.09
  -2  -5  -3   16.44    0.37
  -2  -5  -3   16.30    0.37
  -2  -5  -3   16.09    0.40
   2  -5   3   16.33    0.42
  -2   5  -3   16.09    0.32
   2   5   3   15.84    0.39
  -2   5  -3   15.16    0.39
  -2   5  -3   16.29    0.39
  -2   5  -3   16.10    0.38
   2   5   3   16.40    0.36
   2   5   3   16.28    0.38
  -2   5  -3   16.37    0.37
  -2   5  -3   16.33    0.35
   2   5   3   15.89    0.38
  -3  -5  -3    3.91    0.17
  -3  -5  -3    4.03    0.17
  -3  -5  -3    4.25    0.16
  -3  -5  -3    4.04    0.16
  -3   5  -3    3.90    0.16
   3   5   3    4.12    0.17
  -3   5  -3    3.98    0.14
  -3   5  -3    3.83    0.14
  -3   5  -3    4.14    0.13
   3   5   3    4.15    0.17
  -3   5  -3    3.96    0.15
  -3   5  -3    4.05    0.16
   3   5   3    3.98    0.16
  -3   5  -3    3.90    0.17
  -4  -5  -3    3.24    0.15
  -4  -5  -3    3.32    0.15
  -4  -5  -3    3.49    0.14
  -4  -5  -3    3.40    0.13
  -4  -5  -3    3.27    0.16
  -4   5  -3    3.05    0.11
  -4   5  -3    3.19    0.13
  -4   5  -3    3.18    0.13
  -4   5  -3    3.22    0.10
   4   5   3    3.25    0.15
  -4   5  -3    3.69    0.15
  -4   5  -3    3.36    0.10
  -4   5  -3    3.00    0.16
   4   5   3    2.94    0.14
  -4   5  -3    3.56    0.16
  -5  -5  -3    5.31    0.19
  -5  -5  -3    4.93    0.15
  -5  -5  -3    5.56    0.19
  -5  -5  -3    5.51    0.20
  -5  -5  -3    5.18    0.15
  -5   5  -3    4.75    0.14
  -5   5  -3    4.91    0.16
   5   5   3    5.09    0.18
   5   5   3    4.77    0.17
  -5   5  -3    4.63    0.19
  -6  -5  -3    9.95    0.26
  -6  -5  -3    9.48    0.24
  -6  -5  -3   10.30    0.26
  -6  -5  -3    9.62    0.22
  -6  -5  -3    9.62    0.25
  -6   5  -3    9.42    0.22
  -6   5  -3    9.75    0.27
   6   5   3    9.58    0.25
  -6   5  -3    9.40    0.23
  -7  -5  -3    1.09    0.08
  -7  -5  -3    1.04    0.09
  -7  -5  -3    0.88    0.06
  -7  -5  -3    1.02    0.08
  -7  -5  -3    0.97    0.05
  -7  -5  -3    1.01    0.06
  -7  -5  -3    0.97    0.05
   7   5   3    1.02    0.08
  -7   5  -3    0.94    0.05
  -7   5  -3    0.92    0.08
  -7   5  -3    0.92    0.06
  -7  -6   3    4.68    0.15
  -7  -6   3    4.55    0.14
  -7  -6   3    4.68    0.13
  -7  -6   3    4.79    0.16
  -7   6   3    4.62    0.13
   7   6  -3    4.48    0.16
  -7   6   3    4.47    0.16
   7   6  -3    4.51    0.16
  -6  -6   3    7.32    0.22
  -6  -6   3    7.68    0.23
  -6  -6   3    7.64    0.19
  -6  -6   3    7.50    0.22
  -6  -6   3    7.46    0.20
  -6  -6   3    7.17    0.19
  -6   6   3    7.30    0.24
   6   6  -3    7.08    0.22
   6   6  -3    6.60    0.21
  -5  -6   3    3.79    0.16
  -5  -6   3    3.47    0.13
  -5  -6   3    3.79    0.17
  -5  -6   3    3.84    0.15
  -5  -6   3    3.62    0.21
  -5  -6   3    3.57    0.16
  -5   6   3    3.89    0.18
  -5   6   3    3.43    0.12
   5   6  -3    3.46    0.16
   5   6  -3    3.49    0.16
  -4  -6   3   11.38    0.27
  -4  -6   3   11.42    0.41
  -4  -6   3   11.85    0.32
  -4  -6   3   11.45    0.32
  -4  -6   3   11.74    0.32
  -4  -6   3   11.79    0.28
  -4  -6   3   11.98    0.33
   4   6  -3   11.21    0.31
  -4   6   3   11.84    0.34
   4   6  -3   10.87    0.31
  -4   6   3   10.72    0.27
  -4   6   3   11.09    0.26
   4   6  -3   11.23    0.31
  -3  -6   3    9.03    0.28
  -3  -6   3    9.73    0.30
  -3  -6   3    9.56    0.28
  -3  -6   3    9.76    0.26
  -3  -6   3    9.99    0.29
  -3  -6   3    9.33    0.35
  -3   6   3    9.25    0.30
   3   6  -3    9.14    0.28
  -3   6   3    9.25    0.22
   3   6  -3    9.26    0.27
   3   6  -3    8.98    0.29
   3   6  -3    9.17    0.27
  -3   6   3    9.30    0.23
  -2  -6   3    4.35    0.18
  -2  -6   3    3.91    0.18
  -2  -6   3    4.36    0.17
  -2  -6   3    4.47    0.20
   2   6  -3    4.18    0.17
   2   6  -3    4.08    0.19
  -2   6   3    3.80    0.13
  -2   6   3    4.03    0.18
   2   6  -3    4.06    0.20
   2   6  -3    4.03    0.17
   2   6  -3    3.67    0.16
  -2   6   3    4.10    0.13
  -2   6   3    4.06    0.13
  -2   6   3    4.23    0.15
  -1  -6   3    9.10    0.27
  -1  -6   3    9.26    0.27
  -1   6   3    8.92    0.28
  -1   6   3    9.14    0.27
   1   6  -3    8.59    0.29
  -1   6   3    8.76    0.21
   1   6  -3    9.01    0.25
  -1   6   3    8.91    0.23
  -1   6   3    8.80    0.23
   1   6  -3    9.07    0.28
  -1   6   3    8.58    0.26
   1   6  -3    8.75    0.26
   0  -6   3   35.09    0.70
   0   6  -3   34.56    0.69
   0   6  -3   35.48    0.71
   0   6   3   34.53    0.62
   0   6  -3   34.69    0.74
   0   6   3   34.18    0.68
   0   6   3   34.59    0.70
   0   6   3   35.27    0.69
   0   6  -3   34.85    0.66
   0   6   3   34.98    0.60
   0   6  -3   35.11    0.64
   0   6  -3   34.65    0.59
   0   6   3   35.04    0.63
   0   6  -3   34.91    0.69
  -1  -6  -3   34.72    0.68
   1  -6   3   34.81    0.70
  -1   6  -3   32.80    0.70
   1   6   3   34.50    0.67
   1   6   3   32.97    0.55
   1   6   3   32.82    0.60
   1   6   3   32.71    0.61
  -1   6  -3   32.60    0.67
   1   6   3   33.33    0.66
  -1   6  -3   32.77    0.62
  -1   6  -3   32.40    0.59
  -1   6  -3   32.52    0.67
  -1   6  -3   32.63    0.57
   1   6   3   33.07    0.67
  -2  -6  -3    5.01    0.20
  -2  -6  -3    4.99    0.18
  -2   6  -3    4.90    0.19
  -2   6  -3    4.90    0.17
  -2   6  -3    4.79    0.19
   2   6   3    4.93    0.19
   2   6   3    5.08    0.19
   2   6   3    4.91    0.17
   2   6   3    4.83    0.18
  -2   6  -3    4.98    0.17
  -2   6  -3    5.11    0.15
  -3  -6  -3    3.82    0.16
  -3  -6  -3    3.45    0.16
  -3  -6  -3    3.82    0.17
  -3  -6  -3    3.61    0.15
  -3   6  -3    3.65    0.18
  -3   6  -3    3.57    0.14
   3   6   3    3.62    0.15
  -3   6  -3    3.84    0.17
   3   6   3    3.51    0.16
  -3   6  -3    3.66    0.12
   3   6   3    3.55    0.15
  -3   6  -3    3.44    0.12
   3   6   3    3.60    0.16
  -3   6  -3    3.68    0.12
  -3   6  -3    3.49    0.14
  -4  -6  -3    6.16    0.18
  -4  -6  -3    5.91    0.20
  -4  -6  -3    5.86    0.19
  -4  -6  -3    5.71    0.21
   4   6   3    5.88    0.20
   4   6   3    5.64    0.21
   4   6   3    6.22    0.20
  -4   6  -3    6.04    0.21
  -4   6  -3    5.92    0.18
  -4   6  -3    6.12    0.16
  -4   6  -3    5.78    0.22
  -5  -6  -3   11.99    0.29
  -5  -6  -3   11.86    0.29
  -5  -6  -3   11.99    0.30
   5   6   3   10.76    0.28
   5   6   3   11.19    0.28
  -5   6  -3   11.63    0.24
  -5   6  -3   11.27    0.29
  -5   6  -3   11.53    0.26
  -6  -6  -3    4.16    0.14
  -6  -6  -3    4.27    0.14
  -6  -6  -3    4.15    0.14
  -6  -6  -3    4.26    0.12
   6   6   3    4.25    0.14
  -6   6  -3    3.98    0.12
  -6   6  -3    4.25    0.11
  -6   6  -3    3.86    0.15
  -6  -7   3    0.42    0.05
  -6  -7   3    0.45    0.04
  -6  -7   3    0.51    0.07
  -6  -7   3    0.41    0.06
   6   7  -3    0.35    0.06
   6   7  -3    0.39    0.05
   6   7  -3    0.38    0.06
  -6   7   3    0.39    0.04
  -6   7   3    0.47    0.04
  -6   7   3    0.39    0.06
  -5  -7   3    1.76    0.10
  -5  -7   3    1.74    0.09
  -5  -7   3    1.53    0.10
  -5  -7   3    1.54    0.10
  -5   7   3    1.57    0.10
  -5   7   3    1.44    0.07
   5   7  -3    1.62    0.10
  -5   7   3    1.60    0.07
   5   7  -3    1.43    0.10
   5   7  -3    1.49    0.09
  -4  -7   3    1.71    0.11
  -4  -7   3    1.76    0.11
  -4  -7   3    1.62    0.11
  -4  -7   3    1.72    0.08
  -4  -7   3    1.81    0.11
   4   7  -3    1.78    0.14
   4   7  -3    1.69    0.11
  -4   7   3    1.47    0.07
   4   7  -3    1.82    0.11
  -4   7   3    1.72    0.08
  -4   7   3    1.73    0.12
   4   7  -3    1.73    0.11
  -3  -7   3    1.17    0.10
  -3  -7   3    1.04    0.11
  -3  -7   3    1.05    0.09
  -3  -7   3    0.84    0.10
  -3  -7   3    1.00    0.09
   3   7  -3    0.99    0.11
   3   7  -3    0.98    0.09
   3   7  -3    0.91    0.09
   3   7  -3    0.84    0.09
  -3   7   3    1.10    0.07
  -3   7   3    0.95    0.06
  -3   7   3    1.07    0.11
  -2  -7   3    4.61    0.18
  -2  -7   3    4.24    0.19
  -2  -7   3    4.53    0.17
  -2   7   3    4.46    0.15
   2   7  -3    4.29    0.17
  -2   7   3    4.21    0.11
  -2   7   3    4.05    0.11
   2   7  -3    4.08    0.16
   2   7  -3    3.90    0.16
  -2   7   3    4.08    0.13
  -2   7   3    4.28    0.18
   2   7  -3    4.15    0.18
  -1  -7   3    2.50    0.14
  -1   7   3    2.17    0.10
   1   7  -3    2.06    0.10
  -1   7   3    2.13    0.10
  -1   7   3    2.17    0.10
  -1   7   3    2.31    0.13
   1   7  -3    2.05    0.12
   1   7  -3    2.10    0.14
   1   7  -3    2.27    0.14
  -1   7   3    2.15    0.09
   0  -7   3   30.64    0.62
   0  -7  -3   29.99    0.61
   0   7   3   29.74    0.54
   0   7  -3   28.81    0.54
   0   7   3   29.55    0.60
   0   7   3   29.94    0.58
   0   7   3   29.62    0.61
   0   7   3   29.15    0.50
   0   7  -3   29.20    0.53
   0   7  -3   29.77    0.61
   0   7  -3   28.75    0.59
   0   7  -3   30.03    0.65
   1  -7   3    1.24    0.11
  -1  -7  -3    1.14    0.10
   1  -7   3    1.19    0.11
   1   7   3    1.18    0.10
  -1   7  -3    1.23    0.10
   1   7   3    1.09    0.06
   1   7   3    1.15    0.07
   1   7   3    1.20    0.10
  -1   7  -3    1.07    0.10
   1   7   3    1.07    0.10
  -2  -7  -3    0.43    0.06
  -2  -7  -3    0.29    0.06
   2   7   3    0.44    0.05
   2   7   3    0.48    0.07
  -2   7  -3    0.44    0.05
  -2   7  -3    0.39    0.07
  -2   7  -3    0.40    0.04
   2   7   3    0.44    0.07
  -2   7  -3    0.53    0.05
   2   7   3    0.30    0.06
  -2   7  -3    0.42    0.06
  -2   7  -3    0.47    0.06
  -3  -7  -3    0.83    0.08
  -3  -7  -3    1.03    0.08
  -3   7  -3    0.95    0.06
   3   7   3    0.92    0.07
  -3   7  -3    1.05    0.10
   3   7   3    0.94    0.09
  -3   7  -3    1.04    0.08
   3   7   3    0.90    0.09
   3   7   3    0.91    0.09
  -3   7  -3    0.85    0.08
  -4  -7  -3    0.63    0.07
  -4  -7  -3    0.67    0.05
  -4  -7  -3    0.62    0.07
   4   7   3    0.64    0.07
   4   7   3    0.63    0.06
  -4   7  -3    0.65    0.07
   4   7   3    0.78    0.08
  -4   7  -3    0.64    0.05
  -4   7  -3    0.66    0.07
  -4   7  -3    0.60    0.06
  -5  -7  -3    0.05    0.04
  -5  -7  -3    0.08    0.04
  -5  -7  -3    0.01    0.03
  -5   7  -3    0.08    0.02
  -5   7  -3    0.03    0.03
  -5   7  -3    0.00    0.04
   5   7   3    0.04    0.04
  -4  -8   3    1.16    0.08
  -4  -8   3    0.93    0.08
  -4  -8   3    0.97    0.08
  -4   8   3    0.89    0.06
   4   8  -3    0.87    0.06
  -4   8   3    0.99    0.05
  -4   8   3    0.94    0.08
   4   8  -3    1.08    0.08
  -3  -8   3    0.03    0.04
  -3  -8   3    0.05    0.04
  -3  -8   3    0.03    0.04
  -3  -8   3    0.02    0.03
   3   8  -3    0.04    0.03
   3   8  -3    0.07    0.04
  -3   8   3    0.06    0.02
  -3   8   3    0.07    0.03
  -3   8   3    0.12    0.04
   3   8  -3    0.02    0.04
  -2  -8   3    0.60    0.06
  -2  -8   3    0.71    0.07
   2   8  -3    0.64    0.07
  -2   8   3    0.62    0.04
  -2   8   3    0.79    0.06
  -2   8   3    0.71    0.07
   2   8  -3    0.68    0.05
   2   8  -3    0.52    0.06
  -1  -8   3    1.82    0.10
  -1  -8   3    1.93    0.10
  -1   8   3    1.71    0.08
  -1   8   3    1.75    0.05
   1   8  -3    1.71    0.09
   1   8  -3    1.82    0.10
  -1   8   3    1.66    0.05
   1   8  -3    1.83    0.10
   0  -8  -3    5.40    0.17
   0  -8   3    5.39    0.17
   0  -8   3    5.68    0.17
   0   8   3    4.99    0.13
   0   8   3    5.09    0.14
   0   8  -3    5.17    0.15
   0   8   3    4.78    0.13
   0   8  -3    5.19    0.19
   1  -8   3    1.46    0.09
  -1  -8  -3    1.64    0.09
  -1   8  -3    1.37    0.06
  -1   8  -3    1.55    0.10
   1   8   3    1.45    0.09
  -1   8  -3    1.51    0.07
  -1   8  -3    1.35    0.07
  -2  -8  -3    2.41    0.12
   2  -8   3    2.62    0.11
  -2  -8  -3    2.78    0.11
  -2   8  -3    2.43    0.12
   2   8   3    2.47    0.10
  -2   8  -3    2.32    0.09
  -3  -8  -3    4.72    0.13
  -3   8  -3    4.44    0.15
   3   8   3    4.50    0.14
  -3   8  -3    4.35    0.12
 -10   0   4    2.93    0.13
  -9   0   4    0.93    0.10
  -9   0   4    0.90    0.09
  -9   0   4    0.98    0.10
  -9   0   4    0.82    0.03
  -9   0   4    0.83    0.09
  -8   0   4    0.41    0.02
  -8   0   4    0.62    0.08
  -8   0   4    0.43    0.08
  -8   0   4    0.53    0.08
  -8   0   4    0.47    0.08
  -8   0   4    0.48    0.08
  -7   0   4    8.66    0.26
  -7   0   4    8.31    0.27
  -7   0   4    8.55    0.27
  -7   0   4    8.63    0.26
  -7   0   4    8.32    0.21
  -7   0   4    8.44    0.25
  -6   0   4    0.75    0.08
  -6   0   4    0.78    0.08
   6   0  -4    0.67    0.04
  -6   0   4    0.64    0.07
   5   0  -4    0.12    0.02
   4   0  -4    1.93    0.07
   3   0  -4   11.57    0.25
  -2   0   4   27.07    0.62
   2   0  -4   26.75    0.53
   2   0  -4   27.18    0.63
   1   0  -4    2.79    0.11
   1   0  -4    2.95    0.10
  -1   0   4    3.11    0.11
   1   0  -4    2.64    0.11
   0   0  -4   22.31    0.55
   0   0   4   21.84    0.45
   0   0   4   22.71    0.55
   0   0  -4   22.45    0.46
   1   0   4   14.27    0.38
  -1   0  -4   14.21    0.32
   1   0   4   14.36    0.32
  -1   0  -4   14.30    0.38
   2   0   4  103.19    2.27
  -2   0  -4   98.09    2.26
   2   0   4  104.24    1.90
  -3   0  -4    0.82    0.08
   3   0   4    0.72    0.07
   4   0   4   62.88    1.23
  -4   0  -4   61.72    1.06
  -5   0  -4    5.03    0.18
   5   0   4    5.36    0.20
  -5   0  -4    5.30    0.18
  -5   0  -4    5.22    0.15
  -5   0  -4    5.35    0.17
  -5   0  -4    4.96    0.15
  -5   0  -4    5.13    0.17
  -5   0  -4    5.16    0.16
  -5   0  -4    5.03    0.17
  -6   0  -4   16.33    0.39
  -6   0  -4   16.53    0.39
  -6   0  -4   16.56    0.37
  -6   0  -4   16.87    0.33
  -6   0  -4   16.68    0.35
  -6   0  -4   16.79    0.39
  -6   0  -4   16.38    0.36
  -6   0  -4   16.68    0.33
  -7   0  -4    0.99    0.08
  -7   0  -4    0.96    0.10
  -7   0  -4    0.97    0.08
  -7   0  -4    1.00    0.09
  -7   0  -4    0.94    0.09
  -7   0  -4    0.92    0.06
  -8   0  -4    0.38    0.02
  -8   0  -4    0.33    0.04
  -8   0  -4    0.32    0.05
  -8   0  -4    0.34    0.04
  -8   0  -4    0.37    0.06
  -8   0  -4    0.28    0.04
  -9   0  -4    2.71    0.08
  -9   0  -4    3.07    0.12
  -9   0  -4    2.89    0.09
 -10  -1   4    0.85    0.08
 -10   1   4    0.74    0.02
 -10   1   4    0.78    0.08
  -9  -1   4   11.28    0.30
  -9  -1   4   11.57    0.31
  -9   1   4   11.53    0.31
  -9   1   4   11.24    0.32
  -9   1   4   11.16    0.26
  -9   1   4   11.31    0.31
  -9   1   4   11.59    0.32
  -8  -1   4   13.91    0.35
  -8  -1   4   13.41    0.36
  -8  -1   4   13.70    0.36
  -8  -1   4   13.86    0.38
  -8   1   4   14.18    0.36
  -8   1   4   13.42    0.31
  -8   1   4   13.55    0.36
  -8   1   4   14.42    0.38
  -8   1   4   13.91    0.37
  -7  -1   4    2.26    0.12
  -7  -1   4    2.15    0.12
  -7  -1   4    2.05    0.12
  -7   1   4    2.15    0.13
  -7   1   4    2.12    0.13
  -7   1   4    2.17    0.12
  -7   1   4    2.20    0.11
  -7   1   4    2.05    0.12
  -7   1   4    2.13    0.12
  -6  -1   4    2.72    0.13
  -6  -1   4    2.88    0.06
  -6  -1   4    2.60    0.14
  -6  -1   4    2.71    0.13
  -6  -1   4    2.99    0.13
  -6   1   4    2.80    0.14
   6   1  -4    2.64    0.10
  -6   1   4    2.81    0.13
  -6   1   4    2.75    0.13
  -6   1   4    2.76    0.13
  -6   1   4    2.59    0.11
   5  -1  -4    0.73    0.04
   5   1  -4    0.71    0.05
   4  -1  -4   85.91    1.57
   4   1  -4   89.31    1.65
   3  -1  -4   17.85    0.37
  -3  -1   4   18.28    0.43
   3   1  -4   18.06    0.38
  -2  -1   4   51.23    1.17
   2  -1  -4   53.47    0.98
   2   1  -4   50.77    0.95
  -2   1   4   51.09    1.11
   2   1  -4   49.28    1.14
  -1  -1   4   25.17    0.58
   1  -1  -4   24.05    0.59
  -1  -1   4   24.66    0.49
   1  -1  -4   23.76    0.49
   1   1  -4   24.31    0.50
  -1   1   4   25.03    0.59
   1   1  -4   24.93    0.60
   0  -1   4   37.21    0.75
   0  -1  -4   40.25    0.91
   0  -1  -4   37.49    0.76
   0  -1   4   39.46    0.89
   0   1   4   38.68    0.89
   0   1  -4   37.61    0.75
   0   1  -4   37.60    0.89
   0   1   4   38.85    0.74
  -1  -1  -4   66.06    1.46
   1  -1   4   62.72    1.22
  -1  -1  -4   62.77    1.22
   1  -1   4   65.42    1.45
   1   1   4   63.34    1.21
  -1   1  -4   62.87    1.20
  -1   1  -4   64.36    1.43
   1   1   4   63.68    1.44
  -2  -1  -4   14.47    0.41
   2  -1   4   14.19    0.40
   2  -1   4   14.54    0.33
   2   1   4   13.71    0.34
  -2   1  -4   14.36    0.39
   2   1   4   14.15    0.41
   3  -1   4   22.69    0.50
  -3  -1  -4   22.59    0.60
   3   1   4   22.86    0.52
  -3   1  -4   23.11    0.59
  -4  -1  -4    4.53    0.15
   4  -1   4    4.94    0.18
  -4  -1  -4    4.91    0.16
  -4  -1  -4    4.61    0.16
  -4  -1  -4    5.00    0.13
  -4   1  -4    4.72    0.15
  -4   1  -4    4.55    0.15
   4   1   4    4.92    0.18
  -4   1  -4    4.53    0.15
  -4   1  -4    4.44    0.17
  -5  -1  -4   20.04    0.37
  -5  -1  -4   19.87    0.42
   5  -1   4   19.15    0.48
  -5  -1  -4   19.40    0.42
  -5  -1  -4   19.33    0.42
  -5  -1  -4   19.60    0.41
  -5  -1  -4   19.53    0.41
  -5  -1  -4   19.84    0.39
  -5   1  -4   19.57    0.36
  -5   1  -4   19.17    0.38
  -5   1  -4   19.69    0.41
  -5   1  -4   19.44    0.42
   5   1   4   19.25    0.49
  -5   1  -4   19.63    0.43
  -5   1  -4   19.20    0.39
  -5   1  -4   19.39    0.38
  -5   1  -4   18.92    0.42
  -6  -1  -4   21.47    0.46
  -6  -1  -4   21.58    0.46
  -6  -1  -4   21.91    0.42
  -6  -1  -4   21.29    0.42
  -6  -1  -4   20.76    0.40
  -6  -1  -4   22.10    0.45
  -6  -1  -4   21.49    0.45
  -6  -1  -4   21.53    0.42
  -6  -1  -4   21.74    0.49
  -6   1  -4   21.71    0.48
  -6   1  -4   21.36    0.44
  -6   1  -4   21.72    0.41
  -6   1  -4   21.69    0.48
  -6   1  -4   21.84    0.39
  -6   1  -4   21.97    0.39
  -6   1  -4   22.00    0.43
  -6   1  -4   21.50    0.45
  -7  -1  -4    2.07    0.12
  -7  -1  -4    2.25    0.12
  -7  -1  -4    2.37    0.09
  -7  -1  -4    2.04    0.11
  -7  -1  -4    2.16    0.09
  -7  -1  -4    2.33    0.10
  -7   1  -4    2.39    0.13
  -7   1  -4    2.35    0.09
  -7   1  -4    2.49    0.10
  -7   1  -4    2.20    0.12
  -7   1  -4    2.20    0.10
  -8  -1  -4    0.52    0.06
  -8  -1  -4    0.34    0.05
  -8  -1  -4    0.32    0.03
  -8  -1  -4    0.31    0.04
  -8  -1  -4    0.37    0.04
  -8  -1  -4    0.43    0.06
  -8   1  -4    0.36    0.04
  -8   1  -4    0.38    0.06
  -8   1  -4    0.32    0.05
  -8   1  -4    0.36    0.04
  -9  -1  -4    0.93    0.06
  -9  -1  -4    0.84    0.07
  -9   1  -4    0.94    0.07
 -10  -2   4    6.54    0.19
 -10   2   4    6.27    0.19
 -10   2   4    6.38    0.16
  -9  -2   4    6.39    0.21
  -9   2   4    6.35    0.22
  -9   2   4    6.08    0.18
  -9   2   4    6.41    0.22
  -8  -2   4   10.74    0.30
  -8  -2   4   10.73    0.32
  -8   2   4   10.57    0.32
  -8   2   4   10.40    0.31
  -8   2   4   10.03    0.30
  -8   2   4   10.51    0.26
  -7  -2   4   39.13    0.52
  -7  -2   4   38.62    0.78
  -7  -2   4   39.35    0.52
  -7  -2   4   39.61    0.83
  -7   2   4   38.88    0.68
  -7   2   4   39.34    0.78
  -7   2   4   37.14    0.78
  -7   2   4   39.05    0.79
  -7   2   4   39.85    0.80
  -6  -2   4   19.24    0.46
  -6  -2   4   18.45    0.38
  -6  -2   4   18.96    0.29
  -6  -2   4   18.86    0.37
  -6  -2   4   18.55    0.43
  -6   2   4   20.03    0.39
   6   2  -4   19.20    0.45
  -6   2   4   19.35    0.45
  -6   2   4   19.52    0.45
  -6   2   4   19.07    0.46
  -6   2   4   19.14    0.46
  -6   2   4   19.72    0.45
  -5  -2   4   13.20    0.40
  -5  -2   4   12.79    0.29
  -5  -2   4   13.29    0.26
   5  -2  -4   13.27    0.27
   5   2  -4   13.03    0.32
  -5   2   4   12.73    0.32
  -4  -2   4   32.08    0.75
  -4  -2   4   30.10    0.71
   4  -2  -4   31.53    0.61
   4   2  -4   31.04    0.64
  -3  -2   4    3.89    0.16
  -3  -2   4    4.16    0.15
   3  -2  -4    4.26    0.12
   3   2  -4    4.10    0.14
  -2  -2   4  155.81    3.32
   2  -2  -4  154.61    2.78
  -2  -2   4  147.54    3.13
   2   2  -4  154.14    3.36
   2   2  -4  151.98    2.82
  -2   2   4  156.05    3.49
  -1  -2   4   89.39    1.66
  -1  -2   4   89.60    1.98
   1  -2  -4   88.65    1.66
   1   2  -4   88.88    1.64
   1   2  -4   86.67    1.96
  -1   2   4   88.36    1.94
   0  -2  -4   31.22    0.77
   0  -2   4   31.21    0.75
   0  -2  -4   30.92    0.64
   0  -2   4   31.16    0.63
   0   2   4   30.94    0.75
   0   2  -4   30.37    0.62
   0   2  -4   30.94    0.75
  -1  -2  -4   21.73    0.58
   1  -2   4   21.56    0.47
   1  -2   4   22.21    0.56
  -1  -2  -4   21.91    0.48
   1   2   4   21.68    0.56
   1   2   4   20.85    0.46
  -1   2  -4   21.07    0.54
  -1   2  -4   21.14    0.54
   2  -2   4   29.69    0.62
  -2  -2  -4   29.51    0.76
   2   2   4   28.33    0.61
  -2   2  -4   29.21    0.71
   2   2   4   28.23    0.74
  -3  -2  -4   11.15    0.41
   3  -2   4   12.11    0.31
  -3  -2  -4   11.99    0.27
   3   2   4   10.74    0.30
  -3   2  -4   10.67    0.32
  -3   2  -4   11.46    0.26
  -4  -2  -4    5.07    0.17
  -4  -2  -4    5.17    0.17
  -4  -2  -4    4.96    0.17
  -4  -2  -4    5.06    0.17
  -4  -2  -4    5.52    0.15
  -4  -2  -4    5.24    0.14
  -4  -2  -4    4.93    0.15
   4  -2   4    5.32    0.19
  -4  -2  -4    5.44    0.17
  -4   2  -4    5.15    0.18
  -4   2  -4    4.81    0.13
  -4   2  -4    5.08    0.16
  -4   2  -4    4.86    0.16
  -4   2  -4    5.19    0.15
   4   2   4    4.97    0.20
  -4   2  -4    4.85    0.17
  -4   2  -4    4.89    0.17
  -5  -2  -4    6.77    0.18
  -5  -2  -4    6.92    0.21
  -5  -2  -4    6.66    0.21
  -5  -2  -4    6.64    0.20
  -5  -2  -4    6.53    0.17
  -5  -2  -4    6.35    0.21
  -5  -2  -4    6.59    0.20
  -5   2  -4    6.48    0.16
  -5   2  -4    6.46    0.22
  -5   2  -4    6.34    0.17
  -5   2  -4    6.60    0.19
  -5   2  -4    6.38    0.19
  -5   2  -4    6.47    0.21
  -5   2  -4    6.56    0.17
  -5   2  -4    6.35    0.18
  -6  -2  -4    8.54    0.22
  -6  -2  -4    8.45    0.22
  -6  -2  -4    8.31    0.22
  -6  -2  -4    8.62    0.20
  -6  -2  -4    7.78    0.24
  -6  -2  -4    8.28    0.23
  -6  -2  -4    8.47    0.24
  -6   2  -4    8.04    0.21
  -6   2  -4    8.22    0.26
  -6   2  -4    8.32    0.23
  -6   2  -4    8.17    0.20
  -6   2  -4    8.18    0.25
  -6   2  -4    8.16    0.20
  -7  -2  -4    1.75    0.07
  -7  -2  -4    1.78    0.08
  -7  -2  -4    1.79    0.11
  -7  -2  -4    1.88    0.07
  -7  -2  -4    1.83    0.09
  -7  -2  -4    1.86    0.11
  -7  -2  -4    1.86    0.10
  -7  -2  -4    1.92    0.09
  -7   2  -4    1.72    0.09
  -7   2  -4    1.49    0.11
  -7   2  -4    1.92    0.12
  -7   2  -4    1.81    0.09
  -7   2  -4    1.65    0.08
  -8  -2  -4    0.45    0.05
  -8  -2  -4    0.47    0.05
  -8  -2  -4    0.42    0.04
  -8  -2  -4    0.50    0.04
  -8  -2  -4    0.55    0.07
  -8  -2  -4    0.59    0.06
  -8   2  -4    0.57    0.06
  -8   2  -4    0.42    0.04
  -8   2  -4    0.45    0.05
 -10  -3   4    0.78    0.05
 -10  -3   4    0.83    0.07
 -10   3   4    0.79    0.06
  -9  -3   4   -0.03    0.03
  -9  -3   4    0.03    0.02
  -9  -3   4    0.01    0.02
  -9   3   4   -0.04    0.03
  -9   3   4   -0.04    0.03
  -9   3   4    0.04    0.03
  -8  -3   4    0.43    0.03
  -8  -3   4    0.34    0.05
  -8  -3   4    0.37    0.05
  -8  -3   4    0.41    0.07
  -8  -3   4    0.35    0.03
   8   3  -4    0.35    0.06
  -8   3   4    0.32    0.06
  -8   3   4    0.36    0.07
  -8   3   4    0.41    0.07
  -8   3   4    0.30    0.07
  -7  -3   4    7.02    0.23
  -7  -3   4    6.57    0.18
  -7  -3   4    6.91    0.19
  -7  -3   4    6.73    0.20
  -7  -3   4    6.95    0.14
  -7  -3   4    7.01    0.25
  -7   3   4    6.65    0.24
  -7   3   4    7.02    0.24
  -7   3   4    6.95    0.25
  -7   3   4    7.02    0.24
  -7   3   4    6.99    0.21
  -6  -3   4   21.91    0.49
  -6  -3   4   21.64    0.44
  -6  -3   4   21.63    0.39
  -6  -3   4   21.41    0.43
  -6  -3   4   21.27    0.51
  -6  -3   4   20.87    0.39
  -6  -3   4   21.32    0.61
  -6  -3   4   21.53    0.41
  -6  -3   4   22.21    0.45
  -6   3   4   21.44    0.43
  -6   3   4   21.67    0.49
  -6   3   4   21.43    0.51
  -6   3   4   21.07    0.49
  -6   3   4   21.28    0.49
  -5  -3   4    6.10    0.17
  -5  -3   4    5.92    0.19
   5  -3  -4    6.10    0.16
  -5  -3   4    6.23    0.21
  -5  -3   4    5.91    0.18
  -5  -3   4    6.13    0.19
  -5  -3   4    6.19    0.16
  -5  -3   4    6.30    0.17
  -5  -3   4    6.02    0.18
  -5  -3   4    5.90    0.20
  -5  -3   4    6.51    0.26
   5   3  -4    5.77    0.22
   5   3  -4    5.95    0.20
  -5   3   4    6.10    0.18
  -5   3   4    6.02    0.21
  -5   3   4    6.12    0.21
  -5   3   4    6.01    0.21
  -5   3   4    6.30    0.21
   4  -3  -4   22.44    0.47
  -4  -3   4   23.19    0.59
  -4  -3   4   21.87    0.46
  -4   3   4   21.99    0.46
   4   3  -4   22.55    0.51
   3  -3  -4   75.31    1.40
  -3  -3   4   73.83    1.67
  -3  -3   4   72.15    1.60
   3   3  -4   73.07    1.41
  -2  -3   4   46.07    1.02
  -2  -3   4   45.46    1.08
   2  -3  -4   44.85    0.90
   2   3  -4   43.68    0.87
  -2   3   4   43.19    0.96
   2   3  -4   42.98    1.04
   1  -3  -4   27.55    0.59
  -1  -3   4   27.51    0.70
   1   3  -4   26.10    0.56
  -1   3   4   27.02    0.65
   1   3  -4   26.26    0.68
   0  -3   4   79.88    1.52
   0  -3  -4   79.88    1.54
   0   3   4   73.81    1.71
   0   3  -4   77.14    1.72
   1  -3   4   35.61    0.89
   1  -3   4   36.08    0.75
  -1  -3  -4   36.87    0.77
  -1  -3  -4   37.16    0.93
   1   3   4   33.99    0.86
  -1   3  -4   33.97    0.83
   2  -3   4   11.34    0.30
  -2  -3  -4   11.51    0.39
  -2  -3  -4   11.19    0.26
   2   3   4   10.57    0.37
  -2   3  -4   10.89    0.26
  -3  -3  -4    5.87    0.14
  -3  -3  -4    5.77    0.18
  -3  -3  -4    5.38    0.19
  -3  -3  -4    5.91    0.19
   3  -3   4    5.85    0.20
  -3  -3  -4    5.88    0.17
  -3  -3  -4    5.50    0.17
  -3  -3  -4    5.89    0.18
  -3   3  -4    5.62    0.19
  -3   3  -4    5.80    0.17
  -3   3  -4    5.95    0.18
  -3   3  -4    5.59    0.19
  -3   3  -4    6.04    0.15
  -3   3  -4    6.02    0.18
   3   3   4    5.35    0.17
  -4  -3  -4    7.00    0.19
  -4  -3  -4    7.13    0.21
   4  -3   4    6.83    0.23
  -4  -3  -4    6.84    0.22
  -4  -3  -4    6.94    0.20
  -4  -3  -4    6.95    0.19
  -4  -3  -4    7.35    0.22
  -4  -3  -4    7.34    0.17
   4   3   4    6.68    0.21
  -4   3  -4    6.93    0.21
  -4   3  -4    7.01    0.21
  -4   3  -4    6.74    0.22
  -4   3  -4    7.16    0.23
  -4   3  -4    7.07    0.20
  -4   3  -4    7.10    0.17
  -4   3  -4    6.69    0.19
  -4   3  -4    6.96    0.19
  -5  -3  -4   16.07    0.37
  -5  -3  -4   16.85    0.38
  -5  -3  -4   16.17    0.38
  -5  -3  -4   16.59    0.33
  -5  -3  -4   16.50    0.39
  -5  -3  -4   16.32    0.32
  -5  -3  -4   16.35    0.35
  -5   3  -4   16.87    0.33
  -5   3  -4   16.80    0.37
  -5   3  -4   16.11    0.31
  -5   3  -4   16.11    0.32
  -5   3  -4   16.10    0.39
  -5   3  -4   16.08    0.37
  -5   3  -4   16.24    0.32
  -5   3  -4   16.13    0.40
  -5   3  -4   16.07    0.35
  -6  -3  -4    2.66    0.12
  -6  -3  -4    2.46    0.09
  -6  -3  -4    2.54    0.12
  -6  -3  -4    2.57    0.13
  -6  -3  -4    2.66    0.13
  -6  -3  -4    2.49    0.11
  -6   3  -4    2.66    0.10
  -6   3  -4    2.53    0.12
  -6   3  -4    2.43    0.14
  -6   3  -4    2.67    0.14
  -6   3  -4    2.61    0.11
  -7  -3  -4    5.63    0.14
  -7  -3  -4    5.31    0.17
  -7  -3  -4    5.58    0.19
  -7  -3  -4    5.31    0.14
  -7  -3  -4    5.60    0.18
  -7  -3  -4    5.50    0.16
  -7  -3  -4    5.48    0.14
  -7  -3  -4    5.58    0.16
  -7   3  -4    5.87    0.19
  -7   3  -4    5.55    0.15
  -7   3  -4    5.38    0.16
  -8  -3  -4    0.78    0.07
  -8  -3  -4    0.81    0.07
  -8  -3  -4    0.75    0.06
  -8  -3  -4    0.78    0.05
  -8  -3  -4    0.91    0.06
  -8  -3  -4    0.73    0.04
  -8   3  -4    0.78    0.07
  -8   3  -4    0.68    0.05
  -8   3  -4    0.84    0.05
  -9  -4   4    2.96    0.10
  -9  -4   4    3.14    0.13
  -9  -4   4    2.97    0.10
  -9   4   4    2.96    0.04
  -9   4   4    2.94    0.11
  -8  -4   4    2.47    0.07
  -8  -4   4    2.57    0.11
  -8  -4   4    2.48    0.13
  -8  -4   4    2.43    0.10
  -8  -4   4    2.50    0.11
  -8  -4   4    2.50    0.07
   8   4  -4    2.47    0.12
  -8   4   4    2.39    0.04
  -8   4   4    2.37    0.11
  -8   4   4    2.35    0.13
  -7  -4   4    1.54    0.08
  -7  -4   4    1.61    0.10
  -7  -4   4    1.46    0.07
  -7  -4   4    1.63    0.09
  -7  -4   4    1.85    0.10
  -7  -4   4    1.57    0.11
  -7   4   4    1.42    0.11
  -7   4   4    1.34    0.12
   7   4  -4    1.53    0.12
  -7   4   4    1.63    0.11
  -7   4   4    1.69    0.12
  -7   4   4    1.56    0.03
  -6  -4   4    3.44    0.13
  -6  -4   4    3.60    0.15
  -6  -4   4    3.34    0.16
  -6  -4   4    3.15    0.13
  -6  -4   4    3.24    0.11
  -6  -4   4    3.47    0.16
  -6  -4   4    3.50    0.14
  -6  -4   4    3.25    0.20
  -6  -4   4    3.16    0.12
   6   4  -4    3.05    0.15
  -6   4   4    3.24    0.05
  -6   4   4    3.13    0.13
   6   4  -4    2.95    0.16
  -6   4   4    3.11    0.16
  -6   4   4    3.00    0.16
  -6   4   4    3.11    0.15
  -6   4   4    3.50    0.17
  -5  -4   4   22.66    0.63
  -5  -4   4   22.33    0.49
  -5  -4   4   22.73    0.48
  -5  -4   4   21.77    0.50
  -5  -4   4   22.14    0.49
  -5  -4   4   22.88    0.45
  -5  -4   4   22.31    0.46
  -5  -4   4   21.92    0.43
  -5   4   4   22.24    0.49
  -5   4   4   21.67    0.42
   5   4  -4   21.64    0.54
  -5   4   4   21.72    0.24
  -5   4   4   21.06    0.52
  -5   4   4   21.90    0.51
  -4  -4   4   11.76    0.31
  -4  -4   4   11.62    0.26
  -4  -4   4   11.94    0.31
  -4  -4   4   11.89    0.28
   4  -4  -4   12.14    0.31
  -4  -4   4   12.42    0.39
  -4  -4   4   11.33    0.30
  -4  -4   4   11.72    0.31
  -4  -4   4   12.00    0.26
  -4  -4   4   11.81    0.31
  -4   4   4   11.28    0.30
   4   4  -4   11.52    0.33
   4   4  -4   12.56    0.35
  -4   4   4   11.62    0.26
  -4   4   4   11.59    0.33
  -4   4   4   11.54    0.15
  -3  -4   4   13.44    0.35
   3  -4  -4   13.98    0.35
  -3  -4   4   13.92    0.34
  -3  -4   4   13.58    0.41
  -3  -4   4   13.51    0.31
  -3  -4   4   13.55    0.30
  -3  -4   4   14.28    0.34
  -3  -4   4   13.82    0.34
  -3  -4   4   13.92    0.28
  -3  -4   4   13.58    0.31
  -3  -4   4   13.89    0.36
  -3   4   4   13.18    0.25
   3   4  -4   13.70    0.37
  -3   4   4   13.12    0.32
   3   4  -4   13.95    0.36
  -3   4   4   13.28    0.25
  -3   4   4   12.95    0.35
   2  -4  -4   29.06    0.63
  -2  -4   4   28.16    0.70
  -2  -4   4   28.52    0.57
  -2   4   4   27.15    0.53
   2   4  -4   25.88    0.71
   2   4  -4   26.43    0.59
  -2   4   4   26.94    0.48
   1  -4  -4   26.28    0.59
  -1  -4   4   25.84    0.53
  -1   4   4   24.96    0.51
   1   4  -4   24.41    0.50
  -1   4   4   24.29    0.51
   0  -4   4   10.08    0.28
   0  -4  -4   10.79    0.31
   0  -4   4    9.80    0.35
   0   4   4   10.28    0.22
   0   4   4   10.43    0.27
   0   4  -4   10.29    0.27
   1  -4   4    6.59    0.22
  -1  -4  -4    6.54    0.23
  -1   4  -4    6.31    0.16
   1   4   4    6.35    0.20
   1   4   4    6.85    0.21
   1   4   4    6.96    0.16
  -1   4  -4    6.62    0.21
  -1   4  -4    6.68    0.22
   1   4   4    6.87    0.20
  -1   4  -4    6.71    0.21
  -2  -4  -4    2.06    0.12
  -2  -4  -4    2.44    0.11
  -2  -4  -4    2.21    0.11
   2  -4   4    2.22    0.12
   2   4   4    2.21    0.12
  -2   4  -4    2.30    0.12
   2   4   4    2.45    0.12
   2   4   4    2.39    0.12
  -2   4  -4    2.28    0.10
  -2   4  -4    2.45    0.09
  -2   4  -4    2.24    0.12
  -2   4  -4    2.65    0.13
  -2   4  -4    2.37    0.12
  -2   4  -4    2.40    0.13
  -3  -4  -4    2.06    0.12
  -3  -4  -4    2.09    0.11
   3  -4   4    2.27    0.13
  -3  -4  -4    2.14    0.11
  -3  -4  -4    2.24    0.12
  -3  -4  -4    2.22    0.11
  -3   4  -4    2.24    0.12
  -3   4  -4    2.25    0.12
   3   4   4    2.05    0.13
  -3   4  -4    2.21    0.09
  -3   4  -4    2.33    0.11
  -3   4  -4    2.45    0.12
   3   4   4    1.95    0.11
  -3   4  -4    2.30    0.13
  -3   4  -4    2.32    0.12
   3   4   4    2.18    0.12
  -4  -4  -4    4.37    0.15
  -4  -4  -4    4.13    0.14
  -4  -4  -4    4.11    0.17
  -4  -4  -4    4.09    0.16
  -4  -4  -4    4.21    0.17
  -4   4  -4    4.29    0.14
  -4   4  -4    4.10    0.14
  -4   4  -4    4.27    0.18
  -4   4  -4    4.21    0.17
   4   4   4    4.05    0.16
   4   4   4    3.88    0.16
  -4   4  -4    4.27    0.13
  -4   4  -4    4.04    0.18
  -4   4  -4    4.15    0.15
  -4   4  -4    4.09    0.16
  -4   4  -4    4.12    0.14
  -5  -4  -4   10.55    0.28
  -5  -4  -4   10.13    0.25
  -5  -4  -4   10.07    0.23
  -5  -4  -4   10.40    0.29
  -5  -4  -4   10.36    0.28
  -5  -4  -4   10.52    0.28
  -5   4  -4    9.63    0.28
  -5   4  -4   10.44    0.24
  -5   4  -4    9.73    0.23
   5   4   4   10.15    0.28
  -5   4  -4   10.06    0.25
  -5   4  -4   10.28    0.27
  -6  -4  -4    6.56    0.21
  -6  -4  -4    6.57    0.20
  -6  -4  -4    6.87    0.19
  -6  -4  -4    6.99    0.21
  -6  -4  -4    6.86    0.18
  -6   4  -4    6.77    0.19
  -6   4  -4    7.01    0.22
   6   4   4    6.90    0.21
  -6   4  -4    6.91    0.20
  -6   4  -4    6.61    0.17
  -7  -4  -4    4.69    0.14
  -7  -4  -4    4.50    0.13
  -7  -4  -4    4.54    0.12
  -7  -4  -4    4.77    0.17
  -7  -4  -4    4.82    0.15
  -7  -4  -4    4.86    0.15
  -7  -4  -4    4.57    0.11
  -7   4  -4    4.77    0.13
  -7   4  -4    4.73    0.16
   7   4   4    4.34    0.17
  -7   4  -4    4.78    0.14
  -8  -5   4    2.31    0.08
  -8  -5   4    2.27    0.11
  -8  -5   4    2.22    0.09
  -8  -5   4    2.18    0.06
  -8  -5   4    2.25    0.06
  -8  -5   4    2.16    0.09
  -8   5   4    2.13    0.11
  -8   5   4    2.13    0.04
  -8   5   4    2.28    0.10
   8   5  -4    2.04    0.10
  -7  -5   4    0.30    0.04
  -7  -5   4    0.27    0.05
  -7  -5   4    0.29    0.04
  -7  -5   4    0.35    0.06
  -7  -5   4    0.38    0.06
  -7   5   4    0.32    0.02
   7   5  -4    0.36    0.06
  -7   5   4    0.34    0.06
  -7   5   4    0.36    0.05
  -6  -5   4    6.60    0.19
  -6  -5   4    6.75    0.18
  -6  -5   4    6.59    0.23
  -6  -5   4    6.63    0.20
  -6  -5   4    7.13    0.21
  -6  -5   4    6.87    0.18
  -6  -5   4    6.30    0.29
  -6  -5   4    6.74    0.22
  -6   5   4    6.41    0.19
  -6   5   4    6.83    0.24
   6   5  -4    6.63    0.23
   6   5  -4    6.17    0.24
  -6   5   4    6.42    0.10
  -5  -5   4    6.33    0.20
  -5  -5   4    6.03    0.17
  -5  -5   4    6.27    0.22
  -5  -5   4    6.15    0.28
  -5  -5   4    6.22    0.22
  -5  -5   4    6.21    0.22
  -5  -5   4    6.29    0.20
   5   5  -4    5.93    0.22
   5   5  -4    5.89    0.24
  -5   5   4    5.72    0.18
  -5   5   4    6.19    0.23
  -5   5   4    5.91    0.21
  -4  -5   4   22.89    0.45
  -4  -5   4   22.37    0.46
  -4  -5   4   22.78    0.51
  -4  -5   4   22.57    0.42
  -4  -5   4   22.97    0.51
  -4  -5   4   22.94    0.52
  -4  -5   4   23.11    0.64
  -4  -5   4   22.94    0.50
   4   5  -4   21.96    0.49
   4   5  -4   21.80    0.49
  -4   5   4   21.40    0.53
  -4   5   4   21.90    0.42
   4   5  -4   21.47    0.55
  -3  -5   4   12.25    0.33
  -3  -5   4   12.86    0.33
  -3  -5   4   12.49    0.33
  -3  -5   4   12.47    0.41
  -3  -5   4   11.99    0.30
  -3  -5   4   12.34    0.29
  -3  -5   4   12.35    0.25
  -3   5   4   11.87    0.27
  -3   5   4   12.07    0.23
   3   5  -4   12.12    0.36
   3   5  -4   12.07    0.32
  -3   5   4   12.62    0.35
  -3   5   4   12.13    0.23
  -3   5   4   11.60    0.31
   3   5  -4   12.08    0.32
  -2  -5   4    2.48    0.14
  -2  -5   4    2.53    0.14
   2  -5  -4    2.57    0.14
  -2  -5   4    2.98    0.14
  -2  -5   4    2.60    0.14
   2   5  -4    2.70    0.14
   2   5  -4    2.50    0.14
  -2   5   4    3.02    0.11
   2   5  -4    2.62    0.15
  -2   5   4    2.55    0.10
  -2   5   4    2.67    0.13
   2   5  -4    2.42    0.13
  -2   5   4    2.62    0.14
  -2   5   4    2.73    0.10
   2   5  -4    2.62    0.13
  -2   5   4    2.38    0.10
   1  -5  -4   22.24    0.55
  -1  -5   4   22.53    0.49
  -1  -5   4   21.25    0.47
  -1   5   4   20.22    0.49
  -1   5   4   21.34    0.46
  -1   5   4   21.21    0.43
   1   5  -4   20.57    0.51
  -1   5   4   20.97    0.45
  -1   5   4   21.43    0.41
   1   5  -4   20.77    0.50
   1   5  -4   20.98    0.46
  -1   5   4   21.49    0.39
   1   5  -4   20.91    0.49
  -1   5   4   20.92    0.46
   0  -5  -4   28.12    0.67
   0  -5   4   27.57    0.57
   0   5   4   28.67    0.50
   0   5  -4   27.66    0.57
   0   5  -4   28.43    0.60
   0   5   4   27.62    0.57
   0   5  -4   29.25    0.57
   0   5   4   28.54    0.58
   0   5   4   28.50    0.52
   0   5  -4   27.41    0.63
   0   5  -4   28.03    0.53
   0   5  -4   27.85    0.49
   0   5   4   27.75    0.57
   0   5   4   28.03    0.57
   0   5   4   28.68    0.52
   1  -5   4    0.30    0.06
  -1  -5  -4    0.25    0.06
   1  -5   4    0.32    0.07
  -1   5  -4    0.27    0.06
   1   5   4    0.18    0.05
  -1   5  -4    0.22    0.05
  -1   5  -4    0.22    0.06
  -1   5  -4    0.26    0.06
   1   5   4    0.38    0.06
  -1   5  -4    0.22    0.03
   1   5   4    0.23    0.05
   1   5   4    0.23    0.04
  -1   5  -4    0.23    0.05
   1   5   4    0.30    0.05
  -1   5  -4    0.23    0.05
   1   5   4    0.33    0.04
  -2  -5  -4    5.23    0.20
  -2  -5  -4    5.13    0.18
   2   5   4    4.99    0.19
  -2   5  -4    5.07    0.15
  -2   5  -4    5.05    0.19
  -2   5  -4    5.26    0.20
  -2   5  -4    5.01    0.19
   2   5   4    5.10    0.17
  -2   5  -4    4.69    0.16
  -2   5  -4    5.04    0.19
   2   5   4    4.92    0.19
  -3  -5  -4    3.33    0.16
  -3  -5  -4    3.12    0.14
  -3  -5  -4    3.52    0.15
  -3  -5  -4    3.14    0.16
  -3   5  -4    3.42    0.16
  -3   5  -4    3.28    0.15
   3   5   4    3.27    0.15
  -3   5  -4    3.58    0.12
   3   5   4    3.39    0.16
  -3   5  -4    3.14    0.15
  -3   5  -4    3.20    0.13
  -3   5  -4    3.27    0.13
   3   5   4    3.11    0.15
  -3   5  -4    3.29    0.14
  -4  -5  -4   10.04    0.29
  -4  -5  -4    9.51    0.27
  -4  -5  -4    9.90    0.25
  -4  -5  -4    9.59    0.28
  -4   5  -4    9.25    0.24
  -4   5  -4    9.06    0.22
  -4   5  -4    8.89    0.24
   4   5   4    9.08    0.26
   4   5   4    9.02    0.28
  -4   5  -4    9.17    0.26
   4   5   4    9.34    0.26
  -4   5  -4    8.40    0.26
  -4   5  -4    9.09    0.20
  -4   5  -4    9.00    0.20
  -5  -5  -4    1.03    0.06
  -5  -5  -4    0.84    0.08
  -5  -5  -4    0.90    0.08
  -5  -5  -4    1.02    0.09
  -5  -5  -4    0.98    0.09
  -5   5  -4    1.16    0.07
  -5   5  -4    0.96    0.10
  -5   5  -4    0.92    0.08
  -5   5  -4    1.07    0.09
   5   5   4    0.92    0.09
  -6  -5  -4    0.13    0.04
  -6  -5  -4    0.14    0.04
  -6  -5  -4    0.12    0.04
  -6  -5  -4    0.16    0.04
  -6   5  -4    0.14    0.04
  -6   5  -4    0.20    0.03
  -6   5  -4    0.12    0.03
   6   5   4    0.12    0.04
  -7  -5  -4    1.19    0.08
  -7  -5  -4    1.33    0.07
  -7   5  -4    1.19    0.06
  -7   5  -4    1.32    0.09
  -7   5  -4    1.11    0.06
   7   5   4    1.25    0.08
  -7  -6   4    8.83    0.19
  -7  -6   4    8.85    0.20
  -7  -6   4    9.13    0.22
  -7  -6   4    8.73    0.24
   7   6  -4    8.77    0.24
  -7   6   4    8.86    0.25
   7   6  -4    8.72    0.23
  -6  -6   4   10.67    0.24
  -6  -6   4   10.73    0.25
  -6  -6   4   10.93    0.24
  -6  -6   4   11.02    0.29
  -6  -6   4   10.35    0.27
  -6  -6   4   10.78    0.27
   6   6  -4   10.12    0.28
   6   6  -4   10.68    0.28
  -6   6   4   10.25    0.30
   6   6  -4   10.44    0.28
  -5  -6   4    5.34    0.19
  -5  -6   4    5.16    0.18
  -5  -6   4    5.16    0.19
  -5  -6   4    5.01    0.19
  -5  -6   4    5.08    0.16
  -5   6   4    4.99    0.20
   5   6  -4    4.94    0.19
  -5   6   4    5.08    0.15
   5   6  -4    5.17    0.19
   5   6  -4    4.96    0.19
  -4  -6   4    2.77    0.18
  -4  -6   4    3.32    0.12
  -4  -6   4    3.31    0.16
  -4  -6   4    3.30    0.15
  -4  -6   4    3.02    0.16
  -4  -6   4    3.37    0.16
  -4  -6   4    3.30    0.13
   4   6  -4    2.91    0.15
   4   6  -4    2.96    0.15
   4   6  -4    3.14    0.15
  -4   6   4    3.08    0.11
   4   6  -4    2.86    0.17
  -4   6   4    3.03    0.16
  -4   6   4    2.78    0.11
  -3  -6   4    2.60    0.15
  -3  -6   4    2.44    0.15
  -3  -6   4    2.45    0.14
  -3  -6   4    2.34    0.12
  -3  -6   4    2.36    0.13
   3   6  -4    2.28    0.13
  -3   6   4    2.52    0.14
   3   6  -4    2.25    0.15
   3   6  -4    2.18    0.13
   3   6  -4    2.23    0.16
  -3   6   4    2.46    0.11
   3   6  -4    2.47    0.14
  -3   6   4    2.34    0.10
  -2  -6   4   11.53    0.30
  -2  -6   4   10.90    0.30
  -2  -6   4   11.12    0.33
  -2  -6   4   11.06    0.31
  -2  -6   4   11.55    0.30
   2   6  -4   11.01    0.35
  -2   6   4   11.08    0.24
  -2   6   4   10.90    0.32
  -2   6   4   10.83    0.26
   2   6  -4   10.82    0.32
   2   6  -4   11.51    0.30
   2   6  -4   10.48    0.29
   2   6  -4   10.88    0.29
  -2   6   4   11.00    0.24
  -2   6   4   11.22    0.25
  -1  -6   4    1.03    0.11
  -1  -6   4    0.90    0.11
   1   6  -4    1.00    0.12
  -1   6   4    0.97    0.08
   1   6  -4    0.81    0.10
  -1   6   4    0.86    0.09
  -1   6   4    0.92    0.06
   1   6  -4    1.10    0.13
   1   6  -4    0.88    0.09
  -1   6   4    0.81    0.07
   0  -6  -4   13.45    0.36
   0  -6   4   13.13    0.35
   0   6   4   13.21    0.30
   0   6   4   12.90    0.26
   0   6  -4   12.46    0.31
   0   6   4   13.01    0.32
   0   6   4   13.09    0.34
   0   6  -4   12.82    0.30
   0   6  -4   13.53    0.37
   0   6   4   12.80    0.33
   0   6  -4   12.90    0.35
  -1  -6  -4   11.40    0.30
   1  -6   4   12.22    0.33
   1   6   4   12.59    0.33
   1   6   4   11.94    0.27
   1   6   4   12.25    0.32
  -1   6  -4   12.51    0.25
   1   6   4   11.97    0.28
  -1   6  -4   11.92    0.34
  -1   6  -4   12.18    0.29
  -1   6  -4   12.01    0.32
  -1   6  -4   12.17    0.27
   1   6   4   11.72    0.31
  -1   6  -4   12.24    0.33
  -2  -6  -4   15.18    0.36
  -2  -6  -4   15.34    0.39
  -2   6  -4   14.94    0.35
   2   6   4   15.07    0.37
  -2   6  -4   15.23    0.38
  -2   6  -4   14.17    0.34
   2   6   4   14.89    0.34
  -2   6  -4   15.17    0.30
  -2   6  -4   15.47    0.38
   2   6   4   15.41    0.38
  -3  -6  -4    4.78    0.17
  -3  -6  -4    5.08    0.19
  -3  -6  -4    4.73    0.19
  -3   6  -4    4.84    0.16
  -3   6  -4    4.75    0.14
  -3   6  -4    4.67    0.18
   3   6   4    4.74    0.16
  -3   6  -4    4.89    0.17
  -3   6  -4    4.61    0.14
  -3   6  -4    4.92    0.14
   3   6   4    5.06    0.19
   3   6   4    4.91    0.19
  -4  -6  -4    4.26    0.14
  -4  -6  -4    4.09    0.17
  -4  -6  -4    4.24    0.15
  -4  -6  -4    4.17    0.16
  -4   6  -4    4.10    0.16
  -4   6  -4    3.71    0.16
   4   6   4    4.24    0.15
  -4   6  -4    3.78    0.12
   4   6   4    3.97    0.16
   4   6   4    3.68    0.15
  -4   6  -4    3.94    0.12
  -4   6  -4    3.77    0.14
  -5  -6  -4    4.78    0.15
  -5  -6  -4    4.23    0.14
  -5  -6  -4    4.68    0.15
  -5  -6  -4    4.78    0.16
  -5   6  -4    4.70    0.13
  -5   6  -4    4.51    0.16
  -5   6  -4    4.74    0.14
   5   6   4    4.43    0.15
  -6  -6  -4    7.28    0.19
  -6  -6  -4    7.55    0.20
  -6   6  -4    6.82    0.15
  -6   6  -4    6.63    0.18
  -6   6  -4    6.89    0.16
   6   6   4    6.68    0.17
  -6  -7   4    0.36    0.05
  -6  -7   4    0.41    0.06
   6   7  -4    0.43    0.06
   6   7  -4    0.51    0.07
  -6   7   4    0.35    0.06
   6   7  -4    0.39    0.06
  -5  -7   4    6.87    0.20
  -5  -7   4    7.04    0.21
  -5  -7   4    6.65    0.20
  -5  -7   4    7.02    0.19
  -5   7   4    6.26    0.15
  -5   7   4    6.03    0.15
   5   7  -4    6.43    0.19
   5   7  -4    6.69    0.19
   5   7  -4    6.22    0.19
  -5   7   4    6.45    0.21
  -4  -7   4    0.62    0.05
  -4  -7   4    0.63    0.07
  -4  -7   4    0.69    0.08
  -4  -7   4    0.59    0.07
  -4  -7   4    0.53    0.07
   4   7  -4    0.51    0.07
  -4   7   4    0.52    0.05
  -4   7   4    0.55    0.07
   4   7  -4    0.62    0.07
  -4   7   4    0.54    0.05
   4   7  -4    0.59    0.07
  -3  -7   4    5.65    0.20
  -3  -7   4    5.83    0.20
  -3  -7   4    5.87    0.21
  -3  -7   4    5.59    0.17
  -3  -7   4    5.35    0.19
  -3   7   4    5.47    0.20
  -3   7   4    5.28    0.16
   3   7  -4    5.48    0.18
   3   7  -4    5.29    0.18
   3   7  -4    5.22    0.20
  -3   7   4    5.54    0.15
   3   7  -4    5.20    0.18
  -2  -7   4    8.68    0.25
  -2  -7   4    8.95    0.27
  -2  -7   4    8.07    0.29
  -2  -7   4    9.45    0.25
   2   7  -4    8.15    0.24
  -2   7   4    8.70    0.16
  -2   7   4    8.77    0.22
  -2   7   4    8.56    0.16
  -2   7   4    8.57    0.20
  -2   7   4    8.39    0.26
   2   7  -4    8.64    0.28
   2   7  -4    8.56    0.24
   2   7  -4    8.57    0.27
  -1  -7   4    4.01    0.18
  -1  -7   4    3.81    0.15
  -1  -7   4    3.80    0.16
  -1   7   4    3.71    0.12
  -1   7   4    3.89    0.14
   1   7  -4    3.77    0.17
   1   7  -4    3.80    0.14
   1   7  -4    3.96    0.18
  -1   7   4    3.87    0.11
  -1   7   4    3.81    0.12
   0  -7   4    9.19    0.27
   0  -7   4    9.55    0.27
   0  -7  -4    9.58    0.26
   0   7  -4    8.97    0.20
   0   7   4    9.18    0.23
   0   7  -4    8.84    0.26
   0   7   4    8.68    0.22
   0   7  -4    8.84    0.28
   1  -7   4    8.28    0.25
  -1  -7  -4    8.28    0.23
   1  -7   4    8.59    0.25
  -1   7  -4    7.63    0.24
  -1   7  -4    8.12    0.23
   1   7   4    7.72    0.22
  -1   7  -4    7.69    0.21
   1   7   4    7.93    0.24
  -2  -7  -4    2.79    0.12
   2  -7   4    2.61    0.13
  -2   7  -4    2.85    0.13
  -2   7  -4    2.77    0.10
   2   7   4    2.79    0.10
  -2   7  -4    2.77    0.15
  -2   7  -4    2.87    0.11
  -2   7  -4    2.72    0.10
   2   7   4    2.92    0.13
   2   7   4    2.74    0.13
  -3  -7  -4    4.28    0.14
  -3  -7  -4    3.96    0.15
   3   7   4    3.72    0.14
  -3   7  -4    3.84    0.13
  -3   7  -4    3.59    0.15
   3   7   4    3.85    0.12
   3   7   4    3.91    0.15
  -3   7  -4    3.79    0.10
  -3   7  -4    3.82    0.14
  -4  -7  -4    3.96    0.12
  -4  -7  -4    4.14    0.14
  -4  -7  -4    4.15    0.11
  -4  -7  -4    3.87    0.14
  -4   7  -4    3.78    0.14
  -4   7  -4    4.02    0.12
   4   7   4    3.97    0.14
   4   7   4    4.13    0.12
  -4   7  -4    3.67    0.14
  -4   7  -4    3.89    0.09
  -4  -8   4    1.83    0.10
  -4   8   4    1.65    0.07
   4   8  -4    1.70    0.08
  -3  -8   4    0.99    0.06
  -3  -8   4    1.03    0.08
  -3  -8   4    0.88    0.08
  -3  -8   4    1.16    0.09
  -3   8   4    0.88    0.06
  -3   8   4    0.92    0.05
   3   8  -4    0.92    0.08
   3   8  -4    0.86    0.06
  -3   8   4    1.09    0.07
  -2  -8   4    2.08    0.11
  -2  -8   4    2.01    0.10
  -2  -8   4    2.09    0.10
   2   8  -4    1.85    0.07
   2   8  -4    1.95    0.10
  -2   8   4    2.05    0.08
  -2   8   4    1.87    0.06
   2   8  -4    2.09    0.11
  -1  -8   4    0.05    0.04
  -1  -8   4    0.19    0.04
  -1  -8   4    0.07    0.04
   1   8  -4    0.16    0.04
  -1   8   4    0.17    0.03
   1   8  -4    0.21    0.05
   0  -8   4    0.07    0.04
   0  -8  -4    0.11    0.04
   0   8   4    0.12    0.03
   0   8  -4    0.16    0.04
   0   8  -4    0.14    0.05
   0   8   4    0.10    0.03
  -1  -8  -4    4.00    0.13
   1  -8   4    4.05    0.14
  -1   8  -4    3.85    0.15
  -1   8  -4    3.74    0.10
   1   8   4    3.71    0.11
  -2  -8  -4    1.80    0.09
  -2   8  -4    1.63    0.10
   2   8   4    1.65    0.08
 -10   0   5    3.56    0.06
 -10   0   5    3.66    0.14
  -9   0   5    0.04    0.04
  -9   0   5    0.03    0.04
  -9   0   5    0.04    0.04
  -8   0   5   62.39    1.14
  -8   0   5   62.35    1.17
  -8   0   5   60.67    1.00
  -8   0   5   60.73    1.20
  -8   0   5   62.79    0.63
  -8   0   5   62.48    1.16
  -7   0   5    3.58    0.05
  -7   0   5    3.40    0.13
  -7   0   5    3.39    0.16
  -7   0   5    3.66    0.17
  -7   0   5    3.78    0.17
  -7   0   5    3.36    0.16
  -6   0   5   28.42    0.59
  -6   0   5   28.69    0.63
  -6   0   5   28.70    0.61
  -6   0   5   28.67    0.62
   6   0  -5   28.58    0.57
  -6   0   5   28.32    0.59
  -6   0   5   27.89    0.51
   5   0  -5    6.97    0.18
   4   0  -5    5.71    0.16
   3   0  -5   96.46    1.77
  -3   0   5   94.86    2.06
   2   0  -5   66.45    1.25
  -2   0   5   65.59    1.47
  -1   0   5    0.44    0.06
   1   0  -5    0.34    0.06
   1   0  -5    0.22    0.04
   0   0   5   11.15    0.34
   0   0  -5   11.55    0.28
   0   0  -5   12.48    0.35
   1   0   5    1.27    0.09
   1   0   5    1.13    0.08
  -1   0  -5    1.34    0.08
  -1   0  -5    1.23    0.09
   2   0   5   23.46    0.52
  -2   0  -5   24.01    0.62
   2   0   5   22.80    0.62
  -3   0  -5   -0.03    0.03
  -3   0  -5    0.05    0.02
   3   0   5    0.02    0.03
  -4   0  -5    0.17    0.03
  -4   0  -5    0.17    0.05
   4   0   5    0.15    0.04
  -4   0  -5    0.17    0.04
  -4   0  -5    0.17    0.04
  -4   0  -5    0.10    0.04
  -4   0  -5    0.15    0.04
  -4   0  -5    0.14    0.04
  -4   0  -5    0.17    0.04
  -5   0  -5   20.07    0.44
  -5   0  -5   20.11    0.41
  -5   0  -5   21.02    0.45
  -5   0  -5   20.02    0.43
  -5   0  -5   20.26    0.45
  -5   0  -5   20.91    0.44
  -5   0  -5   20.38    0.38
  -6   0  -5    1.63    0.08
  -6   0  -5    1.55    0.08
  -6   0  -5    1.83    0.10
  -6   0  -5    1.74    0.11
  -6   0  -5    1.73    0.08
  -6   0  -5    1.83    0.12
  -6   0  -5    1.58    0.09
  -6   0  -5    1.52    0.09
  -7   0  -5    0.45    0.04
  -7   0  -5    0.53    0.06
  -7   0  -5    0.44    0.05
  -7   0  -5    0.34    0.06
  -7   0  -5    0.38    0.06
  -8   0  -5    1.77    0.07
  -8   0  -5    1.64    0.09
  -8   0  -5    1.84    0.08
  -8   0  -5    1.76    0.09
 -10  -1   5    1.36    0.09
 -10   1   5    1.29    0.09
 -10   1   5    1.29    0.08
 -10   1   5    1.27    0.02
 -10   1   5    1.32    0.02
  -9  -1   5    2.44    0.14
  -9   1   5    2.03    0.13
  -9   1   5    2.34    0.13
  -9   1   5    2.12    0.10
  -9   1   5    2.30    0.13
  -9   1   5    2.17    0.04
  -8  -1   5   11.63    0.32
  -8  -1   5   11.19    0.32
  -8  -1   5   11.78    0.34
  -8  -1   5   11.22    0.31
  -8   1   5   11.84    0.33
  -8   1   5   11.75    0.33
  -8   1   5   11.63    0.33
  -8   1   5   12.13    0.35
  -8   1   5   12.01    0.28
  -7  -1   5   23.55    0.53
  -7  -1   5   23.78    0.56
  -7  -1   5   23.44    0.51
  -7  -1   5   24.16    0.54
  -7   1   5   24.21    0.55
  -7   1   5   24.32    0.53
  -7   1   5   23.56    0.46
  -7   1   5   23.47    0.54
  -7   1   5   23.45    0.52
  -7   1   5   22.59    0.55
  -7   1   5   23.80    0.53
  -6  -1   5   12.62    0.32
  -6  -1   5   12.49    0.19
  -6  -1   5   12.43    0.35
  -6  -1   5   12.58    0.32
  -6  -1   5   12.43    0.33
  -6  -1   5   12.59    0.19
  -6   1   5   12.29    0.32
  -6   1   5   12.41    0.28
   6   1  -5   12.47    0.30
  -6   1   5   12.81    0.33
  -6   1   5   12.70    0.34
  -6   1   5   11.74    0.33
  -6   1   5   12.34    0.32
  -6   1   5   12.22    0.33
   5  -1  -5    0.29    0.03
  -5  -1   5    0.32    0.02
  -5  -1   5    0.31    0.06
  -5  -1   5    0.47    0.03
  -5   1   5    0.28    0.06
  -5   1   5    0.26    0.05
   5   1  -5    0.34    0.04
   4  -1  -5   28.34    0.56
   4   1  -5   29.09    0.59
   3  -1  -5   24.57    0.50
  -3  -1   5   24.31    0.58
   3   1  -5   22.97    0.48
   2  -1  -5   50.67    0.97
  -2  -1   5   50.72    1.15
   2   1  -5   49.66    0.97
  -2   1   5   50.09    1.12
  -1  -1   5   20.87    0.53
   1  -1  -5   21.05    0.45
   1   1  -5   22.29    0.47
  -1   1   5   21.50    0.55
   1   1  -5   21.90    0.56
   0  -1   5   16.39    0.45
   0  -1  -5   17.06    0.46
   0  -1   5   16.52    0.37
   0  -1  -5   16.45    0.38
   0   1   5   15.37    0.43
   0   1  -5   15.87    0.36
   0   1  -5   16.29    0.43
   0   1  -5   15.99    0.43
   1  -1   5   12.90    0.32
  -1  -1  -5   13.03    0.39
  -1  -1  -5   13.28    0.33
   1  -1   5   12.94    0.38
   1   1   5   12.47    0.38
  -1   1  -5   12.78    0.38
   1   1   5   13.35    0.33
   2  -1   5   40.79    0.83
   2  -1   5   40.73    1.00
  -2  -1  -5   39.84    1.00
  -2   1  -5   39.49    0.95
   2   1   5   39.29    0.81
   2   1   5   38.74    0.97
  -3  -1  -5    4.97    0.18
  -3  -1  -5    4.66    0.12
   3  -1   5    4.75    0.18
   3   1   5    4.78    0.18
  -3   1  -5    4.57    0.16
  -3   1  -5    4.73    0.16
  -3   1  -5    4.75    0.13
  -3   1  -5    4.80    0.16
  -4  -1  -5    5.86    0.19
  -4  -1  -5    6.37    0.20
  -4  -1  -5    6.28    0.19
   4  -1   5    6.46    0.22
  -4  -1  -5    6.43    0.18
  -4  -1  -5    6.22    0.20
  -4  -1  -5    5.99    0.17
  -4  -1  -5    6.34    0.16
  -4  -1  -5    6.04    0.19
  -4   1  -5    6.32    0.20
  -4   1  -5    6.46    0.18
  -4   1  -5    6.20    0.19
  -4   1  -5    6.64    0.16
   4   1   5    5.98    0.23
  -4   1  -5    6.50    0.20
  -4   1  -5    5.97    0.19
  -4   1  -5    6.44    0.21
  -5  -1  -5   11.22    0.24
  -5  -1  -5   11.38    0.30
  -5  -1  -5   11.63    0.27
  -5  -1  -5   10.99    0.30
  -5  -1  -5   11.46    0.28
  -5  -1  -5   11.30    0.29
  -5  -1  -5   11.58    0.30
  -5  -1  -5   11.74    0.29
  -5   1  -5   11.33    0.27
  -5   1  -5   11.55    0.31
  -5   1  -5   11.43    0.27
  -5   1  -5   11.17    0.29
  -5   1  -5   11.61    0.29
  -5   1  -5   11.24    0.25
  -5   1  -5   11.74    0.30
  -5   1  -5   11.13    0.27
  -6  -1  -5    7.86    0.23
  -6  -1  -5    7.72    0.20
  -6  -1  -5    7.77    0.21
  -6  -1  -5    8.30    0.23
  -6  -1  -5    7.70    0.24
  -6  -1  -5    8.37    0.19
  -6  -1  -5    7.85    0.21
  -6  -1  -5    7.83    0.22
  -6  -1  -5    7.92    0.24
  -6   1  -5    7.85    0.24
  -6   1  -5    7.87    0.21
  -6   1  -5    7.80    0.18
  -6   1  -5    7.79    0.25
  -6   1  -5    7.94    0.23
  -6   1  -5    8.31    0.22
  -6   1  -5    7.96    0.18
  -6   1  -5    8.06    0.19
  -7  -1  -5    1.44    0.07
  -7  -1  -5    1.43    0.09
  -7  -1  -5    1.44    0.09
  -7  -1  -5    1.47    0.10
  -7  -1  -5    1.47    0.08
  -7  -1  -5    1.51    0.07
  -7   1  -5    1.51    0.10
  -7   1  -5    1.33    0.08
  -7   1  -5    1.50    0.09
  -7   1  -5    1.49    0.07
  -7   1  -5    1.50    0.10
  -8  -1  -5    2.55    0.06
  -8  -1  -5    2.59    0.11
  -8  -1  -5    2.45    0.10
  -8  -1  -5    2.59    0.08
  -8  -1  -5    2.39    0.09
  -8   1  -5    2.50    0.08
  -8   1  -5    2.39    0.09
  -8   1  -5    2.43    0.10
 -10  -2   5    5.56    0.17
 -10   2   5    5.38    0.17
 -10   2   5    5.53    0.17
  -9  -2   5    8.06    0.24
  -9   2   5    7.91    0.24
  -9   2   5    7.98    0.25
  -9   2   5    7.81    0.24
  -9   2   5    7.88    0.21
  -8  -2   5    2.92    0.16
  -8  -2   5    3.23    0.15
  -8   2   5    3.16    0.16
  -8   2   5    3.56    0.17
  -8   2   5    3.14    0.13
  -8   2   5    3.10    0.16
  -7  -2   5   40.36    0.81
  -7  -2   5   40.17    0.71
  -7  -2   5   40.93    0.54
  -7  -2   5   42.17    0.86
  -7  -2   5   40.60    0.54
  -7   2   5   40.27    0.86
  -7   2   5   40.14    0.83
  -7   2   5   41.00    0.82
  -7   2   5   40.71    0.81
  -7   2   5   41.59    0.71
  -6  -2   5    4.68    0.17
  -6  -2   5    4.41    0.11
  -6  -2   5    3.91    0.18
  -6  -2   5    4.53    0.14
  -6  -2   5    4.40    0.15
  -6  -2   5    4.47    0.17
  -6   2   5    4.44    0.18
   6   2  -5    4.17    0.16
  -6   2   5    4.53    0.16
  -6   2   5    4.36    0.18
  -6   2   5    4.44    0.18
  -6   2   5    4.35    0.19
   5  -2  -5    8.68    0.21
  -5  -2   5    8.12    0.24
  -5  -2   5    8.69    0.26
  -5  -2   5    8.33    0.24
  -5  -2   5    8.49    0.22
  -5  -2   5    8.59    0.21
  -5  -2   5    8.65    0.19
  -5   2   5    8.53    0.26
  -5   2   5    8.94    0.25
  -5   2   5    8.58    0.22
  -5   2   5    8.58    0.26
   5   2  -5    8.57    0.24
  -5   2   5    8.57    0.25
  -4  -2   5  112.32    1.86
  -4  -2   5  114.52    2.47
   4  -2  -5  114.90    2.10
   4   2  -5  112.53    2.10
  -3  -2   5   11.53    0.33
   3  -2  -5   12.11    0.28
   3   2  -5   12.39    0.30
   2  -2  -5   33.73    0.69
  -2  -2   5   34.60    0.82
  -2   2   5   34.14    0.79
   2   2  -5   34.48    0.70
  -1  -2   5  129.19    2.82
   1  -2  -5  126.87    2.38
   1   2  -5  127.56    2.37
  -1   2   5  125.55    2.80
   1   2  -5  130.10    2.83
   0  -2  -5   57.68    1.14
   0  -2   5   58.24    1.34
   0  -2  -5   58.52    1.37
   0  -2   5   56.72    1.12
   0   2  -5   55.96    1.08
   0   2   5   55.45    1.29
   0   2  -5   54.52    1.29
   1  -2   5   17.03    0.39
  -1  -2  -5   16.63    0.49
  -1  -2  -5   16.20    0.41
   1  -2   5   16.89    0.47
   1   2   5   15.91    0.47
  -1   2  -5   15.82    0.45
  -2  -2  -5   15.98    0.50
   2  -2   5   16.55    0.40
  -2  -2  -5   16.45    0.35
   2   2   5   14.59    0.46
  -2   2  -5   15.06    0.33
  -3  -2  -5    0.87    0.08
  -3  -2  -5    0.88    0.08
  -3  -2  -5    0.95    0.07
  -3  -2  -5    0.91    0.05
  -3  -2  -5    1.04    0.09
   3  -2   5    0.78    0.08
  -3  -2  -5    0.75    0.08
  -3  -2  -5    1.02    0.09
   3   2   5    0.99    0.09
  -3   2  -5    0.90    0.06
  -3   2  -5    1.11    0.09
  -3   2  -5    0.94    0.09
  -3   2  -5    0.83    0.08
  -3   2  -5    0.85    0.07
  -3   2  -5    0.97    0.10
  -3   2  -5    0.84    0.07
  -4  -2  -5    7.30    0.22
  -4  -2  -5    7.61    0.20
  -4  -2  -5    7.58    0.22
  -4  -2  -5    7.06    0.22
  -4  -2  -5    7.65    0.18
  -4  -2  -5    7.47    0.20
  -4  -2  -5    7.41    0.22
  -4  -2  -5    7.72    0.23
   4   2   5    7.14    0.27
  -4   2  -5    7.19    0.22
  -4   2  -5    7.31    0.23
  -4   2  -5    7.23    0.18
  -4   2  -5    7.80    0.22
  -4   2  -5    6.85    0.21
  -4   2  -5    6.90    0.21
   4   2   5    7.09    0.22
  -4   2  -5    7.11    0.20
  -5  -2  -5   11.46    0.30
  -5  -2  -5   11.03    0.27
  -5  -2  -5   11.00    0.29
  -5  -2  -5   11.68    0.29
  -5  -2  -5   11.13    0.29
  -5  -2  -5   11.48    0.24
  -5  -2  -5   11.57    0.29
  -5   2  -5   11.38    0.31
  -5   2  -5   10.86    0.24
  -5   2  -5   10.61    0.29
  -5   2  -5   11.23    0.26
  -5   2  -5   11.45    0.26
  -5   2  -5   11.02    0.27
  -5   2  -5   11.02    0.29
  -5   2  -5   11.40    0.29
  -6  -2  -5    2.71    0.11
  -6  -2  -5    2.81    0.13
  -6  -2  -5    3.00    0.13
  -6  -2  -5    2.64    0.10
  -6  -2  -5    2.84    0.14
  -6  -2  -5    3.08    0.13
  -6  -2  -5    2.78    0.12
  -6  -2  -5    2.92    0.12
  -6   2  -5    2.77    0.12
  -6   2  -5    2.77    0.10
  -6   2  -5    2.69    0.14
  -6   2  -5    2.57    0.14
  -6   2  -5    2.73    0.11
  -6   2  -5    2.67    0.10
  -7  -2  -5    0.41    0.03
  -7  -2  -5    0.47    0.06
  -7  -2  -5    0.45    0.03
  -7  -2  -5    0.54    0.07
  -7  -2  -5    0.41    0.05
  -7  -2  -5    0.43    0.04
  -7  -2  -5    0.41    0.05
  -7   2  -5    0.39    0.06
  -7   2  -5    0.45    0.05
  -7   2  -5    0.41    0.07
  -7   2  -5    0.38    0.04
  -7   2  -5    0.51    0.06
  -8  -2  -5    1.91    0.09
  -8  -2  -5    1.85    0.05
  -8  -2  -5    1.85    0.08
  -8   2  -5    1.91    0.07
  -8   2  -5    1.97    0.08
  -8   2  -5    1.95    0.09
 -10  -3   5    0.92    0.07
  -9  -3   5    8.22    0.19
  -9  -3   5    8.33    0.19
  -9  -3   5    8.33    0.24
  -9   3   5    7.69    0.23
  -9   3   5    7.75    0.23
  -9   3   5    8.09    0.20
  -8  -3   5    1.11    0.07
  -8  -3   5    1.23    0.08
  -8  -3   5    1.24    0.11
  -8   3   5    1.19    0.11
  -8   3   5    1.11    0.09
   8   3  -5    1.22    0.11
  -8   3   5    1.14    0.11
  -8   3   5    1.10    0.10
  -8   3   5    1.12    0.11
  -7  -3   5    3.67    0.13
  -7  -3   5    3.80    0.17
  -7  -3   5    3.71    0.10
  -7  -3   5    3.81    0.14
  -7  -3   5    3.54    0.14
  -7  -3   5    3.84    0.18
  -7   3   5    3.92    0.18
  -7   3   5    3.85    0.18
  -7   3   5    3.51    0.17
  -7   3   5    3.69    0.15
  -7   3   5    3.78    0.18
  -6  -3   5   12.35    0.28
  -6  -3   5   12.27    0.35
  -6  -3   5   12.57    0.25
  -6  -3   5   12.51    0.28
  -6  -3   5   11.95    0.31
  -6  -3   5   12.23    0.33
  -6  -3   5   12.19    0.30
  -6  -3   5   12.27    0.24
  -6  -3   5   12.69    0.29
  -6   3   5   12.67    0.36
   6   3  -5   11.86    0.36
  -6   3   5   12.99    0.34
  -6   3   5   12.59    0.29
  -6   3   5   12.16    0.34
  -6   3   5   12.32    0.34
  -5  -3   5    3.48    0.12
  -5  -3   5    3.06    0.11
  -5  -3   5    2.95    0.15
  -5  -3   5    3.25    0.13
  -5  -3   5    3.35    0.13
  -5  -3   5    3.03    0.12
  -5  -3   5    3.27    0.14
  -5  -3   5    3.20    0.14
  -5  -3   5    3.16    0.18
  -5  -3   5    3.29    0.14
  -5  -3   5    3.22    0.14
   5  -3  -5    3.22    0.12
  -5   3   5    3.38    0.13
  -5   3   5    3.25    0.15
  -5   3   5    3.44    0.16
  -5   3   5    3.36    0.05
   5   3  -5    3.00    0.14
  -5   3   5    3.35    0.15
  -5   3   5    3.12    0.15
  -4  -3   5   33.98    0.66
  -4  -3   5   33.10    0.65
  -4  -3   5   33.48    0.67
  -4  -3   5   34.74    0.69
  -4  -3   5   34.16    0.83
  -4  -3   5   33.72    0.64
  -4  -3   5   33.32    0.74
  -4  -3   5   34.06    0.61
   4  -3  -5   34.20    0.69
  -4  -3   5   33.96    0.65
  -4  -3   5   33.34    0.59
  -4   3   5   33.78    0.66
  -4   3   5   33.90    0.66
  -4   3   5   33.24    0.69
  -4   3   5   33.75    0.45
   4   3  -5   33.69    0.72
  -4   3   5   34.77    0.61
  -4   3   5   33.57    0.35
  -4   3   5   33.17    0.72
  -4   3   5   32.97    0.67
  -3  -3   5   17.88    0.49
  -3  -3   5   18.30    0.40
   3  -3  -5   18.90    0.42
  -3   3   5   17.27    0.33
  -3   3   5   18.47    0.40
  -3   3   5   18.39    0.32
   3   3  -5   17.99    0.43
  -2  -3   5   37.91    0.93
  -2  -3   5   38.22    0.71
   2  -3  -5   38.05    0.79
  -2   3   5   37.26    0.86
   2   3  -5   37.77    0.78
   1  -3  -5   22.46    0.52
  -1  -3   5   22.67    0.60
   1   3  -5   22.24    0.60
   1   3  -5   22.38    0.50
  -1   3   5   21.79    0.57
   0  -3  -5   10.38    0.30
   0  -3   5   10.22    0.34
   0   3  -5    9.81    0.33
   0   3   5    9.97    0.33
   0   3  -5   10.02    0.26
  -1  -3  -5    6.71    0.28
   1  -3   5    6.67    0.21
  -1  -3  -5    6.45    0.23
  -1   3  -5    6.96    0.16
  -1   3  -5    6.71    0.21
   2  -3   5   15.52    0.40
  -2  -3  -5   15.93    0.35
  -2  -3  -5   15.50    0.37
   2   3   5   15.04    0.36
  -2   3  -5   14.94    0.37
   2   3   5   15.01    0.34
  -2   3  -5   15.21    0.36
  -2   3  -5   14.92    0.33
  -2   3  -5   15.45    0.35
  -2   3  -5   15.44    0.30
  -2   3  -5   16.26    0.33
  -2   3  -5   15.17    0.35
   2   3   5   15.15    0.35
   3  -3   5    2.03    0.12
  -3  -3  -5    1.78    0.11
  -3  -3  -5    1.97    0.10
  -3  -3  -5    2.00    0.11
  -3  -3  -5    2.23    0.12
  -3  -3  -5    2.04    0.09
  -3  -3  -5    1.98    0.11
   3   3   5    1.83    0.11
  -3   3  -5    2.12    0.11
  -3   3  -5    2.12    0.11
  -3   3  -5    2.03    0.08
  -3   3  -5    1.76    0.10
  -3   3  -5    1.95    0.12
  -3   3  -5    1.97    0.10
  -3   3  -5    1.93    0.12
  -4  -3  -5   24.62    0.51
  -4  -3  -5   25.11    0.55
  -4  -3  -5   24.99    0.51
  -4  -3  -5   24.97    0.47
  -4  -3  -5   25.23    0.49
  -4  -3  -5   25.22    0.43
  -4  -3  -5   24.79    0.53
  -4  -3  -5   25.45    0.52
   4   3   5   24.49    0.52
  -4   3  -5   25.43    0.49
  -4   3  -5   24.12    0.52
  -4   3  -5   25.06    0.50
  -4   3  -5   24.55    0.52
  -4   3  -5   24.54    0.53
  -4   3  -5   25.04    0.49
  -4   3  -5   24.88    0.46
  -4   3  -5   24.51    0.54
  -5  -3  -5    1.48    0.09
  -5  -3  -5    1.34    0.06
  -5  -3  -5    1.34    0.10
  -5  -3  -5    1.46    0.10
  -5  -3  -5    1.12    0.10
  -5  -3  -5    1.36    0.07
  -5  -3  -5    1.56    0.10
  -5  -3  -5    1.47    0.10
  -5   3  -5    1.44    0.08
  -5   3  -5    1.46    0.10
   5   3   5    1.33    0.11
  -5   3  -5    1.45    0.10
  -5   3  -5    1.36    0.12
  -5   3  -5    1.31    0.07
  -5   3  -5    1.45    0.09
  -5   3  -5    1.51    0.07
  -5   3  -5    1.25    0.08
  -6  -3  -5    0.74    0.07
  -6  -3  -5    0.65    0.06
  -6  -3  -5    0.71    0.07
  -6  -3  -5    0.65    0.04
  -6  -3  -5    0.67    0.07
  -6  -3  -5    0.74    0.08
  -6   3  -5    0.69    0.08
  -6   3  -5    0.55    0.07
  -6   3  -5    0.75    0.06
  -6   3  -5    0.77    0.07
  -6   3  -5    0.76    0.09
   6   3   5    0.75    0.08
  -7  -3  -5    4.86    0.11
  -7  -3  -5    5.02    0.11
  -7  -3  -5    4.90    0.14
  -7  -3  -5    5.22    0.16
  -7  -3  -5    4.96    0.16
  -7  -3  -5    5.07    0.17
  -7  -3  -5    5.20    0.14
  -7   3  -5    4.91    0.16
  -7   3  -5    5.11    0.13
  -7   3  -5    4.95    0.14
  -9  -4   5    3.49    0.14
  -9  -4   5    3.56    0.10
  -9  -4   5    3.51    0.11
  -9   4   5    3.75    0.12
  -8  -4   5    6.53    0.21
  -8  -4   5    6.17    0.11
  -8  -4   5    6.36    0.11
  -8  -4   5    6.40    0.17
  -8  -4   5    6.68    0.17
  -8  -4   5    6.45    0.18
  -8   4   5    5.70    0.20
   8   4  -5    6.08    0.20
  -8   4   5    6.08    0.20
  -8   4   5    6.31    0.18
  -8   4   5    6.01    0.08
  -7  -4   5    4.57    0.16
  -7  -4   5    4.38    0.18
  -7  -4   5    4.63    0.15
  -7  -4   5    4.59    0.16
  -7  -4   5    4.33    0.12
  -7   4   5    4.34    0.15
  -7   4   5    4.23    0.18
   7   4  -5    4.15    0.18
  -7   4   5    4.26    0.18
  -7   4   5    4.03    0.17
  -7   4   5    4.30    0.07
  -6  -4   5   23.61    0.55
  -6  -4   5   24.08    0.45
  -6  -4   5   24.00    0.45
  -6  -4   5   23.97    0.48
  -6  -4   5   24.88    0.50
  -6  -4   5   23.81    0.51
  -6  -4   5   23.68    0.53
  -6  -4   5   24.76    0.46
  -6   4   5   23.82    0.53
  -6   4   5   23.54    0.46
  -6   4   5   23.97    0.26
  -6   4   5   24.22    0.58
  -6   4   5   23.92    0.55
   6   4  -5   23.93    0.58
  -6   4   5   23.87    0.53
  -5  -4   5   29.90    0.62
  -5  -4   5   30.75    0.79
  -5  -4   5   29.96    0.61
  -5  -4   5   29.90    0.55
  -5  -4   5   29.92    0.59
  -5  -4   5   29.93    0.63
  -5  -4   5   30.35    0.58
  -5  -4   5   30.52    0.62
  -5   4   5   29.09    0.67
  -5   4   5   29.50    0.61
   5   4  -5   29.33    0.68
  -5   4   5   29.18    0.32
  -5   4   5   28.78    0.53
  -4  -4   5    3.22    0.18
  -4  -4   5    3.20    0.15
   4  -4  -5    3.01    0.14
  -4  -4   5    3.10    0.11
  -4  -4   5    3.40    0.13
  -4  -4   5    3.32    0.15
  -4  -4   5    3.14    0.14
  -4  -4   5    3.09    0.11
  -4  -4   5    2.98    0.15
  -4  -4   5    3.04    0.14
  -4   4   5    3.01    0.12
   4   4  -5    3.23    0.16
  -4   4   5    3.13    0.15
  -4   4   5    2.95    0.15
   4   4  -5    3.13    0.17
  -3  -4   5    2.03    0.11
  -3  -4   5    2.19    0.14
  -3  -4   5    2.53    0.13
  -3  -4   5    2.34    0.11
  -3  -4   5    2.03    0.12
  -3  -4   5    2.01    0.12
  -3  -4   5    2.24    0.11
  -3  -4   5    2.22    0.09
   3  -4  -5    2.11    0.12
  -3  -4   5    1.96    0.12
  -3  -4   5    2.16    0.11
  -3   4   5    2.15    0.08
  -3   4   5    2.07    0.11
  -3   4   5    2.11    0.07
  -3   4   5    1.97    0.12
  -3   4   5    2.30    0.09
   3   4  -5    2.11    0.14
   3   4  -5    1.99    0.12
   3   4  -5    2.06    0.12
  -3   4   5    2.11    0.07
  -2  -4   5    6.48    0.21
  -2  -4   5    6.33    0.21
  -2  -4   5    5.92    0.18
  -2  -4   5    6.14    0.19
  -2  -4   5    6.14    0.19
  -2  -4   5    6.00    0.22
  -2  -4   5    6.46    0.21
  -2  -4   5    6.14    0.15
   2  -4  -5    6.14    0.22
  -2   4   5    6.07    0.15
  -2   4   5    6.05    0.16
  -2   4   5    6.14    0.16
   2   4  -5    6.04    0.21
  -2   4   5    5.95    0.21
   2   4  -5    6.09    0.23
  -2   4   5    5.75    0.16
  -2   4   5    5.89    0.19
  -1  -4   5    7.46    0.23
  -1  -4   5    6.86    0.22
  -1  -4   5    6.68    0.21
   1  -4  -5    7.51    0.25
  -1   4   5    6.86    0.17
  -1   4   5    6.56    0.18
  -1   4   5    6.67    0.19
  -1   4   5    6.88    0.21
   1   4  -5    6.92    0.21
   1   4  -5    7.04    0.22
   1   4  -5    6.64    0.23
   1   4  -5    6.49    0.23
   0  -4   5    8.91    0.25
   0  -4  -5    8.54    0.29
   0   4  -5    8.91    0.25
   0   4  -5    8.65    0.27
   0   4  -5    8.61    0.18
   0   4   5    8.61    0.21
   0   4  -5    8.50    0.24
   0   4   5    8.38    0.24
   0   4   5    8.73    0.25
   0   4   5    8.68    0.19
   0   4  -5    8.29    0.22
   0   4  -5    8.59    0.26
   0   4   5    8.23    0.24
   1  -4   5    5.16    0.19
   1  -4   5    5.64    0.22
  -1  -4  -5    5.58    0.18
   1   4   5    5.39    0.14
  -1   4  -5    5.27    0.21
  -1   4  -5    5.27    0.17
  -1   4  -5    5.37    0.18
   1   4   5    5.28    0.16
  -1   4  -5    5.55    0.20
  -1   4  -5    5.45    0.14
  -1   4  -5    5.67    0.20
   1   4   5    5.59    0.19
   1   4   5    5.53    0.17
   1   4   5    5.33    0.19
   2  -4   5    5.13    0.21
  -2  -4  -5    5.55    0.20
  -2  -4  -5    5.41    0.18
  -2  -4  -5    5.41    0.18
  -2   4  -5    5.48    0.21
  -2   4  -5    5.34    0.20
  -2   4  -5    5.44    0.19
  -2   4  -5    5.29    0.16
  -2   4  -5    5.37    0.19
  -2   4  -5    5.44    0.17
  -2   4  -5    5.08    0.19
   2   4   5    5.39    0.19
   2   4   5    5.64    0.20
   2   4   5    5.43    0.18
  -2   4  -5    5.44    0.15
  -3  -4  -5   18.48    0.44
  -3  -4  -5   18.04    0.43
  -3  -4  -5   18.25    0.40
  -3  -4  -5   18.98    0.41
  -3  -4  -5   17.94    0.40
  -3   4  -5   18.00    0.41
  -3   4  -5   17.74    0.43
  -3   4  -5   17.59    0.41
   3   4   5   17.72    0.40
  -3   4  -5   17.94    0.35
  -3   4  -5   17.35    0.41
  -3   4  -5   17.74    0.42
   3   4   5   17.42    0.43
   3   4   5   17.29    0.40
  -3   4  -5   18.14    0.38
  -4  -4  -5   21.84    0.49
  -4  -4  -5   21.66    0.48
  -4  -4  -5   20.25    0.44
  -4  -4  -5   21.68    0.44
  -4  -4  -5   20.96    0.45
  -4  -4  -5   21.60    0.46
  -4   4  -5   21.25    0.48
  -4   4  -5   20.88    0.43
  -4   4  -5   21.19    0.47
  -4   4  -5   21.39    0.44
  -4   4  -5   21.13    0.43
   4   4   5   21.15    0.46
  -4   4  -5   21.34    0.41
  -4   4  -5   21.78    0.47
  -4   4  -5   21.20    0.42
  -4   4  -5   20.91    0.47
  -5  -4  -5    1.79    0.08
  -5  -4  -5    1.75    0.10
  -5  -4  -5    2.01    0.11
  -5  -4  -5    1.97    0.11
  -5  -4  -5    1.88    0.11
  -5  -4  -5    1.73    0.09
   5   4   5    1.74    0.11
  -5   4  -5    1.73    0.09
  -5   4  -5    1.80    0.11
  -5   4  -5    1.76    0.10
  -5   4  -5    1.92    0.08
  -5   4  -5    1.84    0.11
  -6  -4  -5    0.17    0.04
  -6  -4  -5    0.28    0.05
  -6  -4  -5    0.23    0.04
  -6  -4  -5    0.36    0.05
  -6  -4  -5    0.35    0.05
  -6   4  -5    0.30    0.04
  -6   4  -5    0.40    0.05
  -6   4  -5    0.33    0.05
   6   4   5    0.22    0.05
  -6   4  -5    0.34    0.05
  -7  -4  -5    1.94    0.07
  -7  -4  -5    1.88    0.10
  -7  -4  -5    1.94    0.08
  -7  -4  -5    1.88    0.08
  -7   4  -5    1.96    0.09
   7   4   5    1.68    0.09
  -7   4  -5    1.82    0.08
  -7   4  -5    1.84    0.07
  -8  -5   5    4.42    0.16
  -8  -5   5    4.69    0.08
  -8  -5   5    4.58    0.08
  -8  -5   5    4.51    0.13
  -8  -5   5    4.63    0.12
  -8  -5   5    4.75    0.14
  -8   5   5    4.40    0.06
  -8   5   5    4.48    0.16
  -8   5   5    4.59    0.13
   8   5  -5    4.52    0.15
  -7  -5   5    1.69    0.11
  -7  -5   5    1.52    0.09
  -7  -5   5    1.76    0.08
  -7  -5   5    1.62    0.10
  -7  -5   5    1.67    0.07
  -7   5   5    1.60    0.11
  -7   5   5    1.58    0.04
   7   5  -5    1.50    0.10
   7   5  -5    1.50    0.10
  -7   5   5    1.67    0.09
  -6  -5   5    1.54    0.11
  -6  -5   5    1.76    0.10
  -6  -5   5    1.63    0.08
  -6  -5   5    1.61    0.11
  -6  -5   5    1.52    0.09
  -6  -5   5    1.75    0.08
  -6  -5   5    1.77    0.09
  -6   5   5    1.50    0.12
   6   5  -5    1.67    0.12
   6   5  -5    1.55    0.12
  -6   5   5    1.67    0.11
  -6   5   5    1.57    0.09
  -5  -5   5   15.75    0.33
  -5  -5   5   16.07    0.50
  -5  -5   5   17.12    0.41
  -5  -5   5   16.59    0.40
  -5  -5   5   16.45    0.37
  -5  -5   5   17.27    0.41
  -5  -5   5   16.49    0.38
   5   5  -5   15.97    0.40
  -5   5   5   15.57    0.42
   5   5  -5   15.91    0.44
  -5   5   5   15.76    0.33
  -4  -5   5    4.76    0.19
  -4  -5   5    4.44    0.18
  -4  -5   5    4.68    0.23
  -4  -5   5    4.89    0.20
  -4  -5   5    4.61    0.17
  -4  -5   5    4.68    0.15
  -4  -5   5    4.81    0.19
  -4  -5   5    5.07    0.14
  -4   5   5    4.52    0.14
   4   5  -5    4.49    0.18
   4   5  -5    4.48    0.19
  -4   5   5    4.55    0.19
   4   5  -5    4.38    0.21
  -3  -5   5    9.86    0.26
  -3  -5   5   10.07    0.31
  -3  -5   5   10.29    0.30
  -3  -5   5   10.52    0.26
  -3  -5   5    9.95    0.26
  -3  -5   5   10.55    0.30
  -3  -5   5    9.86    0.29
  -3  -5   5   10.06    0.28
   3   5  -5    9.74    0.29
   3   5  -5   10.11    0.33
  -3   5   5   10.09    0.19
  -3   5   5   10.12    0.28
  -3   5   5    9.92    0.24
  -3   5   5   10.19    0.19
   3   5  -5   10.26    0.29
  -3   5   5   10.09    0.31
  -3   5   5    9.97    0.23
  -2  -5   5    7.67    0.25
  -2  -5   5    6.97    0.25
  -2  -5   5    7.18    0.23
  -2  -5   5    7.38    0.23
  -2  -5   5    7.39    0.23
  -2  -5   5    6.96    0.22
  -2  -5   5    7.23    0.25
  -2   5   5    6.85    0.18
   2   5  -5    7.32    0.26
  -2   5   5    7.19    0.24
  -2   5   5    6.95    0.22
   2   5  -5    6.92    0.22
  -2   5   5    6.85    0.18
  -2   5   5    6.89    0.19
   2   5  -5    6.93    0.25
  -2   5   5    6.92    0.18
   2   5  -5    6.99    0.23
  -1  -5   5   19.10    0.44
  -1  -5   5   18.52    0.46
  -1  -5   5   18.64    0.43
  -1  -5   5   19.53    0.44
  -1   5   5   18.87    0.38
   1   5  -5   18.80    0.48
   1   5  -5   18.66    0.48
  -1   5   5   18.77    0.40
  -1   5   5   18.80    0.36
   1   5  -5   18.74    0.46
   1   5  -5   18.67    0.43
  -1   5   5   18.76    0.43
   0  -5   5    8.54    0.26
   0   5   5    8.83    0.20
   0   5   5    8.86    0.21
   0   5   5    8.38    0.26
   0   5   5    8.79    0.22
   0   5  -5    8.48    0.27
   0   5   5    8.77    0.25
   0   5   5    8.34    0.25
   0   5  -5    8.04    0.28
   0   5  -5    8.60    0.25
   0   5  -5    8.89    0.23
   1  -5   5   11.89    0.33
  -1  -5  -5   12.28    0.31
   1   5   5   12.49    0.32
   1   5   5   12.70    0.33
   1   5   5   12.45    0.32
  -1   5  -5   12.52    0.30
  -1   5  -5   12.61    0.34
  -1   5  -5   12.35    0.30
  -1   5  -5   12.62    0.36
  -1   5  -5   11.95    0.33
  -1   5  -5   12.04    0.32
   1   5   5   12.06    0.28
  -1   5  -5   12.04    0.25
   1   5   5   12.34    0.24
   1   5   5   12.48    0.29
  -2  -5  -5    0.38    0.07
  -2  -5  -5    0.41    0.07
   2   5   5    0.42    0.07
  -2   5  -5    0.50    0.07
  -2   5  -5    0.49    0.07
   2   5   5    0.51    0.06
  -2   5  -5    0.46    0.05
   2   5   5    0.48    0.08
  -2   5  -5    0.46    0.08
  -2   5  -5    0.39    0.08
  -2   5  -5    0.43    0.06
  -3  -5  -5   27.09    0.53
  -3  -5  -5   27.03    0.54
  -3  -5  -5   27.83    0.60
  -3  -5  -5   26.97    0.58
  -3  -5  -5   26.71    0.55
   3   5   5   26.02    0.57
  -3   5  -5   26.40    0.52
   3   5   5   26.14    0.53
  -3   5  -5   27.34    0.56
  -3   5  -5   26.59    0.57
  -3   5  -5   26.62    0.56
  -3   5  -5   27.14    0.52
  -3   5  -5   26.50    0.48
  -3   5  -5   26.51    0.53
   3   5   5   25.61    0.55
  -4  -5  -5    3.38    0.13
  -4  -5  -5    3.18    0.15
  -4  -5  -5    3.20    0.15
  -4  -5  -5    3.24    0.14
  -4   5  -5    3.07    0.13
  -4   5  -5    2.88    0.12
  -4   5  -5    3.23    0.11
  -4   5  -5    3.25    0.14
  -4   5  -5    3.05    0.10
  -4   5  -5    3.27    0.15
   4   5   5    3.20    0.14
   4   5   5    3.17    0.14
   4   5   5    3.17    0.15
  -4   5  -5    3.15    0.10
  -5  -5  -5    2.04    0.10
  -5  -5  -5    1.76    0.10
  -5  -5  -5    1.98    0.11
  -5  -5  -5    1.89    0.10
   5   5   5    1.76    0.10
  -5   5  -5    1.71    0.09
  -5   5  -5    1.79    0.10
  -5   5  -5    1.74    0.10
  -5   5  -5    1.88    0.08
  -6  -5  -5    1.28    0.08
  -6  -5  -5    1.21    0.09
  -6  -5  -5    1.11    0.07
  -6  -5  -5    1.20    0.08
  -6  -5  -5    1.20    0.07
  -6   5  -5    1.19    0.08
  -6   5  -5    1.27    0.07
   6   5   5    1.18    0.08
  -6   5  -5    1.08    0.06
  -7  -6   5    2.35    0.11
  -7  -6   5    2.19    0.10
  -7  -6   5    2.18    0.09
   7   6  -5    2.11    0.11
   7   6  -5    2.26    0.11
  -7   6   5    2.05    0.11
  -6  -6   5    0.74    0.06
  -6  -6   5    0.91    0.08
  -6  -6   5    0.79    0.07
  -6  -6   5    0.62    0.07
  -6  -6   5    0.80    0.07
   6   6  -5    0.75    0.08
  -6   6   5    0.64    0.08
   6   6  -5    0.85    0.08
   6   6  -5    0.68    0.08
  -5  -6   5    2.35    0.11
  -5  -6   5    2.23    0.13
  -5  -6   5    2.13    0.12
  -5  -6   5    2.69    0.12
  -5  -6   5    2.20    0.12
   5   6  -5    2.24    0.14
   5   6  -5    2.08    0.12
  -5   6   5    2.23    0.13
  -5   6   5    2.01    0.08
   5   6  -5    2.14    0.13
   5   6  -5    2.13    0.12
  -4  -6   5    1.22    0.08
  -4  -6   5    1.37    0.12
  -4  -6   5    1.33    0.08
  -4  -6   5    1.32    0.11
  -4  -6   5    1.45    0.12
  -4  -6   5    1.35    0.12
  -4   6   5    1.24    0.07
   4   6  -5    1.45    0.12
  -4   6   5    1.34    0.07
   4   6  -5    1.13    0.11
  -4   6   5    1.07    0.11
   4   6  -5    1.39    0.14
   4   6  -5    1.43    0.12
  -3  -6   5    0.74    0.09
  -3  -6   5    0.81    0.10
  -3  -6   5    0.89    0.10
  -3  -6   5    0.84    0.08
  -3  -6   5    0.65    0.09
  -3   6   5    0.74    0.07
   3   6  -5    0.78    0.09
   3   6  -5    0.65    0.08
  -3   6   5    0.77    0.06
   3   6  -5    0.74    0.11
  -3   6   5    0.79    0.09
  -2  -6   5   20.94    0.52
  -2  -6   5   21.94    0.51
  -2  -6   5   21.54    0.47
  -2  -6   5   21.79    0.48
  -2  -6   5   22.02    0.47
  -2  -6   5   22.41    0.49
  -2   6   5   20.92    0.40
  -2   6   5   21.29    0.51
   2   6  -5   20.87    0.50
  -2   6   5   20.82    0.40
  -2   6   5   21.30    0.46
   2   6  -5   21.22    0.47
  -2   6   5   21.43    0.39
  -2   6   5   21.16    0.42
   2   6  -5   21.54    0.54
  -1  -6   5   18.38    0.41
  -1  -6   5   17.75    0.45
  -1  -6   5   18.00    0.42
  -1   6   5   18.22    0.41
   1   6  -5   17.40    0.40
   1   6  -5   17.91    0.44
   1   6  -5   16.74    0.45
   1   6  -5   17.44    0.46
  -1   6   5   17.88    0.37
  -1   6   5   18.07    0.38
  -1   6   5   17.97    0.37
  -1   6   5   17.85    0.34
   0  -6   5    9.08    0.27
   0  -6  -5    9.17    0.26
   0   6  -5    8.74    0.23
   0   6   5    8.42    0.22
   0   6  -5    8.58    0.27
   0   6   5    8.46    0.25
   0   6  -5    8.47    0.28
   0   6   5    8.64    0.19
   0   6   5    8.58    0.24
  -1  -6  -5    7.83    0.24
   1  -6   5    7.97    0.25
  -1   6  -5    7.55    0.19
  -1   6  -5    8.27    0.27
   1   6   5    7.64    0.19
   1   6   5    7.93    0.24
   1   6   5    7.65    0.23
  -1   6  -5    7.56    0.24
  -1   6  -5    7.16    0.21
  -1   6  -5    7.64    0.23
   1   6   5    7.70    0.20
   2  -6   5    9.27    0.28
  -2  -6  -5    9.56    0.28
  -2  -6  -5    9.80    0.24
  -2  -6  -5    9.60    0.26
   2   6   5    9.67    0.28
  -2   6  -5    9.63    0.25
   2   6   5    9.05    0.25
  -2   6  -5    9.49    0.20
   2   6   5    9.52    0.23
  -2   6  -5    9.88    0.28
  -2   6  -5    9.93    0.27
   2   6   5    9.71    0.27
  -2   6  -5    9.78    0.26
  -3  -6  -5    6.41    0.19
  -3  -6  -5    6.32    0.21
  -3   6  -5    5.88    0.16
  -3   6  -5    5.68    0.15
   3   6   5    5.90    0.17
  -3   6  -5    5.66    0.18
  -3   6  -5    6.11    0.18
  -3   6  -5    5.61    0.21
  -3   6  -5    5.54    0.19
   3   6   5    5.86    0.20
  -3   6  -5    5.90    0.14
  -4  -6  -5    0.12    0.03
  -4  -6  -5    0.04    0.04
  -4  -6  -5    0.07    0.04
   4   6   5    0.09    0.04
   4   6   5    0.10    0.04
  -4   6  -5    0.09    0.04
  -4   6  -5    0.07    0.02
  -4   6  -5    0.10    0.03
  -5  -6  -5    2.37    0.10
  -5  -6  -5    2.33    0.11
   5   6   5    2.18    0.10
  -5   6  -5    2.23    0.09
   5   6   5    1.95    0.10
  -5   6  -5    2.20    0.07
  -5   6  -5    2.10    0.09
  -6  -7   5    6.15    0.17
  -6   7   5    5.29    0.17
  -5  -7   5    0.34    0.05
  -5  -7   5    0.21    0.05
  -5  -7   5    0.36    0.06
  -5  -7   5    0.30    0.05
   5   7  -5    0.27    0.05
   5   7  -5    0.18    0.05
  -5   7   5    0.35    0.04
  -5   7   5    0.28    0.03
  -5   7   5    0.24    0.06
   5   7  -5    0.28    0.05
  -4  -7   5    1.16    0.09
  -4  -7   5    1.16    0.09
  -4  -7   5    1.27    0.10
  -4  -7   5    1.17    0.10
  -4   7   5    1.12    0.06
   4   7  -5    1.10    0.09
  -4   7   5    1.12    0.06
  -4   7   5    1.01    0.09
   4   7  -5    1.16    0.08
  -3  -7   5    4.75    0.17
  -3  -7   5    5.28    0.20
  -3  -7   5    5.02    0.18
  -3  -7   5    5.38    0.15
  -3  -7   5    5.30    0.18
  -3   7   5    4.88    0.14
   3   7  -5    5.00    0.17
  -3   7   5    4.76    0.13
   3   7  -5    4.75    0.18
  -3   7   5    4.87    0.18
  -2  -7   5    2.87    0.13
  -2  -7   5    2.92    0.12
  -2  -7   5    2.90    0.15
  -2  -7   5    2.77    0.15
   2   7  -5    2.37    0.11
  -2   7   5    2.74    0.11
   2   7  -5    2.22    0.14
   2   7  -5    2.99    0.15
  -2   7   5    2.60    0.09
  -1  -7   5    4.05    0.18
  -1  -7   5    3.84    0.16
  -1   7   5    3.73    0.11
  -1   7   5    3.82    0.11
  -1   7   5    4.02    0.13
   1   7  -5    4.02    0.17
   1   7  -5    3.63    0.13
   1   7  -5    3.92    0.18
   0  -7   5    1.79    0.11
   0  -7  -5    1.65    0.10
   0  -7   5    1.57    0.11
   0   7   5    1.61    0.08
   0   7   5    1.72    0.08
   0   7  -5    1.55    0.12
   0   7   5    1.59    0.08
   0   7  -5    1.70    0.11
   1  -7   5    7.77    0.23
  -1  -7  -5    7.95    0.22
   1  -7   5    7.72    0.23
  -1   7  -5    7.45    0.23
   1   7   5    7.97    0.21
  -1   7  -5    7.93    0.21
  -2  -7  -5    2.41    0.11
   2  -7   5    2.43    0.12
  -2   7  -5    2.40    0.09
  -2   7  -5    2.57    0.11
  -2   7  -5    2.26    0.08
  -2   7  -5    2.32    0.13
   2   7   5    2.46    0.11
  -2   7  -5    2.37    0.10
  -3  -7  -5    0.69    0.07
  -3  -7  -5    0.61    0.06
  -3   7  -5    0.58    0.06
   3   7   5    0.63    0.07
  -3   7  -5    0.58    0.05
  -2  -8   5    2.80    0.12
  -2  -8   5    2.80    0.10
   2   8  -5    2.71    0.12
  -2   8   5    2.84    0.09
  -1  -8   5    3.57    0.12
  -1   8   5    2.90    0.09
   1   8  -5    2.93    0.11
   1   8  -5    2.96    0.13
   0  -8   5    0.40    0.06
   0  -8  -5    0.40    0.05
   0   8  -5    0.44    0.06
 -10   0   6    1.76    0.04
 -10   0   6    1.86    0.10
  -9   0   6   14.71    0.36
  -9   0   6   14.65    0.17
  -9   0   6   14.55    0.37
  -9   0   6   15.21    0.37
  -8   0   6    4.49    0.20
  -8   0   6    4.54    0.19
  -8   0   6    4.61    0.07
  -8   0   6    4.97    0.20
  -8   0   6    4.69    0.19
  -7   0   6   32.75    0.71
  -7   0   6   31.82    0.72
  -7   0   6   32.54    0.68
  -7   0   6   32.68    0.67
  -7   0   6   33.05    0.70
  -7   0   6   32.49    0.35
  -6   0   6   14.97    0.40
  -6   0   6   14.91    0.37
   6   0  -6   15.07    0.35
  -6   0   6   15.01    0.38
  -6   0   6   15.10    0.40
  -6   0   6   15.38    0.17
  -6   0   6   15.78    0.39
   5   0  -6    1.82    0.09
  -5   0   6    2.12    0.12
  -5   0   6    1.84    0.11
  -5   0   6    1.96    0.04
  -5   0   6    1.98    0.12
  -5   0   6    2.02    0.06
  -5   0   6    1.88    0.12
  -5   0   6    2.04    0.12
  -4   0   6  118.78    1.87
   4   0  -6  118.78    2.20
  -3   0   6  187.95    4.09
   3   0  -6  193.04    3.48
   2   0  -6   11.80    0.30
  -2   0   6   11.86    0.33
   1   0  -6   24.29    0.53
  -1   0   6   24.62    0.62
   0   0  -6   68.20    1.61
   0   0  -6   69.70    1.35
   0   0   6   71.33    1.61
   1   0   6   33.11    0.83
  -1   0  -6   32.02    0.83
  -2   0  -6    6.19    0.14
  -2   0  -6    6.16    0.19
  -3   0  -6    1.05    0.08
   3   0   6    0.98    0.09
  -3   0  -6    0.93    0.09
  -3   0  -6    0.91    0.07
  -3   0  -6    0.84    0.05
  -3   0  -6    0.67    0.08
  -3   0  -6    0.75    0.08
   3   0   6    0.85    0.09
  -3   0  -6    0.84    0.09
  -4   0  -6    1.00    0.08
  -4   0  -6    1.03    0.06
  -4   0  -6    1.12    0.11
  -4   0  -6    1.14    0.10
  -4   0  -6    0.89    0.09
  -4   0  -6    1.32    0.09
  -4   0  -6    1.01    0.08
  -5   0  -6    0.09    0.03
  -5   0  -6    0.11    0.05
  -5   0  -6    0.10    0.04
  -5   0  -6    0.11    0.04
  -5   0  -6    0.14    0.05
  -5   0  -6    0.10    0.05
  -6   0  -6   28.36    0.50
  -6   0  -6   27.66    0.52
  -6   0  -6   27.60    0.55
  -6   0  -6   26.93    0.56
  -6   0  -6   28.27    0.49
  -6   0  -6   27.09    0.55
  -6   0  -6   27.64    0.55
  -7   0  -6    0.98    0.08
  -7   0  -6    0.95    0.07
  -7   0  -6    0.87    0.05
  -7   0  -6    1.01    0.08
  -7   0  -6    0.99    0.07
 -10  -1   6    5.01    0.17
 -10   1   6    5.06    0.17
 -10   1   6    5.02    0.06
 -10   1   6    5.02    0.06
 -10   1   6    4.89    0.16
  -9  -1   6   10.03    0.27
  -9  -1   6   10.73    0.29
  -9   1   6    9.96    0.28
  -9   1   6   10.27    0.12
  -9   1   6   10.31    0.12
  -9   1   6   10.45    0.29
  -9   1   6   10.39    0.30
  -8  -1   6   11.71    0.32
  -8  -1   6   11.82    0.33
  -8  -1   6   11.28    0.32
  -8  -1   6   12.14    0.35
  -8   1   6   11.70    0.14
  -8   1   6   11.83    0.13
  -8   1   6   11.61    0.32
  -8   1   6   12.01    0.33
  -8   1   6   11.49    0.33
  -8   1   6   11.86    0.34
  -7  -1   6   55.70    1.05
  -7  -1   6   57.33    1.07
  -7  -1   6   56.06    1.12
  -7  -1   6   56.01    1.07
  -7   1   6   56.09    0.56
  -7   1   6   56.72    1.06
  -7   1   6   55.65    1.10
  -7   1   6   55.68    1.14
  -7   1   6   55.93    0.56
  -7   1   6   56.11    0.93
  -7   1   6   56.72    1.07
  -7   1   6   55.71    1.09
  -6  -1   6    0.33    0.07
  -6  -1   6    0.43    0.07
  -6  -1   6    0.42    0.03
  -6  -1   6    0.44    0.08
  -6  -1   6    0.34    0.06
  -6  -1   6    0.35    0.03
  -6  -1   6    0.50    0.07
  -6   1   6    0.40    0.06
  -6   1   6    0.44    0.07
  -6   1   6    0.55    0.08
  -6   1   6    0.50    0.08
  -6   1   6    0.38    0.02
  -6   1   6    0.45    0.08
  -6   1   6    0.35    0.02
  -6   1   6    0.34    0.07
  -5  -1   6    6.12    0.20
  -5  -1   6    6.23    0.18
  -5  -1   6    6.01    0.16
  -5  -1   6    6.44    0.23
  -5  -1   6    6.00    0.21
  -5  -1   6    6.33    0.13
  -5  -1   6    6.29    0.21
  -5  -1   6    6.12    0.13
   5  -1  -6    6.16    0.18
  -5  -1   6    6.06    0.22
  -5  -1   6    6.53    0.13
  -5   1   6    6.38    0.22
  -5   1   6    6.54    0.21
  -5   1   6    6.49    0.21
  -5   1   6    6.43    0.08
   5   1  -6    6.38    0.20
  -5   1   6    6.54    0.09
  -5   1   6    6.40    0.22
  -5   1   6    6.37    0.18
  -5   1   6    6.18    0.11
  -5   1   6    6.46    0.23
  -4  -1   6   13.09    0.27
  -4  -1   6   12.65    0.31
   4  -1  -6   13.39    0.31
  -4   1   6   13.89    0.34
   4   1  -6   13.86    0.33
  -4   1   6   12.88    0.23
  -4   1   6   13.44    0.23
  -4   1   6   13.38    0.36
  -3  -1   6   52.00    1.20
   3  -1  -6   53.72    1.03
   3   1  -6   54.69    1.07
   2  -1  -6   33.71    0.68
  -2  -1   6   32.01    0.79
  -2   1   6   31.87    0.75
   2   1  -6   30.53    0.65
  -1  -1   6   82.60    1.92
   1  -1  -6   87.79    1.63
   1   1  -6   81.41    1.52
   1   1  -6   76.71    1.81
   1   1  -6   79.16    1.81
  -1   1   6   80.40    1.79
   0  -1  -6  106.08    2.04
   0  -1  -6  108.64    2.43
   0  -1   6  108.46    2.41
   0   1   6  108.62    2.42
   0   1  -6  106.78    2.03
   0   1  -6  107.91    2.42
  -1  -1  -6   17.84    0.53
   1  -1   6   17.56    0.51
   1   1   6   17.28    0.51
  -1   1  -6   17.03    0.50
  -1   1  -6   17.28    0.37
  -2  -1  -6    1.42    0.09
  -2  -1  -6    1.38    0.09
   2  -1   6    1.43    0.10
  -2  -1  -6    1.46    0.09
  -2  -1  -6    1.36    0.09
  -2   1  -6    1.30    0.06
  -2   1  -6    1.31    0.09
  -2   1  -6    1.30    0.09
  -2   1  -6    1.34    0.09
  -2   1  -6    1.36    0.09
  -2   1  -6    1.42    0.09
  -3  -1  -6   16.47    0.37
   3  -1   6   15.89    0.42
  -3  -1  -6   16.45    0.35
  -3  -1  -6   16.21    0.30
  -3  -1  -6   16.22    0.39
  -3  -1  -6   15.83    0.33
  -3  -1  -6   16.17    0.38
  -3  -1  -6   15.99    0.36
  -3   1  -6   16.34    0.38
   3   1   6   16.46    0.38
  -3   1  -6   16.07    0.37
  -3   1  -6   16.10    0.31
  -3   1  -6   16.45    0.35
  -3   1  -6   16.20    0.38
  -3   1  -6   16.34    0.34
  -3   1  -6   16.80    0.39
  -4  -1  -6   46.32    0.90
  -4  -1  -6   47.33    0.77
  -4  -1  -6   47.79    0.86
  -4  -1  -6   47.70    0.81
  -4  -1  -6   46.67    0.86
  -4  -1  -6   46.87    0.88
  -4  -1  -6   46.48    0.83
  -4   1  -6   47.66    0.79
  -4   1  -6   48.08    0.87
   4   1   6   46.47    0.88
  -4   1  -6   48.36    0.92
  -4   1  -6   47.71    0.88
  -4   1  -6   47.24    0.82
  -4   1  -6   47.63    0.89
  -5  -1  -6   18.43    0.41
  -5  -1  -6   18.88    0.43
  -5  -1  -6   18.78    0.41
  -5  -1  -6   18.31    0.42
  -5  -1  -6   18.49    0.35
  -5  -1  -6   18.47    0.38
  -5   1  -6   18.75    0.39
  -5   1  -6   18.73    0.42
  -5   1  -6   18.20    0.39
  -5   1  -6   18.13    0.39
  -5   1  -6   18.33    0.42
  -5   1  -6   18.67    0.43
  -5   1  -6   18.20    0.36
  -6  -1  -6   15.46    0.36
  -6  -1  -6   15.99    0.30
  -6  -1  -6   15.75    0.36
  -6  -1  -6   16.05    0.35
  -6  -1  -6   16.12    0.36
  -6  -1  -6   16.14    0.33
  -6  -1  -6   15.45    0.32
  -6  -1  -6   15.68    0.33
  -6   1  -6   15.73    0.30
  -6   1  -6   16.08    0.30
  -6   1  -6   15.87    0.31
  -6   1  -6   15.94    0.34
  -6   1  -6   15.89    0.36
  -6   1  -6   15.79    0.38
  -6   1  -6   15.73    0.36
  -6   1  -6   15.98    0.35
  -7  -1  -6    0.39    0.05
  -7  -1  -6    0.36    0.04
  -7  -1  -6    0.36    0.05
  -7  -1  -6    0.28    0.03
  -7  -1  -6    0.29    0.05
  -7   1  -6    0.38    0.05
  -7   1  -6    0.32    0.05
  -7   1  -6    0.39    0.06
  -7   1  -6    0.31    0.03
  -7   1  -6    0.37    0.05
 -10  -2   6    0.90    0.08
 -10   2   6    0.96    0.08
 -10   2   6    1.04    0.09
  -9  -2   6    3.40    0.15
  -9   2   6    2.95    0.15
  -9   2   6    3.08    0.15
  -9   2   6    3.12    0.14
  -8  -2   6    4.55    0.18
  -8  -2   6    4.79    0.15
  -8  -2   6    5.08    0.21
  -8   2   6    4.85    0.16
  -8   2   6    4.77    0.06
  -8   2   6    4.71    0.19
  -8   2   6    4.63    0.19
  -8   2   6    4.48    0.20
  -8   2   6    4.80    0.06
  -8   2   6    5.22    0.20
  -7  -2   6    1.78    0.12
  -7  -2   6    1.65    0.11
  -7  -2   6    1.65    0.09
  -7  -2   6    1.72    0.05
  -7  -2   6    1.61    0.12
  -7  -2   6    1.66    0.05
  -7   2   6    1.68    0.03
  -7   2   6    1.53    0.11
  -7   2   6    1.67    0.12
  -7   2   6    1.67    0.03
  -7   2   6    1.72    0.12
  -7   2   6    1.85    0.12
  -7   2   6    1.74    0.10
  -6  -2   6   14.05    0.39
  -6  -2   6   14.36    0.24
  -6  -2   6   13.67    0.39
  -6  -2   6   14.24    0.36
  -6  -2   6   14.11    0.35
  -6  -2   6   14.04    0.31
  -6  -2   6   14.39    0.33
  -6   2   6   14.26    0.39
  -6   2   6   13.81    0.37
  -6   2   6   14.01    0.15
  -6   2   6   14.09    0.37
  -6   2   6   14.44    0.37
  -6   2   6   13.63    0.32
  -5  -2   6   22.97    0.54
  -5  -2   6   24.34    0.56
  -5  -2   6   23.25    0.45
  -5  -2   6   22.49    0.48
  -5  -2   6   22.92    0.49
  -5  -2   6   23.34    0.47
  -5  -2   6   23.18    0.43
   5  -2  -6   21.99    0.49
  -5  -2   6   23.14    0.50
  -5  -2   6   23.06    0.47
  -5   2   6   23.23    0.52
  -5   2   6   23.33    0.44
   5   2  -6   23.29    0.52
  -5   2   6   23.09    0.25
  -5   2   6   22.97    0.30
  -5   2   6   23.39    0.55
  -5   2   6   22.36    0.50
  -5   2   6   22.64    0.50
  -4  -2   6   15.20    0.33
  -4  -2   6   14.98    0.40
  -4  -2   6   15.45    0.36
  -4  -2   6   15.18    0.38
  -4  -2   6   15.11    0.30
  -4  -2   6   15.27    0.35
  -4  -2   6   15.54    0.33
  -4  -2   6   15.27    0.39
   4  -2  -6   15.52    0.36
  -4  -2   6   15.37    0.35
  -4  -2   6   15.04    0.32
   4   2  -6   15.19    0.37
  -4   2   6   14.94    0.36
  -4   2   6   15.15    0.37
  -4   2   6   15.26    0.32
  -4   2   6   15.29    0.39
  -4   2   6   14.93    0.18
  -4   2   6   14.96    0.35
  -3  -2   6    5.74    0.18
   3  -2  -6    5.84    0.19
  -3   2   6    5.68    0.14
  -3   2   6    5.72    0.18
   3   2  -6    6.24    0.20
   2  -2  -6   11.58    0.31
  -2  -2   6   11.84    0.36
   2   2  -6   11.99    0.31
  -2   2   6   12.62    0.34
  -1  -2   6    7.37    0.27
   1  -2  -6    7.63    0.23
   1   2  -6    7.62    0.23
   1   2  -6    7.26    0.27
  -1   2   6    7.66    0.26
   0  -2   6    7.53    0.28
   0  -2  -6    7.57    0.24
   0   2  -6    7.28    0.27
   0   2  -6    7.41    0.21
   0   2  -6    7.03    0.27
  -1   2  -6    3.73    0.10
   1   2   6    3.84    0.10
  -1   2  -6    3.70    0.14
  -2  -2  -6    1.68    0.10
   2  -2   6    1.70    0.11
  -2  -2  -6    1.74    0.11
  -2  -2  -6    1.49    0.09
  -2  -2  -6    1.57    0.10
   2  -2   6    1.67    0.10
  -2  -2  -6    1.62    0.11
  -2   2  -6    1.67    0.09
  -2   2  -6    1.67    0.07
   2   2   6    1.57    0.10
  -2   2  -6    1.72    0.11
  -2   2  -6    1.67    0.09
  -2   2  -6    1.70    0.10
  -2   2  -6    1.67    0.11
   2   2   6    1.45    0.10
  -2   2  -6    1.51    0.10
  -3  -2  -6   15.79    0.33
  -3  -2  -6   15.81    0.36
  -3  -2  -6   15.82    0.39
  -3  -2  -6   15.72    0.38
  -3  -2  -6   15.43    0.35
   3  -2   6   15.66    0.42
  -3  -2  -6   16.40    0.37
  -3   2  -6   15.98    0.34
  -3   2  -6   15.81    0.31
   3   2   6   15.82    0.37
  -3   2  -6   15.81    0.39
  -3   2  -6   16.13    0.38
  -3   2  -6   15.75    0.38
  -3   2  -6   15.77    0.37
  -3   2  -6   15.81    0.34
  -4  -2  -6    1.08    0.10
  -4  -2  -6    1.24    0.08
  -4  -2  -6    1.25    0.10
  -4  -2  -6    1.12    0.08
  -4  -2  -6    1.23    0.10
  -4  -2  -6    0.97    0.10
  -4  -2  -6    1.22    0.06
   4   2   6    1.14    0.10
  -4   2  -6    0.97    0.10
  -4   2  -6    1.08    0.11
  -4   2  -6    1.27    0.08
  -4   2  -6    1.06    0.10
  -4   2  -6    1.12    0.07
  -4   2  -6    1.37    0.10
  -5  -2  -6   11.00    0.26
  -5  -2  -6   11.19    0.30
  -5  -2  -6   11.05    0.22
  -5  -2  -6   10.90    0.28
  -5  -2  -6   10.78    0.29
  -5  -2  -6   11.18    0.29
  -5   2  -6   10.85    0.27
   5   2   6   11.00    0.30
  -5   2  -6   11.15    0.24
  -5   2  -6   11.29    0.29
  -5   2  -6   11.09    0.29
  -5   2  -6   10.87    0.31
  -5   2  -6   11.09    0.29
  -5   2  -6   11.19    0.26
  -5   2  -6   10.53    0.26
  -6  -2  -6    7.05    0.21
  -6  -2  -6    7.24    0.21
  -6  -2  -6    7.20    0.19
  -6  -2  -6    7.25    0.21
  -6  -2  -6    7.06    0.18
  -6  -2  -6    6.76    0.16
  -6  -2  -6    7.08    0.19
  -6  -2  -6    7.02    0.21
  -6   2  -6    6.98    0.19
   6   2   6    6.67    0.21
  -6   2  -6    6.62    0.20
  -6   2  -6    7.28    0.23
  -6   2  -6    7.02    0.17
  -6   2  -6    6.95    0.20
  -6   2  -6    6.96    0.17
  -7  -2  -6    1.22    0.07
  -7  -2  -6    1.13    0.06
  -7  -2  -6    1.28    0.08
  -7   2  -6    1.21    0.06
  -7   2  -6    1.06    0.07
  -7   2  -6    1.08    0.07
  -7   2  -6    1.21    0.07
  -7   2  -6    1.19    0.09
  -9  -3   6    0.26    0.04
  -9  -3   6    0.21    0.03
  -9  -3   6    0.21    0.05
  -9   3   6    0.25    0.05
  -9   3   6    0.29    0.06
  -9   3   6    0.26    0.06
  -8  -3   6    3.13    0.12
  -8  -3   6    2.99    0.11
  -8  -3   6    3.15    0.14
  -8  -3   6    3.06    0.15
  -8   3   6    2.83    0.14
   8   3  -6    2.90    0.14
  -8   3   6    3.41    0.16
  -8   3   6    2.97    0.05
  -8   3   6    2.97    0.12
  -8   3   6    3.13    0.15
  -8   3   6    2.87    0.15
  -8   3   6    3.03    0.05
  -7  -3   6   19.28    0.38
  -7  -3   6   19.41    0.30
  -7  -3   6   19.47    0.41
  -7  -3   6   18.95    0.48
  -7  -3   6   19.05    0.45
  -7  -3   6   19.55    0.40
  -7   3   6   19.38    0.21
  -7   3   6   19.20    0.49
  -7   3   6   19.39    0.47
  -7   3   6   19.41    0.47
  -7   3   6   19.62    0.40
   7   3  -6   18.93    0.48
  -7   3   6   19.37    0.46
  -6  -3   6   13.57    0.33
  -6  -3   6   13.34    0.34
  -6  -3   6   14.04    0.31
  -6  -3   6   13.42    0.34
  -6  -3   6   13.96    0.30
  -6  -3   6   13.44    0.26
  -6  -3   6   13.69    0.32
  -6  -3   6   13.90    0.35
  -6  -3   6   13.83    0.38
  -6  -3   6   13.75    0.26
  -6   3   6   13.75    0.37
  -6   3   6   13.82    0.16
  -6   3   6   13.30    0.38
  -6   3   6   13.97    0.36
  -6   3   6   13.74    0.32
   6   3  -6   13.54    0.39
  -6   3   6   13.48    0.37
  -5  -3   6    1.69    0.11
  -5  -3   6    1.73    0.11
  -5  -3   6    1.73    0.09
  -5  -3   6    1.67    0.09
  -5  -3   6    1.70    0.11
  -5  -3   6    1.97    0.12
  -5  -3   6    1.82    0.09
  -5  -3   6    1.50    0.12
  -5  -3   6    1.65    0.10
  -5  -3   6    1.59    0.09
  -5   3   6    1.82    0.12
  -5   3   6    1.82    0.12
  -5   3   6    1.49    0.09
  -5   3   6    1.67    0.12
  -5   3   6    1.82    0.13
  -5   3   6    1.74    0.04
  -4  -3   6   11.47    0.31
  -4  -3   6   11.67    0.31
  -4  -3   6   11.91    0.33
  -4  -3   6   12.32    0.28
  -4  -3   6   12.14    0.30
  -4  -3   6   11.93    0.29
  -4  -3   6   12.07    0.26
  -4  -3   6   11.57    0.31
   4  -3  -6   11.78    0.31
  -4  -3   6   11.92    0.31
  -4   3   6   11.76    0.27
  -4   3   6   11.45    0.31
   4   3  -6   11.64    0.33
  -4   3   6   11.48    0.30
  -4   3   6   12.02    0.31
  -4   3   6   11.18    0.31
  -4   3   6   11.77    0.19
  -4   3   6   11.87    0.33
  -3  -3   6    0.10    0.04
  -3  -3   6    0.07    0.04
  -3  -3   6    0.15    0.04
  -3  -3   6    0.16    0.05
  -3  -3   6    0.12    0.03
  -3  -3   6    0.08    0.04
  -3  -3   6    0.16    0.05
   3  -3  -6    0.10    0.04
  -3  -3   6    0.11    0.05
  -3   3   6    0.14    0.03
  -3   3   6    0.11    0.03
  -3   3   6    0.12    0.02
  -3   3   6    0.13    0.05
  -3   3   6    0.09    0.05
   3   3  -6    0.09    0.03
  -2  -3   6    0.20    0.05
  -2  -3   6    0.18    0.03
  -2  -3   6    0.11    0.05
  -2  -3   6    0.09    0.04
  -2  -3   6    0.13    0.04
  -2  -3   6    0.14    0.05
   2  -3  -6    0.11    0.04
  -2  -3   6    0.39    0.06
  -2  -3   6    0.14    0.05
  -2   3   6    0.16    0.03
  -2   3   6    0.17    0.04
  -2   3   6    0.10    0.03
  -2   3   6    0.19    0.05
   2   3  -6    0.17    0.04
  -2   3   6    0.16    0.03
  -1  -3   6   62.50    1.15
  -1  -3   6   61.26    1.20
  -1  -3   6   64.89    1.13
  -1  -3   6   65.37    1.11
   1  -3  -6   65.12    1.28
  -1  -3   6   63.05    1.01
  -1   3   6   64.07    1.04
   1   3  -6   62.20    1.12
  -1   3   6   65.06    1.12
  -1   3   6   63.80    1.13
  -1   3   6   64.59    1.02
   0  -3   6    6.51    0.20
   0  -3   6    6.52    0.21
   0  -3   6    6.35    0.22
   0  -3  -6    6.47    0.24
   0  -3   6    6.77    0.23
   0  -3   6    6.85    0.22
   0   3   6    6.75    0.18
   0   3  -6    6.56    0.23
   0   3   6    6.66    0.18
   0   3  -6    6.74    0.21
   0   3  -6    6.30    0.22
   0   3   6    6.55    0.16
   0   3  -6    7.05    0.21
   0   3   6    6.77    0.20
   1  -3   6   14.56    0.35
  -1  -3  -6   14.72    0.34
  -1   3  -6   14.52    0.38
  -1   3  -6   14.82    0.28
  -1   3  -6   14.34    0.32
  -1   3  -6   15.34    0.35
   1   3   6   14.94    0.28
   1   3   6   14.73    0.36
  -1   3  -6   14.98    0.37
   1   3   6   14.77    0.33
  -1   3  -6   15.34    0.36
   1   3   6   14.96    0.31
  -2  -3  -6   14.51    0.33
  -2  -3  -6   14.63    0.34
  -2  -3  -6   14.04    0.36
   2  -3   6   14.49    0.36
  -2  -3  -6   13.89    0.33
   2   3   6   14.23    0.36
  -2   3  -6   13.82    0.35
  -2   3  -6   13.72    0.34
  -2   3  -6   14.23    0.33
   2   3   6   14.07    0.33
  -2   3  -6   14.48    0.28
  -2   3  -6   14.27    0.32
  -2   3  -6   14.26    0.36
  -3  -3  -6   45.51    0.88
  -3  -3  -6   43.39    0.81
  -3  -3  -6   44.96    0.81
  -3  -3  -6   44.79    0.82
  -3  -3  -6   44.20    0.85
  -3   3  -6   45.15    0.74
  -3   3  -6   44.83    0.88
  -3   3  -6   45.69    0.85
  -3   3  -6   45.09    0.84
  -3   3  -6   43.94    0.83
   3   3   6   43.99    0.82
   3   3   6   43.05    0.86
  -3   3  -6   42.36    0.78
  -4  -3  -6   25.76    0.56
  -4  -3  -6   24.91    0.53
  -4  -3  -6   24.98    0.49
  -4  -3  -6   25.53    0.52
  -4  -3  -6   24.58    0.51
  -4  -3  -6   25.14    0.48
  -4   3  -6   25.82    0.49
  -4   3  -6   24.50    0.55
  -4   3  -6   25.15    0.51
  -4   3  -6   24.96    0.54
   4   3   6   25.49    0.53
  -4   3  -6   25.35    0.46
  -4   3  -6   25.78    0.54
  -4   3  -6   24.90    0.51
  -5  -3  -6   11.40    0.29
  -5  -3  -6   11.19    0.28
  -5  -3  -6   11.55    0.26
  -5  -3  -6   11.42    0.30
  -5  -3  -6   11.13    0.29
  -5   3  -6   11.74    0.27
   5   3   6   11.18    0.30
  -5   3  -6   11.23    0.31
  -5   3  -6   11.57    0.30
  -5   3  -6   11.39    0.28
  -5   3  -6   11.32    0.24
  -5   3  -6   11.22    0.24
  -5   3  -6   11.60    0.24
  -5   3  -6   11.25    0.29
  -6  -3  -6    2.38    0.09
  -6  -3  -6    2.43    0.11
  -6  -3  -6    2.25    0.09
  -6  -3  -6    2.30    0.11
  -6  -3  -6    2.31    0.10
  -6  -3  -6    2.28    0.11
  -6   3  -6    2.15    0.11
  -6   3  -6    2.21    0.10
  -6   3  -6    2.27    0.12
  -6   3  -6    2.18    0.11
   6   3   6    2.30    0.11
  -6   3  -6    2.25    0.08
  -7  -3  -6    1.99    0.08
  -7   3  -6    2.18    0.09
  -7   3  -6    2.11    0.07
  -9  -4   6    0.56    0.05
  -9  -4   6    0.72    0.07
  -9  -4   6    0.60    0.05
  -8  -4   6    3.97    0.15
  -8  -4   6    3.68    0.13
  -8  -4   6    4.00    0.12
  -8   4   6    3.71    0.06
  -8   4   6    3.78    0.15
  -8   4   6    3.90    0.15
   8   4  -6    3.70    0.15
  -8   4   6    3.54    0.15
  -7  -4   6    4.17    0.17
  -7  -4   6    3.99    0.14
  -7  -4   6    3.74    0.13
  -7  -4   6    4.03    0.17
  -7  -4   6    3.78    0.15
  -7  -4   6    3.82    0.10
  -7   4   6    3.56    0.16
  -7   4   6    3.55    0.06
   7   4  -6    3.67    0.16
  -7   4   6    3.82    0.14
  -7   4   6    3.65    0.16
   7   4  -6    3.61    0.17
  -7   4   6    3.38    0.16
  -6  -4   6    1.38    0.10
  -6  -4   6    1.48    0.11
  -6  -4   6    1.55    0.09
  -6  -4   6    1.20    0.08
  -6  -4   6    1.20    0.10
  -6  -4   6    1.53    0.13
  -6  -4   6    1.34    0.11
  -6  -4   6    1.48    0.07
  -6  -4   6    1.33    0.07
  -6   4   6    1.35    0.12
  -6   4   6    1.58    0.12
  -6   4   6    1.27    0.04
   6   4  -6    1.29    0.13
  -6   4   6    1.44    0.12
  -6   4   6    1.43    0.10
  -5  -4   6   10.21    0.27
  -5  -4   6   10.35    0.30
  -5  -4   6   10.54    0.27
  -5  -4   6   10.79    0.27
  -5  -4   6   10.85    0.30
  -5  -4   6   10.74    0.29
  -5  -4   6   10.82    0.25
  -5  -4   6   10.48    0.29
  -5   4   6   10.42    0.29
   5   4  -6   10.60    0.34
  -5   4   6   10.31    0.26
  -5   4   6   10.88    0.33
  -4  -4   6   13.27    0.33
  -4  -4   6   12.69    0.33
  -4  -4   6   13.15    0.33
  -4  -4   6   13.08    0.35
  -4  -4   6   12.97    0.31
  -4  -4   6   12.90    0.28
  -4  -4   6   12.84    0.34
  -4  -4   6   12.99    0.35
  -4   4   6   12.57    0.27
   4   4  -6   12.65    0.38
  -4   4   6   13.03    0.37
  -4   4   6   12.78    0.34
  -3  -4   6   17.98    0.35
  -3  -4   6   17.16    0.41
  -3  -4   6   18.04    0.44
  -3  -4   6   18.41    0.43
  -3  -4   6   17.97    0.42
  -3  -4   6   18.15    0.39
  -3  -4   6   17.90    0.38
  -3  -4   6   18.33    0.43
  -3   4   6   17.70    0.42
  -3   4   6   17.69    0.36
   3   4  -6   18.19    0.48
   3   4  -6   17.72    0.43
  -3   4   6   17.73    0.33
  -3   4   6   18.21    0.32
  -3   4   6   17.76    0.45
  -2  -4   6   67.11    1.08
  -2  -4   6   68.49    1.23
  -2  -4   6   68.46    1.24
   2  -4  -6   68.26    1.42
  -2  -4   6   69.32    1.29
  -2  -4   6   67.25    1.18
  -2  -4   6   67.09    1.13
  -2  -4   6   67.88    1.21
  -2  -4   6   68.34    1.21
   2   4  -6   68.45    1.35
  -2   4   6   67.11    1.13
  -2   4   6   68.86    1.21
  -2   4   6   67.25    1.09
  -2   4   6   67.88    1.16
   2   4  -6   67.23    1.21
  -2   4   6   69.08    1.11
  -2   4   6   66.26    1.32
   1  -4  -6   63.50    1.31
  -1  -4   6   65.60    1.14
  -1  -4   6   63.72    1.16
  -1  -4   6   63.70    1.22
  -1  -4   6   63.33    1.15
  -1   4   6   63.97    1.02
   1   4  -6   62.78    1.13
   1   4  -6   62.92    1.26
  -1   4   6   64.12    1.12
   1   4  -6   63.23    1.19
  -1   4   6   62.93    1.14
   1   4  -6   61.33    1.12
  -1   4   6   64.59    1.05
   0  -4  -6   11.63    0.37
   0  -4   6   11.80    0.34
   0  -4   6   12.18    0.32
   0   4   6   12.45    0.31
   0   4   6   12.35    0.28
   0   4   6   12.27    0.27
   0   4   6   11.35    0.31
   0   4   6   12.09    0.25
   0   4  -6   11.92    0.35
   0   4  -6   12.78    0.35
   0   4  -6   13.17    0.32
  -1  -4  -6    1.90    0.11
   1  -4   6    2.23    0.13
   1   4   6    1.83    0.07
   1   4   6    1.92    0.10
   1   4   6    2.03    0.11
  -1   4  -6    1.86    0.13
  -1   4  -6    2.05    0.08
  -1   4  -6    1.92    0.12
   1   4   6    2.03    0.12
  -1   4  -6    2.08    0.10
  -1   4  -6    1.98    0.13
  -1   4  -6    1.90    0.11
   2  -4   6    8.34    0.26
  -2  -4  -6    8.56    0.26
  -2  -4  -6    8.78    0.25
  -2  -4  -6    8.78    0.24
  -2   4  -6    8.64    0.20
  -2   4  -6    8.31    0.26
  -2   4  -6    8.80    0.23
  -2   4  -6    8.47    0.28
   2   4   6    8.05    0.26
  -2   4  -6    8.99    0.27
   2   4   6    8.36    0.24
  -2   4  -6    8.30    0.25
  -2   4  -6    8.24    0.22
  -3  -4  -6    0.81    0.08
  -3  -4  -6    0.57    0.07
  -3  -4  -6    0.89    0.09
  -3  -4  -6    0.60    0.08
  -3  -4  -6    0.72    0.09
  -3   4  -6    0.66    0.07
  -3   4  -6    0.60    0.05
  -3   4  -6    0.70    0.08
  -3   4  -6    0.71    0.09
  -3   4  -6    0.57    0.08
   3   4   6    0.75    0.09
   3   4   6    0.40    0.07
  -3   4  -6    0.71    0.09
  -4  -4  -6    4.05    0.16
  -4  -4  -6    4.07    0.15
  -4  -4  -6    3.96    0.14
  -4  -4  -6    4.01    0.17
  -4  -4  -6    3.67    0.15
  -4   4  -6    3.90    0.13
  -4   4  -6    4.11    0.16
  -4   4  -6    4.00    0.14
  -4   4  -6    3.74    0.14
  -4   4  -6    3.94    0.12
  -4   4  -6    4.04    0.17
  -4   4  -6    3.96    0.14
  -4   4  -6    3.90    0.16
   4   4   6    3.77    0.17
  -4   4  -6    3.89    0.17
   4   4   6    3.95    0.16
  -5  -4  -6    2.11    0.11
  -5  -4  -6    2.06    0.11
  -5  -4  -6    2.02    0.11
   5   4   6    2.08    0.11
  -5   4  -6    2.22    0.11
  -5   4  -6    2.07    0.08
  -5   4  -6    2.17    0.11
  -5   4  -6    1.87    0.09
  -5   4  -6    2.13    0.09
  -6  -4  -6    0.59    0.06
  -6  -4  -6    0.50    0.05
  -6  -4  -6    0.51    0.05
  -6  -4  -6    0.53    0.06
  -6   4  -6    0.48    0.05
   6   4   6    0.52    0.06
  -6   4  -6    0.51    0.05
  -6   4  -6    0.47    0.05
  -6   4  -6    0.55    0.04
  -8  -5   6    2.56    0.11
  -8  -5   6    2.70    0.10
  -8  -5   6    2.58    0.08
   8   5  -6    2.57    0.11
  -8   5   6    2.41    0.11
  -7  -5   6    2.88    0.11
  -7  -5   6    2.89    0.12
  -7  -5   6    3.14    0.13
  -7  -5   6    2.94    0.08
  -7  -5   6    3.10    0.10
   7   5  -6    3.08    0.14
  -7   5   6    3.03    0.14
   7   5  -6    2.81    0.14
  -6  -5   6    3.93    0.14
  -6  -5   6    3.60    0.12
  -6  -5   6    3.59    0.15
  -6  -5   6    3.91    0.16
  -6  -5   6    3.91    0.12
  -6  -5   6    3.76    0.14
  -6   5   6    3.56    0.17
   6   5  -6    3.65    0.16
   6   5  -6    3.61    0.17
  -5  -5   6   11.16    0.31
  -5  -5   6   11.20    0.30
  -5  -5   6   11.10    0.28
  -5  -5   6   11.09    0.28
  -5  -5   6   10.97    0.24
  -5  -5   6   11.35    0.30
  -5   5   6    9.99    0.32
  -5   5   6   10.36    0.23
   5   5  -6   10.79    0.30
   5   5  -6   11.08    0.34
  -4  -5   6    3.12    0.15
  -4  -5   6    3.24    0.16
  -4  -5   6    2.86    0.13
  -4  -5   6    3.32    0.15
  -4  -5   6    3.03    0.10
  -4  -5   6    3.15    0.16
  -4  -5   6    3.46    0.16
  -4   5   6    3.15    0.16
   4   5  -6    3.34    0.16
   4   5  -6    3.01    0.18
   4   5  -6    3.41    0.16
  -4   5   6    3.25    0.12
  -3  -5   6    5.18    0.19
  -3  -5   6    5.02    0.21
  -3  -5   6    4.98    0.20
  -3  -5   6    4.95    0.19
  -3  -5   6    5.26    0.17
  -3  -5   6    5.46    0.18
  -3  -5   6    5.09    0.17
  -3  -5   6    5.17    0.20
  -3  -5   6    5.51    0.21
  -3   5   6    4.84    0.16
   3   5  -6    5.03    0.22
  -3   5   6    4.98    0.20
  -3   5   6    5.30    0.15
   3   5  -6    4.74    0.18
  -3   5   6    4.80    0.19
   3   5  -6    5.17    0.20
  -2  -5   6    5.43    0.19
  -2  -5   6    5.53    0.21
  -2  -5   6    5.73    0.21
  -2  -5   6    5.72    0.21
  -2  -5   6    5.03    0.22
  -2  -5   6    5.45    0.19
   2   5  -6    5.01    0.22
  -2   5   6    5.39    0.15
  -2   5   6    5.41    0.15
  -2   5   6    5.35    0.20
  -2   5   6    5.15    0.19
   2   5  -6    5.33    0.20
  -2   5   6    5.02    0.16
  -2   5   6    5.40    0.15
   2   5  -6    5.08    0.22
  -1  -5   6    1.94    0.12
  -1  -5   6    2.28    0.13
  -1  -5   6    2.00    0.14
  -1  -5   6    2.03    0.13
  -1  -5   6    2.13    0.14
  -1  -5   6    1.95    0.13
   1   5  -6    2.08    0.14
  -1   5   6    2.13    0.10
  -1   5   6    2.14    0.11
   1   5  -6    2.23    0.14
   1   5  -6    2.15    0.13
   1   5  -6    2.07    0.14
  -1   5   6    2.00    0.09
  -1   5   6    1.99    0.12
   0  -5  -6   16.52    0.39
   0  -5   6   16.93    0.47
   0  -5   6   16.90    0.41
   0   5   6   17.53    0.41
   0   5   6   16.90    0.32
   0   5  -6   16.65    0.39
   0   5   6   17.17    0.36
   0   5  -6   15.69    0.42
   0   5  -6   16.44    0.44
   0   5   6   16.45    0.38
  -1  -5  -6   10.74    0.29
   1  -5   6   10.93    0.31
  -1   5  -6   10.39    0.26
  -1   5  -6   10.79    0.31
  -1   5  -6    9.95    0.26
  -1   5  -6   11.30    0.32
   1   5   6   10.69    0.25
  -1   5  -6   10.96    0.33
   1   5   6   10.10    0.29
   1   5   6   10.54    0.25
   1   5   6   10.60    0.29
   2  -5   6    0.19    0.06
  -2  -5  -6    0.20    0.06
  -2  -5  -6    0.23    0.06
  -2  -5  -6    0.14    0.05
  -2   5  -6    0.24    0.06
   2   5   6    0.18    0.06
  -2   5  -6    0.24    0.06
   2   5   6    0.17    0.05
   2   5   6    0.28    0.05
  -2   5  -6    0.07    0.05
  -2   5  -6    0.20    0.03
  -2   5  -6    0.16    0.04
  -3  -5  -6    0.75    0.09
  -3  -5  -6    0.88    0.09
  -3  -5  -6    0.90    0.08
  -3  -5  -6    0.98    0.09
  -3   5  -6    0.84    0.09
  -3   5  -6    0.82    0.07
   3   5   6    1.02    0.10
  -3   5  -6    0.69    0.08
  -3   5  -6    0.89    0.08
   3   5   6    0.94    0.08
  -3   5  -6    0.88    0.05
  -3   5  -6    0.98    0.08
  -4  -5  -6   13.55    0.29
  -4  -5  -6   13.60    0.31
  -4  -5  -6   13.74    0.33
  -4  -5  -6   13.61    0.34
  -4   5  -6   13.37    0.30
  -4   5  -6   13.14    0.26
  -4   5  -6   13.37    0.25
   4   5   6   13.48    0.33
   4   5   6   13.36    0.31
  -4   5  -6   13.67    0.25
  -4   5  -6   13.82    0.31
  -4   5  -6   13.21    0.32
  -5  -5  -6    4.61    0.15
  -5  -5  -6    4.74    0.15
  -5  -5  -6    4.92    0.16
   5   5   6    4.68    0.15
  -5   5  -6    4.69    0.14
  -5   5  -6    4.59    0.11
  -7  -6   6    2.61    0.11
  -7  -6   6    2.44    0.09
  -7   6   6    2.47    0.11
   7   6  -6    2.19    0.11
  -6  -6   6    1.30    0.09
  -6  -6   6    1.56    0.08
  -6  -6   6    1.40    0.09
  -6  -6   6    1.30    0.06
  -6  -6   6    1.29    0.05
  -6  -6   6    1.47    0.08
   6   6  -6    1.38    0.09
  -6   6   6    1.38    0.10
   6   6  -6    1.16    0.09
  -5  -6   6    1.54    0.08
  -5  -6   6    1.34    0.09
  -5  -6   6    1.65    0.10
  -5  -6   6    1.33    0.10
  -5  -6   6    1.50    0.09
  -5   6   6    1.36    0.06
  -5   6   6    1.17    0.10
   5   6  -6    1.40    0.10
   5   6  -6    1.36    0.10
   5   6  -6    1.60    0.12
  -5   6   6    1.35    0.07
  -4  -6   6    7.00    0.23
  -4  -6   6    6.92    0.23
  -4  -6   6    6.78    0.21
  -4  -6   6    6.95    0.21
  -4   6   6    7.01    0.23
   4   6  -6    6.85    0.25
   4   6  -6    6.80    0.21
   4   6  -6    6.89    0.22
  -4   6   6    6.63    0.17
  -4   6   6    6.43    0.17
  -3  -6   6    0.95    0.10
  -3  -6   6    0.88    0.10
  -3  -6   6    0.93    0.09
  -3  -6   6    0.87    0.10
  -3  -6   6    1.06    0.08
  -3   6   6    0.95    0.10
   3   6  -6    0.90    0.09
  -3   6   6    0.81    0.06
  -3   6   6    1.04    0.07
   3   6  -6    0.92    0.11
  -2  -6   6    4.57    0.17
  -2  -6   6    4.65    0.19
  -2  -6   6    4.66    0.18
  -2  -6   6    4.69    0.20
  -2  -6   6    4.45    0.18
  -2  -6   6    4.50    0.17
   2   6  -6    4.74    0.20
  -2   6   6    4.37    0.13
  -2   6   6    4.42    0.17
  -2   6   6    4.43    0.12
   2   6  -6    4.43    0.19
  -2   6   6    4.81    0.11
   2   6  -6    4.59    0.18
  -2   6   6    4.65    0.15
  -1  -6   6    1.27    0.11
  -1  -6   6    1.24    0.12
  -1  -6   6    1.21    0.10
  -1   6   6    1.38    0.08
   1   6  -6    1.10    0.10
  -1   6   6    1.36    0.11
  -1   6   6    1.44    0.07
   1   6  -6    1.55    0.14
   1   6  -6    1.25    0.12
  -1   6   6    1.32    0.08
   1   6  -6    1.28    0.13
  -1   6   6    1.23    0.07
   0  -6   6    5.17    0.19
   0  -6  -6    5.42    0.19
   0  -6   6    5.33    0.20
   0   6   6    4.92    0.15
   0   6   6    4.98    0.12
   0   6  -6    4.60    0.20
   0   6  -6    5.30    0.20
   0   6   6    5.09    0.16
   0   6   6    4.68    0.18
   0   6  -6    4.83    0.16
  -1  -6  -6    3.74    0.15
   1  -6   6    3.77    0.16
   1   6   6    3.45    0.15
  -1   6  -6    3.17    0.13
   1   6   6    3.38    0.12
   1   6   6    3.61    0.14
  -1   6  -6    3.34    0.15
  -1   6  -6    3.24    0.16
   2  -6   6    0.48    0.07
  -2  -6  -6    0.39    0.06
  -2  -6  -6    0.32    0.05
  -2  -6  -6    0.36    0.06
   2   6   6    0.35    0.06
   2   6   6    0.43    0.05
  -2   6  -6    0.37    0.05
  -2   6  -6    0.39    0.06
  -2   6  -6    0.45    0.06
  -3  -6  -6    0.48    0.06
  -3  -6  -6    0.51    0.06
   3  -6   6    0.51    0.07
   3   6   6    0.47    0.06
  -3   6  -6    0.33    0.04
  -3   6  -6    0.36    0.04
   3   6   6    0.44    0.06
   3   6   6    0.49    0.05
  -3   6  -6    0.42    0.05
  -3   6  -6    0.45    0.04
  -4  -6  -6    0.63    0.05
  -4  -6  -6    0.89    0.08
  -4  -6  -6    0.70    0.07
  -4   6  -6    0.66    0.06
   4   6   6    0.73    0.06
   4   6   6    0.70    0.07
  -5  -7   6    5.05    0.16
  -5  -7   6    5.07    0.15
   5   7  -6    5.10    0.15
  -5   7   6    4.78    0.12
  -5   7   6    4.60    0.16
  -5   7   6    4.85    0.12
  -4  -7   6    1.58    0.09
  -4  -7   6    1.63    0.09
  -4  -7   6    1.58    0.10
  -4  -7   6    1.64    0.10
  -4   7   6    1.58    0.09
  -4   7   6    1.39    0.06
  -4   7   6    1.31    0.07
   4   7  -6    1.39    0.09
  -3  -7   6    2.22    0.12
  -3  -7   6    2.37    0.12
  -3  -7   6    2.46    0.12
  -3  -7   6    2.25    0.08
   3   7  -6    2.29    0.11
   3   7  -6    2.19    0.12
  -3   7   6    2.21    0.08
  -3   7   6    2.01    0.10
  -3   7   6    2.25    0.09
  -2  -7   6    1.19    0.10
  -2  -7   6    1.31    0.11
  -2  -7   6    1.29    0.08
  -2   7   6    1.15    0.05
  -2   7   6    1.33    0.07
   2   7  -6    1.25    0.08
   2   7  -6    1.28    0.11
   2   7  -6    1.26    0.11
  -1  -7   6    6.45    0.19
  -1  -7   6    5.96    0.21
  -1   7   6    5.81    0.12
   1   7  -6    5.60    0.15
  -1   7   6    5.92    0.12
   1   7  -6    5.82    0.21
   1   7  -6    5.75    0.19
  -1   7   6    5.56    0.15
   0  -7   6    3.49    0.14
   0  -7  -6    3.55    0.13
   0  -7   6    3.56    0.14
   0  -7   6    3.32    0.13
   0   7  -6    3.72    0.15
   0   7  -6    3.42    0.14
   0   7   6    3.37    0.11
   0   7   6    3.47    0.11
   0   7   6    3.50    0.10
  -1  -7  -6    0.91    0.08
   1  -7   6    0.98    0.08
  -1  -7  -6    0.97    0.07
   1  -7   6    0.99    0.08
   1  -7   6    0.94    0.08
   1   7   6    0.99    0.07
  -1   7  -6    1.00    0.08
  -1   7  -6    0.90    0.08
   2  -7   6    3.06    0.12
   2  -7   6    2.88    0.12
  -2  -7  -6    2.97    0.11
   2  -7   6    3.02    0.12
  -2   7  -6    2.76    0.08
   2   7   6    2.86    0.11
  -2   7  -6    2.70    0.11
  -2   7  -6    2.57    0.12
 -10   0   7    2.89    0.12
  -9   0   7    4.12    0.16
  -9   0   7    3.73    0.16
  -9   0   7    4.64    0.17
  -9   0   7    4.12    0.07
  -9   0   7    3.81    0.16
  -8   0   7   34.12    0.70
  -8   0   7   34.67    0.70
  -8   0   7   33.93    0.71
  -8   0   7   34.06    0.37
  -8   0   7   33.86    0.73
  -7   0   7    2.14    0.14
  -7   0   7    1.76    0.12
  -7   0   7    1.94    0.05
  -7   0   7    1.87    0.13
  -7   0   7    1.88    0.13
  -7   0   7    1.95    0.13
  -6   0   7    0.24    0.06
  -6   0   7    0.40    0.07
  -6   0   7    0.27    0.02
  -6   0   7    0.15    0.06
  -6   0   7    0.30    0.02
  -6   0   7    0.22    0.06
  -6   0   7    0.28    0.06
  -5   0   7   33.34    0.67
  -5   0   7   33.45    0.46
  -5   0   7   34.65    0.70
   5   0  -7   32.78    0.70
  -5   0   7   32.71    0.74
  -5   0   7   35.21    0.68
  -5   0   7   33.09    0.72
  -5   0   7   33.52    0.59
  -4   0   7    4.77    0.19
   4   0  -7    4.70    0.17
  -4   0   7    4.91    0.14
  -4   0   7    5.01    0.13
  -4   0   7    5.17    0.18
  -4   0   7    5.03    0.15
  -4   0   7    4.93    0.13
  -4   0   7    4.96    0.19
  -4   0   7    5.12    0.19
  -3   0   7    8.69    0.27
  -3   0   7    8.45    0.22
  -3   0   7    9.37    0.26
  -3   0   7    8.87    0.24
   3   0  -7    9.29    0.26
  -3   0   7    8.80    0.23
  -3   0   7    8.96    0.22
  -2   0   7    3.07    0.14
   2   0  -7    3.28    0.14
  -1   0   7    1.24    0.06
   1   0  -7    1.38    0.10
  -1   0   7    1.24    0.09
   0   0   7    0.37    0.06
   0   0  -7    0.32    0.06
   0   0   7    0.41    0.06
   0   0   7    0.47    0.04
   1   0   7   54.16    1.01
  -1   0  -7   54.79    0.94
  -1   0  -7   54.21    0.96
  -1   0  -7   55.59    0.97
  -1   0  -7   53.73    1.00
   1   0   7   53.08    1.00
   1   0   7   54.39    0.96
   1   0   7   53.76    0.98
  -2   0  -7   14.81    0.31
   2   0   7   14.92    0.35
  -2   0  -7   15.12    0.34
  -2   0  -7   14.72    0.37
  -2   0  -7   14.34    0.34
  -2   0  -7   14.28    0.36
  -2   0  -7   14.39    0.34
  -3   0  -7    0.20    0.05
  -3   0  -7    0.15    0.05
  -3   0  -7    0.23    0.06
  -3   0  -7    0.05    0.03
  -3   0  -7    0.05    0.04
  -3   0  -7    0.13    0.04
  -3   0  -7    0.07    0.02
   3   0   7    0.12    0.05
  -4   0  -7   20.06    0.45
  -4   0  -7   19.60    0.44
  -4   0  -7   19.93    0.44
  -4   0  -7   18.98    0.38
  -4   0  -7   19.61    0.36
   4   0   7   19.18    0.44
  -4   0  -7   20.10    0.40
  -4   0  -7   19.88    0.46
  -5   0  -7   20.89    0.45
  -5   0  -7   20.08    0.41
  -5   0  -7   19.81    0.36
  -5   0  -7   20.30    0.43
  -5   0  -7   20.61    0.44
   5   0   7   20.02    0.44
  -5   0  -7   19.69    0.45
  -6   0  -7    0.91    0.05
  -6   0  -7    0.83    0.05
  -6   0  -7    1.00    0.07
  -6   0  -7    0.93    0.08
  -6   0  -7    0.92    0.05
  -6   0  -7    0.94    0.08
  -6   0  -7    0.85    0.07
   6   0   7    0.93    0.08
  -7   0  -7    1.59    0.07
  -7   0  -7    1.37    0.09
 -10  -1   7    0.16    0.05
 -10   1   7    0.17    0.05
  -9  -1   7    6.05    0.19
  -9  -1   7    6.00    0.20
  -9  -1   7    5.92    0.20
  -9  -1   7    5.58    0.20
  -9   1   7    6.06    0.08
  -9   1   7    6.26    0.21
  -9   1   7    5.83    0.20
  -9   1   7    6.25    0.20
  -8  -1   7    4.15    0.17
  -8  -1   7    4.47    0.19
  -8  -1   7    4.30    0.18
  -8  -1   7    4.33    0.18
  -8   1   7    4.24    0.18
  -8   1   7    4.26    0.07
  -8   1   7    4.22    0.18
  -8   1   7    5.01    0.19
  -8   1   7    4.10    0.18
  -8   1   7    4.25    0.19
  -7  -1   7   20.46    0.47
  -7  -1   7   20.20    0.46
  -7  -1   7   20.15    0.48
  -7  -1   7   20.11    0.50
  -7  -1   7   19.47    0.50
  -7   1   7   20.20    0.47
  -7   1   7   20.06    0.23
  -7   1   7   20.35    0.49
  -7   1   7   20.16    0.49
  -7   1   7   19.95    0.47
  -7   1   7   19.89    0.50
  -6  -1   7   15.23    0.40
  -6  -1   7   15.61    0.43
  -6  -1   7   15.75    0.25
  -6  -1   7   15.71    0.39
  -6  -1   7   15.48    0.33
  -6  -1   7   15.34    0.38
  -6  -1   7   15.58    0.24
  -6  -1   7   15.58    0.42
  -6   1   7   16.05    0.40
  -6   1   7   15.90    0.19
  -6   1   7   15.93    0.43
  -6   1   7   15.96    0.41
  -6   1   7   15.74    0.39
  -6   1   7   15.68    0.41
  -5  -1   7    2.80    0.11
  -5  -1   7    2.63    0.08
  -5  -1   7    2.49    0.13
   5  -1  -7    2.79    0.12
  -5  -1   7    2.80    0.12
  -5  -1   7    2.77    0.15
  -5  -1   7    2.71    0.10
  -5  -1   7    2.78    0.14
  -5  -1   7    2.82    0.14
  -5  -1   7    3.01    0.16
  -5  -1   7    2.94    0.08
  -5  -1   7    2.65    0.08
  -5   1   7    2.94    0.15
  -5   1   7    2.76    0.14
   5   1  -7    2.85    0.14
  -5   1   7    2.92    0.07
  -5   1   7    2.80    0.14
  -5   1   7    3.20    0.16
  -5   1   7    2.92    0.15
  -4  -1   7   21.59    0.50
  -4  -1   7   20.87    0.44
  -4  -1   7   20.39    0.44
   4  -1  -7   20.54    0.47
  -4  -1   7   20.38    0.51
  -4  -1   7   20.85    0.48
  -4  -1   7   20.49    0.40
  -4  -1   7   21.17    0.40
  -4  -1   7   19.93    0.40
  -4  -1   7   20.42    0.46
  -4   1   7   21.85    0.48
  -4   1   7   20.68    0.36
  -4   1   7   19.85    0.35
  -4   1   7   20.58    0.31
   4   1  -7   21.33    0.48
  -4   1   7   19.75    0.40
  -4   1   7   20.09    0.38
  -4   1   7   20.52    0.44
  -4   1   7   21.19    0.50
  -4   1   7   19.98    0.45
  -3  -1   7   25.91    0.51
  -3  -1   7   25.93    0.48
  -3  -1   7   25.99    0.53
   3  -1  -7   25.94    0.58
  -3  -1   7   26.32    0.56
  -3  -1   7   25.85    0.53
  -3  -1   7   25.06    0.59
  -3  -1   7   26.60    0.55
  -3  -1   7   26.30    0.46
  -3   1   7   25.71    0.51
  -3   1   7   25.10    0.50
  -3   1   7   25.83    0.47
  -3   1   7   25.57    0.55
   3   1  -7   25.58    0.57
  -3   1   7   25.50    0.58
  -3   1   7   25.72    0.52
  -3   1   7   25.33    0.48
  -2  -1   7    1.87    0.10
  -2  -1   7    1.80    0.08
   2  -1  -7    2.02    0.11
  -2  -1   7    1.73    0.10
  -2  -1   7    1.78    0.11
  -2  -1   7    1.87    0.11
   2   1  -7    2.27    0.12
  -2   1   7    1.97    0.11
  -2   1   7    1.95    0.11
  -2   1   7    1.77    0.09
  -1  -1   7    0.65    0.08
  -1  -1   7    0.55    0.07
   1  -1  -7    0.59    0.07
  -1  -1   7    0.61    0.07
  -1  -1   7    0.61    0.05
  -1   1   7    0.59    0.07
  -1   1   7    0.76    0.08
  -1   1   7    0.72    0.07
   1   1  -7    0.83    0.09
   0  -1   7    2.76    0.09
   0  -1   7    2.61    0.13
   0  -1   7    2.70    0.13
   0  -1   7    3.02    0.12
   0  -1   7    2.93    0.13
   0  -1   7    2.83    0.14
   0  -1  -7    3.10    0.15
   0  -1   7    2.89    0.13
   0   1   7    2.59    0.11
   0   1   7    2.77    0.09
   0   1   7    3.09    0.13
   0   1   7    2.99    0.11
   0   1   7    2.98    0.13
   0   1  -7    3.00    0.13
   0   1   7    2.94    0.11
  -1  -1  -7    6.31    0.19
  -1  -1  -7    6.28    0.19
   1  -1   7    6.16    0.20
   1  -1   7    5.81    0.20
   1  -1   7    5.94    0.21
  -1  -1  -7    6.57    0.19
  -1  -1  -7    6.14    0.20
  -1   1  -7    6.21    0.19
   1   1   7    6.09    0.21
  -1   1  -7    6.13    0.21
   1   1   7    6.18    0.20
   1   1   7    6.11    0.17
  -1   1  -7    6.35    0.20
   1   1   7    6.73    0.21
   1   1   7    6.11    0.19
  -1   1  -7    6.08    0.19
  -1   1  -7    6.72    0.22
   2  -1   7    0.88    0.09
  -2  -1  -7    0.70    0.08
  -2  -1  -7    0.72    0.08
  -2  -1  -7    0.91    0.09
  -2  -1  -7    0.63    0.08
  -2  -1  -7    0.72    0.09
  -2   1  -7    0.63    0.08
  -2   1  -7    0.77    0.05
   2   1   7    0.98    0.09
   2   1   7    0.97    0.10
  -2   1  -7    0.83    0.07
  -2   1  -7    0.82    0.08
   2   1   7    0.88    0.10
  -2   1  -7    0.89    0.09
   2   1   7    0.81    0.08
  -2   1  -7    0.58    0.07
  -2   1  -7    0.71    0.08
   3  -1   7   31.56    0.63
  -3  -1  -7   30.99    0.58
  -3  -1  -7   31.82    0.62
  -3  -1  -7   30.69    0.66
  -3  -1  -7   31.88    0.63
  -3  -1  -7   32.43    0.61
  -3  -1  -7   32.36    0.65
  -3   1  -7   31.33    0.64
  -3   1  -7   30.61    0.66
  -3   1  -7   31.71    0.63
   3   1   7   30.82    0.62
  -3   1  -7   32.02    0.62
  -3   1  -7   30.63    0.57
  -3   1  -7   31.23    0.59
  -3   1  -7   31.47    0.53
   3   1   7   30.42    0.63
  -4  -1  -7    4.97    0.15
  -4  -1  -7    4.97    0.19
  -4  -1  -7    5.04    0.19
   4  -1   7    4.96    0.19
  -4  -1  -7    5.12    0.19
  -4  -1  -7    4.98    0.16
  -4  -1  -7    5.07    0.19
   4   1   7    4.94    0.19
  -4   1  -7    5.31    0.19
  -4   1  -7    5.15    0.20
  -4   1  -7    4.89    0.18
   4   1   7    4.99    0.18
  -4   1  -7    5.24    0.20
  -4   1  -7    5.11    0.14
  -4   1  -7    5.01    0.16
  -5  -1  -7    5.07    0.18
  -5  -1  -7    5.22    0.19
  -5  -1  -7    4.90    0.18
  -5  -1  -7    5.21    0.17
  -5  -1  -7    5.18    0.16
  -5   1  -7    5.16    0.16
  -5   1  -7    5.00    0.18
  -5   1  -7    4.91    0.16
  -5   1  -7    4.83    0.13
  -5   1  -7    5.15    0.19
  -5   1  -7    5.32    0.16
   5   1   7    4.80    0.18
  -5   1  -7    5.28    0.18
  -6  -1  -7    2.06    0.11
  -6  -1  -7    1.96    0.09
  -6  -1  -7    1.93    0.10
  -6  -1  -7    2.21    0.08
  -6  -1  -7    2.07    0.10
  -6   1  -7    2.04    0.09
   6   1   7    1.95    0.10
  -6   1  -7    1.90    0.09
  -6   1  -7    2.10    0.11
  -6   1  -7    1.95    0.10
  -6   1  -7    1.93    0.07
  -7  -1  -7    0.07    0.03
  -7   1  -7    0.04    0.03
  -7   1  -7    0.08    0.04
  -9  -2   7    0.73    0.08
  -9   2   7    0.71    0.08
  -9   2   7    0.73    0.08
  -9   2   7    0.69    0.02
  -9   2   7    0.71    0.02
  -8  -2   7    1.57    0.11
  -8  -2   7    1.59    0.08
  -8  -2   7    1.52    0.12
  -8  -2   7    1.68    0.11
  -8   2   7    1.52    0.03
  -8   2   7    1.54    0.13
  -8   2   7    1.57    0.04
  -8   2   7    1.62    0.11
  -8   2   7    1.48    0.11
  -8   2   7    1.63    0.11
  -7  -2   7    3.93    0.19
  -7  -2   7    4.17    0.17
  -7  -2   7    4.13    0.14
  -7  -2   7    4.19    0.08
  -7  -2   7    4.08    0.17
  -7  -2   7    4.19    0.20
  -7  -2   7    4.29    0.09
  -7   2   7    3.96    0.17
  -7   2   7    3.93    0.18
  -7   2   7    4.23    0.19
  -7   2   7    4.24    0.07
  -7   2   7    4.56    0.20
  -6  -2   7    6.68    0.22
  -6  -2   7    6.78    0.20
  -6  -2   7    6.91    0.23
  -6  -2   7    7.04    0.25
  -6  -2   7    6.90    0.26
  -6  -2   7    6.53    0.21
  -6  -2   7    6.75    0.23
  -6  -2   7    6.78    0.14
  -6  -2   7    6.80    0.21
  -6  -2   7    6.70    0.18
  -6   2   7    6.66    0.24
  -6   2   7    6.74    0.23
  -6   2   7    6.56    0.10
  -6   2   7    6.51    0.24
  -6   2   7    6.20    0.23
  -5  -2   7   13.00    0.39
  -5  -2   7   13.08    0.34
  -5  -2   7   13.21    0.32
  -5  -2   7   13.03    0.32
  -5  -2   7   13.38    0.33
  -5  -2   7   12.87    0.28
  -5  -2   7   13.42    0.30
  -5  -2   7   13.04    0.34
  -5  -2   7   13.12    0.27
  -5  -2   7   12.29    0.36
  -5  -2   7   13.31    0.31
  -5   2   7   12.54    0.19
  -5   2   7   12.37    0.33
  -5   2   7   12.43    0.35
  -5   2   7   13.02    0.37
  -5   2   7   12.75    0.33
  -4  -2   7   12.48    0.35
  -4  -2   7   12.37    0.34
  -4  -2   7   12.78    0.33
  -4  -2   7   12.68    0.29
  -4  -2   7   12.89    0.32
  -4  -2   7   12.46    0.32
  -4  -2   7   12.79    0.37
   4  -2  -7   12.75    0.33
  -4  -2   7   13.33    0.30
  -4  -2   7   12.88    0.30
  -4  -2   7   13.16    0.32
  -4  -2   7   13.02    0.28
  -4   2   7   12.37    0.33
  -4   2   7   12.37    0.32
  -4   2   7   12.68    0.36
  -4   2   7   12.63    0.27
  -4   2   7   12.88    0.34
  -4   2   7   12.67    0.21
  -4   2   7   13.21    0.32
   4   2  -7   12.09    0.34
  -3  -2   7    5.07    0.15
  -3  -2   7    4.96    0.18
  -3  -2   7    5.05    0.16
  -3  -2   7    5.12    0.18
  -3  -2   7    5.00    0.20
  -3  -2   7    5.24    0.18
  -3  -2   7    4.88    0.14
  -3  -2   7    5.19    0.18
  -3  -2   7    5.30    0.22
  -3  -2   7    5.27    0.18
   3  -2  -7    5.24    0.19
  -3   2   7    5.02    0.14
   3   2  -7    5.11    0.19
  -3   2   7    4.95    0.19
  -3   2   7    5.14    0.18
  -3   2   7    5.32    0.15
  -3   2   7    4.97    0.19
  -3   2   7    4.84    0.14
  -2  -2   7    3.33    0.11
  -2  -2   7    3.42    0.14
  -2  -2   7    3.00    0.12
  -2  -2   7    2.95    0.14
   2  -2  -7    3.32    0.15
  -2  -2   7    3.07    0.14
  -2  -2   7    3.13    0.14
  -2  -2   7    3.03    0.12
  -2  -2   7    2.93    0.13
  -2  -2   7    3.19    0.16
  -2   2   7    3.09    0.10
  -2   2   7    3.30    0.12
   2   2  -7    3.21    0.15
  -2   2   7    3.09    0.14
  -2   2   7    3.27    0.14
  -2   2   7    3.09    0.11
  -2   2   7    3.18    0.14
  -1  -2   7    5.13    0.20
  -1  -2   7    5.10    0.19
  -1  -2   7    5.09    0.16
  -1  -2   7    5.21    0.19
   1  -2  -7    5.02    0.20
  -1  -2   7    5.18    0.14
  -1  -2   7    4.81    0.17
  -1  -2   7    4.91    0.18
  -1  -2   7    5.18    0.17
  -1  -2   7    4.95    0.18
  -1   2   7    4.73    0.15
  -1   2   7    4.77    0.17
   1   2  -7    4.78    0.18
  -1   2   7    5.17    0.17
  -1   2   7    4.87    0.13
  -1   2   7    4.89    0.14
  -1   2   7    5.18    0.18
   0  -2   7    0.29    0.07
   0  -2   7    0.52    0.08
   0  -2   7    0.40    0.07
   0  -2  -7    0.27    0.05
   0  -2   7    0.29    0.06
   0  -2   7    0.21    0.05
   0  -2  -7    0.35    0.07
   0   2  -7    0.33    0.06
   0   2   7    0.30    0.04
   0   2   7    0.42    0.05
   0   2   7    0.41    0.05
   0   2   7    0.37    0.06
   0   2  -7    0.37    0.06
   0   2  -7    0.33    0.07
  -1  -2  -7   15.11    0.34
   1  -2   7   14.01    0.37
   1  -2   7   14.22    0.35
  -1  -2  -7   14.87    0.34
   1  -2   7   13.74    0.35
   1   2   7   13.71    0.32
  -1   2  -7   14.09    0.36
   1   2   7   14.18    0.30
  -1   2  -7   13.86    0.33
  -1   2  -7   13.87    0.30
  -1   2  -7   14.41    0.37
   1   2   7   13.98    0.30
   1   2   7   14.15    0.35
  -1   2  -7   14.08    0.33
  -1   2  -7   13.88    0.34
  -2  -2  -7   11.88    0.35
  -2  -2  -7   11.94    0.32
  -2  -2  -7   12.06    0.30
  -2  -2  -7   12.63    0.31
   2  -2   7   11.64    0.32
  -2  -2  -7   12.40    0.30
  -2   2  -7   12.11    0.33
   2   2   7   12.40    0.30
  -2   2  -7   12.08    0.31
  -2   2  -7   11.30    0.33
  -2   2  -7   11.61    0.28
   2   2   7   11.50    0.32
  -2   2  -7   11.91    0.24
   2   2   7   11.78    0.31
  -2   2  -7   11.97    0.30
  -2   2  -7   11.79    0.31
  -3  -2  -7    1.65    0.10
   3  -2   7    1.73    0.12
  -3  -2  -7    1.57    0.11
  -3  -2  -7    1.57    0.11
  -3  -2  -7    1.55    0.11
  -3  -2  -7    1.59    0.11
  -3   2  -7    1.58    0.13
  -3   2  -7    1.56    0.09
   3   2   7    1.71    0.11
  -3   2  -7    1.64    0.12
  -3   2  -7    1.77    0.12
  -3   2  -7    1.60    0.07
   3   2   7    1.67    0.14
  -3   2  -7    1.69    0.09
  -3   2  -7    1.77    0.11
  -4  -2  -7    3.63    0.13
  -4  -2  -7    3.62    0.13
  -4  -2  -7    4.16    0.16
  -4  -2  -7    3.90    0.16
  -4  -2  -7    3.87    0.16
  -4  -2  -7    3.93    0.16
  -4   2  -7    3.89    0.16
  -4   2  -7    3.72    0.12
  -4   2  -7    4.12    0.17
   4   2   7    4.07    0.16
  -4   2  -7    3.74    0.16
  -4   2  -7    3.76    0.15
  -4   2  -7    3.68    0.14
  -5  -2  -7    5.03    0.17
  -5  -2  -7    4.79    0.17
  -5  -2  -7    4.67    0.17
  -5  -2  -7    5.13    0.18
  -5  -2  -7    4.84    0.15
  -5   2  -7    4.75    0.14
  -5   2  -7    4.90    0.18
  -5   2  -7    4.98    0.17
  -5   2  -7    5.08    0.16
  -5   2  -7    5.03    0.15
  -5   2  -7    4.73    0.18
   5   2   7    5.00    0.18
  -5   2  -7    4.82    0.13
  -6  -2  -7    2.08    0.10
  -6  -2  -7    2.09    0.08
  -6  -2  -7    2.25    0.10
  -6  -2  -7    2.13    0.10
  -6  -2  -7    2.17    0.09
  -6  -2  -7    2.18    0.08
  -6   2  -7    2.04    0.09
  -6   2  -7    1.94    0.11
  -6   2  -7    1.96    0.10
   6   2   7    1.97    0.10
  -6   2  -7    2.09    0.07
  -9  -3   7    0.23    0.03
  -9  -3   7    0.19    0.05
  -9  -3   7    0.19    0.03
  -9   3   7    0.28    0.01
   9   3  -7    0.20    0.04
  -9   3   7    0.22    0.05
  -9   3   7    0.23    0.01
  -9   3   7    0.18    0.05
  -8  -3   7    0.79    0.07
  -8  -3   7    0.60    0.08
  -8  -3   7    0.80    0.06
  -8  -3   7    0.69    0.08
  -8   3   7    0.79    0.09
  -8   3   7    0.90    0.09
  -8   3   7    0.72    0.02
  -8   3   7    0.59    0.08
  -8   3   7    0.71    0.08
  -7  -3   7    2.43    0.10
  -7  -3   7    2.30    0.07
  -7  -3   7    2.30    0.12
  -7  -3   7    2.44    0.11
  -7  -3   7    2.40    0.12
  -7  -3   7    2.38    0.14
  -7  -3   7    2.44    0.13
  -7  -3   7    2.27    0.07
  -7  -3   7    2.22    0.11
   7   3  -7    2.15    0.14
  -7   3   7    2.43    0.14
  -7   3   7    2.36    0.14
  -7   3   7    2.35    0.13
  -7   3   7    2.53    0.14
  -7   3   7    2.31    0.05
  -6  -3   7   11.24    0.30
  -6  -3   7   11.36    0.21
  -6  -3   7   11.17    0.26
  -6  -3   7   11.23    0.31
  -6  -3   7   11.13    0.30
  -6  -3   7   11.14    0.28
  -6  -3   7   11.30    0.30
  -6  -3   7   11.31    0.21
  -6  -3   7   10.91    0.26
  -6  -3   7   11.46    0.34
  -6   3   7   11.12    0.31
  -6   3   7   11.03    0.32
  -6   3   7   11.04    0.15
  -6   3   7   10.98    0.31
  -6   3   7   11.18    0.34
  -5  -3   7   10.99    0.29
  -5  -3   7   10.93    0.29
  -5  -3   7   11.26    0.26
  -5  -3   7   10.65    0.33
  -5  -3   7   10.59    0.25
  -5  -3   7   11.17    0.28
  -5  -3   7   10.78    0.25
  -5  -3   7   10.84    0.30
  -5  -3   7   11.41    0.31
  -5  -3   7   10.90    0.30
  -5   3   7   10.90    0.33
  -5   3   7   10.42    0.30
  -5   3   7   10.64    0.30
  -5   3   7   10.53    0.31
  -4  -3   7    2.88    0.14
  -4  -3   7    2.77    0.14
  -4  -3   7    2.60    0.13
  -4  -3   7    2.62    0.14
  -4  -3   7    2.48    0.12
  -4  -3   7    2.58    0.12
  -4  -3   7    3.02    0.11
  -4  -3   7    2.63    0.14
  -4   3   7    2.79    0.08
  -4   3   7    2.83    0.15
  -4   3   7    2.73    0.10
  -4   3   7    2.83    0.15
  -4   3   7    2.48    0.13
  -3  -3   7   10.25    0.30
  -3  -3   7   10.97    0.27
  -3  -3   7   10.58    0.31
  -3  -3   7   10.87    0.30
  -3  -3   7   10.87    0.24
  -3  -3   7   10.40    0.30
  -3  -3   7   10.70    0.25
  -3  -3   7   10.69    0.29
  -3  -3   7   10.71    0.29
  -3   3   7   10.81    0.31
  -3   3   7   10.36    0.29
   3   3  -7   10.40    0.32
  -3   3   7   10.59    0.24
  -3   3   7   10.64    0.23
  -3   3   7   11.01    0.22
  -2  -3   7   22.26    0.49
  -2  -3   7   22.30    0.45
  -2  -3   7   22.33    0.46
  -2  -3   7   22.22    0.50
  -2  -3   7   21.84    0.49
  -2  -3   7   22.80    0.52
  -2  -3   7   22.58    0.50
  -2  -3   7   22.51    0.41
  -2  -3   7   21.32    0.49
   2  -3  -7   22.75    0.55
  -2   3   7   22.22    0.48
  -2   3   7   21.94    0.42
  -2   3   7   22.05    0.43
  -2   3   7   22.53    0.44
  -2   3   7   21.48    0.40
  -2   3   7   21.48    0.51
   2   3  -7   21.56    0.48
  -1  -3   7    5.46    0.20
  -1  -3   7    5.35    0.19
  -1  -3   7    5.35    0.19
  -1  -3   7    5.36    0.20
  -1  -3   7    4.99    0.17
  -1  -3   7    5.25    0.19
  -1  -3   7    5.62    0.22
  -1  -3   7    5.56    0.19
   1  -3  -7    5.16    0.21
  -1   3   7    5.27    0.17
   1   3  -7    5.06    0.19
  -1   3   7    5.00    0.18
   0  -3   7    8.68    0.27
   0  -3  -7    9.07    0.31
   0  -3   7    9.49    0.27
   0  -3  -7    9.41    0.26
   0  -3   7    9.15    0.27
   0  -3   7    9.56    0.29
   0  -3   7    9.76    0.27
   0   3   7    9.51    0.21
   0   3  -7    9.51    0.27
   0   3   7    9.71    0.26
   0   3  -7    9.11    0.30
   0   3   7    9.41    0.23
   0   3   7    9.94    0.24
   0   3  -7    9.67    0.29
   0   3  -7    9.53    0.27
   1  -3   7    1.74    0.11
  -1  -3  -7    1.61    0.10
  -1  -3  -7    1.85    0.11
   1  -3   7    2.00    0.12
   1   3   7    1.77    0.10
   1   3   7    1.74    0.12
  -1   3  -7    1.87    0.13
  -1   3  -7    1.76    0.13
  -1   3  -7    1.91    0.11
   1   3   7    1.89    0.09
  -1   3  -7    1.80    0.09
  -1   3  -7    1.86    0.12
  -2  -3  -7   13.78    0.35
   2  -3   7   13.24    0.35
  -2  -3  -7   13.25    0.33
  -2  -3  -7   13.20    0.32
  -2   3  -7   13.43    0.35
  -2   3  -7   13.13    0.26
   2   3   7   12.99    0.35
  -2   3  -7   13.38    0.37
  -2   3  -7   13.33    0.35
  -2   3  -7   13.21    0.34
   2   3   7   13.37    0.33
  -2   3  -7   13.52    0.32
  -2   3  -7   13.69    0.31
  -3  -3  -7    2.09    0.11
  -3  -3  -7    2.15    0.12
   3  -3   7    2.21    0.13
  -3  -3  -7    2.33    0.13
  -3  -3  -7    2.19    0.13
  -3  -3  -7    2.29    0.13
  -3   3  -7    2.29    0.11
   3   3   7    2.14    0.13
  -3   3  -7    2.08    0.13
  -3   3  -7    2.28    0.13
   3   3   7    2.27    0.12
  -3   3  -7    2.39    0.09
  -3   3  -7    2.13    0.13
  -3   3  -7    2.14    0.13
  -4  -3  -7    4.56    0.18
  -4  -3  -7    4.80    0.17
  -4  -3  -7    4.42    0.15
  -4  -3  -7    4.91    0.18
  -4  -3  -7    4.79    0.17
   4   3   7    4.70    0.17
  -4   3  -7    4.55    0.16
  -4   3  -7    4.52    0.16
  -4   3  -7    4.61    0.16
  -4   3  -7    4.66    0.18
  -4   3  -7    4.49    0.18
  -4   3  -7    4.61    0.18
  -4   3  -7    4.68    0.13
  -5  -3  -7    1.62    0.10
  -5  -3  -7    1.65    0.10
  -5  -3  -7    1.71    0.10
  -5  -3  -7    1.61    0.10
  -5   3  -7    1.76    0.06
  -5   3  -7    1.67    0.09
  -5   3  -7    1.78    0.09
  -5   3  -7    1.59    0.06
   5   3   7    1.66    0.10
  -5   3  -7    1.68    0.06
  -5   3  -7    1.63    0.06
  -5   3  -7    1.88    0.11
  -5   3  -7    1.92    0.11
  -6  -3  -7    2.67    0.10
  -6  -3  -7    2.40    0.11
  -6  -3  -7    2.58    0.09
   6   3   7    2.71    0.11
  -6   3  -7    2.61    0.10
  -6   3  -7    2.62    0.11
  -8  -4   7    0.95    0.08
  -8  -4   7    0.79    0.05
  -8  -4   7    0.82    0.06
  -8   4   7    0.73    0.08
   8   4  -7    0.77    0.08
  -8   4   7    0.63    0.07
  -8   4   7    0.73    0.07
  -8   4   7    0.79    0.02
  -7  -4   7    1.57    0.09
  -7  -4   7    1.76    0.08
  -7  -4   7    1.66    0.06
  -7  -4   7    1.58    0.11
  -7  -4   7    1.61    0.09
  -7  -4   7    1.66    0.10
  -7   4   7    1.65    0.10
  -7   4   7    1.74    0.11
   7   4  -7    1.64    0.11
   7   4  -7    1.56    0.11
  -7   4   7    1.53    0.04
  -7   4   7    1.70    0.12
  -6  -4   7    0.02    0.02
  -6  -4   7    0.07    0.04
  -6  -4   7    0.03    0.03
  -6  -4   7    0.04    0.04
  -6  -4   7    0.00    0.03
  -6  -4   7    0.04    0.02
  -6  -4   7    0.08    0.04
  -6  -4   7    0.03    0.03
  -6  -4   7    0.10    0.04
  -6   4   7    0.01    0.04
   6   4  -7    0.13    0.06
  -6   4   7    0.11    0.05
  -5  -4   7    2.30    0.13
  -5  -4   7    2.61    0.11
  -5  -4   7    2.31    0.11
  -5  -4   7    2.43    0.12
  -5  -4   7    2.38    0.10
  -5  -4   7    2.52    0.13
  -5  -4   7    2.44    0.14
  -5  -4   7    2.50    0.14
  -5  -4   7    2.51    0.13
  -5   4   7    2.47    0.15
   5   4  -7    2.49    0.16
  -5   4   7    2.48    0.10
  -4  -4   7    3.49    0.12
  -4  -4   7    3.51    0.15
  -4  -4   7    3.59    0.15
  -4  -4   7    3.73    0.17
  -4  -4   7    3.68    0.16
  -4  -4   7    3.59    0.17
  -4  -4   7    3.44    0.16
  -4   4   7    3.69    0.17
  -4   4   7    3.56    0.09
  -4   4   7    3.69    0.13
   4   4  -7    3.44    0.19
  -4   4   7    3.83    0.18
  -3  -4   7    3.74    0.12
  -3  -4   7    3.61    0.17
  -3  -4   7    3.60    0.16
  -3  -4   7    4.00    0.18
  -3  -4   7    4.12    0.15
  -3  -4   7    3.92    0.14
  -3  -4   7    3.70    0.17
  -3  -4   7    3.89    0.18
  -3   4   7    3.84    0.10
  -3   4   7    3.97    0.17
   3   4  -7    3.60    0.17
  -3   4   7    3.78    0.12
   3   4  -7    3.66    0.19
  -3   4   7    3.95    0.14
  -3   4   7    3.79    0.11
  -3   4   7    3.78    0.10
  -3   4   7    3.65    0.17
  -2  -4   7    2.43    0.15
  -2  -4   7    2.67    0.14
  -2  -4   7    2.70    0.13
  -2  -4   7    2.75    0.15
  -2  -4   7    2.65    0.12
  -2  -4   7    2.56    0.14
  -2  -4   7    2.33    0.14
  -2   4   7    2.57    0.10
   2   4  -7    2.73    0.15
  -2   4   7    2.65    0.10
   2   4  -7    2.94    0.16
  -2   4   7    2.53    0.14
  -2   4   7    2.60    0.11
  -2   4   7    2.55    0.10
  -1  -4   7   44.83    0.91
  -1  -4   7   44.66    0.86
  -1  -4   7   44.63    0.84
  -1  -4   7   43.26    0.85
  -1  -4   7   44.68    0.85
  -1  -4   7   44.14    0.88
   1   4  -7   43.60    0.89
  -1   4   7   44.10    0.85
   1   4  -7   43.04    0.93
  -1   4   7   44.74    0.77
  -1   4   7   45.55    0.74
  -1   4   7   44.59    0.82
   1   4  -7   44.68    0.85
   0  -4   7   27.12    0.57
   0  -4  -7   27.04    0.56
   0  -4   7   27.04    0.61
   0   4   7   26.93    0.50
   0   4   7   26.85    0.51
   0   4  -7   26.03    0.62
   0   4  -7   26.91    0.56
   0   4   7   26.60    0.47
   0   4   7   27.21    0.56
   0   4  -7   27.22    0.58
   0   4  -7   26.66    0.60
   0   4   7   27.16    0.57
   1  -4   7   13.10    0.34
   1  -4   7   13.69    0.35
  -1  -4  -7   13.25    0.33
  -1   4  -7   12.59    0.36
  -1   4  -7   13.62    0.33
   1   4   7   13.57    0.34
   1   4   7   13.00    0.30
   1   4   7   13.73    0.30
  -1   4  -7   13.41    0.35
  -1   4  -7   12.74    0.37
   1   4   7   13.51    0.35
  -1   4  -7   13.43    0.30
   2  -4   7    3.65    0.16
  -2  -4  -7    3.65    0.15
  -2  -4  -7    3.66    0.17
  -2  -4  -7    3.62    0.15
   2  -4   7    3.58    0.16
  -2   4  -7    3.46    0.14
  -2   4  -7    3.54    0.13
  -2   4  -7    3.68    0.17
   2   4   7    3.46    0.16
   2   4   7    3.45    0.14
  -2   4  -7    3.54    0.16
   3  -4   7    3.97    0.17
  -3  -4  -7    3.85    0.17
  -3  -4  -7    4.10    0.17
  -3  -4  -7    4.02    0.15
   3  -4   7    4.02    0.16
  -3  -4  -7    3.69    0.15
  -3   4  -7    4.30    0.17
   3   4   7    3.97    0.17
  -3   4  -7    4.05    0.18
  -3   4  -7    4.13    0.15
  -3   4  -7    3.93    0.16
  -3   4  -7    4.28    0.16
   3   4   7    4.06    0.16
  -4  -4  -7    7.67    0.23
  -4  -4  -7    7.73    0.23
  -4  -4  -7    7.37    0.21
  -4  -4  -7    7.93    0.19
  -4  -4  -7    7.24    0.21
   4   4   7    7.43    0.23
  -4   4  -7    7.52    0.23
  -4   4  -7    7.62    0.18
  -4   4  -7    7.62    0.20
  -4   4  -7    7.85    0.22
  -4   4  -7    7.58    0.19
   4   4   7    7.81    0.21
  -4   4  -7    7.14    0.16
  -5  -4  -7    4.27    0.15
  -5  -4  -7    4.05    0.14
   5  -4   7    4.34    0.15
  -5  -4  -7    4.21    0.14
  -5  -4  -7    4.14    0.14
  -5   4  -7    4.28    0.15
   5   4   7    4.46    0.14
  -5   4  -7    4.23    0.13
  -7  -5   7    0.29    0.05
  -7  -5   7    0.33    0.05
  -7  -5   7    0.24    0.05
  -7  -5   7    0.26    0.03
  -7  -5   7    0.31    0.03
   7   5  -7    0.30    0.06
   7   5  -7    0.24    0.05
  -7   5   7    0.20    0.05
  -6  -5   7    3.18    0.10
  -6  -5   7    3.22    0.12
  -6  -5   7    3.50    0.09
  -6  -5   7    3.26    0.09
  -6  -5   7    3.57    0.14
  -6  -5   7    3.58    0.12
  -6  -5   7    3.12    0.13
   6   5  -7    3.46    0.17
   6   5  -7    3.59    0.15
  -6   5   7    3.62    0.16
  -5  -5   7    2.80    0.12
  -5  -5   7    2.58    0.12
  -5  -5   7    2.71    0.13
  -5  -5   7    2.72    0.11
  -5  -5   7    2.47    0.13
  -5  -5   7    2.56    0.09
  -5  -5   7    2.54    0.12
   5   5  -7    2.51    0.13
   5   5  -7    2.59    0.15
  -5   5   7    2.44    0.14
   5   5  -7    2.47    0.15
  -5   5   7    2.36    0.09
  -4  -5   7    2.55    0.14
  -4  -5   7    2.44    0.14
  -4  -5   7    2.65    0.13
  -4  -5   7    2.31    0.13
  -4  -5   7    2.67    0.12
  -4  -5   7    2.64    0.14
   4   5  -7    2.47    0.16
   4   5  -7    2.78    0.14
  -4   5   7    2.61    0.10
  -4   5   7    2.62    0.14
   4   5  -7    2.56    0.14
  -4   5   7    2.55    0.10
  -3  -5   7    0.93    0.08
  -3  -5   7    0.99    0.11
  -3  -5   7    1.12    0.11
  -3  -5   7    0.90    0.08
  -3  -5   7    1.10    0.10
  -3  -5   7    1.24    0.12
  -3  -5   7    1.10    0.11
  -3   5   7    0.88    0.07
   3   5  -7    0.91    0.09
   3   5  -7    0.99    0.10
  -3   5   7    0.75    0.09
   3   5  -7    1.05    0.12
  -3   5   7    1.00    0.10
  -3   5   7    0.90    0.06
  -2  -5   7   12.73    0.34
  -2  -5   7   12.65    0.35
  -2  -5   7   12.60    0.31
  -2  -5   7   12.52    0.35
  -2  -5   7   12.86    0.33
  -2  -5   7   12.36    0.36
   2   5  -7   12.28    0.33
  -2   5   7   12.77    0.33
  -2   5   7   12.27    0.28
  -2   5   7   12.52    0.27
  -2   5   7   12.36    0.26
   2   5  -7   12.15    0.36
   2   5  -7   12.69    0.36
  -1  -5   7    8.62    0.29
  -1  -5   7    9.12    0.26
  -1  -5   7    8.41    0.27
  -1  -5   7    8.72    0.26
  -1  -5   7    9.15    0.29
  -1  -5   7    9.10    0.26
  -1   5   7    8.87    0.20
  -1   5   7    9.13    0.23
   1   5  -7    9.23    0.30
  -1   5   7    8.88    0.23
   1   5  -7    8.88    0.29
  -1   5   7    8.81    0.23
   1   5  -7    8.19    0.28
  -1   5   7    9.01    0.27
   1   5  -7    8.93    0.26
   0  -5   7    2.06    0.13
   0  -5   7    2.14    0.14
   0  -5  -7    2.20    0.12
   0  -5   7    2.14    0.13
   0   5   7    2.14    0.10
   0   5   7    2.11    0.11
   0   5  -7    1.98    0.13
   0   5   7    2.02    0.08
   0   5  -7    2.16    0.14
   0   5   7    2.20    0.12
   0   5  -7    1.82    0.11
   1  -5   7    2.12    0.13
  -1  -5  -7    2.15    0.12
  -1  -5  -7    2.15    0.12
   1   5   7    2.19    0.09
   1   5   7    2.27    0.10
  -1   5  -7    2.33    0.14
  -1   5  -7    2.04    0.13
  -1   5  -7    2.13    0.10
  -1   5  -7    2.08    0.14
   1   5   7    2.27    0.13
   1   5   7    2.02    0.12
  -2  -5  -7    1.68    0.11
  -2  -5  -7    1.59    0.10
   2  -5   7    1.64    0.11
  -2  -5  -7    1.75    0.10
  -2   5  -7    1.36    0.12
  -2   5  -7    1.68    0.11
   2   5   7    1.55    0.10
   2   5   7    1.58    0.08
  -2   5  -7    1.26    0.11
   2   5   7    1.63    0.11
  -2   5  -7    1.37    0.08
   3  -5   7   10.67    0.28
  -3  -5  -7   10.40    0.25
  -3  -5  -7   11.03    0.25
  -3  -5  -7   10.51    0.28
  -3  -5  -7   10.60    0.29
  -3   5  -7   10.20    0.27
   3   5   7    9.93    0.24
   3   5   7    9.99    0.27
  -3   5  -7    9.87    0.24
  -3   5  -7    9.77    0.24
  -3   5  -7   10.06    0.23
  -3   5  -7   10.38    0.27
   3   5   7   10.02    0.26
  -4  -5  -7    0.18    0.03
  -4  -5  -7    0.17    0.05
  -4  -5  -7    0.16    0.04
  -4   5  -7    0.14    0.03
   4   5   7    0.17    0.04
  -4   5  -7    0.15    0.03
  -4   5  -7    0.16    0.04
   4   5   7    0.14    0.04
   4   5   7    0.18    0.05
  -6  -6   7    1.03    0.06
  -6  -6   7    1.04    0.09
  -6  -6   7    1.05    0.06
  -6  -6   7    1.04    0.07
   6   6  -7    1.04    0.08
  -6   6   7    0.99    0.05
   6   6  -7    1.11    0.09
  -6   6   7    0.87    0.08
  -5  -6   7    0.35    0.05
  -5  -6   7    0.39    0.06
  -5  -6   7    0.33    0.05
  -5  -6   7    0.34    0.04
  -5  -6   7    0.35    0.04
  -5   6   7    0.27    0.03
   5   6  -7    0.37    0.06
  -5   6   7    0.36    0.06
  -5   6   7    0.34    0.04
   5   6  -7    0.33    0.07
   5   6  -7    0.29    0.05
  -4  -6   7    1.76    0.10
  -4  -6   7    1.79    0.11
  -4  -6   7    1.81    0.11
   4   6  -7    1.71    0.12
   4   6  -7    1.54    0.09
   4   6  -7    1.54    0.10
  -4   6   7    1.75    0.11
  -4   6   7    1.60    0.08
  -4   6   7    1.60    0.07
  -3  -6   7    1.79    0.08
  -3  -6   7    1.95    0.12
  -3  -6   7    1.76    0.11
  -3  -6   7    1.67    0.12
  -3   6   7    1.59    0.07
   3   6  -7    1.65    0.12
  -3   6   7    1.75    0.11
   3   6  -7    1.91    0.11
  -3   6   7    1.64    0.08
  -2  -6   7    3.56    0.15
  -2  -6   7    3.55    0.13
  -2  -6   7    3.77    0.14
  -2  -6   7    3.72    0.17
  -2  -6   7    3.59    0.14
  -2  -6   7    3.55    0.16
  -2   6   7    3.54    0.12
  -2   6   7    3.54    0.15
  -2   6   7    3.64    0.11
   2   6  -7    3.65    0.17
   2   6  -7    3.49    0.16
   2   6  -7    3.49    0.15
  -1  -6   7    2.66    0.13
  -1  -6   7    2.78    0.13
  -1  -6   7    2.71    0.15
  -1   6   7    2.68    0.10
   1   6  -7    2.77    0.12
  -1   6   7    2.73    0.13
   1   6  -7    2.43    0.14
  -1   6   7    2.75    0.09
   1   6  -7    2.70    0.15
  -1   6   7    2.77    0.11
   0  -6   7    1.00    0.11
   0  -6   7    0.80    0.08
   0  -6   7    0.85    0.08
   0  -6  -7    0.71    0.08
   0   6  -7    0.73    0.09
   0   6  -7    0.79    0.07
   0   6   7    0.77    0.08
   0   6   7    0.75    0.06
   0   6  -7    0.83    0.09
   0   6   7    0.77    0.07
   0   6   7    0.75    0.07
   1  -6   7    1.50    0.10
   1  -6   7    1.54    0.10
  -1  -6  -7    1.48    0.09
  -1  -6  -7    1.50    0.09
  -1   6  -7    1.50    0.10
   1   6   7    1.46    0.09
   1   6   7    1.41    0.09
  -1   6  -7    1.36    0.11
   2  -6   7    4.34    0.15
  -2  -6  -7    4.19    0.14
  -2  -6  -7    4.19    0.14
  -2  -6  -7    4.07    0.15
   2  -6   7    4.50    0.16
  -2   6  -7    4.25    0.15
  -2   6  -7    3.85    0.13
   2   6   7    3.89    0.14
   2   6   7    4.08    0.14
  -2   6  -7    4.24    0.13
   3  -6   7    0.05    0.04
  -3  -6  -7    0.09    0.04
   3  -6   7    0.08    0.04
  -3  -6  -7    0.11    0.04
   3   6   7    0.12    0.04
  -3   6  -7    0.12    0.04
  -4  -7   7    1.60    0.09
   4   7  -7    1.57    0.09
  -4   7   7    1.35    0.06
  -4   7   7    1.41    0.06
  -3  -7   7    2.97    0.12
  -3  -7   7    2.71    0.13
   3   7  -7    2.72    0.12
  -3   7   7    2.56    0.09
  -3   7   7    2.70    0.08
   3   7  -7    2.79    0.11
  -2  -7   7    0.25    0.04
  -2  -7   7    0.19    0.05
  -2  -7   7    0.24    0.05
  -2   7   7    0.22    0.03
   2   7  -7    0.16    0.05
   2   7  -7    0.20    0.05
  -2   7   7    0.16    0.03
   2   7  -7    0.14    0.04
  -1  -7   7    0.64    0.08
  -1  -7   7    0.67    0.06
   1   7  -7    0.61    0.07
  -1   7   7    0.61    0.05
   1   7  -7    0.54    0.07
   0  -7  -7    0.55    0.06
   0  -7  -7    0.49    0.05
   0  -7   7    0.47    0.06
   0   7  -7    0.31    0.06
   0   7  -7    0.44    0.06
   0   7   7    0.47    0.03
   1  -7   7    1.57    0.09
  -1  -7  -7    1.71    0.09
   1  -7   7    1.71    0.09
  -1   7  -7    1.75    0.10
  -9   0   8    7.04    0.21
  -9   0   8    6.85    0.20
  -9   0   8    6.74    0.21
  -9   0   8    7.24    0.21
  -8   0   8   13.32    0.35
  -8   0   8   13.50    0.36
  -8   0   8   13.52    0.33
  -8   0   8   13.26    0.34
  -8   0   8   12.93    0.35
  -7   0   8   23.54    0.55
  -7   0   8   23.56    0.52
  -7   0   8   24.06    0.53
  -7   0   8   24.14    0.56
  -7   0   8   23.70    0.57
  -6   0   8   10.21    0.15
  -6   0   8    9.42    0.27
  -6   0   8   10.17    0.31
  -6   0   8    9.80    0.24
  -6   0   8   10.31    0.32
  -6   0   8    9.90    0.15
  -6   0   8    9.66    0.29
  -6   0   8   10.14    0.31
  -5   0   8    2.53    0.15
  -5   0   8    2.82    0.16
  -5   0   8    2.73    0.15
  -5   0   8    2.70    0.15
  -5   0   8    2.64    0.11
  -5   0   8    2.70    0.08
  -4   0   8    0.97    0.11
  -4   0   8    0.74    0.06
  -4   0   8    0.80    0.10
  -4   0   8    0.82    0.09
  -4   0   8    0.68    0.06
  -4   0   8    0.84    0.09
  -4   0   8    0.69    0.07
  -4   0   8    0.77    0.07
  -4   0   8    0.95    0.11
  -4   0   8    0.88    0.07
  -3   0   8   29.12    0.57
  -3   0   8   29.72    0.56
  -3   0   8   29.10    0.54
   3   0  -8   29.56    0.66
  -3   0   8   30.47    0.52
  -3   0   8   29.87    0.63
  -3   0   8   28.69    0.67
  -3   0   8   29.78    0.60
  -3   0   8   29.20    0.60
  -3   0   8   30.03    0.60
  -2   0   8   27.11    0.55
  -2   0   8   26.86    0.56
  -2   0   8   27.06    0.48
  -2   0   8   26.47    0.55
  -2   0   8   27.51    0.58
  -2   0   8   26.63    0.51
   2   0  -8   26.35    0.62
  -2   0   8   27.46    0.56
  -2   0   8   25.98    0.49
  -2   0   8   27.13    0.62
  -1   0   8    0.53    0.05
  -1   0   8    0.43    0.07
  -1   0   8    0.55    0.08
  -1   0   8    0.52    0.07
  -1   0   8    0.47    0.07
   1   0  -8    0.58    0.08
  -1   0   8    0.44    0.06
   1   0  -8    0.51    0.07
  -1   0   8    0.62    0.06
   0   0   8    0.40    0.07
   0   0  -8    0.66    0.08
   0   0  -8    0.31    0.05
   0   0   8    0.59    0.07
   0   0   8    0.41    0.07
   0   0   8    0.50    0.04
   0   0   8    0.50    0.08
   0   0   8    0.50    0.07
   0   0   8    0.54    0.06
  -1   0  -8    0.07    0.04
  -1   0  -8    0.06    0.04
  -1   0  -8    0.07    0.04
  -1   0  -8    0.07    0.05
   1   0   8    0.05    0.04
   1   0   8    0.03    0.04
   1   0   8    0.02    0.04
   1   0   8    0.09    0.05
   2   0   8   14.12    0.36
  -2   0  -8   13.95    0.36
  -2   0  -8   14.19    0.35
   2   0   8   13.64    0.34
  -2   0  -8   14.16    0.37
  -2   0  -8   14.32    0.34
   2   0   8   14.30    0.37
  -2   0  -8   14.12    0.35
  -3   0  -8    1.14    0.11
   3   0   8    0.93    0.10
   3   0   8    0.95    0.09
  -3   0  -8    1.11    0.11
  -3   0  -8    0.88    0.09
  -3   0  -8    0.88    0.08
  -3   0  -8    1.09    0.11
  -4   0  -8    7.76    0.20
   4   0   8    7.84    0.23
  -4   0  -8    7.31    0.24
  -4   0  -8    7.69    0.24
  -4   0  -8    7.69    0.23
   4   0   8    7.37    0.23
  -4   0  -8    7.59    0.23
  -5   0  -8   15.22    0.32
   5   0   8   15.13    0.35
  -5   0  -8   15.35    0.35
  -5   0  -8   15.04    0.31
   5   0   8   15.45    0.35
  -5   0  -8   15.82    0.35
  -5   0  -8   14.99    0.32
  -5   0  -8   15.36    0.35
   6   0   8    5.54    0.16
  -6   0  -8    6.09    0.18
  -6   0  -8    6.11    0.17
  -6   0  -8    5.75    0.14
  -6   0  -8    5.96    0.15
  -9  -1   8    2.16    0.12
  -9  -1   8    2.09    0.11
  -9  -1   8    1.99    0.10
  -9   1   8    1.96    0.04
  -9   1   8    2.00    0.11
  -9   1   8    2.00    0.12
  -9   1   8    1.97    0.11
  -8  -1   8    5.90    0.21
  -8  -1   8    6.50    0.21
  -8  -1   8    6.24    0.21
  -8  -1   8    6.63    0.23
  -8   1   8    6.39    0.21
  -8   1   8    6.36    0.21
  -8   1   8    6.45    0.23
  -8   1   8    6.45    0.22
  -8   1   8    6.72    0.23
  -8   1   8    6.26    0.09
  -7  -1   8    4.83    0.20
  -7  -1   8    4.80    0.19
  -7  -1   8    5.20    0.22
  -7  -1   8    4.69    0.18
  -7  -1   8    5.39    0.21
  -7  -1   8    4.71    0.15
  -7   1   8    5.11    0.21
  -7   1   8    4.84    0.20
  -7   1   8    4.70    0.18
  -7   1   8    4.67    0.19
  -7   1   8    5.25    0.20
  -6  -1   8   16.81    0.26
  -6  -1   8   16.50    0.43
  -6  -1   8   16.67    0.41
  -6  -1   8   17.00    0.36
  -6  -1   8   16.48    0.26
  -6  -1   8   16.63    0.44
  -6  -1   8   16.71    0.46
  -6  -1   8   16.70    0.40
  -6   1   8   16.52    0.43
  -6   1   8   17.07    0.43
  -6   1   8   16.66    0.41
  -6   1   8   16.76    0.45
  -6   1   8   16.25    0.40
  -5  -1   8   21.10    0.34
  -5  -1   8   21.57    0.37
  -5  -1   8   21.39    0.51
  -5  -1   8   21.23    0.52
  -5  -1   8   21.60    0.49
  -5  -1   8   21.31    0.36
  -5  -1   8   22.10    0.47
  -5  -1   8   21.47    0.43
  -5  -1   8   21.62    0.41
  -5  -1   8   21.29    0.45
  -5  -1   8   20.94    0.43
  -5  -1   8   21.75    0.55
  -5   1   8   20.44    0.41
  -5   1   8   21.28    0.31
  -5   1   8   21.22    0.53
  -5   1   8   21.82    0.49
  -5   1   8   22.02    0.52
  -5   1   8   21.64    0.51
  -4  -1   8    5.44    0.16
  -4  -1   8    5.87    0.20
  -4  -1   8    6.04    0.17
  -4  -1   8    5.82    0.16
  -4  -1   8    5.63    0.22
  -4  -1   8    5.60    0.22
  -4  -1   8    6.15    0.18
  -4  -1   8    6.05    0.24
  -4  -1   8    5.88    0.21
  -4  -1   8    5.76    0.19
  -4   1   8    6.01    0.16
  -4   1   8    5.51    0.21
  -4   1   8    5.69    0.17
  -4   1   8    5.99    0.23
  -4   1   8    5.79    0.13
  -4   1   8    5.86    0.13
  -4   1   8    5.97    0.14
  -4   1   8    5.71    0.20
  -4   1   8    5.69    0.19
  -3  -1   8    9.02    0.21
  -3  -1   8    9.33    0.27
  -3  -1   8    9.32    0.28
  -3  -1   8    9.36    0.24
  -3  -1   8    9.23    0.26
  -3  -1   8    8.91    0.26
  -3  -1   8    8.83    0.24
  -3  -1   8    9.32    0.30
   3   1  -8    8.88    0.28
  -3   1   8    9.13    0.21
  -3   1   8    9.36    0.26
  -3   1   8    9.24    0.23
  -3   1   8    9.31    0.22
  -3   1   8    8.94    0.28
  -3   1   8    9.07    0.24
  -3   1   8    9.06    0.22
  -3   1   8    9.06    0.22
  -3   1   8    9.70    0.28
  -3   1   8    8.93    0.26
  -2  -1   8   29.46    0.68
  -2  -1   8   29.80    0.56
  -2  -1   8   31.09    0.63
  -2  -1   8   29.59    0.63
  -2  -1   8   29.84    0.55
  -2  -1   8   29.31    0.61
  -2  -1   8   30.25    0.61
   2  -1  -8   28.90    0.68
  -2  -1   8   29.32    0.60
  -2  -1   8   29.92    0.53
  -2   1   8   29.63    0.54
   2   1  -8   29.28    0.67
  -2   1   8   29.87    0.52
  -2   1   8   30.25    0.60
  -2   1   8   29.57    0.66
  -2   1   8   29.60    0.60
  -2   1   8   29.71    0.54
  -2   1   8   29.16    0.58
  -2   1   8   29.05    0.62
  -1  -1   8    0.58    0.08
  -1  -1   8    0.44    0.07
  -1  -1   8    0.40    0.08
  -1  -1   8    0.54    0.07
  -1  -1   8    0.57    0.06
  -1  -1   8    0.56    0.08
   1  -1  -8    0.46    0.08
  -1  -1   8    0.40    0.07
   1  -1  -8    0.50    0.06
  -1  -1   8    0.58    0.08
  -1  -1   8    0.51    0.05
  -1   1   8    0.56    0.07
   1   1  -8    0.37    0.06
  -1   1   8    0.55    0.08
  -1   1   8    0.50    0.05
  -1   1   8    0.37    0.06
  -1   1   8    0.54    0.06
  -1   1   8    0.57    0.08
  -1   1   8    0.52    0.06
   0  -1  -8    0.60    0.07
   0  -1   8    0.88    0.09
   0  -1   8    0.59    0.07
   0  -1   8    0.82    0.09
   0  -1  -8    0.44    0.07
   0  -1   8    0.61    0.06
   0  -1   8    0.69    0.09
   0  -1   8    0.61    0.09
   0  -1   8    0.67    0.09
   0   1  -8    0.61    0.08
   0   1   8    0.50    0.06
   0   1   8    0.46    0.07
   0   1   8    0.64    0.07
   0   1   8    0.52    0.07
   0   1   8    0.56    0.08
   0   1   8    0.47    0.04
   1  -1   8   35.23    0.71
   1  -1   8   37.34    0.74
   1  -1   8   37.57    0.70
  -1  -1  -8   36.61    0.68
  -1  -1  -8   35.91    0.69
   1  -1   8   36.42    0.73
  -1  -1  -8   35.35    0.72
   1  -1   8   33.48    0.78
  -1   1  -8   36.18    0.68
  -1   1  -8   36.02    0.69
   1   1   8   35.36    0.72
   1   1   8   35.06    0.72
  -1   1  -8   35.26    0.75
   1   1   8   35.80    0.71
   1   1   8   35.97    0.68
   2  -1   8   11.41    0.37
   2  -1   8   12.11    0.31
  -2  -1  -8   12.18    0.31
  -2  -1  -8   11.90    0.30
   2  -1   8   11.85    0.33
  -2  -1  -8   12.00    0.33
  -2  -1  -8   12.41    0.31
  -2  -1  -8   12.37    0.34
  -2   1  -8   11.69    0.34
  -2   1  -8   12.20    0.30
   2   1   8   11.81    0.32
   2   1   8   12.60    0.31
  -2   1  -8   11.34    0.30
   2   1   8   12.26    0.31
   2   1   8   11.86    0.33
  -2   1  -8   11.85    0.33
  -2   1  -8   11.50    0.31
   3  -1   8    7.89    0.24
  -3  -1  -8    7.94    0.22
  -3  -1  -8    7.94    0.24
   3  -1   8    7.99    0.25
  -3  -1  -8    7.72    0.25
  -3  -1  -8    7.16    0.24
  -3  -1  -8    7.67    0.23
   3   1   8    7.64    0.27
  -3   1  -8    7.88    0.21
   3   1   8    7.61    0.23
  -3   1  -8    7.84    0.26
  -3   1  -8    7.89    0.24
  -3   1  -8    8.02    0.25
  -3   1  -8    7.70    0.21
  -3   1  -8    8.01    0.25
   3   1   8    7.79    0.24
  -4  -1  -8    5.08    0.19
  -4  -1  -8    4.89    0.14
   4  -1   8    4.97    0.19
   4  -1   8    5.01    0.18
  -4  -1  -8    5.28    0.19
  -4  -1  -8    4.97    0.18
  -4  -1  -8    5.17    0.18
   4   1   8    5.11    0.18
  -4   1  -8    5.22    0.19
  -4   1  -8    5.14    0.16
  -4   1  -8    4.89    0.18
  -4   1  -8    5.24    0.18
  -4   1  -8    5.01    0.19
   5  -1   8    1.73    0.10
  -5  -1  -8    1.53    0.09
  -5  -1  -8    1.56    0.10
  -5  -1  -8    1.47    0.09
  -5  -1  -8    1.34    0.09
   5  -1   8    1.61    0.10
  -5   1  -8    1.63    0.10
  -5   1  -8    1.71    0.09
  -5   1  -8    1.43    0.09
   5   1   8    1.45    0.09
  -5   1  -8    1.44    0.08
  -5   1  -8    1.49    0.07
  -5   1  -8    1.55    0.08
  -6  -1  -8    0.54    0.06
   6  -1   8    0.49    0.06
  -6  -1  -8    0.54    0.05
  -6   1  -8    0.49    0.05
  -6   1  -8    0.47    0.06
   6   1   8    0.52    0.06
  -9  -2   8    4.64    0.17
  -9  -2   8    4.49    0.12
  -9  -2   8    4.59    0.15
  -9   2   8    4.69    0.16
  -9   2   8    4.56    0.06
  -9   2   8    4.50    0.16
  -9   2   8    4.52    0.16
  -8  -2   8    4.75    0.17
  -8  -2   8    4.69    0.19
  -8  -2   8    4.81    0.14
  -8  -2   8    4.96    0.17
  -8  -2   8    4.72    0.14
  -8   2   8    4.67    0.18
  -8   2   8    4.80    0.08
  -8   2   8    5.06    0.19
  -8   2   8    5.23    0.18
  -8   2   8    4.44    0.18
  -7  -2   8    4.54    0.17
  -7  -2   8    4.65    0.14
  -7  -2   8    4.60    0.18
  -7  -2   8    4.52    0.20
  -7  -2   8    4.60    0.21
  -7  -2   8    4.60    0.15
  -7  -2   8    4.57    0.08
  -7  -2   8    4.68    0.08
  -7   2   8    4.32    0.18
  -7   2   8    4.82    0.20
  -7   2   8    4.61    0.19
  -7   2   8    4.49    0.08
  -7   2   8    4.53    0.18
  -6  -2   8   13.74    0.37
  -6  -2   8   14.28    0.35
  -6  -2   8   13.99    0.36
  -6  -2   8   14.26    0.40
  -6  -2   8   14.14    0.24
  -6  -2   8   14.39    0.30
  -6  -2   8   14.13    0.34
  -6  -2   8   14.01    0.41
  -6  -2   8   13.84    0.35
  -6  -2   8   14.22    0.32
  -6   2   8   13.32    0.36
  -6   2   8   14.24    0.40
  -6   2   8   13.71    0.35
  -6   2   8   13.81    0.38
  -5  -2   8   14.64    0.38
  -5  -2   8   14.67    0.36
  -5  -2   8   14.86    0.30
  -5  -2   8   14.53    0.42
  -5  -2   8   14.76    0.37
  -5  -2   8   14.56    0.29
  -5  -2   8   14.93    0.32
  -5  -2   8   15.04    0.34
  -5  -2   8   15.21    0.41
  -5  -2   8   14.20    0.38
  -5  -2   8   15.40    0.34
  -5   2   8   14.49    0.30
  -5   2   8   14.50    0.22
  -5   2   8   15.06    0.41
  -5   2   8   14.25    0.39
  -5   2   8   15.02    0.30
  -5   2   8   14.09    0.38
  -5   2   8   14.64    0.37
  -4  -2   8    5.87    0.22
  -4  -2   8    5.57    0.22
  -4  -2   8    5.80    0.18
  -4  -2   8    6.02    0.25
  -4  -2   8    6.09    0.19
  -4  -2   8    6.04    0.17
  -4  -2   8    5.91    0.21
  -4  -2   8    6.33    0.22
  -4  -2   8    5.79    0.18
  -4  -2   8    6.20    0.21
  -4  -2   8    6.11    0.20
  -4   2   8    5.66    0.13
  -4   2   8    5.51    0.22
  -4   2   8    5.73    0.20
  -4   2   8    6.19    0.22
  -4   2   8    5.45    0.16
  -4   2   8    5.86    0.20
  -4   2   8    5.46    0.21
  -3  -2   8   10.31    0.30
  -3  -2   8   10.37    0.29
  -3  -2   8   10.28    0.29
  -3  -2   8   10.87    0.34
  -3  -2   8   10.73    0.30
  -3  -2   8   10.61    0.27
  -3  -2   8   10.25    0.31
  -3  -2   8   10.55    0.24
  -3  -2   8   10.21    0.28
  -3   2   8   10.47    0.23
  -3   2   8   10.40    0.25
  -3   2   8   10.63    0.31
  -3   2   8    9.95    0.28
  -3   2   8   10.50    0.26
  -3   2   8   10.92    0.23
  -3   2   8   10.57    0.23
  -3   2   8   10.40    0.31
  -2  -2   8   21.38    0.48
  -2  -2   8   20.89    0.47
  -2  -2   8   21.09    0.40
  -2  -2   8   21.82    0.49
  -2  -2   8   21.17    0.43
  -2  -2   8   21.09    0.53
  -2  -2   8   20.55    0.49
  -2  -2   8   20.92    0.48
  -2  -2   8   21.12    0.43
  -2   2   8   21.10    0.48
  -2   2   8   20.34    0.41
  -2   2   8   20.27    0.45
  -2   2   8   21.32    0.43
  -2   2   8   20.31    0.50
  -2   2   8   20.87    0.39
   2   2  -8   20.47    0.46
  -1  -2   8    2.33    0.12
  -1  -2   8    2.39    0.13
  -1  -2   8    2.26    0.12
  -1  -2   8    2.19    0.14
  -1  -2   8    2.07    0.08
  -1  -2   8    2.28    0.13
  -1  -2   8    2.35    0.13
   1  -2  -8    2.30    0.11
  -1  -2   8    2.43    0.11
  -1   2   8    2.17    0.12
  -1   2   8    2.40    0.13
  -1   2   8    2.45    0.11
   1   2  -8    2.29    0.13
  -1   2   8    2.11    0.09
  -1   2   8    2.02    0.09
  -1   2   8    2.24    0.12
  -1   2   8    2.09    0.10
   0  -2   8   26.87    0.62
   0  -2  -8   27.94    0.55
   0  -2   8   27.56    0.58
   0  -2  -8   27.31    0.56
   0  -2   8   26.92    0.60
   0  -2   8   28.03    0.57
   0  -2   8   27.79    0.59
   0  -2   8   28.03    0.56
   0   2   8   27.12    0.52
   0   2   8   27.09    0.51
   0   2  -8   26.63    0.60
   0   2   8   27.96    0.57
   0   2   8   27.03    0.51
   0   2  -8   27.84    0.57
   0   2   8   26.19    0.59
   0   2   8   27.79    0.57
   0   2   8   27.72    0.48
  -1  -2  -8   28.86    0.58
   1  -2   8   28.74    0.62
  -1  -2  -8   28.44    0.57
   1  -2   8   29.14    0.59
   1  -2   8   29.42    0.63
   1  -2   8   29.23    0.59
  -1   2  -8   28.96    0.63
   1   2   8   28.97    0.61
  -1   2  -8   28.92    0.60
   1   2   8   28.46    0.60
  -1   2  -8   28.94    0.64
  -1   2  -8   28.81    0.59
   1   2   8   29.47    0.54
   1   2   8   29.58    0.57
  -2  -2  -8   15.95    0.40
   2  -2   8   16.53    0.41
  -2  -2  -8   16.14    0.37
   2  -2   8   16.44    0.39
  -2  -2  -8   16.71    0.38
   2  -2   8   16.12    0.38
  -2  -2  -8   16.47    0.40
  -2   2  -8   16.69    0.39
  -2   2  -8   16.85    0.38
   2   2   8   16.53    0.41
   2   2   8   16.43    0.38
  -2   2  -8   17.56    0.42
  -2   2  -8   16.41    0.42
  -2   2  -8   16.09    0.40
   2   2   8   16.71    0.39
   3  -2   8    9.49    0.28
  -3  -2  -8   10.16    0.26
  -3  -2  -8    9.99    0.27
  -3  -2  -8   10.19    0.29
  -3  -2  -8    9.81    0.28
  -3  -2  -8   10.06    0.28
   3   2   8    9.32    0.28
  -3   2  -8    9.62    0.29
  -3   2  -8    9.73    0.28
   3   2   8    9.73    0.27
  -3   2  -8    9.61    0.23
  -3   2  -8    9.61    0.27
  -3   2  -8   10.21    0.28
  -3   2  -8    9.67    0.24
   4  -2   8    4.71    0.18
  -4  -2  -8    5.30    0.18
   4  -2   8    4.98    0.18
  -4  -2  -8    4.91    0.17
  -4  -2  -8    4.83    0.18
  -4  -2  -8    4.76    0.17
  -4  -2  -8    4.95    0.14
  -4   2  -8    5.25    0.19
  -4   2  -8    4.81    0.17
  -4   2  -8    5.10    0.18
   4   2   8    4.93    0.17
  -4   2  -8    5.20    0.16
  -4   2  -8    5.20    0.19
  -5  -2  -8    0.30    0.05
  -5  -2  -8    0.36    0.05
   5  -2   8    0.31    0.06
   5  -2   8    0.18    0.04
  -5  -2  -8    0.26    0.05
  -5  -2  -8    0.23    0.04
  -5   2  -8    0.33    0.06
   5   2   8    0.30    0.05
  -5   2  -8    0.32    0.06
  -5   2  -8    0.26    0.03
  -5   2  -8    0.33    0.04
  -5   2  -8    0.32    0.04
  -5   2  -8    0.36    0.05
  -6   2  -8    3.39    0.13
  -8  -3   8    4.30    0.13
  -8  -3   8    4.13    0.16
  -8  -3   8    4.42    0.13
  -8  -3   8    4.44    0.15
  -8   3   8    4.33    0.07
  -8   3   8    4.01    0.16
  -8   3   8    4.46    0.17
  -8   3   8    4.25    0.16
  -7  -3   8    5.83    0.16
  -7  -3   8    5.65    0.17
  -7  -3   8    5.73    0.17
  -7  -3   8    5.52    0.21
  -7  -3   8    5.66    0.11
  -7  -3   8    5.91    0.19
  -7  -3   8    5.95    0.19
  -7  -3   8    5.73    0.19
  -7  -3   8    5.65    0.11
  -7   3   8    5.63    0.20
  -7   3   8    5.79    0.20
  -7   3   8    5.33    0.21
   7   3  -8    5.82    0.22
  -6  -3   8    4.21    0.11
  -6  -3   8    4.24    0.18
  -6  -3   8    4.47    0.16
  -6  -3   8    4.39    0.16
  -6  -3   8    4.51    0.17
  -6  -3   8    4.31    0.19
  -6  -3   8    4.70    0.17
  -6  -3   8    4.29    0.13
  -6  -3   8    4.46    0.14
  -6   3   8    4.20    0.19
  -6   3   8    4.25    0.18
  -6   3   8    4.31    0.17
  -5  -3   8    3.18    0.14
  -5  -3   8    3.23    0.15
  -5  -3   8    3.13    0.15
  -5  -3   8    2.93    0.16
  -5  -3   8    3.00    0.11
  -5  -3   8    3.31    0.12
  -5  -3   8    3.01    0.13
  -5  -3   8    3.08    0.11
  -5  -3   8    3.09    0.15
  -5   3   8    3.01    0.16
  -5   3   8    2.95    0.11
  -5   3   8    3.32    0.16
  -5   3   8    3.07    0.16
  -4  -3   8    2.30    0.13
  -4  -3   8    2.23    0.13
  -4  -3   8    2.46    0.10
  -4  -3   8    2.20    0.11
  -4  -3   8    2.12    0.13
  -4  -3   8    2.41    0.13
  -4  -3   8    2.23    0.12
  -4  -3   8    2.55    0.14
  -4   3   8    2.27    0.10
  -4   3   8    2.14    0.07
  -4   3   8    2.28    0.13
  -4   3   8    2.28    0.14
  -4   3   8    2.16    0.13
  -3  -3   8    0.75    0.07
  -3  -3   8    0.43    0.07
  -3  -3   8    0.62    0.09
  -3  -3   8    0.71    0.09
  -3  -3   8    0.54    0.05
  -3  -3   8    0.55    0.06
  -3  -3   8    0.61    0.09
  -3  -3   8    0.62    0.08
  -3  -3   8    0.65    0.08
  -3  -3   8    0.65    0.09
  -3   3   8    0.64    0.05
  -3   3   8    0.69    0.06
  -3   3   8    0.73    0.05
  -3   3   8    0.56    0.08
  -3   3   8    0.59    0.06
  -3   3   8    0.57    0.08
  -2  -3   8   33.41    0.68
  -2  -3   8   33.22    0.62
  -2  -3   8   33.90    0.69
  -2  -3   8   33.24    0.71
  -2  -3   8   33.00    0.63
  -2  -3   8   33.17    0.57
  -2  -3   8   33.84    0.69
  -2  -3   8   33.68    0.68
  -2  -3   8   32.63    0.69
  -2   3   8   33.76    0.63
  -2   3   8   33.42    0.62
   2   3  -8   33.85    0.68
  -2   3   8   32.82    0.59
  -2   3   8   33.49    0.61
  -2   3   8   33.69    0.68
  -1  -3   8   12.42    0.33
  -1  -3   8   12.18    0.35
  -1  -3   8   12.19    0.33
  -1  -3   8   12.63    0.31
  -1  -3   8   12.11    0.33
  -1  -3   8   12.17    0.34
  -1  -3   8   12.00    0.33
  -1   3   8   11.71    0.29
  -1   3   8   11.60    0.28
  -1   3   8   12.06    0.32
   1   3  -8   11.97    0.32
  -1   3   8   11.66    0.25
   0  -3   8    7.52    0.24
   0  -3  -8    7.23    0.22
   0  -3  -8    7.33    0.23
   0  -3   8    6.75    0.23
   0  -3   8    7.42    0.25
   0  -3   8    7.14    0.26
   0  -3   8    7.40    0.24
   0  -3   8    7.07    0.23
   0  -3   8    6.82    0.25
   0   3   8    7.23    0.23
   0   3   8    7.18    0.17
   0   3  -8    7.17    0.29
   0   3  -8    7.16    0.23
   0   3  -8    7.11    0.25
   0   3   8    6.95    0.20
   0   3  -8    6.95    0.23
   0   3   8    7.26    0.19
   0   3   8    7.09    0.23
   0   3   8    7.33    0.20
  -1  -3  -8    2.67    0.13
  -1  -3  -8    2.34    0.13
   1  -3   8    2.44    0.13
   1  -3   8    2.06    0.13
   1  -3   8    2.03    0.14
   1  -3   8    2.19    0.13
   1   3   8    2.29    0.13
   1   3   8    2.36    0.11
  -1   3  -8    2.22    0.13
   1   3   8    2.28    0.11
  -1   3  -8    2.14    0.12
  -1   3  -8    2.20    0.15
  -1   3  -8    2.18    0.14
  -2  -3  -8    1.70    0.12
   2  -3   8    1.68    0.11
   2  -3   8    1.48    0.12
  -2  -3  -8    1.88    0.11
  -2  -3  -8    1.91    0.11
  -2   3  -8    1.71    0.10
  -2   3  -8    1.73    0.12
  -2   3  -8    1.82    0.12
   2   3   8    1.86    0.12
   2   3   8    1.81    0.11
  -2   3  -8    1.84    0.11
  -2   3  -8    1.67    0.13
   2   3   8    1.88    0.11
   3  -3   8    6.10    0.21
  -3  -3  -8    6.20    0.21
  -3  -3  -8    6.27    0.20
  -3  -3  -8    6.14    0.20
  -3  -3  -8    6.11    0.21
   3  -3   8    5.88    0.21
  -3  -3  -8    6.19    0.18
  -3   3  -8    6.10    0.18
  -3   3  -8    6.11    0.20
   3   3   8    5.95    0.21
  -3   3  -8    6.05    0.22
   3   3   8    6.24    0.19
  -3   3  -8    5.98    0.21
  -3   3  -8    5.91    0.20
   4  -3   8    2.14    0.12
   4  -3   8    2.22    0.12
  -4  -3  -8    2.11    0.11
  -4  -3  -8    2.01    0.11
  -4  -3  -8    2.19    0.11
  -4  -3  -8    2.07    0.08
  -4  -3  -8    2.18    0.11
  -4   3  -8    2.17    0.10
   4   3   8    2.23    0.11
  -4   3  -8    2.12    0.09
  -4   3  -8    2.08    0.11
  -4   3  -8    2.33    0.12
  -4   3  -8    2.13    0.09
   4   3   8    2.19    0.12
  -4   3  -8    2.33    0.12
  -5  -3  -8    0.57    0.06
   5  -3   8    0.48    0.06
  -5  -3  -8    0.50    0.06
   5  -3   8    0.48    0.06
  -5  -3  -8    0.48    0.06
   5   3   8    0.63    0.07
  -5   3  -8    0.57    0.07
  -5   3  -8    0.60    0.07
  -5   3  -8    0.53    0.05
  -5   3  -8    0.54    0.05
  -8  -4   8    4.22    0.12
  -8  -4   8    3.93    0.13
  -8  -4   8    4.08    0.11
   8   4  -8    3.53    0.13
  -8   4   8    3.92    0.15
  -7  -4   8    0.84    0.07
  -7  -4   8    0.89    0.08
  -7  -4   8    0.84    0.04
  -7  -4   8    0.95    0.08
  -7  -4   8    0.85    0.04
  -7  -4   8    0.71    0.06
  -7  -4   8    0.81    0.07
   7   4  -8    0.91    0.09
  -7   4   8    0.76    0.07
  -7   4   8    0.84    0.09
   7   4  -8    0.88    0.10
  -6  -4   8    9.38    0.21
  -6  -4   8    9.12    0.23
  -6  -4   8    9.07    0.21
  -6  -4   8    9.08    0.25
  -6  -4   8    8.73    0.25
  -6  -4   8    8.84    0.25
  -6  -4   8    8.98    0.26
   6   4  -8    8.67    0.29
  -6   4   8    9.51    0.28
  -5  -4   8    2.29    0.13
  -5  -4   8    2.08    0.09
  -5  -4   8    2.20    0.11
  -5  -4   8    2.27    0.13
  -5  -4   8    2.23    0.10
  -5  -4   8    2.08    0.09
  -5  -4   8    2.22    0.11
  -5  -4   8    1.94    0.12
  -5   4   8    2.06    0.09
  -5   4   8    2.25    0.14
   5   4  -8    2.26    0.15
  -4  -4   8    7.04    0.24
  -4  -4   8    6.91    0.21
  -4  -4   8    6.96    0.23
  -4  -4   8    6.89    0.17
  -4  -4   8    6.93    0.21
  -4  -4   8    6.73    0.23
  -4  -4   8    6.93    0.23
  -4   4   8    6.93    0.25
  -4   4   8    6.84    0.17
   4   4  -8    6.72    0.26
   4   4  -8    6.73    0.24
  -4   4   8    6.96    0.13
  -4   4   8    6.73    0.18
  -4   4   8    6.94    0.23
  -3  -4   8    1.81    0.12
  -3  -4   8    1.99    0.13
  -3  -4   8    1.84    0.12
  -3  -4   8    2.05    0.11
  -3  -4   8    1.82    0.13
  -3  -4   8    1.76    0.09
  -3  -4   8    2.00    0.12
  -3  -4   8    1.89    0.09
  -3   4   8    1.98    0.09
  -3   4   8    1.59    0.09
  -3   4   8    1.79    0.08
   3   4  -8    1.85    0.14
  -3   4   8    1.90    0.12
   3   4  -8    1.86    0.13
  -3   4   8    1.81    0.12
  -2  -4   8    5.12    0.17
  -2  -4   8    5.20    0.17
  -2  -4   8    5.13    0.20
  -2  -4   8    5.51    0.20
  -2  -4   8    4.96    0.21
  -2  -4   8    5.10    0.20
  -2  -4   8    5.21    0.21
  -2   4   8    5.12    0.16
  -2   4   8    5.13    0.14
   2   4  -8    5.18    0.22
  -2   4   8    5.14    0.15
   2   4  -8    5.20    0.20
  -2   4   8    5.25    0.20
  -2   4   8    5.20    0.15
  -1  -4   8    6.48    0.23
  -1  -4   8    6.13    0.24
  -1  -4   8    6.77    0.23
  -1  -4   8    6.74    0.23
  -1  -4   8    6.56    0.21
  -1  -4   8    6.94    0.24
  -1   4   8    6.55    0.17
  -1   4   8    6.62    0.23
  -1   4   8    6.32    0.19
  -1   4   8    6.68    0.19
   1   4  -8    6.39    0.24
   1   4  -8    6.33    0.22
   0  -4  -8    5.83    0.20
   0  -4   8    6.08    0.23
   0  -4   8    6.22    0.21
   0  -4   8    5.94    0.21
   0  -4  -8    5.80    0.20
   0   4  -8    5.63    0.20
   0   4  -8    5.64    0.23
   0   4   8    6.35    0.22
   0   4  -8    5.70    0.21
   0   4   8    6.05    0.18
   0   4   8    5.74    0.14
   0   4  -8    5.61    0.22
   0   4   8    5.67    0.19
  -1  -4  -8    0.77    0.08
   1  -4   8    0.80    0.09
   1  -4   8    1.12    0.11
   1  -4   8    0.90    0.09
  -1  -4  -8    0.78    0.08
   1  -4   8    0.84    0.11
  -1   4  -8    0.86    0.09
  -1   4  -8    0.85    0.10
  -1   4  -8    0.87    0.08
   1   4   8    1.03    0.10
  -1   4  -8    0.91    0.11
   1   4   8    0.86    0.07
   1   4   8    0.98    0.10
  -2  -4  -8   10.42    0.29
  -2  -4  -8   10.62    0.27
   2  -4   8   10.13    0.28
  -2  -4  -8   10.28    0.27
   2  -4   8   10.14    0.28
  -2   4  -8   10.51    0.29
   2   4   8   10.17    0.29
  -2   4  -8   10.87    0.31
  -2   4  -8   10.39    0.29
   2   4   8   10.63    0.25
   2   4   8   11.15    0.30
   2   4   8   10.57    0.28
   3  -4   8    0.64    0.08
  -3  -4  -8    0.58    0.07
  -3  -4  -8    0.49    0.06
   3  -4   8    0.57    0.06
  -3  -4  -8    0.51    0.06
   3  -4   8    0.49    0.07
  -3  -4  -8    0.61    0.07
   3   4   8    0.51    0.06
  -3   4  -8    0.62    0.06
  -3   4  -8    0.57    0.07
   3   4   8    0.51    0.07
   3   4   8    0.47    0.07
  -3   4  -8    0.57    0.07
  -3   4  -8    0.64    0.08
  -4  -4  -8    5.62    0.16
   4  -4   8    5.12    0.16
  -4  -4  -8    5.55    0.17
   4  -4   8    4.73    0.15
   4  -4   8    5.08    0.16
  -4  -4  -8    5.19    0.17
   4   4   8    5.18    0.15
  -4   4  -8    5.13    0.14
  -4   4  -8    4.95    0.16
  -4   4  -8    5.27    0.15
   4   4   8    5.03    0.17
  -4   4  -8    5.01    0.12
  -4   4  -8    5.32    0.12
   4   4   8    5.17    0.17
  -7  -5   8    6.73    0.16
  -7  -5   8    6.56    0.11
  -7  -5   8    6.65    0.11
  -7   5   8    6.49    0.20
   7   5  -8    6.50    0.20
   7   5  -8    6.47    0.19
  -6  -5   8    6.55    0.15
  -6  -5   8    6.66    0.17
  -6  -5   8    6.21    0.19
   6   5  -8    6.03    0.21
  -6   5   8    6.27    0.20
  -6   5   8    5.97    0.15
   6   5  -8    6.42    0.19
  -5  -5   8    1.51    0.08
  -5  -5   8    1.39    0.09
  -5  -5   8    1.60    0.10
  -5  -5   8    1.63    0.09
  -5  -5   8    1.42    0.07
  -5   5   8    1.26    0.10
   5   5  -8    1.34    0.09
   5   5  -8    1.49    0.12
  -5   5   8    1.46    0.07
   5   5  -8    1.51    0.11
  -5   5   8    1.53    0.07
  -4  -5   8    3.80    0.14
  -4  -5   8    3.59    0.15
  -4  -5   8    4.10    0.17
  -4  -5   8    3.70    0.14
  -4  -5   8    3.66    0.16
  -4  -5   8    3.63    0.16
  -4   5   8    3.76    0.12
  -4   5   8    3.80    0.11
   4   5  -8    3.75    0.18
  -4   5   8    3.60    0.16
   4   5  -8    3.53    0.16
   4   5  -8    3.78    0.15
  -3  -5   8    3.84    0.16
  -3  -5   8    3.88    0.16
  -3  -5   8    3.93    0.17
  -3  -5   8    4.10    0.17
  -3  -5   8    4.08    0.18
   3   5  -8    3.75    0.17
  -3   5   8    4.23    0.17
  -3   5   8    3.97    0.12
  -3   5   8    3.96    0.16
  -3   5   8    4.09    0.14
   3   5  -8    4.08    0.19
  -2  -5   8   19.50    0.45
  -2  -5   8   18.89    0.44
  -2  -5   8   19.44    0.47
  -2  -5   8   18.85    0.43
  -2  -5   8   18.82    0.40
  -2  -5   8   19.06    0.43
  -2   5   8   18.74    0.34
  -2   5   8   18.77    0.43
  -2   5   8   19.04    0.36
  -2   5   8   18.74    0.34
   2   5  -8   18.64    0.47
   2   5  -8   18.45    0.46
   2   5  -8   19.64    0.43
  -2   5   8   19.19    0.38
  -1  -5   8    5.51    0.21
  -1  -5   8    5.70    0.22
  -1  -5   8    5.67    0.19
  -1  -5   8    5.64    0.20
  -1   5   8    5.81    0.20
  -1   5   8    5.55    0.17
  -1   5   8    5.60    0.15
   1   5  -8    5.18    0.24
   1   5  -8    5.53    0.19
   1   5  -8    5.87    0.22
  -1   5   8    5.63    0.14
  -1   5   8    5.43    0.16
   0  -5   8   14.82    0.35
   0  -5   8   14.16    0.35
   0  -5   8   13.99    0.37
   0  -5  -8   14.43    0.33
   0  -5  -8   14.51    0.34
   0   5   8   14.07    0.30
   0   5  -8   14.58    0.33
   0   5   8   14.44    0.32
   0   5  -8   14.14    0.39
   0   5  -8   14.66    0.37
   0   5   8   14.44    0.35
   1  -5   8    1.54    0.10
   1  -5   8    1.41    0.10
  -1  -5  -8    1.33    0.09
  -1  -5  -8    1.56    0.10
  -1   5  -8    1.17    0.10
   1   5   8    1.46    0.10
  -1   5  -8    1.94    0.12
   1   5   8    1.32    0.09
  -1   5  -8    1.48    0.07
   2  -5   8    7.33    0.21
  -2  -5  -8    7.33    0.20
  -2  -5  -8    7.04    0.19
   2  -5   8    7.07    0.21
  -2  -5  -8    7.14    0.21
  -2   5  -8    7.07    0.22
  -2   5  -8    7.24    0.20
   2   5   8    6.94    0.20
   2   5   8    6.76    0.20
   2   5   8    6.66    0.20
   3  -5   8    0.50    0.06
   3  -5   8    0.58    0.06
  -3  -5  -8    0.52    0.06
  -3  -5  -8    0.58    0.05
  -3  -5  -8    0.58    0.06
  -3   5  -8    0.59    0.05
   3   5   8    0.48    0.06
   3   5   8    0.52    0.04
   3   5   8    0.64    0.07
  -3   5  -8    0.68    0.07
  -5  -6   8    0.81    0.06
  -5   6   8    0.72    0.05
  -5   6   8    0.75    0.05
   5   6  -8    0.94    0.10
   5   6  -8    0.85    0.07
  -5   6   8    0.73    0.07
  -4  -6   8    2.81    0.12
  -4  -6   8    2.68    0.12
  -4  -6   8    2.90    0.11
  -4   6   8    2.69    0.12
   4   6  -8    2.57    0.13
   4   6  -8    2.64    0.12
  -4   6   8    2.59    0.09
  -4   6   8    2.74    0.09
  -3  -6   8    4.40    0.16
  -3  -6   8    4.11    0.16
  -3  -6   8    4.22    0.16
  -3  -6   8    4.41    0.14
   3   6  -8    4.39    0.17
  -3   6   8    4.20    0.11
  -3   6   8    4.13    0.13
   3   6  -8    4.25    0.15
  -2  -6   8    0.40    0.06
  -2  -6   8    0.42    0.05
  -2  -6   8    0.33    0.05
  -2  -6   8    0.41    0.07
  -2   6   8    0.32    0.06
   2   6  -8    0.35    0.06
   2   6  -8    0.30    0.05
  -2   6   8    0.29    0.04
  -2   6   8    0.39    0.04
  -1  -6   8   10.90    0.25
  -1  -6   8   10.70    0.27
  -1  -6   8   10.72    0.29
  -1  -6   8   10.66    0.28
  -1  -6   8   10.81    0.25
   1   6  -8   10.47    0.28
  -1   6   8   10.38    0.19
   1   6  -8   10.36    0.24
  -1   6   8   10.38    0.26
  -1   6   8   10.43    0.23
  -1   6   8   10.48    0.19
   1   6  -8   10.55    0.29
   0  -6   8    0.58    0.06
   0  -6  -8    0.64    0.06
   0  -6   8    0.55    0.07
   0  -6   8    0.59    0.07
   0  -6  -8    0.61    0.06
   0   6   8    0.57    0.07
   0   6   8    0.66    0.05
   0   6  -8    0.64    0.07
   0   6   8    0.59    0.05
   0   6   8    0.63    0.05
   0   6  -8    0.66    0.08
   0   6   8    0.79    0.06
  -1  -6  -8    0.29    0.05
  -1  -6  -8    0.30    0.05
   1  -6   8    0.42    0.06
   1  -6   8    0.41    0.06
  -1   6  -8    0.44    0.07
  -1   6  -8    0.37    0.06
   1   6   8    0.27    0.04
   1   6   8    0.40    0.06
   2  -6   8    0.02    0.04
  -2  -6  -8    0.07    0.04
  -2   6  -8    0.00    0.04
  -9   0   9   -0.04    0.04
  -9   0   9    0.04    0.04
  -9   0   9    0.01    0.04
  -8   0   9    3.30    0.15
  -8   0   9    3.43    0.16
  -8   0   9    3.45    0.15
  -8   0   9    3.11    0.13
  -8   0   9    3.42    0.15
  -7   0   9    1.59    0.12
  -7   0   9    1.47    0.11
  -7   0   9    1.42    0.08
  -7   0   9    1.56    0.12
  -7   0   9    1.45    0.11
  -6   0   9    5.46    0.21
  -6   0   9    4.87    0.09
  -6   0   9    4.79    0.08
  -6   0   9    4.59    0.20
  -6   0   9    4.98    0.16
  -6   0   9    5.05    0.20
  -6   0   9    4.80    0.21
  -5   0   9    0.00    0.04
  -5   0   9    0.08    0.05
  -5   0   9    0.02    0.03
  -5   0   9    0.03    0.04
  -5   0   9    0.00    0.04
  -5   0   9    0.02    0.03
  -5   0   9    0.10    0.03
  -5   0   9    0.04    0.03
  -5   0   9    0.04    0.05
  -4   0   9    6.91    0.19
  -4   0   9    6.84    0.23
  -4   0   9    7.03    0.20
  -4   0   9    7.32    0.17
  -4   0   9    6.76    0.17
  -4   0   9    7.21    0.26
  -4   0   9    6.72    0.22
  -4   0   9    6.93    0.18
  -4   0   9    7.08    0.25
  -4   0   9    7.11    0.26
  -4   0   9    6.82    0.20
  -3   0   9   15.08    0.31
  -3   0   9   15.14    0.36
  -3   0   9   14.90    0.39
  -3   0   9   15.11    0.31
  -3   0   9   14.75    0.33
  -3   0   9   14.60    0.41
  -3   0   9   14.85    0.33
  -3   0   9   14.73    0.37
  -3   0   9   14.70    0.33
  -3   0   9   15.10    0.37
  -2   0   9    6.20    0.21
  -2   0   9    5.84    0.16
  -2   0   9    5.82    0.20
  -2   0   9    5.69    0.23
  -2   0   9    5.65    0.22
  -2   0   9    5.68    0.21
  -2   0   9    5.95    0.20
  -2   0   9    5.93    0.18
  -1   0   9    8.01    0.22
  -1   0   9    8.17    0.26
   1   0  -9    7.46    0.24
  -1   0   9    7.61    0.24
  -1   0   9    8.23    0.25
  -1   0   9    7.85    0.19
  -1   0   9    7.78    0.25
  -1   0   9    7.83    0.21
   0   0   9    0.10    0.05
   0   0  -9    0.19    0.05
   0   0   9    0.21    0.06
   0   0   9    0.23    0.05
   0   0   9    0.25    0.06
   0   0   9    0.22    0.06
   0   0   9    0.25    0.05
   0   0  -9    0.13    0.05
   1   0   9   26.01    0.57
   1   0   9   25.40    0.53
  -1   0  -9   25.85    0.57
   1   0   9   25.77    0.55
  -1   0  -9   26.84    0.55
  -1   0  -9   25.42    0.53
   1   0   9   27.23    0.58
   1   0   9   26.06    0.59
  -2   0  -9    0.82    0.09
  -2   0  -9    1.03    0.11
   2   0   9    0.89    0.10
   2   0   9    0.89    0.09
  -2   0  -9    0.80    0.08
   2   0   9    0.93    0.10
  -2   0  -9    0.88    0.09
  -2   0  -9    1.01    0.10
   3   0   9   -0.07    0.03
  -3   0  -9    0.00    0.04
  -3   0  -9    0.05    0.04
  -3   0  -9    0.05    0.03
  -3   0  -9   -0.02    0.04
   3   0   9    0.04    0.04
  -3   0  -9    0.04    0.04
   3   0   9   -0.02    0.03
   4   0   9    3.45    0.14
  -4   0  -9    3.51    0.14
  -4   0  -9    3.43    0.14
   4   0   9    3.19    0.14
  -4   0  -9    3.77    0.14
  -4   0  -9    3.44    0.14
  -5   0  -9    0.16    0.04
  -5   0  -9    0.17    0.05
   5   0   9    0.15    0.04
  -9  -1   9    0.36    0.06
  -9   1   9    0.40    0.06
  -9   1   9    0.55    0.07
  -8  -1   9    3.59    0.11
  -8  -1   9    3.80    0.16
  -8  -1   9    3.55    0.15
  -8  -1   9    3.66    0.11
  -8  -1   9    3.71    0.14
  -8  -1   9    4.05    0.15
  -8  -1   9    3.83    0.15
  -8   1   9    3.69    0.16
  -8   1   9    3.70    0.15
  -8   1   9    3.41    0.14
  -8   1   9    3.65    0.16
  -8   1   9    3.62    0.14
  -7  -1   9    0.59    0.08
  -7  -1   9    0.48    0.08
  -7  -1   9    0.47    0.08
  -7  -1   9    0.69    0.09
  -7  -1   9    0.62    0.06
  -7  -1   9    0.62    0.06
  -7   1   9    0.62    0.08
  -7   1   9    0.71    0.08
  -7   1   9    0.60    0.08
  -7   1   9    0.51    0.08
  -6  -1   9    1.28    0.08
  -6  -1   9    1.21    0.13
  -6  -1   9    1.30    0.09
  -6  -1   9    1.26    0.05
  -6  -1   9    1.08    0.05
  -6  -1   9    1.49    0.09
  -6  -1   9    1.26    0.10
  -6  -1   9    1.42    0.12
  -6  -1   9    1.11    0.12
  -6  -1   9    1.26    0.12
  -6   1   9    1.40    0.12
  -6   1   9    1.08    0.11
  -6   1   9    1.31    0.08
  -6   1   9    1.48    0.14
  -6   1   9    1.24    0.12
  -5  -1   9   26.70    0.54
  -5  -1   9   26.89    0.51
  -5  -1   9   26.62    0.59
  -5  -1   9   25.92    0.64
  -5  -1   9   26.61    0.51
  -5  -1   9   27.20    0.49
  -5  -1   9   26.50    0.56
  -5  -1   9   26.21    0.40
  -5  -1   9   26.20    0.61
  -5  -1   9   26.92    0.58
  -5   1   9   26.92    0.38
  -5   1   9   26.85    0.63
  -5   1   9   26.41    0.50
  -5   1   9   25.87    0.57
  -5   1   9   27.17    0.61
  -5   1   9   25.84    0.48
  -5   1   9   26.27    0.60
  -4  -1   9   23.75    0.50
  -4  -1   9   23.24    0.51
  -4  -1   9   23.13    0.54
  -4  -1   9   23.71    0.45
  -4  -1   9   23.42    0.56
  -4  -1   9   22.87    0.45
  -4  -1   9   23.16    0.47
  -4  -1   9   23.80    0.53
  -4  -1   9   23.66    0.58
  -4  -1   9   23.49    0.45
  -4   1   9   23.30    0.55
  -4   1   9   23.38    0.54
  -4   1   9   23.50    0.39
  -4   1   9   23.27    0.51
  -4   1   9   22.85    0.45
  -4   1   9   22.85    0.57
  -4   1   9   22.55    0.45
  -4   1   9   22.76    0.39
  -4   1   9   23.25    0.43
  -4   1   9   23.40    0.37
  -4   1   9   22.81    0.49
  -3  -1   9   12.80    0.36
  -3  -1   9   12.37    0.34
  -3  -1   9   13.19    0.31
  -3  -1   9   12.99    0.39
  -3  -1   9   13.26    0.34
  -3  -1   9   13.62    0.35
  -3  -1   9   13.01    0.28
  -3  -1   9   13.23    0.32
  -3   1   9   12.47    0.31
  -3   1   9   12.49    0.35
  -3   1   9   12.62    0.36
  -3   1   9   12.90    0.33
  -3   1   9   12.77    0.27
  -3   1   9   12.71    0.28
  -3   1   9   12.76    0.28
  -3   1   9   12.74    0.29
  -2  -1   9   39.13    0.70
  -2  -1   9   39.50    0.79
  -2  -1   9   39.47    0.77
  -2  -1   9   38.33    0.85
  -2  -1   9   38.91    0.67
  -2  -1   9   38.32    0.79
  -2  -1   9   39.03    0.76
  -2  -1   9   39.21    0.76
  -2  -1   9   38.44    0.69
  -2   1   9   38.26    0.83
  -2   1   9   38.50    0.76
  -2   1   9   39.52    0.74
  -2   1   9   38.32    0.66
  -2   1   9   38.93    0.70
  -2   1   9   39.06    0.77
  -2   1   9   39.40    0.79
   1  -1  -9   39.50    0.76
  -1  -1   9   39.66    0.80
  -1  -1   9   40.37    0.73
  -1  -1   9   38.71    0.80
  -1  -1   9   38.78    0.65
  -1  -1   9   40.00    0.78
   1  -1  -9   38.44    0.72
  -1  -1   9   39.37    0.78
  -1  -1   9   39.23    0.71
  -1  -1   9   39.14    0.76
   1   1  -9   40.53    0.77
  -1   1   9   39.55    0.77
  -1   1   9   39.43    0.67
  -1   1   9   39.15    0.70
  -1   1   9   39.78    0.71
  -1   1   9   38.95    0.79
  -1   1   9   38.38    0.76
  -1   1   9   39.26    0.79
   0  -1   9    8.64    0.26
   0  -1   9    8.22    0.26
   0  -1  -9    7.88    0.24
   0  -1   9    8.17    0.27
   0  -1   9    7.87    0.23
   0  -1  -9    7.94    0.23
   0  -1   9    8.16    0.26
   0   1   9    8.20    0.22
   0   1   9    8.67    0.22
   0   1   9    7.93    0.26
   0   1   9    8.17    0.25
   0   1   9    8.45    0.26
   0   1  -9    7.95    0.25
   1  -1   9    2.46    0.15
   1  -1   9    2.53    0.13
   1  -1   9    2.61    0.14
  -1  -1  -9    2.51    0.13
  -1  -1  -9    2.57    0.13
   1  -1   9    2.41    0.15
   1  -1   9    2.73    0.14
  -1  -1  -9    2.68    0.14
  -1   1  -9    2.74    0.15
  -1   1  -9    2.52    0.15
  -1   1  -9    2.52    0.13
   1   1   9    2.49    0.13
   1   1   9    2.44    0.14
  -1   1  -9    2.42    0.14
   1   1   9    2.56    0.14
  -1   1  -9    2.56    0.13
   1   1   9    2.57    0.12
  -2  -1  -9   15.15    0.39
   2  -1   9   14.69    0.39
  -2  -1  -9   14.93    0.36
  -2  -1  -9   14.99    0.38
  -2  -1  -9   15.01    0.35
   2  -1   9   15.61    0.39
   2  -1   9   15.44    0.36
  -2   1  -9   14.83    0.38
  -2   1  -9   15.05    0.37
  -2   1  -9   14.80    0.36
   2   1   9   15.19    0.35
  -2   1  -9   15.39    0.35
  -2   1  -9   15.46    0.40
   2   1   9   14.65    0.37
   2   1   9   15.04    0.38
   3  -1   9    6.67    0.21
  -3  -1  -9    6.42    0.22
   3  -1   9    6.63    0.22
  -3  -1  -9    6.44    0.18
  -3  -1  -9    6.69    0.21
  -3  -1  -9    6.75    0.21
  -3  -1  -9    6.13    0.21
   3   1   9    6.76    0.22
  -3   1  -9    6.42    0.17
  -3   1  -9    7.08    0.23
  -3   1  -9    6.65    0.21
  -3   1  -9    6.57    0.21
   3   1   9    6.62    0.20
   3   1   9    6.64    0.21
  -3   1  -9    6.56    0.21
   4  -1   9    1.22    0.09
  -4  -1  -9    1.07    0.09
  -4  -1  -9    1.14    0.09
  -4  -1  -9    1.31    0.09
   4  -1   9    1.28    0.09
  -4  -1  -9    1.18    0.08
  -4   1  -9    1.12    0.09
  -4   1  -9    1.06    0.09
  -4   1  -9    1.20    0.08
   4   1   9    1.32    0.09
  -4   1  -9    1.19    0.09
  -5  -1  -9    6.98    0.19
  -5  -1  -9    6.87    0.19
   5  -1   9    7.00    0.19
   5  -1   9    7.10    0.19
   5   1   9    6.88    0.18
  -5   1  -9    6.90    0.19
  -5   1  -9    7.00    0.18
  -8  -2   9    6.49    0.16
  -8  -2   9    6.63    0.16
  -8  -2   9    6.67    0.20
  -8  -2   9    6.48    0.21
   8   2  -9    6.22    0.21
  -8   2   9    6.19    0.20
  -8   2   9    6.19    0.19
  -8   2   9    6.39    0.20
  -7  -2   9    5.43    0.18
  -7  -2   9    5.80    0.21
  -7  -2   9    5.64    0.16
  -7  -2   9    5.67    0.16
  -7  -2   9    5.73    0.20
  -7   2   9    5.64    0.19
  -7   2   9    5.44    0.21
  -7   2   9    5.33    0.20
  -6  -2   9    1.82    0.12
  -6  -2   9    1.99    0.13
  -6  -2   9    1.78    0.11
  -6  -2   9    1.78    0.12
  -6  -2   9    1.85    0.10
  -6  -2   9    1.93    0.07
  -6  -2   9    2.07    0.09
  -6  -2   9    1.87    0.11
  -6  -2   9    1.87    0.14
  -6   2   9    1.93    0.12
  -6   2   9    1.85    0.08
  -6   2   9    1.84    0.12
  -6   2   9    1.97    0.13
  -5  -2   9   13.80    0.32
  -5  -2   9   13.67    0.26
  -5  -2   9   14.51    0.39
  -5  -2   9   13.26    0.36
  -5  -2   9   13.48    0.40
  -5  -2   9   14.03    0.36
  -5  -2   9   13.98    0.34
  -5  -2   9   13.87    0.31
  -5  -2   9   13.93    0.30
  -5  -2   9   13.39    0.35
  -5  -2   9   13.70    0.26
  -5   2   9   12.43    0.33
  -5   2   9   13.59    0.29
  -5   2   9   13.97    0.39
  -5   2   9   13.26    0.36
  -5   2   9   13.64    0.36
  -5   2   9   13.29    0.20
  -5   2   9   13.64    0.28
  -4  -2   9    3.53    0.13
  -4  -2   9    3.54    0.17
  -4  -2   9    3.49    0.16
  -4  -2   9    3.39    0.16
  -4  -2   9    3.34    0.17
  -4  -2   9    3.39    0.19
  -4  -2   9    3.33    0.13
  -4  -2   9    3.58    0.16
  -4  -2   9    3.77    0.16
  -4  -2   9    3.62    0.14
  -4  -2   9    3.60    0.13
  -4   2   9    3.49    0.15
  -4   2   9    3.32    0.16
  -4   2   9    3.42    0.12
  -4   2   9    3.43    0.10
  -4   2   9    3.90    0.13
  -4   2   9    3.72    0.16
  -4   2   9    3.94    0.18
  -4   2   9    3.29    0.16
  -3  -2   9    6.44    0.22
  -3  -2   9    6.53    0.23
  -3  -2   9    6.62    0.26
  -3  -2   9    6.58    0.22
  -3  -2   9    6.43    0.21
  -3  -2   9    6.64    0.18
  -3  -2   9    6.95    0.25
  -3  -2   9    6.62    0.23
  -3  -2   9    6.19    0.20
  -3  -2   9    6.73    0.23
  -3   2   9    6.95    0.17
  -3   2   9    6.52    0.23
  -3   2   9    6.37    0.21
  -3   2   9    6.29    0.24
  -3   2   9    6.70    0.19
  -3   2   9    6.60    0.19
  -3   2   9    6.53    0.17
  -3   2   9    6.59    0.22
  -3   2   9    6.79    0.19
  -2  -2   9   27.63    0.48
  -2  -2   9   26.70    0.51
  -2  -2   9   28.01    0.60
  -2  -2   9   26.84    0.58
  -2  -2   9   26.99    0.58
   2  -2  -9   26.13    0.52
  -2  -2   9   27.00    0.57
  -2  -2   9   26.52    0.60
  -2  -2   9   26.87    0.53
  -2   2   9   27.91    0.60
   2   2  -9   27.86    0.58
  -2   2   9   27.15    0.49
  -2   2   9   27.23    0.56
  -2   2   9   26.66    0.57
  -2   2   9   27.03    0.53
  -2   2   9   26.85    0.52
  -2   2   9   26.49    0.52
  -2   2   9   26.71    0.56
   1  -2  -9    4.04    0.15
  -1  -2   9    3.79    0.14
  -1  -2   9    3.93    0.18
  -1  -2   9    3.54    0.14
  -1  -2   9    3.96    0.18
  -1  -2   9    3.92    0.18
  -1  -2   9    4.23    0.17
  -1  -2   9    3.85    0.17
  -1   2   9    4.15    0.16
  -1   2   9    3.91    0.17
  -1   2   9    3.79    0.16
  -1   2   9    3.77    0.12
   1   2  -9    3.57    0.16
  -1   2   9    3.47    0.16
  -1   2   9    4.16    0.15
   0  -2   9    3.03    0.14
   0  -2  -9    2.87    0.13
   0  -2   9    2.96    0.16
   0  -2   9    3.15    0.16
   0  -2   9    2.90    0.14
   0  -2   9    2.79    0.14
   0  -2  -9    3.17    0.15
   0  -2   9    2.62    0.15
   0   2   9    2.98    0.14
   0   2  -9    2.80    0.14
   0   2  -9    2.71    0.15
   0   2   9    2.91    0.14
   0   2   9    2.98    0.12
   0   2   9    3.02    0.15
   0   2   9    2.93    0.12
   1  -2   9    2.12    0.14
   1  -2   9    1.99    0.12
  -1  -2  -9    2.13    0.12
   1  -2   9    2.34    0.13
  -1  -2  -9    2.17    0.12
   1  -2   9    1.97    0.11
   1   2   9    2.12    0.12
  -1   2  -9    2.09    0.12
   1   2   9    2.03    0.13
   1   2   9    2.11    0.11
  -1   2  -9    2.00    0.14
   1   2   9    2.03    0.12
  -1   2  -9    2.17    0.14
  -1   2  -9    1.91    0.12
  -2  -2  -9    7.23    0.21
   2  -2   9    7.27    0.24
   2  -2   9    7.31    0.23
  -2  -2  -9    7.44    0.22
   2  -2   9    6.88    0.24
  -2  -2  -9    7.32    0.24
  -2   2  -9    7.22    0.22
   2   2   9    6.84    0.23
   2   2   9    7.21    0.21
  -2   2  -9    7.03    0.23
  -2   2  -9    7.17    0.24
  -2   2  -9    7.12    0.20
  -2   2  -9    7.04    0.24
   3  -2   9   10.12    0.28
   3  -2   9   10.36    0.27
  -3  -2  -9    9.65    0.27
  -3  -2  -9   10.22    0.27
  -3  -2  -9    9.81    0.24
  -3  -2  -9   10.22    0.28
   3   2   9   10.15    0.28
  -3   2  -9   10.55    0.29
  -3   2  -9   10.49    0.27
  -3   2  -9   10.22    0.27
  -3   2  -9   10.06    0.28
   3   2   9   10.51    0.26
   4  -2   9    6.82    0.19
   4  -2   9    6.32    0.20
  -4  -2  -9    6.56    0.20
  -4  -2  -9    6.98    0.19
  -4  -2  -9    6.42    0.19
  -4  -2  -9    6.42    0.19
   4   2   9    6.29    0.18
   4   2   9    6.46    0.20
  -4   2  -9    6.74    0.20
  -4   2  -9    6.73    0.19
  -4   2  -9    6.73    0.18
  -4   2  -9    6.80    0.17
  -4   2  -9    6.75    0.21
  -8  -3   9    1.72    0.08
  -8  -3   9    1.73    0.07
  -8  -3   9    1.71    0.10
  -8   3   9    1.48    0.10
   8   3  -9    1.67    0.09
  -8   3   9    1.65    0.10
  -7  -3   9    7.67    0.22
  -7  -3   9    7.08    0.18
  -7  -3   9    7.21    0.19
  -7  -3   9    7.21    0.22
  -7  -3   9    7.25    0.20
  -7  -3   9    7.44    0.18
  -7   3   9    7.23    0.21
  -7   3   9    7.33    0.22
  -7   3   9    7.38    0.24
   7   3  -9    7.32    0.24
  -6  -3   9    2.65    0.11
  -6  -3   9    2.76    0.10
  -6  -3   9    2.61    0.08
  -6  -3   9    2.60    0.14
  -6  -3   9    2.60    0.13
  -6  -3   9    2.50    0.12
  -6  -3   9    2.69    0.13
  -6   3   9    2.35    0.14
   6   3  -9    2.72    0.15
  -6   3   9    2.59    0.09
  -6   3   9    2.44    0.13
  -5  -3   9    0.70    0.05
  -5  -3   9    1.14    0.09
  -5  -3   9    0.88    0.09
  -5  -3   9    0.69    0.09
  -5  -3   9    0.83    0.09
  -5  -3   9    0.84    0.08
  -5  -3   9    0.90    0.09
  -5  -3   9    0.78    0.06
  -5  -3   9    0.72    0.06
  -5   3   9    1.01    0.11
  -5   3   9    0.69    0.06
  -5   3   9    0.82    0.07
  -5   3   9    0.66    0.08
  -5   3   9    0.71    0.06
  -4  -3   9    1.70    0.12
  -4  -3   9    1.83    0.10
  -4  -3   9    1.70    0.10
  -4  -3   9    1.75    0.08
  -4  -3   9    1.67    0.12
  -4  -3   9    1.93    0.12
  -4  -3   9    2.02    0.13
  -4  -3   9    1.81    0.10
  -4  -3   9    2.09    0.13
  -4   3   9    1.63    0.09
  -4   3   9    1.72    0.09
  -4   3   9    1.68    0.11
  -4   3   9    1.62    0.08
  -4   3   9    1.74    0.10
  -4   3   9    1.74    0.07
  -4   3   9    1.87    0.12
  -4   3   9    1.75    0.12
  -3  -3   9    5.23    0.20
  -3  -3   9    5.54    0.19
  -3  -3   9    5.26    0.20
  -3  -3   9    5.24    0.14
  -3  -3   9    5.32    0.20
  -3  -3   9    5.18    0.21
  -3  -3   9    5.75    0.21
  -3  -3   9    5.18    0.18
  -3  -3   9    5.50    0.20
  -3   3   9    5.23    0.17
  -3   3   9    5.06    0.16
  -3   3   9    5.28    0.12
  -3   3   9    5.28    0.12
  -3   3   9    5.44    0.15
  -3   3   9    5.41    0.20
  -3   3   9    5.13    0.20
  -3   3   9    5.09    0.15
   3   3  -9    4.90    0.20
  -2  -3   9    1.61    0.14
  -2  -3   9    1.80    0.12
   2  -3  -9    1.58    0.10
  -2  -3   9    1.64    0.14
  -2  -3   9    1.67    0.10
  -2  -3   9    1.66    0.12
  -2  -3   9    1.91    0.15
  -2  -3   9    1.33    0.12
  -2  -3   9    1.55    0.13
  -2  -3   9    1.62    0.09
  -2   3   9    1.65    0.11
  -2   3   9    1.55    0.08
  -2   3   9    1.65    0.08
   2   3  -9    1.29    0.11
  -2   3   9    1.52    0.09
  -2   3   9    1.57    0.09
  -2   3   9    1.49    0.09
  -1  -3   9   43.69    0.82
  -1  -3   9   42.47    0.78
  -1  -3   9   42.18    0.87
  -1  -3   9   43.11    0.83
  -1  -3   9   42.47    0.84
   1  -3  -9   41.95    0.77
  -1  -3   9   42.87    0.84
  -1  -3   9   40.89    0.82
  -1   3   9   42.32    0.75
   1   3  -9   44.02    0.83
  -1   3   9   43.00    0.71
  -1   3   9   42.77    0.79
   1   3  -9   41.97    0.91
  -1   3   9   42.88    0.82
  -1   3   9   42.94    0.75
   0  -3   9    3.06    0.15
   0  -3   9    2.77    0.14
   0  -3  -9    3.15    0.14
   0  -3   9    3.20    0.15
   0  -3   9    3.15    0.15
   0  -3   9    2.64    0.15
   0  -3  -9    3.06    0.14
   0  -3   9    2.96    0.16
   0  -3   9    3.29    0.15
   0   3  -9    3.25    0.15
   0   3  -9    2.99    0.16
   0   3   9    3.22    0.14
   0   3   9    3.01    0.12
   0   3   9    3.22    0.15
   0   3   9    3.18    0.15
   1  -3   9    1.10    0.11
   1  -3   9    0.94    0.09
   1  -3   9    1.00    0.09
  -1  -3  -9    0.95    0.09
   1  -3   9    1.05    0.10
  -1  -3  -9    1.10    0.10
   1   3   9    1.06    0.10
  -1   3  -9    1.10    0.11
   1   3   9    0.96    0.10
  -1   3  -9    0.78    0.09
  -1   3  -9    1.01    0.09
   1   3   9    0.91    0.07
  -1   3  -9    1.02    0.10
   1   3   9    0.95    0.10
  -2  -3  -9    3.29    0.14
  -2  -3  -9    3.22    0.13
  -2  -3  -9    3.04    0.14
   2  -3   9    3.08    0.13
   2  -3   9    3.23    0.14
   2  -3   9    3.16    0.14
  -2   3  -9    3.15    0.14
  -2   3  -9    3.25    0.16
   2   3   9    2.97    0.14
  -2   3  -9    3.02    0.14
   2   3   9    2.81    0.14
   2   3   9    3.03    0.12
  -2   3  -9    3.01    0.11
  -3  -3  -9    4.14    0.16
   3  -3   9    4.16    0.16
  -3  -3  -9    4.26    0.14
  -3  -3  -9    4.29    0.16
   3  -3   9    4.79    0.16
  -3  -3  -9    4.35    0.15
   3   3   9    4.38    0.16
  -3   3  -9    4.38    0.17
   3   3   9    4.34    0.16
  -3   3  -9    4.47    0.15
  -3   3  -9    4.42    0.15
   3   3   9    4.50    0.14
  -3   3  -9    4.11    0.16
   4  -3   9    9.47    0.23
   4  -3   9   10.00    0.25
  -4  -3  -9   10.01    0.24
  -4  -3  -9    9.69    0.24
  -4  -3  -9    9.77    0.23
   4   3   9   10.15    0.22
   4   3   9    9.51    0.24
  -4   3  -9   10.12    0.24
   4   3   9    9.77    0.24
  -4   3  -9    9.85    0.23
  -7  -4   9    1.03    0.07
  -7  -4   9    0.97    0.05
  -7   4   9    1.19    0.09
   7   4  -9    0.93    0.08
   7   4  -9    1.19    0.10
  -6  -4   9    2.51    0.12
  -6  -4   9    2.64    0.12
  -6  -4   9    2.49    0.08
  -6  -4   9    2.64    0.09
  -6  -4   9    2.61    0.12
  -6  -4   9    2.48    0.10
  -6   4   9    2.36    0.08
  -6   4   9    2.44    0.13
  -6   4   9    2.36    0.08
   6   4  -9    2.52    0.14
  -5  -4   9    7.38    0.22
  -5  -4   9    7.11    0.16
  -5  -4   9    7.24    0.22
  -5  -4   9    7.24    0.17
  -5  -4   9    7.12    0.16
  -5  -4   9    7.37    0.20
  -5  -4   9    7.21    0.22
  -5  -4   9    7.21    0.20
  -5   4   9    6.91    0.17
  -5   4   9    7.24    0.17
  -5   4   9    7.14    0.24
   5   4  -9    7.21    0.25
  -5   4   9    7.13    0.18
  -4  -4   9    0.38    0.05
  -4  -4   9    0.37    0.06
  -4  -4   9    0.36    0.05
  -4  -4   9    0.29    0.06
  -4  -4   9    0.52    0.07
  -4  -4   9    0.33    0.06
  -4  -4   9    0.31    0.06
   4   4  -9    0.55    0.08
  -4   4   9    0.28    0.06
  -4   4   9    0.56    0.06
  -4   4   9    0.40    0.04
   4   4  -9    0.30    0.07
  -3  -4   9    3.36    0.16
  -3  -4   9    4.06    0.17
  -3  -4   9    3.75    0.14
  -3  -4   9    3.54    0.16
  -3  -4   9    3.95    0.16
  -3  -4   9    3.77    0.16
  -3   4   9    3.73    0.11
   3   4  -9    3.83    0.18
  -3   4   9    3.56    0.16
  -3   4   9    3.69    0.13
  -3   4   9    3.73    0.12
   3   4  -9    3.94    0.17
  -2  -4   9    2.12    0.12
  -2  -4   9    2.13    0.13
  -2  -4   9    2.38    0.14
  -2  -4   9    2.13    0.10
  -2  -4   9    2.09    0.12
  -2  -4   9    2.33    0.13
   2   4  -9    2.07    0.13
  -2   4   9    2.33    0.09
  -2   4   9    2.23    0.08
  -2   4   9    2.35    0.10
  -2   4   9    2.34    0.13
  -2   4   9    2.15    0.09
   2   4  -9    2.15    0.13
  -1  -4   9    2.71    0.15
   1  -4  -9    2.68    0.13
  -1  -4   9    2.94    0.13
  -1  -4   9    2.78    0.14
  -1  -4   9    2.78    0.14
  -1  -4   9    2.77    0.14
  -1  -4   9    3.01    0.15
  -1   4   9    2.88    0.11
  -1   4   9    2.68    0.11
   1   4  -9    2.74    0.16
  -1   4   9    2.78    0.09
   1   4  -9    2.81    0.14
  -1   4   9    2.87    0.14
  -1   4   9    2.79    0.11
  -1   4   9    2.80    0.11
   0  -4   9    1.70    0.13
   0  -4   9    1.76    0.12
   0  -4  -9    1.91    0.11
   0  -4   9    2.03    0.12
   0  -4   9    2.03    0.11
   0  -4  -9    1.88    0.11
   0   4   9    2.07    0.10
   0   4  -9    1.80    0.13
   0   4   9    1.69    0.11
   0   4  -9    1.88    0.11
   0   4   9    1.78    0.09
   0   4  -9    1.95    0.13
   1  -4   9    1.31    0.09
  -1  -4  -9    1.41    0.09
   1  -4   9    1.44    0.10
   1  -4   9    1.22    0.11
  -1  -4  -9    1.36    0.09
   1  -4   9    1.31    0.09
  -1   4  -9    1.36    0.12
  -1   4  -9    1.46    0.10
   1   4   9    1.30    0.09
   1   4   9    1.51    0.10
   1   4   9    1.23    0.10
  -1   4  -9    1.14    0.10
  -1   4  -9    1.32    0.08
  -2  -4  -9    5.68    0.18
   2  -4   9    5.87    0.18
  -2  -4  -9    5.79    0.17
   2  -4   9    5.82    0.18
   2  -4   9    5.69    0.18
  -2  -4  -9    5.68    0.17
  -2   4  -9    5.82    0.18
   2   4   9    5.63    0.14
   2   4   9    5.86    0.19
  -2   4  -9    5.76    0.20
   2   4   9    5.80    0.18
  -2   4  -9    5.51    0.18
  -3  -4  -9    1.49    0.09
  -3  -4  -9    1.52    0.08
   3  -4   9    1.58    0.08
   3  -4   9    1.47    0.09
  -3  -4  -9    1.45    0.09
  -3  -4  -9    1.58    0.10
  -3   4  -9    1.55    0.10
  -3   4  -9    1.58    0.08
   3   4   9    1.62    0.07
   3   4   9    1.60    0.10
   3   4   9    1.66    0.09
  -3   4  -9    1.81    0.10
  -6  -5   9    6.78    0.16
   6   5  -9    6.97    0.21
  -6   5   9    7.04    0.20
  -5  -5   9    0.09    0.02
  -5  -5   9    0.09    0.04
  -5  -5   9    0.06    0.04
  -5  -5   9    0.08    0.02
  -5  -5   9    0.12    0.03
  -5  -5   9    0.14    0.04
   5   5  -9    0.07    0.05
  -5   5   9    0.03    0.02
   5   5  -9    0.02    0.03
  -5   5   9    0.09    0.04
   5   5  -9    0.07    0.04
  -5   5   9    0.06    0.03
  -5   5   9    0.11    0.03
  -4  -5   9    4.99    0.15
  -4  -5   9    5.45    0.17
  -4  -5   9    5.27    0.15
  -4  -5   9    5.16    0.18
  -4  -5   9    5.20    0.18
  -4  -5   9    5.64    0.17
  -4   5   9    5.30    0.13
  -4   5   9    5.37    0.18
  -4   5   9    5.43    0.15
   4   5  -9    5.58    0.20
   4   5  -9    5.33    0.18
  -3  -5   9    1.71    0.11
  -3  -5   9    1.72    0.11
  -3  -5   9    1.66    0.10
  -3  -5   9    1.91    0.10
  -3  -5   9    1.60    0.10
  -3   5   9    1.86    0.08
   3   5  -9    1.57    0.11
   3   5  -9    1.70    0.10
  -3   5   9    1.60    0.07
  -3   5   9    1.47    0.10
  -2  -5   9    3.58    0.11
   2  -5  -9    3.67    0.14
  -2  -5   9    3.45    0.14
  -2  -5   9    3.66    0.16
  -2  -5   9    3.46    0.14
  -2  -5   9    3.69    0.11
  -2  -5   9    3.85    0.15
  -2  -5   9    3.53    0.15
  -2   5   9    3.47    0.10
  -2   5   9    3.48    0.12
  -2   5   9    3.70    0.15
  -2   5   9    3.63    0.12
   2   5  -9    3.50    0.16
   2   5  -9    3.51    0.14
   1  -5  -9    3.82    0.14
  -1  -5   9    3.54    0.13
  -1  -5   9    3.39    0.16
  -1  -5   9    3.66    0.15
  -1  -5   9    3.79    0.16
  -1   5   9    3.68    0.12
  -1   5   9    3.56    0.10
  -1   5   9    3.60    0.11
   1   5  -9    3.84    0.16
  -1   5   9    3.68    0.15
   1   5  -9    3.78    0.14
  -1   5   9    3.81    0.12
   0  -5  -9    7.57    0.20
   0  -5  -9    7.71    0.20
   0  -5   9    7.16    0.21
   0  -5   9    7.27    0.22
   0  -5   9    7.21    0.20
   0   5  -9    7.08    0.23
   0   5   9    6.82    0.17
   0   5  -9    7.12    0.22
   0   5   9    7.12    0.17
   0   5   9    7.12    0.18
   0   5   9    7.38    0.21
   0   5  -9    7.38    0.18
   1  -5   9    4.60    0.15
   1  -5   9    4.81    0.16
  -1  -5  -9    4.42    0.15
  -1  -5  -9    4.52    0.15
   1  -5   9    4.51    0.17
   1   5   9    4.48    0.15
   1   5   9    4.60    0.16
  -1   5  -9    4.23    0.15
   1   5   9    4.79    0.14
  -1   5  -9    4.70    0.17
  -2  -5  -9    1.01    0.07
   2  -5   9    1.03    0.08
  -2  -5  -9    1.17    0.07
   2   5   9    1.11    0.08
  -2   5  -9    0.96    0.08
  -2   5  -9    1.22    0.08
   3  -6  -9    4.28    0.13
  -3  -6   9    4.53    0.13
  -3  -6   9    4.17    0.15
   3   6  -9    3.99    0.13
  -3   6   9    4.17    0.12
  -3   6   9    4.47    0.12
   2  -6  -9    2.20    0.10
  -2  -6   9    2.25    0.11
  -2  -6   9    2.11    0.11
  -2   6   9    1.98    0.08
  -2   6   9    1.82    0.08
   2   6  -9    2.14    0.09
   1  -6  -9    1.29    0.08
  -1  -6   9    1.37    0.10
   1   6  -9    1.13    0.09
  -8   0  10    2.68    0.12
  -8   0  10    2.83    0.13
  -8   0  10    2.77    0.13
  -8   0  10    2.80    0.13
  -8   0  10    2.50    0.09
  -7   0  10    0.33    0.04
  -7   0  10    0.26    0.06
  -7   0  10    0.33    0.06
  -7   0  10    0.33    0.06
  -7   0  10    0.29    0.04
  -7   0  10    0.30    0.07
  -6   0  10    0.03    0.04
  -6   0  10    0.04    0.03
  -6   0  10    0.09    0.05
  -6   0  10    0.08    0.04
  -6   0  10    0.06    0.03
  -6   0  10    0.11    0.06
  -5   0  10    0.82    0.07
  -5   0  10    0.72    0.07
  -5   0  10    0.89    0.08
  -5   0  10    0.84    0.09
  -5   0  10    0.85    0.10
  -5   0  10    0.75    0.09
  -5   0  10    0.85    0.10
  -5   0  10    0.80    0.08
  -5   0  10    0.87    0.05
  -4   0  10    3.31    0.15
  -4   0  10    2.91    0.12
  -4   0  10    3.00    0.11
  -4   0  10    2.99    0.12
  -4   0  10    2.71    0.16
  -4   0  10    3.17    0.15
  -4   0  10    3.00    0.09
  -4   0  10    2.73    0.15
  -4   0  10    2.91    0.16
  -4   0  10    2.94    0.09
  -3   0  10   -0.01    0.05
  -3   0  10    0.12    0.03
  -3   0  10    0.15    0.05
  -3   0  10    0.11    0.04
  -3   0  10    0.15    0.05
  -3   0  10    0.15    0.04
  -3   0  10    0.07    0.03
  -3   0  10    0.13    0.05
  -3   0  10    0.07    0.04
  -2   0  10    3.75    0.16
  -2   0  10    3.47    0.11
  -2   0  10    3.31    0.17
  -2   0  10    3.37    0.16
  -2   0  10    3.32    0.17
  -2   0  10    3.53    0.15
  -2   0  10    3.50    0.14
  -1   0  10    2.58    0.10
  -1   0  10    2.55    0.14
   1   0 -10    2.81    0.14
  -1   0  10    2.89    0.14
  -1   0  10    2.55    0.12
  -1   0  10    2.76    0.15
  -1   0  10    2.75    0.14
   0   0  10   25.37    0.56
   0   0  10   25.71    0.55
   0   0  10   25.77    0.54
   0   0  10   25.19    0.56
   0   0  10   24.52    0.49
   0   0 -10   25.69    0.53
  -1   0 -10    1.10    0.11
   1   0  10    1.31    0.12
  -1   0 -10    1.08    0.09
   1   0  10    1.17    0.10
   1   0  10    1.22    0.11
   1   0  10    1.27    0.11
   1   0  10    1.27    0.08
  -1   0 -10    1.17    0.10
  -2   0 -10    3.40    0.15
   2   0  10    3.75    0.14
   2   0  10    3.34    0.16
  -2   0 -10    3.26    0.15
  -2   0 -10    3.59    0.14
   2   0  10    3.62    0.16
  -2   0 -10    3.18    0.12
   2   0  10    3.23    0.14
  -3   0 -10    1.07    0.08
   3   0  10    1.14    0.08
   3   0  10    1.11    0.08
  -3   0 -10    1.08    0.09
  -3   0 -10    0.96    0.09
   3   0  10    1.11    0.09
  -3   0 -10    1.08    0.09
   4   0  10    0.12    0.05
  -4   0 -10    0.07    0.04
  -4   0 -10    0.14    0.04
  -4   0 -10    0.03    0.04
  -8  -1  10    2.73    0.09
  -8  -1  10    2.74    0.09
  -8  -1  10    2.94    0.13
  -8  -1  10    2.94    0.13
  -8   1  10    2.52    0.12
  -8   1  10    2.77    0.13
  -8   1  10    3.04    0.13
  -7  -1  10    1.62    0.12
  -7  -1  10    1.48    0.08
  -7  -1  10    1.45    0.10
  -7  -1  10    1.40    0.07
  -7  -1  10    1.17    0.09
  -7  -1  10    1.49    0.10
  -7   1  10    1.64    0.11
  -7   1  10    1.54    0.11
  -7   1  10    1.52    0.07
  -7   1  10    1.46    0.10
  -7   1  10    1.39    0.07
  -7   1  10    1.51    0.10
  -6  -1  10    1.82    0.09
  -6  -1  10    1.86    0.12
  -6  -1  10    2.03    0.05
  -6  -1  10    2.02    0.05
  -6  -1  10    2.04    0.10
  -6  -1  10    2.28    0.15
  -6  -1  10    1.98    0.09
  -6  -1  10    2.10    0.13
  -6  -1  10    2.05    0.10
  -6  -1  10    1.96    0.12
  -6   1  10    2.19    0.13
  -6   1  10    2.02    0.13
  -6   1  10    2.14    0.09
  -6   1  10    2.07    0.12
  -6   1  10    2.04    0.12
  -6   1  10    2.05    0.09
  -6   1  10    2.03    0.08
  -5  -1  10    6.10    0.24
  -5  -1  10    5.95    0.22
  -5  -1  10    5.61    0.16
  -5  -1  10    6.00    0.13
  -5  -1  10    6.02    0.20
  -5  -1  10    5.56    0.18
  -5  -1  10    6.05    0.22
  -5  -1  10    5.78    0.21
  -5  -1  10    6.32    0.20
  -5   1  10    5.71    0.17
  -5   1  10    5.84    0.16
  -5   1  10    6.19    0.22
  -5   1  10    5.97    0.23
  -5   1  10    5.90    0.16
  -5   1  10    5.90    0.20
  -5   1  10    6.08    0.19
  -5   1  10    5.99    0.12
  -5   1  10    5.98    0.22
  -4  -1  10    1.37    0.11
  -4  -1  10    1.57    0.11
  -4  -1  10    1.49    0.12
  -4  -1  10    1.51    0.09
  -4  -1  10    1.45    0.09
  -4  -1  10    1.50    0.11
  -4  -1  10    1.53    0.07
  -4  -1  10    1.47    0.07
  -4  -1  10    1.37    0.13
  -4  -1  10    1.62    0.08
  -4   1  10    1.53    0.10
  -4   1  10    1.54    0.07
  -4   1  10    1.52    0.08
  -4   1  10    1.61    0.13
  -4   1  10    1.42    0.12
  -4   1  10    1.54    0.09
  -4   1  10    1.58    0.11
  -4   1  10    1.57    0.08
  -4   1  10    1.44    0.13
  -3  -1  10   11.70    0.28
  -3  -1  10   11.58    0.25
  -3  -1  10   11.59    0.35
  -3  -1  10   11.98    0.31
  -3  -1  10   11.40    0.34
  -3  -1  10   10.94    0.28
  -3  -1  10   11.44    0.31
  -3  -1  10   11.06    0.33
  -3  -1  10   11.67    0.28
  -3  -1  10   11.58    0.31
  -3   1  10   11.93    0.26
  -3   1  10   11.98    0.29
  -3   1  10   11.86    0.31
  -3   1  10   11.95    0.26
  -3   1  10   11.84    0.34
  -3   1  10   11.67    0.25
  -3   1  10   11.35    0.34
  -3   1  10   11.49    0.28
  -2  -1  10    6.07    0.21
  -2  -1  10    5.96    0.20
  -2  -1  10    5.81    0.15
  -2  -1  10    5.54    0.21
  -2  -1  10    5.95    0.18
  -2  -1  10    6.03    0.20
  -2  -1  10    5.56    0.22
  -2   1  10    5.93    0.21
  -2   1  10    6.10    0.18
  -2   1  10    5.79    0.20
  -2   1  10    5.85    0.16
  -2   1  10    5.87    0.18
  -2   1  10    5.90    0.22
  -2   1  10    5.71    0.18
   2   1 -10    5.94    0.21
   1  -1 -10   11.78    0.31
  -1  -1  10   12.19    0.30
  -1  -1  10   11.56    0.32
  -1  -1  10   11.95    0.32
  -1  -1  10   12.25    0.34
  -1  -1  10   11.77    0.27
  -1  -1  10   11.73    0.33
  -1  -1  10   12.26    0.28
  -1   1  10   11.63    0.33
  -1   1  10   11.54    0.28
  -1   1  10   12.68    0.33
   1   1 -10   12.28    0.32
  -1   1  10   11.75    0.32
  -1   1  10   11.88    0.31
   0  -1  10    3.02    0.14
   0  -1  10    2.74    0.15
   0  -1 -10    3.22    0.14
   0  -1  10    2.89    0.16
   0  -1  10    3.06    0.13
   0  -1 -10    3.05    0.13
   0  -1  10    2.99    0.15
   0   1  10    3.09    0.15
   0   1  10    3.12    0.15
   0   1 -10    3.19    0.14
   0   1  10    2.87    0.14
   0   1 -10    2.89    0.15
   0   1  10    2.75    0.11
   0   1  10    2.91    0.14
  -1  -1 -10    0.25    0.06
  -1  -1 -10    0.28    0.06
   1  -1  10    0.34    0.07
  -1  -1 -10    0.47    0.07
   1  -1  10    0.44    0.07
   1  -1  10    0.34    0.06
   1  -1  10    0.17    0.05
   1   1  10    0.24    0.06
  -1   1 -10    0.27    0.06
   1   1  10    0.25    0.06
   1   1  10    0.26    0.05
   1   1  10    0.24    0.05
  -1   1 -10    0.42    0.08
  -1   1 -10    0.22    0.05
   1   1  10    0.41    0.06
   2  -1  10    2.46    0.13
  -2  -1 -10    2.57    0.13
  -2  -1 -10    2.59    0.11
  -2  -1 -10    2.59    0.12
   2  -1  10    2.71    0.12
  -2  -1 -10    2.69    0.13
   2  -1  10    2.79    0.13
   2   1  10    2.59    0.12
  -2   1 -10    2.40    0.11
  -2   1 -10    2.45    0.12
  -2   1 -10    2.92    0.14
   2   1  10    2.76    0.14
   2   1  10    2.85    0.11
   2   1  10    2.73    0.13
  -2   1 -10    2.68    0.14
   3  -1  10    0.20    0.05
   3  -1  10    0.23    0.05
  -3  -1 -10    0.19    0.05
  -3  -1 -10    0.32    0.06
  -3  -1 -10    0.19    0.03
   3  -1  10    0.19    0.05
  -3   1 -10    0.17    0.05
   3   1  10    0.30    0.05
   3   1  10    0.14    0.05
  -3   1 -10    0.19    0.05
  -3   1 -10    0.24    0.05
  -3   1 -10    0.21    0.05
   4  -1  10    0.17    0.05
  -4  -1 -10    0.10    0.04
  -4   1 -10    0.13    0.05
   4   1  10    0.18    0.04
  -8  -2  10    6.17    0.19
  -7  -2  10    9.53    0.21
  -7  -2  10    9.61    0.25
  -7  -2  10    9.52    0.26
  -7  -2  10    9.59    0.22
  -7  -2  10    9.12    0.22
  -7   2  10    9.74    0.27
   7   2 -10    9.55    0.27
  -7   2  10    9.10    0.19
  -7   2  10    9.25    0.25
  -7   2  10    8.98    0.19
  -7   2  10    8.59    0.23
  -6  -2  10    0.55    0.05
  -6  -2  10    0.68    0.08
  -6  -2  10    0.71    0.04
  -6  -2  10    0.60    0.07
  -6  -2  10    0.53    0.07
  -6  -2  10    0.51    0.06
  -6  -2  10    0.62    0.06
  -6  -2  10    0.65    0.08
  -6  -2  10    0.66    0.04
  -6   2  10    0.54    0.08
  -6   2  10    0.66    0.06
  -6   2  10    0.58    0.05
  -6   2  10    0.65    0.07
  -6   2  10    0.70    0.08
  -5  -2  10    3.08    0.14
  -5  -2  10    3.04    0.12
  -5  -2  10    2.83    0.11
  -5  -2  10    2.82    0.14
  -5  -2  10    3.02    0.15
  -5  -2  10    3.09    0.14
  -5  -2  10    2.91    0.10
  -5  -2  10    2.86    0.15
  -5   2  10    2.92    0.15
  -5   2  10    2.84    0.12
  -5   2  10    3.07    0.16
  -5   2  10    2.94    0.14
  -5   2  10    2.85    0.10
  -5   2  10    2.89    0.11
  -4  -2  10    0.59    0.07
  -4  -2  10    0.63    0.05
  -4  -2  10    0.58    0.06
  -4  -2  10    0.72    0.09
  -4  -2  10    0.59    0.08
  -4  -2  10    0.63    0.08
  -4  -2  10    0.67    0.07
  -4  -2  10    0.75    0.06
  -4  -2  10    0.67    0.08
  -4  -2  10    0.55    0.08
  -4   2  10    0.69    0.05
  -4   2  10    0.63    0.06
  -4   2  10    0.59    0.08
  -4   2  10    0.57    0.08
  -4   2  10    0.62    0.08
  -4   2  10    0.61    0.06
  -4   2  10    0.61    0.07
  -3  -2  10    8.13    0.22
  -3  -2  10    7.97    0.25
  -3  -2  10    7.95    0.25
  -3  -2  10    7.92    0.22
  -3  -2  10    7.67    0.18
  -3  -2  10    7.73    0.24
  -3  -2  10    7.99    0.26
  -3  -2  10    7.37    0.25
  -3  -2  10    7.88    0.25
  -3   2  10    7.73    0.20
  -3   2  10    7.73    0.25
  -3   2  10    8.02    0.19
   3   2 -10    7.73    0.25
  -3   2  10    8.11    0.21
  -3   2  10    7.87    0.17
  -3   2  10    7.77    0.24
  -3   2  10    7.92    0.17
  -3   2  10    8.02    0.26
  -2  -2  10    9.98    0.29
  -2  -2  10   10.23    0.29
  -2  -2  10   10.90    0.31
  -2  -2  10   10.62    0.31
  -2  -2  10   10.44    0.26
  -2  -2  10   10.86    0.29
  -2  -2  10   10.51    0.29
  -2  -2  10   10.78    0.32
   2   2 -10   10.14    0.29
  -2   2  10   10.20    0.24
  -2   2  10   10.11    0.27
  -2   2  10   10.23    0.25
  -2   2  10   10.69    0.25
  -2   2  10   10.30    0.22
  -2   2  10   10.24    0.23
  -2   2  10   10.58    0.27
  -2   2  10   10.44    0.29
  -2   2  10   10.09    0.29
   1  -2 -10    5.42    0.19
  -1  -2  10    5.99    0.22
  -1  -2  10    5.58    0.19
  -1  -2  10    5.47    0.20
  -1  -2  10    5.42    0.21
  -1  -2  10    5.61    0.21
  -1  -2  10    5.74    0.20
  -1  -2  10    5.71    0.17
   1  -2 -10    5.69    0.18
   1   2 -10    5.76    0.20
  -1   2  10    5.52    0.19
  -1   2  10    5.75    0.20
  -1   2  10    5.55    0.14
  -1   2  10    5.56    0.20
  -1   2  10    5.70    0.20
  -1   2  10    5.55    0.17
  -1   2  10    5.40    0.18
   0  -2 -10    0.71    0.08
   0  -2  10    0.64    0.07
   0  -2 -10    0.60    0.07
   0  -2  10    0.58    0.08
   0  -2  10    0.68    0.08
   0  -2  10    0.76    0.09
   0  -2  10    0.78    0.08
   0  -2  10    0.50    0.08
   0  -2  10    0.62    0.07
   0   2  10    0.69    0.08
   0   2  10    0.72    0.08
   0   2 -10    0.57    0.08
   0   2  10    0.77    0.09
   0   2  10    0.64    0.06
   0   2  10    0.92    0.10
   0   2 -10    0.75    0.08
   1  -2  10    7.53    0.24
  -1  -2 -10    7.47    0.23
  -1  -2 -10    7.46    0.22
   1  -2  10    7.41    0.21
   1  -2  10    7.24    0.24
   1  -2  10    7.43    0.25
  -1  -2 -10    7.09    0.21
   1   2  10    7.91    0.24
   1   2  10    7.73    0.23
  -1   2 -10    7.84    0.25
   1   2  10    7.53    0.19
  -1   2 -10    7.75    0.25
   1   2  10    7.64    0.22
   1   2  10    7.79    0.23
  -1   2 -10    7.40    0.21
   2  -2  10    2.52    0.13
  -2  -2 -10    2.54    0.12
  -2  -2 -10    2.32    0.12
  -2  -2 -10    2.37    0.10
   2  -2  10    2.27    0.12
   2  -2  10    2.36    0.11
  -2   2 -10    2.36    0.12
  -2   2 -10    2.36    0.09
  -2   2 -10    2.46    0.13
   2   2  10    2.43    0.10
   2   2  10    2.37    0.12
  -2   2 -10    2.24    0.12
   2   2  10    2.30    0.12
   2   2  10    2.31    0.11
  -3  -2 -10    0.48    0.06
  -3  -2 -10    0.57    0.06
   3  -2  10    0.57    0.07
  -3  -2 -10    0.56    0.05
  -3  -2 -10    0.56    0.06
   3  -2  10    0.54    0.06
  -3   2 -10    0.61    0.07
   3   2  10    0.61    0.06
   3   2  10    0.63    0.07
  -3   2 -10    0.68    0.06
  -3   2 -10    0.63    0.07
  -7  -3  10    0.98    0.05
  -7  -3  10    1.03    0.07
  -7  -3  10    1.03    0.08
   7   3 -10    1.13    0.10
  -7   3  10    0.86    0.08
  -6  -3  10    3.79    0.08
  -6  -3  10    3.93    0.11
  -6  -3  10    3.76    0.14
  -6  -3  10    3.57    0.13
  -6  -3  10    3.73    0.09
  -6  -3  10    3.66    0.13
  -6  -3  10    3.53    0.14
  -6   3  10    3.76    0.11
  -6   3  10    3.58    0.10
   6   3 -10    3.72    0.16
  -6   3  10    3.57    0.14
  -6   3  10    3.75    0.16
  -5  -3  10    2.71    0.10
  -5  -3  10    2.86    0.09
  -5  -3  10    2.96    0.12
  -5  -3  10    2.94    0.13
  -5  -3  10    2.90    0.13
  -5  -3  10    2.85    0.14
  -5  -3  10    2.74    0.13
  -5   3  10    2.79    0.10
  -5   3  10    2.72    0.10
  -5   3  10    2.58    0.14
  -5   3  10    2.83    0.13
   5   3 -10    2.76    0.15
  -4  -3  10    0.38    0.07
  -4  -3  10    0.43    0.06
  -4  -3  10    0.39    0.04
  -4  -3  10    0.50    0.07
  -4  -3  10    0.35    0.06
  -4  -3  10    0.43    0.05
  -4  -3  10    0.49    0.05
  -4  -3  10    0.50    0.06
  -4  -3  10    0.36    0.06
  -4   3  10    0.47    0.04
  -4   3  10    0.45    0.05
  -4   3  10    0.47    0.07
  -4   3  10    0.53    0.06
  -4   3  10    0.47    0.06
  -3  -3  10    1.63    0.09
  -3  -3  10    1.56    0.11
  -3  -3  10    1.68    0.11
  -3  -3  10    1.54    0.11
  -3  -3  10    1.71    0.11
  -3  -3  10    1.76    0.10
  -3  -3  10    1.67    0.12
  -3  -3  10    1.71    0.11
  -3   3  10    1.78    0.07
  -3   3  10    1.63    0.10
  -3   3  10    1.69    0.09
  -3   3  10    1.62    0.10
   3   3 -10    1.70    0.11
  -3   3  10    1.51    0.07
  -2  -3  10    1.53    0.12
  -2  -3  10    1.68    0.11
  -2  -3  10    1.74    0.11
  -2  -3  10    1.75    0.11
  -2  -3  10    1.43    0.12
   2  -3 -10    1.70    0.10
  -2  -3  10    1.44    0.10
  -2   3  10    1.57    0.09
  -2   3  10    1.72    0.11
  -2   3  10    1.67    0.09
  -2   3  10    1.57    0.07
  -2   3  10    1.52    0.10
   2   3 -10    1.60    0.11
  -2   3  10    1.62    0.07
   2   3 -10    1.47    0.11
  -2   3  10    1.69    0.07
  -1  -3  10    8.38    0.24
  -1  -3  10    8.36    0.25
  -1  -3  10    8.49    0.25
  -1  -3  10    8.64    0.21
  -1  -3  10    8.49    0.25
  -1  -3  10    8.75    0.26
  -1  -3  10    8.34    0.27
   1  -3 -10    8.39    0.24
   1  -3 -10    8.38    0.23
   1   3 -10    8.56    0.25
  -1   3  10    8.58    0.21
  -1   3  10    8.66    0.22
   1   3 -10    8.42    0.27
  -1   3  10    8.32    0.25
  -1   3  10    8.35    0.23
  -1   3  10    8.19    0.24
  -1   3  10    8.49    0.21
   0  -3  10    1.44    0.09
   0  -3 -10    1.52    0.10
   0  -3 -10    1.40    0.09
   0  -3  10    1.39    0.09
   0  -3  10    1.39    0.10
   0  -3  10    1.34    0.11
   0  -3  10    1.38    0.12
   0   3  10    1.18    0.10
   0   3  10    1.41    0.10
   0   3  10    1.51    0.09
   0   3 -10    1.55    0.12
   0   3 -10    1.32    0.09
   0   3  10    1.42    0.08
   1  -3  10    1.20    0.08
   1  -3  10    1.32    0.11
   1  -3  10    1.20    0.08
  -1  -3 -10    1.26    0.09
  -1  -3 -10    1.01    0.08
   1  -3  10    1.26    0.09
   1   3  10    1.21    0.09
   1   3  10    1.19    0.09
  -1   3 -10    1.44    0.12
  -1   3 -10    1.20    0.08
  -1   3 -10    1.27    0.10
   1   3  10    1.21    0.09
  -2  -3 -10    0.61    0.07
   2  -3  10    0.74    0.07
  -2  -3 -10    0.56    0.06
   2  -3  10    0.52    0.07
   2  -3  10    0.56    0.06
  -2  -3 -10    0.59    0.06
   2   3  10    0.58    0.06
  -2   3 -10    0.72    0.08
   2   3  10    0.67    0.07
  -2   3 -10    0.74    0.08
   2   3  10    0.64    0.07
   3  -3  10    5.37    0.15
  -3  -3 -10    5.08    0.15
  -3   3 -10    5.21    0.16
  -6  -4  10    2.18    0.06
  -6  -4  10    2.20    0.09
  -6   4  10    1.91    0.11
   6   4 -10    2.13    0.12
  -5  -4  10    0.59    0.07
  -5  -4  10    0.48    0.06
  -5  -4  10    0.50    0.05
  -5  -4  10    0.62    0.07
  -5  -4  10    0.57    0.05
   5   4 -10    0.58    0.06
  -5   4  10    0.51    0.06
  -5   4  10    0.51    0.05
   5   4 -10    0.62    0.08
  -5   4  10    0.56    0.05
  -4  -4  10    0.19    0.05
  -4  -4  10    0.11    0.04
  -4  -4  10    0.16    0.04
  -4  -4  10    0.05    0.04
  -4  -4  10    0.16    0.03
  -4  -4  10    0.14    0.03
  -4  -4  10    0.11    0.03
  -4   4  10    0.13    0.04
  -4   4  10    0.17    0.03
  -4   4  10    0.22    0.03
  -4   4  10    0.14    0.04
   4   4 -10    0.18    0.05
   4   4 -10    0.15    0.05
  -3  -4  10    0.24    0.05
  -3  -4  10    0.33    0.06
  -3  -4  10    0.27    0.06
   3  -4 -10    0.25    0.05
  -3  -4  10    0.31    0.06
  -3  -4  10    0.31    0.05
   3   4 -10    0.34    0.06
  -3   4  10    0.33    0.04
  -3   4  10    0.33    0.04
  -3   4  10    0.32    0.05
  -3   4  10    0.29    0.03
  -3   4  10    0.37    0.06
   3   4 -10    0.21    0.06
   2  -4 -10    3.53    0.13
  -2  -4  10    4.08    0.15
  -2  -4  10    4.21    0.15
  -2  -4  10    3.88    0.16
  -2  -4  10    3.81    0.16
  -2  -4  10    3.98    0.15
  -2   4  10    3.87    0.13
  -2   4  10    3.80    0.10
  -2   4  10    3.99    0.15
   2   4 -10    3.97    0.15
  -2   4  10    3.61    0.11
  -2   4  10    3.82    0.10
  -2   4  10    3.81    0.15
  -1  -4  10    1.54    0.10
   1  -4 -10    1.51    0.09
  -1  -4  10    1.68    0.10
  -1  -4  10    1.57    0.10
   1  -4 -10    1.54    0.09
  -1  -4  10    1.43    0.07
  -1  -4  10    1.42    0.10
   1   4 -10    1.39    0.11
  -1   4  10    1.55    0.08
  -1   4  10    1.50    0.10
  -1   4  10    1.39    0.09
  -1   4  10    1.48    0.07
  -1   4  10    1.58    0.08
   1   4 -10    1.43    0.09
   0  -4 -10    4.87    0.16
   0  -4  10    5.18    0.19
   0  -4 -10    5.33    0.16
   0  -4  10    4.92    0.18
   0  -4  10    5.32    0.17
   0  -4  10    5.16    0.15
   0   4  10    5.04    0.17
   0   4  10    5.34    0.14
   0   4 -10    4.99    0.18
   0   4 -10    4.98    0.19
   0   4 -10    5.37    0.15
   0   4  10    5.13    0.15
   0   4  10    5.50    0.17
  -1  -4 -10    0.90    0.08
   1  -4  10    0.97    0.07
   1  -4  10    0.89    0.07
   1  -4  10    0.95    0.08
  -1  -4 -10    0.92    0.07
   1   4  10    1.16    0.07
   1   4  10    1.12    0.09
   1   4  10    1.07    0.08
  -1   4 -10    0.94    0.08
  -1   4 -10    0.94    0.09
  -2  -4 -10    2.08    0.09
  -2  -4 -10    1.99    0.09
   2  -4  10    2.04    0.09
  -4  -5  10    0.58    0.06
  -4   5  10    0.76    0.05
   4   5 -10    0.55    0.06
  -4   5  10    0.65    0.05
  -3  -5  10    2.72    0.12
  -3  -5  10    2.82    0.11
   3  -5 -10    2.83    0.10
  -3  -5  10    2.92    0.12
   3   5 -10    2.71    0.12
  -3   5  10    2.82    0.10
  -3   5  10    2.74    0.11
  -2  -5  10    2.15    0.11
  -2  -5  10    2.16    0.11
  -2  -5  10    2.25    0.12
   2  -5 -10    1.98    0.09
   2   5 -10    2.33    0.11
  -2   5  10    2.44    0.11
  -2   5  10    2.16    0.10
  -2   5  10    2.30    0.09
  -1  -5  10    0.45    0.06
  -1  -5  10    0.44    0.06
   1  -5 -10    0.53    0.06
  -1  -5  10    0.45    0.06
  -1   5  10    0.40    0.06
   1   5 -10    0.48    0.06
  -1   5  10    0.39    0.06
   1   5 -10    0.37    0.05
  -1   5  10    0.40    0.04
   0  -5 -10    8.15    0.19
  -7   0  11    5.91    0.18
  -7   0  11    5.95    0.20
  -7   0  11    5.90    0.18
  -7   0  11    5.90    0.19
  -7   0  11    5.90    0.14
  -7   0  11    5.85    0.14
  -6   0  11    0.07    0.05
  -6   0  11   -0.02    0.04
  -6   0  11    0.00    0.03
  -6   0  11    0.00    0.02
  -6   0  11    0.06    0.05
  -6   0  11   -0.04    0.04
  -6   0  11    0.04    0.03
  -5   0  11    3.55    0.08
  -5   0  11    3.43    0.13
  -5   0  11    3.66    0.11
  -5   0  11    3.89    0.16
  -5   0  11    4.11    0.16
  -5   0  11    3.38    0.13
  -5   0  11    3.65    0.17
  -5   0  11    3.59    0.14
  -5   0  11    3.36    0.12
  -5   0  11    3.55    0.08
  -4   0  11    6.03    0.17
  -4   0  11    5.95    0.21
  -4   0  11    6.17    0.21
  -4   0  11    5.84    0.15
  -4   0  11    5.92    0.19
  -4   0  11    5.81    0.22
  -4   0  11    5.60    0.19
  -4   0  11    6.08    0.14
  -3   0  11    3.44    0.16
  -3   0  11    3.44    0.11
  -3   0  11    3.66    0.16
  -3   0  11    3.40    0.16
  -3   0  11    3.51    0.15
  -3   0  11    3.71    0.13
  -3   0  11    3.50    0.11
  -3   0  11    3.42    0.13
  -2   0  11    0.25    0.05
  -2   0  11    0.39    0.06
  -2   0  11    0.24    0.04
  -2   0  11    0.30    0.06
  -2   0  11    0.22    0.05
   2   0 -11    0.30    0.06
  -2   0  11    0.31    0.05
  -1   0  11   10.28    0.26
  -1   0  11   10.66    0.29
  -1   0  11   10.45    0.28
  -1   0  11   10.74    0.29
   1   0 -11   10.37    0.27
   0   0 -11    0.02    0.03
   0   0  11    0.09    0.05
   0   0  11    0.04    0.04
   0   0  11    0.06    0.04
   0   0  11    0.06    0.04
   1   0  11    0.01    0.03
   1   0  11    0.01    0.03
   1   0  11    0.12    0.04
   1   0  11    0.03    0.04
  -1   0 -11    0.04    0.04
  -1   0 -11    0.02    0.03
   2   0  11    0.35    0.06
  -2   0 -11    0.39    0.04
   2   0  11    0.39    0.06
   2   0  11    0.35    0.06
  -2   0 -11    0.36    0.06
   2   0  11    0.43    0.05
  -2   0 -11    0.45    0.07
  -2   0 -11    0.39    0.05
  -7  -1  11    9.31    0.19
  -7  -1  11    9.42    0.24
  -7  -1  11    9.20    0.24
  -7  -1  11    9.27    0.20
  -7   1  11    9.42    0.26
  -7   1  11    9.34    0.24
  -6  -1  11    6.65    0.16
  -6  -1  11    6.79    0.19
  -6  -1  11    6.80    0.20
  -6  -1  11    6.77    0.22
  -6  -1  11    6.96    0.21
  -6  -1  11    7.09    0.18
  -6   1  11    6.69    0.19
  -6   1  11    7.06    0.23
  -6   1  11    6.78    0.16
  -6   1  11    6.78    0.21
  -6   1  11    7.16    0.17
  -6   1  11    6.95    0.21
  -5  -1  11    2.77    0.08
  -5  -1  11    2.85    0.10
  -5  -1  11    2.80    0.14
  -5  -1  11    2.86    0.13
  -5  -1  11    2.83    0.12
  -5  -1  11    2.91    0.14
  -5  -1  11    2.78    0.11
  -5  -1  11    2.92    0.12
  -5   1  11    2.92    0.11
  -5   1  11    2.54    0.13
  -5   1  11    2.97    0.14
  -5   1  11    2.78    0.10
  -5   1  11    2.81    0.12
  -5   1  11    2.78    0.11
  -5   1  11    2.65    0.14
  -4  -1  11    3.44    0.11
  -4  -1  11    3.27    0.13
  -4  -1  11    3.11    0.14
  -4  -1  11    3.74    0.16
  -4  -1  11    3.37    0.11
  -4  -1  11    3.47    0.14
  -4  -1  11    3.38    0.15
  -4  -1  11    3.67    0.15
  -4   1  11    3.21    0.16
  -4   1  11    3.38    0.15
  -4   1  11    3.70    0.16
  -4   1  11    3.22    0.09
  -4   1  11    3.44    0.14
  -4   1  11    3.30    0.12
  -4   1  11    3.25    0.11
  -3  -1  11    0.65    0.05
  -3  -1  11    0.52    0.05
  -3  -1  11    0.59    0.05
  -3  -1  11    0.73    0.08
  -3  -1  11    0.53    0.06
  -3  -1  11    0.54    0.08
  -3  -1  11    0.59    0.07
  -3  -1  11    0.54    0.08
  -3  -1  11    0.55    0.07
  -3  -1  11    0.54    0.06
  -3   1  11    0.49    0.05
  -3   1  11    0.63    0.08
  -3   1  11    0.50    0.04
  -3   1  11    0.71    0.08
  -3   1  11    0.56    0.08
  -3   1  11    0.58    0.06
  -3   1  11    0.46    0.05
  -3   1  11    0.56    0.04
  -2  -1  11    9.68    0.28
  -2  -1  11    9.70    0.27
  -2  -1  11    9.53    0.23
  -2  -1  11    9.19    0.25
   2  -1 -11    9.60    0.27
  -2  -1  11    9.79    0.24
  -2  -1  11   10.06    0.27
  -2   1  11    9.62    0.22
  -2   1  11    9.45    0.28
  -2   1  11    9.26    0.23
   2   1 -11    9.40    0.26
  -2   1  11    9.67    0.25
  -2   1  11    9.82    0.27
  -2   1  11    9.49    0.22
  -1  -1  11    8.92    0.25
  -1  -1  11    9.16    0.24
  -1  -1  11    9.06    0.26
  -1  -1  11    8.78    0.26
   1  -1 -11    8.48    0.24
   1   1 -11    8.89    0.25
  -1   1  11    9.01    0.25
  -1   1  11    9.55    0.24
  -1   1  11    9.24    0.25
  -1   1  11    9.29    0.26
  -1   1  11    8.93    0.22
   0  -1  11    0.68    0.08
   0  -1 -11    0.63    0.07
   0  -1  11    0.67    0.08
   0  -1  11    0.54    0.07
   0  -1  11    0.62    0.07
   0  -1  11    0.55    0.07
   0  -1  11    0.60    0.05
   0  -1 -11    0.54    0.06
   0   1 -11    0.53    0.07
   0   1  11    0.59    0.07
   0   1 -11    0.50    0.06
   0   1  11    0.59    0.07
   0   1  11    0.61    0.07
   0   1  11    0.58    0.07
   1  -1  11    1.91    0.11
  -1  -1 -11    1.99    0.10
   1  -1  11    1.76    0.10
   1  -1  11    2.05    0.11
  -1  -1 -11    2.12    0.10
  -1  -1 -11    1.72    0.10
   1  -1  11    1.86    0.08
  -1   1 -11    1.74    0.11
   1   1  11    1.92    0.11
   1   1  11    2.08    0.11
  -1   1 -11    1.86    0.09
   1   1  11    1.90    0.10
   2  -1  11    1.00    0.08
   2  -1  11    1.25    0.08
   2  -1  11    1.22    0.09
  -2  -1 -11    1.31    0.10
  -2  -1 -11    1.29    0.07
  -2  -1 -11    1.25    0.08
  -2   1 -11    1.24    0.09
   2   1  11    1.17    0.08
   2   1  11    1.23    0.09
  -6  -2  11    1.40    0.10
  -6  -2  11    1.47    0.06
  -6  -2  11    1.48    0.08
  -6  -2  11    1.54    0.10
  -6  -2  11    1.63    0.09
  -6   2  11    1.65    0.07
  -6   2  11    1.51    0.10
  -6   2  11    1.52    0.07
  -6   2  11    1.43    0.11
  -5  -2  11    0.51    0.07
  -5  -2  11    0.45    0.04
  -5  -2  11    0.48    0.07
  -5  -2  11    0.46    0.05
  -5  -2  11    0.46    0.06
  -5  -2  11    0.45    0.07
  -5  -2  11    0.52    0.04
  -5  -2  11    0.50    0.06
  -5   2  11    0.52    0.06
  -5   2  11    0.46    0.06
  -5   2  11    0.47    0.06
  -5   2  11    0.48    0.04
  -5   2  11    0.51    0.07
  -4  -2  11    4.92    0.17
  -4  -2  11    4.63    0.10
  -4  -2  11    4.62    0.16
  -4  -2  11    4.68    0.17
  -4  -2  11    4.46    0.10
  -4  -2  11    4.80    0.14
  -4  -2  11    4.30    0.16
  -4  -2  11    4.72    0.18
  -4  -2  11    4.49    0.14
  -4   2  11    4.37    0.12
  -4   2  11    4.56    0.16
  -4   2  11    4.46    0.17
  -4   2  11    4.40    0.14
  -4   2  11    4.51    0.09
  -4   2  11    4.69    0.18
  -4   2  11    4.49    0.16
  -3  -2  11   11.28    0.29
  -3  -2  11   11.46    0.29
  -3  -2  11   11.36    0.26
  -3  -2  11   11.58    0.25
  -3  -2  11   11.56    0.29
  -3  -2  11   11.44    0.30
  -3  -2  11   11.54    0.31
  -3  -2  11   11.73    0.30
  -3  -2  11   11.69    0.26
   3   2 -11   11.21    0.29
  -3   2  11   11.94    0.29
  -3   2  11   11.29    0.30
  -3   2  11   11.37    0.30
  -3   2  11   11.75    0.26
  -3   2  11   11.25    0.23
  -2  -2  11    1.47    0.10
  -2  -2  11    1.53    0.11
  -2  -2  11    1.53    0.10
  -2  -2  11    1.67    0.10
  -2  -2  11    1.59    0.09
  -2  -2  11    1.59    0.10
  -2  -2  11    1.48    0.10
  -2   2  11    1.64    0.10
  -2   2  11    1.51    0.09
  -2   2  11    1.69    0.07
   2   2 -11    1.94    0.11
  -2   2  11    1.69    0.10
  -2   2  11    1.82    0.07
  -2   2  11    1.78    0.09
  -1  -2  11    6.43    0.21
  -1  -2  11    6.14    0.19
  -1  -2  11    6.45    0.21
   1  -2 -11    6.46    0.18
  -1  -2  11    6.37    0.19
  -1  -2  11    6.05    0.20
   1  -2 -11    6.32    0.19
  -1  -2  11    6.39    0.20
  -1  -2  11    6.50    0.21
  -1   2  11    6.22    0.20
  -1   2  11    6.55    0.19
  -1   2  11    6.47    0.17
   1   2 -11    6.54    0.20
  -1   2  11    6.30    0.17
  -1   2  11    6.59    0.17
   0  -2  11   10.66    0.28
   0  -2  11   10.56    0.27
   0  -2  11   10.36    0.22
   0  -2 -11   10.06    0.25
   0  -2 -11   10.36    0.24
   0  -2  11   10.18    0.28
   0   2 -11   10.56    0.28
   0   2 -11   10.74    0.26
   0   2  11   10.68    0.27
   0   2  11   10.66    0.25
   0   2  11   10.77    0.27
   1  -2  11    1.47    0.08
  -1  -2 -11    1.58    0.09
  -1  -2 -11    1.38    0.09
   1  -2  11    1.47    0.10
   1  -2  11    1.48    0.10
  -1  -2 -11    1.71    0.09
   1  -2  11    1.66    0.10
  -1   2 -11    1.66    0.10
   1   2  11    1.44    0.09
  -1   2 -11    1.35    0.08
  -1   2 -11    1.46    0.10
   1   2  11    1.66    0.09
  -2   2 -11    0.59    0.07
  -5  -3  11    1.93    0.10
  -5  -3  11    1.98    0.11
  -5  -3  11    2.05    0.09
  -5  -3  11    1.85    0.06
  -5  -3  11    2.12    0.10
  -5   3  11    2.07    0.08
  -5   3  11    2.09    0.07
  -5   3  11    1.94    0.10
  -5   3  11    1.95    0.07
   5   3 -11    2.10    0.12
  -4  -3  11    1.44    0.07
  -4  -3  11    1.47    0.09
  -4  -3  11    1.53    0.08
  -4  -3  11    1.43    0.09
  -4  -3  11    1.27    0.10
  -4  -3  11    1.53    0.10
  -4   3  11    1.40    0.08
   4   3 -11    1.52    0.09
  -4   3  11    1.50    0.06
   4   3 -11    1.43    0.10
  -4   3  11    1.38    0.07
  -3  -3  11    0.70    0.07
  -3  -3  11    0.73    0.06
  -3  -3  11    0.57    0.07
  -3  -3  11    0.60    0.07
  -3  -3  11    0.75    0.06
  -3  -3  11    0.69    0.09
  -3  -3  11    0.74    0.07
   3   3 -11    0.75    0.08
  -3   3  11    0.60    0.06
  -3   3  11    0.80    0.05
  -3   3  11    0.65    0.08
  -3   3  11    0.78    0.05
   3   3 -11    0.72    0.07
  -2  -3  11    0.19    0.05
  -2  -3  11    0.27    0.05
  -2  -3  11    0.17    0.05
  -2  -3  11    0.30    0.05
  -2  -3  11    0.15    0.04
  -2  -3  11    0.26    0.05
   2   3 -11    0.18    0.05
  -2   3  11    0.21    0.05
  -2   3  11    0.19    0.03
  -2   3  11    0.14    0.04
  -2   3  11    0.21    0.04
   1  -3 -11    1.56    0.09
  -1  -3  11    1.68    0.10
   1  -3 -11    1.54    0.08
  -1  -3  11    1.54    0.09
  -1  -3  11    1.55    0.10
  -1  -3  11    1.53    0.09
  -1  -3  11    1.60    0.09
  -1   3  11    1.62    0.07
  -1   3  11    1.55    0.07
  -1   3  11    1.57    0.08
  -1   3  11    1.43    0.08
   1   3 -11    1.69    0.11
  -1   3  11    1.57    0.09
   1   3 -11    1.74    0.10
   0  -3 -11    6.94    0.18
   0  -3 -11    6.78    0.18
   0  -3  11    6.63    0.20
   0  -3  11    6.91    0.21
   0  -3  11    6.55    0.19
   0   3  11    6.63    0.16
   0   3  11    6.83    0.19
   0   3 -11    6.59    0.20
   0   3  11    6.65    0.19
   0   3 -11    6.68    0.17
  -1  -3 -11    0.21    0.04
  -1  -3 -11    0.20    0.04
   1   3  11    0.08    0.04
  -1   3 -11    0.10    0.05
  -4  -4  11    0.68    0.07
  -3  -4  11    1.54    0.08
  -3  -4  11    1.27    0.09
  -3  -4  11    1.32    0.08
  -3   4  11    1.38    0.07
   3   4 -11    1.39    0.09
  -3   4  11    1.44    0.09
  -2  -4  11    0.26    0.05
  -2  -4  11    0.34    0.05
   2   4 -11    0.40    0.06
  -2   4  11    0.39    0.04
  -2   4  11    0.41    0.06
  -1  -4  11    0.69    0.07
   1   4 -11    0.67    0.06
  -1   4  11    0.61    0.06
  -5   0  12   -0.01    0.04
  -5   0  12   -0.02    0.04
  -5   0  12    0.01    0.03
  -5   0  12    0.11    0.04
  -4   0  12    2.62    0.13
  -4   0  12    2.66    0.07
  -4   0  12    2.56    0.11
  -4   0  12    2.46    0.10
  -4   0  12    2.46    0.12
  -4   0  12    2.48    0.13
  -3   0  12   11.47    0.23
  -3   0  12   11.68    0.27
  -3   0  12   11.88    0.30
  -3   0  12   12.24    0.28
  -3   0  12   11.63    0.25
  -3   0  12   11.42    0.29
   2   0 -12    1.07    0.09
  -2   0  12    0.77    0.08
  -2   0  12    1.01    0.07
  -2   0  12    0.85    0.05
  -2   0  12    1.02    0.08
  -2   0  12    0.86    0.08
  -1   0  12    3.18    0.14
  -1   0  12    3.03    0.12
   1   0 -12    3.03    0.12
  -1   0  12    2.95    0.10
  -1   0  12    3.23    0.12
   0   0  12    0.14    0.04
   0   0  12    0.25    0.05
   0   0 -12    0.18    0.05
  -5  -1  12    1.97    0.08
  -5  -1  12    1.98    0.10
  -5  -1  12    2.10    0.11
  -5   1  12    1.96    0.08
  -4  -1  12    2.48    0.12
  -4  -1  12    2.67    0.11
  -4  -1  12    2.47    0.09
  -4  -1  12    2.53    0.07
  -4  -1  12    2.57    0.12
  -4   1  12    2.46    0.12
  -4   1  12    2.50    0.10
  -4   1  12    2.46    0.11
  -4   1  12    2.65    0.12
  -4   1  12    2.57    0.06
  -3  -1  12    8.60    0.19
  -3  -1  12    8.50    0.24
  -3  -1  12    8.82    0.23
  -3  -1  12    8.48    0.24
  -3  -1  12    8.61    0.23
  -3  -1  12    8.63    0.19
  -3   1  12    8.40    0.24
  -3   1  12    8.06    0.23
  -3   1  12    8.82    0.22
   3   1 -12    8.38    0.22
  -3   1  12    8.32    0.16
  -3   1  12    8.63    0.20
  -2  -1  12    0.51    0.06
  -2  -1  12    0.64    0.07
  -2  -1  12    0.64    0.07
   2  -1 -12    0.47    0.06
  -2  -1  12    0.43    0.06
  -2  -1  12    0.56    0.06
  -2  -1  12    0.47    0.04
  -2   1  12    0.49    0.07
  -2   1  12    0.69    0.07
  -2   1  12    0.54    0.05
  -2   1  12    0.61    0.07
  -2   1  12    0.57    0.05
   2   1 -12    0.50    0.06
  -1  -1  12    0.57    0.06
  -1  -1  12    0.61    0.06
  -1  -1  12    0.57    0.06
  -1  -1  12    0.45    0.06
  -1  -1  12    0.50    0.07
   1  -1 -12    0.69    0.07
  -1   1  12    0.63    0.07
   1   1 -12    0.57    0.07
  -1   1  12    0.52    0.06
   0  -1 -12    1.69    0.09
   0   1 -12    1.68    0.09
   0   1  12    1.37    0.09
  -4  -2  12    2.16    0.10
  -4   2  12    2.19    0.10
  -4   2  12    2.14    0.08
  -3  -2  12    5.76    0.17
  -3  -2  12    5.76    0.16
  -3  -2  12    5.67    0.17
   3   2 -12    5.45    0.16
  -3   2  12    5.75    0.14
  -3   2  12    5.47    0.11
  -3   2  12    5.82    0.17
  -2  -2  12    1.74    0.09
  -2  -2  12    1.52    0.09
  -2  -2  12    1.49    0.10
   2   2 -12    1.70    0.10
  -2   2  12    1.49    0.09
  -2   2  12    1.75    0.10
   1   2 -12    1.79    0.09
  -1   2  12    1.81    0.09
   0   0   0    0.00    0.00
;
_shelx_hkl_checksum              17350
loop_
_space_group_symop_operation_xyz
'x, y, z'
'-x, y+1/2, -z'
loop_
_atom_site_label
_atom_site_type_symbol
_atom_site_fract_x
_atom_site_fract_y
_atom_site_fract_z
_atom_site_U_iso_or_equiv
_atom_site_adp_type
_atom_site_occupancy
_atom_site_site_symmetry_order
_atom_site_calc_flag
_atom_site_refinement_flags_posn
_atom_site_refinement_flags_adp
O1 O 0.09341(18) 0.1671(3) -0.01566(15) 0.0805(6) Uani 1 1 d . .
N1 N 0.5252(2) 0.4662(3) 0.59457(17) 0.0554(5) Uani 1 1 d . .
N2 N 0.1073(3) 0.7162(3) 0.3755(2) 0.0678(6) Uani 1 1 d . .
C1 C 0.27105(18) 0.4225(2) 0.41315(15) 0.0312(4) Uani 1 1 d . .
C2 C 0.30506(17) 0.3599(2) 0.27979(15) 0.0280(3) Uani 1 1 d . .
H2 H 0.3747 0.2534 0.3008 0.034 Uiso 1 1 calc R U
C3 C 0.14830(17) 0.2884(2) 0.20401(15) 0.0329(4) Uani 1 1 d . .
H3 H 0.0793 0.3908 0.1660 0.039 Uiso 1 1 calc R U
C4 C 0.08608(18) 0.1868(2) 0.31062(16) 0.0339(4) Uani 1 1 d . .
H4 H 0.1134 0.0564 0.3081 0.041 Uiso 1 1 calc R U
C5 C 0.17369(19) 0.2651(2) 0.44591(16) 0.0365(4) Uani 1 1 d . .
H5A H 0.2398 0.1719 0.4993 0.044 Uiso 1 1 calc R U
H5B H 0.1016 0.3096 0.4962 0.044 Uiso 1 1 calc R U
C6 C 0.4132(2) 0.4498(3) 0.51651(17) 0.0377(4) Uani 1 1 d . .
C7 C 0.1821(2) 0.5911(2) 0.39325(18) 0.0409(4) Uani 1 1 d . .
C8 C 0.38275(18) 0.4967(2) 0.21201(14) 0.0284(3) Uani 1 1 d . .
C9 C 0.54211(19) 0.4993(2) 0.24150(16) 0.0339(4) Uani 1 1 d . .
H9 H 0.5988 0.4157 0.3037 0.041 Uiso 1 1 calc R U
C10 C 0.61803(19) 0.6218(3) 0.18122(18) 0.0404(4) Uani 1 1 d . .
H10 H 0.7263 0.6222 0.2021 0.048 Uiso 1 1 calc R U
C11 C 0.5364(2) 0.7442(3) 0.09034(17) 0.0413(4) Uani 1 1 d . .
H11 H 0.5884 0.8284 0.0487 0.050 Uiso 1 1 calc R U
C12 C 0.3791(2) 0.7431(2) 0.06054(16) 0.0384(4) Uani 1 1 d . .
H12 H 0.3230 0.8267 -0.0020 0.046 Uiso 1 1 calc R U
C13 C 0.30246(19) 0.6210(2) 0.12120(15) 0.0336(4) Uani 1 1 d . .
H13 H 0.1942 0.6222 0.1005 0.040 Uiso 1 1 calc R U
C14 C 0.1630(2) 0.1605(3) 0.09669(19) 0.0504(5) Uani 1 1 d . .
H14 H 0.2347 0.0653 0.1209 0.060 Uiso 1 1 calc R U
C16 C -0.08315(19) 0.2010(3) 0.28524(17) 0.0404(4) Uani 1 1 d . .
H16 H -0.1246 0.3159 0.2964 0.048 Uiso 1 1 calc R U
C17 C -0.1783(2) 0.0681(3) 0.2490(2) 0.0527(5) Uani 1 1 d . .
H17A H -0.1413 -0.0489 0.2367 0.063 Uiso 1 1 calc R U
H17B H -0.2848 0.0881 0.2347 0.063 Uiso 1 1 calc R U
loop_
_atom_site_aniso_label
_atom_site_aniso_U_11
_atom_site_aniso_U_22
_atom_site_aniso_U_33
_atom_site_aniso_U_23
_atom_site_aniso_U_13
_atom_site_aniso_U_12
O1 0.0582(9) 0.1392(18) 0.0451(8) -0.0337(10) 0.0149(7) -0.0334(11)
N1 0.0540(10) 0.0614(12) 0.0448(9) -0.0027(8) 0.0008(8) -0.0190(9)
N2 0.0942(15) 0.0515(11) 0.0746(12) 0.0165(9) 0.0528(11) 0.0325(11)
C1 0.0330(8) 0.0311(8) 0.0304(8) 0.0010(6) 0.0095(6) 0.0001(7)
C2 0.0259(7) 0.0271(7) 0.0312(7) 0.0010(6) 0.0075(6) 0.0038(6)
C3 0.0280(8) 0.0364(9) 0.0341(8) 0.0002(7) 0.0077(6) -0.0023(7)
C4 0.0327(8) 0.0296(8) 0.0395(8) 0.0034(7) 0.0093(7) -0.0018(7)
C5 0.0346(8) 0.0405(9) 0.0342(8) 0.0066(7) 0.0084(6) -0.0061(7)
C6 0.0445(10) 0.0363(9) 0.0328(8) -0.0008(7) 0.0106(7) -0.0096(7)
C7 0.0528(11) 0.0372(10) 0.0403(9) 0.0022(7) 0.0261(8) 0.0054(8)
C8 0.0306(8) 0.0287(8) 0.0275(7) -0.0033(6) 0.0104(6) 0.0001(6)
C9 0.0304(8) 0.0354(9) 0.0367(8) -0.0016(7) 0.0098(7) 0.0010(7)
C10 0.0337(8) 0.0450(10) 0.0459(10) -0.0061(8) 0.0164(7) -0.0079(8)
C11 0.0519(10) 0.0390(10) 0.0383(9) -0.0041(8) 0.0213(8) -0.0112(8)
C12 0.0515(10) 0.0335(9) 0.0322(8) 0.0020(7) 0.0141(7) -0.0005(8)
C13 0.0343(8) 0.0351(9) 0.0323(8) 0.0015(7) 0.0101(6) 0.0024(7)
C14 0.0429(10) 0.0631(13) 0.0483(11) -0.0187(10) 0.0173(9) -0.0176(9)
C16 0.0339(8) 0.0447(10) 0.0429(9) 0.0041(8) 0.0105(7) -0.0034(8)
C17 0.0403(10) 0.0648(13) 0.0495(11) 0.0065(10) 0.0045(8) -0.0171(9)
loop_
_atom_type_symbol
_atom_type_description
_atom_type_scat_dispersion_real
_atom_type_scat_dispersion_imag
_atom_type_scat_source
C C 0.0181 0.0091 'International Tables Vol C Tables 4.2.6.8 and 6.1.1.4'
H H 0.0000 0.0000 'International Tables Vol C Tables 4.2.6.8 and 6.1.1.4'
O O 0.0492 0.0322 'International Tables Vol C Tables 4.2.6.8 and 6.1.1.4'
N N 0.0311 0.0180 'International Tables Vol C Tables 4.2.6.8 and 6.1.1.4'
loop_
_geom_angle_atom_site_label_1
_geom_angle_atom_site_label_2
_geom_angle_atom_site_label_3
_geom_angle
C6 C1 C7 109.51(15)
C6 C1 C5 112.57(13)
C7 C1 C5 110.40(13)
C6 C1 C2 111.13(13)
C7 C1 C2 110.35(13)
C5 C1 C2 102.72(13)
C8 C2 C3 118.06(13)
C8 C2 C1 115.71(13)
C3 C2 C1 101.41(12)
C8 C2 H2 107.0
C3 C2 H2 107.0
C1 C2 H2 107.0
C14 C3 C2 111.09(13)
C14 C3 C4 109.94(15)
C2 C3 C4 104.58(12)
C14 C3 H3 110.4
C2 C3 H3 110.4
C4 C3 H3 110.4
C16 C4 C5 113.94(14)
C16 C4 C3 112.12(13)
C5 C4 C3 105.87(12)
C16 C4 H4 108.2
C5 C4 H4 108.2
C3 C4 H4 108.2
C4 C5 C1 105.80(12)
C4 C5 H5A 110.6
C1 C5 H5A 110.6
C4 C5 H5B 110.6
C1 C5 H5B 110.6
H5A C5 H5B 108.7
N1 C6 C1 177.7(2)
N2 C7 C1 176.7(2)
C13 C8 C9 118.50(15)
C13 C8 C2 122.66(14)
C9 C8 C2 118.84(14)
C10 C9 C8 120.79(16)
C10 C9 H9 119.6
C8 C9 H9 119.6
C9 C10 C11 120.04(16)
C9 C10 H10 120.0
C11 C10 H10 120.0
C12 C11 C10 119.71(16)
C12 C11 H11 120.1
C10 C11 H11 120.1
C11 C12 C13 120.48(16)
C11 C12 H12 119.8
C13 C12 H12 119.8
C12 C13 C8 120.49(15)
C12 C13 H13 119.8
C8 C13 H13 119.8
O1 C14 C3 126.0(2)
O1 C14 H14 117.0
C3 C14 H14 117.0
C17 C16 C4 125.06(19)
C17 C16 H16 117.5
C4 C16 H16 117.5
C16 C17 H17A 120.0
C16 C17 H17B 120.0
H17A C17 H17B 120.0
loop_
_geom_bond_atom_site_label_1
_geom_bond_atom_site_label_2
_geom_bond_distance
O1 C14 1.184(2)
N1 C6 1.138(2)
N2 C7 1.136(3)
C1 C6 1.473(2)
C1 C7 1.474(2)
C1 C5 1.551(2)
C1 C2 1.567(2)
C2 C8 1.507(2)
C2 C3 1.536(2)
C2 H2 1.0000
C3 C14 1.497(2)
C3 C4 1.559(2)
C3 H3 1.0000
C4 C16 1.492(2)
C4 C5 1.548(2)
C4 H4 1.0000
C5 H5A 0.9900
C5 H5B 0.9900
C8 C13 1.389(2)
C8 C9 1.398(2)
C9 C10 1.381(2)
C9 H9 0.9500
C10 C11 1.385(3)
C10 H10 0.9500
C11 C12 1.379(3)
C11 H11 0.9500
C12 C13 1.386(2)
C12 H12 0.9500
C13 H13 0.9500
C14 H14 0.9500
C16 C17 1.301(3)
C16 H16 0.9500
C17 H17A 0.9500
C17 H17B 0.9500
