#------------------------------------------------------------------------------
#$Date: 2016-04-20 13:06:24 +0300 (Wed, 20 Apr 2016) $
#$Revision: 182221 $
#$URL: svn://www.crystallography.net/cod/cif/7/11/87/7118750.cif $
#------------------------------------------------------------------------------
#
# This file is available in the Crystallography Open Database (COD),
# http://www.crystallography.net/
#
# All data on this site have been placed in the public domain by the
# contributors.
#
data_7118750
loop_
_publ_author_name
'Verma, Ajay'
'Jana, Sadhan'
'Durga Prasad, Ch'
'Yadav, Abhimanyu'
'Kumar, Sangit'
_publ_section_title
;
 Organoselenium and DMAP co-catalysis: regioselective synthesis of
 medium-sized halolactones and bromooxepanes from unactivated alkenes.
;
_journal_issue                   22
_journal_name_full
'Chemical communications (Cambridge, England)'
_journal_page_first              4179
_journal_page_last               4182
_journal_paper_doi               10.1039/c5cc10245f
_journal_volume                  52
_journal_year                    2016
_chemical_formula_moiety         'C14  H14  Br2  O2  Se'
_chemical_formula_sum            'C14 H14 Br2 O2 Se'
_chemical_formula_weight         453.01
_chemical_name_systematic
;
 ?
;
_space_group_IT_number           2
_symmetry_cell_setting           triclinic
_symmetry_Int_Tables_number      2
_symmetry_space_group_name_Hall  '-P 1'
_symmetry_space_group_name_H-M   'P -1'
_atom_sites_solution_hydrogens   geom
_audit_conform_dict_location     ftp://ftp.iucr.org/pub/cif_core.dic
_audit_conform_dict_name         cif_core.dic
_audit_conform_dict_version      2.4.3
_audit_creation_date             2015-03-12T08:45:05-00:00
_audit_creation_method           'WinGX routine CIF_UPDATE'
_audit_update_record
;
2016-01-20 deposited with the CCDC.
2016-02-09 downloaded from the CCDC.
;
_cell_angle_alpha                84.638(4)
_cell_angle_beta                 85.762(4)
_cell_angle_gamma                75.567(4)
_cell_formula_units_Z            2
_cell_length_a                   7.8195(7)
_cell_length_b                   8.6185(8)
_cell_length_c                   11.8731(11)
_cell_measurement_reflns_used    24
_cell_measurement_temperature    133(2)
_cell_measurement_theta_max      25.401
_cell_measurement_theta_min      2.448
_cell_measurement_wavelength     0.71073
_cell_volume                     770.45(12)
_computing_cell_refinement       'Bruker SAINT'
_computing_data_collection       'Bruker APEX2'
_computing_data_reduction        'Bruker SAINT'
_computing_molecular_graphics    'Ortep for Windows (Farrugia, 2012)'
_computing_publication_material  'WinGX publication routines (Farrugia, 2012)'
_computing_structure_refinement  'SHELXL-2014 (Sheldrick, 2014)'
_computing_structure_solution    'SHELXS-97 (Sheldrick 2008)'
_diffrn_ambient_temperature      133(2)
_diffrn_measured_fraction_theta_full 0.998
_diffrn_measured_fraction_theta_max 0.998
_diffrn_measurement_device_type  'Bruker D8 VENTURE'
_diffrn_measurement_method       '\f and \w scans'
_diffrn_radiation_probe          x-ray
_diffrn_radiation_type           MoK\a
_diffrn_radiation_wavelength     0.71073
_diffrn_reflns_av_R_equivalents  0.049
_diffrn_reflns_Laue_measured_fraction_full 0.998
_diffrn_reflns_Laue_measured_fraction_max 0.998
_diffrn_reflns_limit_h_max       9
_diffrn_reflns_limit_h_min       -9
_diffrn_reflns_limit_k_max       10
_diffrn_reflns_limit_k_min       -10
_diffrn_reflns_limit_l_max       14
_diffrn_reflns_limit_l_min       -14
_diffrn_reflns_number            25951
_diffrn_reflns_point_group_measured_fraction_full 0.998
_diffrn_reflns_point_group_measured_fraction_max 0.998
_diffrn_reflns_theta_full        25.242
_diffrn_reflns_theta_max         25.401
_diffrn_reflns_theta_min         2.448
_exptl_absorpt_coefficient_mu    7.618
_exptl_absorpt_correction_type   none
_exptl_crystal_density_diffrn    1.953
_exptl_crystal_density_method    'not measured'
_exptl_crystal_description       needle
_exptl_crystal_F_000             436
_exptl_crystal_size_max          0.03
_exptl_crystal_size_mid          0.02
_exptl_crystal_size_min          0.01
_refine_diff_density_max         1.035
_refine_diff_density_min         -1.456
_refine_diff_density_rms         0.199
_refine_ls_extinction_method     none
_refine_ls_goodness_of_fit_ref   1.074
_refine_ls_hydrogen_treatment    constr
_refine_ls_matrix_type           full
_refine_ls_number_constraints    0
_refine_ls_number_parameters     174
_refine_ls_number_reflns         2843
_refine_ls_number_restraints     0
_refine_ls_restrained_S_all      1.074
_refine_ls_R_factor_all          0.0454
_refine_ls_R_factor_gt           0.0415
_refine_ls_shift/su_max          0.001
_refine_ls_shift/su_mean         0
_refine_ls_structure_factor_coef Fsqd
_refine_ls_weighting_details
'w=1/[\s^2^(Fo^2^)+(0.0945P)^2^+0.7123P] where P=(Fo^2^+2Fc^2^)/3'
_refine_ls_weighting_scheme      calc
_refine_ls_wR_factor_gt          0.129
_refine_ls_wR_factor_ref         0.1324
_reflns_number_gt                2534
_reflns_number_total             2843
_reflns_threshold_expression     'I > 2\s(I)'
_iucr_refine_instructions_details
;
TITL EXILENT_a.res in P-1
CELL  0.71073   7.8195   8.6185  11.8731   84.638   85.762   75.567
ZERR     2.00   0.0007   0.0008   0.0011    0.004    0.004    0.004
LATT   1
SFAC  C    H    O    SE   BR
UNIT  28   28   4    2    4
MERG   2
FMAP   2
PLAN    5
ACTA
BOND   $H
L.S.  70
TEMP  -273.15
WGHT    0.094500    0.712300
FVAR       0.60069
SE1   4    0.080940    0.527384    0.815597    11.00000    0.02444    0.02611 =
         0.03232   -0.00088    0.00706   -0.00554
BR2   5    0.208376    0.639400    0.976942    11.00000    0.05338    0.04200 =
         0.03228   -0.00483    0.00287   -0.01806
BR1   5   -0.081131    0.424101    0.670327    11.00000    0.04113    0.04153 =
         0.04934   -0.00218   -0.00844   -0.01571
O1    3    0.663809   -0.080116    0.839189    11.00000    0.03237    0.04015 =
         0.06511    0.00845    0.01374    0.00707
O2    3    0.307250    0.984042    0.453675    11.00000    0.05464    0.04479 =
         0.04198    0.01244    0.00857   -0.01584
C4    1    0.528316    0.053707    0.835852    11.00000    0.02999    0.03274 =
         0.03503   -0.00038    0.00163    0.00131
C10   1    0.252928    0.887842    0.538094    11.00000    0.03326    0.03639 =
         0.03268    0.00797   -0.00329   -0.01348
C1    1    0.270399    0.336236    0.819146    11.00000    0.02522    0.02744 =
         0.03282   -0.00193    0.00102   -0.00393
C5    1    0.574540    0.198636    0.805768    11.00000    0.02478    0.04210 =
         0.04581    0.00329    0.00345   -0.00753
AFIX  43
H5    2    0.695149    0.199609    0.789861    11.00000   -1.20000
AFIX   0
C7    1    0.163598    0.669372    0.701302    11.00000    0.02814    0.02779 =
         0.02957    0.00187   -0.00032   -0.00778
C3    1    0.354163    0.051321    0.860239    11.00000    0.03328    0.02675 =
         0.04446    0.00177    0.00446   -0.00897
AFIX  43
H3    2    0.323574   -0.047414    0.882810    11.00000   -1.20000
AFIX   0
C11   1    0.310110    0.722995    0.524373    11.00000    0.03353    0.04000 =
         0.03432   -0.00218    0.00870   -0.00880
AFIX  43
H11   2    0.381178    0.686142    0.459221    11.00000   -1.20000
AFIX   0
C8    1    0.101944    0.832451    0.714488    11.00000    0.03939    0.02975 =
         0.03264   -0.00448    0.00584   -0.00498
AFIX  43
H8    2    0.029492    0.868580    0.779300    11.00000   -1.20000
AFIX   0
C6    1    0.445769    0.340321    0.799069    11.00000    0.03333    0.03500 =
         0.03696    0.00165    0.00227   -0.01377
AFIX  43
H6    2    0.476921    0.439781    0.780871    11.00000   -1.20000
AFIX   0
C9    1    0.147544    0.942509    0.631581    11.00000    0.04662    0.02449 =
         0.03899   -0.00078    0.00090   -0.00710
AFIX  43
H9    2    0.106323    1.054586    0.639354    11.00000   -1.20000
AFIX   0
C2    1    0.223029    0.193823    0.851762    11.00000    0.02433    0.03186 =
         0.04498    0.00075    0.00325   -0.00659
AFIX  43
H2    2    0.102409    0.193280    0.868185    11.00000   -1.20000
AFIX   0
C12   1    0.262728    0.614549    0.605889    11.00000    0.03274    0.02862 =
         0.03582   -0.00490    0.00882   -0.00525
AFIX  43
H12   2    0.298239    0.502645    0.596314    11.00000   -1.20000
AFIX   0
C13   1    0.621209   -0.231168    0.869009    11.00000    0.05193    0.03414 =
         0.08650    0.00774    0.01965    0.01261
AFIX 137
H13A  2    0.555332   -0.227749    0.942600    11.00000   -1.50000
H13B  2    0.730449   -0.316575    0.873604    11.00000   -1.50000
H13C  2    0.548645   -0.252727    0.811265    11.00000   -1.50000
AFIX   0
C14   1    0.263965    1.152776    0.466260    11.00000    0.06275    0.03995 =
         0.06895    0.01653    0.00254   -0.02111
AFIX 137
H14A  2    0.135166    1.193949    0.469740    11.00000   -1.50000
H14B  2    0.315765    1.207502    0.401424    11.00000   -1.50000
H14C  2    0.311262    1.172668    0.536251    11.00000   -1.50000
AFIX   0
HKLF    4
REM  EXILENT_a.res in P-1
REM R1 =  0.0415 for    2534 Fo > 4sig(Fo)  and  0.0454 for all    2843 data
REM    174 parameters refined using      0 restraints
END
;
_cod_data_source_file            c5cc10245f2.cif
_cod_data_source_block           Catalyst_NBS
_cod_depositor_comments
'Adding full bibliography for 7118747--7118751.cif.'
_cod_database_code               7118750
_iucr_refine_reflections_details
;
  -1   0   0 1204.68   57.79
  -1   0   0  973.40   58.19
  -2   0   0  500.95   31.00
  -2   0   0  477.15   31.80
  -2   0   0  605.34   30.30
  -2   0   0  599.14   31.10
   2   0   0  530.85   30.60
   2   0   0  581.44   30.30
   2   0   0  536.45   32.80
   2   0   0  629.74   31.20
   2   0   0  613.64   30.30
   2   0   0  584.64   30.40
  -3   0   0   67.89    5.00
  -3   0   0   51.79    8.80
  -3   0   0   64.99    6.60
  -3   0   0   48.80    8.70
   3   0   0   62.49    4.80
   3   0   0   79.99    6.50
   3   0   0   49.99    8.90
   3   0   0   68.79    4.70
   3   0   0   68.49    5.20
   3   0   0   71.59    7.00
  -4   0   0   89.89    8.10
  -4   0   0   55.69   10.70
  -4   0   0   74.29   12.20
  -4   0   0   80.99    6.60
  -4   0   0   98.19    9.00
   4   0   0   84.79    6.00
   4   0   0  100.39    8.30
   4   0   0   61.09   12.00
   4   0   0   77.89    6.10
   4   0   0   90.19    8.20
  -5   0   0  786.52   43.80
  -5   0   0  745.23   45.10
  -5   0   0  911.41   49.40
  -5   0   0  681.13   47.40
   5   0   0  800.12   43.40
   5   0   0  849.61   45.20
   5   0   0  934.11   48.70
   5   0   0  757.62   44.70
   5   0   0  773.42   43.40
  -6   0   0 1054.49   59.99
  -6   0   0  990.70   57.79
   6   0   0 1119.39   58.99
   6   0   0 1141.49   59.29
   6   0   0 1057.89   57.29
   6   0   0 1021.00   57.29
  -7   0   0  778.32   48.00
  -7   0   0  745.23   44.40
  -7   0   0  734.73   45.40
   7   0   0  914.71   46.10
   7   0   0  852.71   45.80
   7   0   0  737.13   42.90
   7   0   0  797.52   43.70
   7   0   0  808.72   43.70
  -8   0   0  173.08   23.10
  -8   0   0  173.28   16.40
  -8   0   0  187.58   19.90
   8   0   0  197.88   13.90
   8   0   0  172.58   13.00
   8   0   0  207.88   16.90
   8   0   0  259.07   27.10
   8   0   0  195.48   14.50
   8   0   0  240.78   19.00
  -9   0   0  -15.10   12.70
  -9   0   0   10.70   14.30
  -9   0   0    9.10   13.80
   9   0   0    6.50    6.60
   9   0   0   13.70    9.10
   9   0   0   -6.30   11.80
   9   0   0    0.60    4.70
   8  -1   0  332.37   19.10
   8  -1   0  300.67   18.80
   8  -1   0  277.57   18.90
  -8   1   0  300.67   23.70
  -8   1   0  242.08   27.50
   7  -1   0  650.63   34.40
   7  -1   0  565.94   34.00
  -7   1   0  602.94   39.30
  -7   1   0  633.24   36.10
   6  -1   0  654.33   37.00
   6  -1   0  744.43   39.90
   6  -1   0  718.73   37.20
  -6   1   0  637.84   40.10
  -6   1   0  640.74   38.00
  -6   1   0  650.53   36.60
   5  -1   0   53.89    6.20
   5  -1   0   52.79    5.60
   5  -1   0   79.89   13.10
   5  -1   0   62.89    9.30
  -5   1   0   49.20    5.80
  -5   1   0   59.39    7.30
  -5   1   0   61.79   10.00
  -5   1   0   64.49    9.60
  -5   1   0   52.69    7.20
   4  -1   0   75.19    6.30
   4  -1   0  100.89    9.30
   4  -1   0   84.49    6.10
  -4   1   0   64.99   11.60
  -4   1   0   81.99    6.80
  -4   1   0   83.39    8.40
  -4   1   0   70.89    6.80
  -4   1   0   81.59   10.90
   3  -1   0  120.19    7.40
   3  -1   0  124.69    9.60
   3  -1   0   94.69    7.20
   3  -1   0  110.09    7.40
   3  -1   0  116.39    7.30
   3  -1   0  131.79   10.30
   3  -1   0  114.49    7.10
  -3   1   0  109.69    7.10
  -3   1   0  106.09    9.40
  -3   1   0  122.99    7.50
  -3   1   0  111.59    8.10
  -3   1   0  111.39    6.80
  -2   1   0 3135.89  181.88
  -2   1   0 3509.05  180.48
  -2   1   0 3626.34  180.98
   0  -1   0  435.36   23.10
  -1  -1   0 1522.75   79.99
  -1  -1   0 1492.05   79.99
  -1  -1   0 1538.45   80.09
  -1  -1   0 1451.55   79.99
  -1  -1   0 1521.15   80.09
  -1  -1   0 1573.24   80.29
   1   1   0 1521.85   80.09
   1   1   0 1512.95   80.09
  -2  -1   0  520.75   27.60
  -2  -1   0  508.75   27.70
  -2  -1   0  485.15   27.60
  -2  -1   0  527.65   28.40
  -2  -1   0  502.95   27.90
   2   1   0  526.45   27.40
   2   1   0  503.45   27.60
   2   1   0  524.15   27.20
   2   1   0  499.75   27.80
   2   1   0  526.55   27.60
  -3  -1   0  757.92   42.30
  -3  -1   0  812.32   41.90
  -3  -1   0  787.02   42.30
  -3  -1   0  832.72   42.60
  -3  -1   0  763.92   42.30
   3   1   0  787.92   41.60
   3   1   0  739.33   44.20
   3   1   0  804.92   42.60
   3   1   0  757.92   41.90
   3   1   0  766.42   42.60
   3   1   0  795.72   42.00
  -4  -1   0   52.59    6.70
  -4  -1   0   35.30    5.50
  -4  -1   0   39.60    4.60
  -4  -1   0   47.30    8.20
  -4  -1   0   44.60    5.50
  -4  -1   0   41.30    5.60
   4   1   0   32.40    6.90
   4   1   0   33.50    4.80
   4   1   0   53.19    4.40
   4   1   0   38.50    4.30
   4   1   0   47.00    5.80
  -5  -1   0  625.34   38.50
  -5  -1   0  650.53   35.50
  -5  -1   0  665.33   38.50
  -5  -1   0  576.74   35.40
  -5  -1   0  645.54   35.50
  -5  -1   0  625.04   36.30
   5   1   0  685.83   35.90
   5   1   0  615.24   34.50
   5   1   0  590.04   39.70
   5   1   0  677.93   36.30
   5   1   0  609.14   34.50
  -6  -1   0 1773.52   96.89
  -6  -1   0 1832.32   99.89
  -6  -1   0 1724.03   96.89
  -6  -1   0 1785.22   98.19
   6   1   0 1744.53   95.89
   6   1   0 1813.82   97.59
   6   1   0 1653.83  101.09
   6   1   0 1842.42   95.99
   6   1   0 2017.90   97.59
  -7  -1   0  635.44   38.80
  -7  -1   0  641.84   38.50
  -7  -1   0  642.74   40.80
   7   1   0  665.33   39.20
   7   1   0  713.23   38.60
   7   1   0  624.84   36.50
   7   1   0  655.53   36.50
   7   1   0  700.43   45.70
  -8  -1   0   39.60    9.20
  -8  -1   0   33.80   10.90
   8   1   0   20.60   12.50
   8   1   0   52.39    5.80
   8   1   0   46.30    9.10
   8   1   0   49.70    6.30
  -9  -1   0   48.60   14.50
  -9  -1   0   14.80   12.50
  -9  -1   0   37.70   10.80
   9   1   0   49.50    7.80
   9   1   0   37.30    9.90
   9   1   0   43.80   16.50
   8  -2   0  328.97   21.40
   8  -2   0  405.06   35.30
  -8   2   0  304.07   24.60
   7  -2   0  313.17   18.20
   7  -2   0  311.97   21.40
   7  -2   0  263.07   18.70
  -7   2   0  287.37   20.10
  -7   2   0  281.27   24.80
   6  -2   0   10.10    4.50
   6  -2   0    8.90    5.20
   6  -2   0    4.90    7.50
   6  -2   0    0.30    4.40
   6  -2   0    5.30    3.20
  -6   2   0    9.60    7.10
  -6   2   0   -0.20    5.10
  -6   2   0    4.60    8.00
   5  -2   0  436.66   27.90
   5  -2   0  565.64   31.50
   5  -2   0  559.04   28.60
   5  -2   0  569.44   32.40
   5  -2   0  479.65   28.20
  -5   2   0  474.65   30.40
  -5   2   0  428.86   28.20
  -5   2   0  462.45   34.40
  -5   2   0  586.44   31.70
   4  -2   0   49.00    9.10
   4  -2   0   36.20    6.40
   4  -2   0   37.10    4.40
   4  -2   0   32.40    4.50
   4  -2   0   36.00    2.90
   4  -2   0   46.90    4.50
   4  -2   0   47.50    5.00
  -4   2   0   35.30    5.30
  -4   2   0   32.50    4.90
  -4   2   0   38.90    6.30
  -4   2   0   33.30    8.20
   3  -2   0  173.18   11.40
   3  -2   0  199.78   11.30
   3  -2   0  202.48   11.30
   3  -2   0  192.58   10.90
   3  -2   0  183.58   11.50
   3  -2   0  193.98   10.50
   3  -2   0  206.98   11.20
  -3   2   0  193.08   12.00
  -3   2   0  160.08   11.20
   2  -2   0 4186.18  218.28
   2  -2   0 4128.69  218.28
   2  -2   0 3712.43  218.18
   2  -2   0 4486.35  218.38
   2  -2   0 4154.18  218.38
  -2   2   0 3975.50  218.48
  -2   2   0 4355.76  218.48
   0  -2   0 1597.34   81.79
   0  -2   0 1457.55   81.69
   0  -2   0 1584.94   82.09
   0  -2   0 1616.64   81.69
   0   2   0 1553.94   81.79
   0   2   0 1572.04   82.09
   0   2   0 1458.95   82.49
   0   2   0 1586.24   81.69
   0   2   0 1514.35   81.69
  -1  -2   0  342.87   17.80
  -1  -2   0  337.97   17.90
  -1  -2   0  298.07   18.30
  -1  -2   0  308.37   17.90
  -1  -2   0  324.77   18.20
   1   2   0  326.17   18.00
   1   2   0  354.86   17.90
   1   2   0  338.37   18.20
   1   2   0  335.87   17.90
   1   2   0  339.77   17.60
  -2  -2   0  148.59    8.50
  -2  -2   0  153.08    9.20
  -2  -2   0  140.59    9.20
  -2  -2   0  154.08    9.60
  -2  -2   0  141.69    9.30
   2   2   0  156.78    9.20
   2   2   0  161.38   10.10
   2   2   0  161.08    9.30
   2   2   0  142.89    9.10
  -3  -2   0   34.20    4.70
  -3  -2   0   40.40    4.70
  -3  -2   0   40.60    4.80
  -3  -2   0   31.80    4.60
  -3  -2   0   37.10    3.90
   3   2   0   39.40    3.80
   3   2   0   41.40    2.60
   3   2   0   34.90    3.90
   3   2   0   47.40    6.60
   3   2   0   41.60    3.50
   3   2   0   35.20    4.60
  -4  -2   0 1060.39   57.29
  -4  -2   0 1060.79   58.09
  -4  -2   0 1045.50   56.89
  -4  -2   0 1117.99   57.09
  -4  -2   0 1038.00   57.19
  -4  -2   0 1091.69   57.59
   4   2   0 1063.79   56.69
   4   2   0 1016.40   57.49
   4   2   0 1037.90   56.59
   4   2   0 1076.29   59.79
   4   2   0 1037.30   56.29
  -5  -2   0 1896.11  101.89
  -5  -2   0 1814.82  102.79
  -5  -2   0 2021.50  102.49
  -5  -2   0 1745.23  101.19
  -5  -2   0 1888.11  101.79
  -5  -2   0 1891.41  101.29
   5   2   0 1950.30  102.29
   5   2   0 1890.01  100.99
   5   2   0 1895.31  100.89
   5   2   0 2078.39  101.89
   5   2   0 1999.50  100.49
   5   2   0 1710.93  105.09
  -6  -2   0 1651.53   91.49
  -6  -2   0 1758.62   90.79
  -6  -2   0 1588.04   91.29
  -6  -2   0 1677.63   92.29
  -6  -2   0 1727.43   91.59
  -6  -2   0 1698.43   92.99
   6   2   0 1689.33   90.19
   6   2   0 1615.54   96.39
   6   2   0 1815.52   91.39
   6   2   0 1625.34   90.09
   6   2   0 1735.93   92.09
  -7  -2   0  263.77   20.20
  -7  -2   0  269.57   22.00
  -7  -2   0  284.87   19.40
  -7  -2   0  269.67   20.40
   7   2   0  281.47   20.50
   7   2   0  193.58   28.10
   7   2   0  260.47   16.60
   7   2   0  256.77   16.30
   7   2   0  288.57   18.20
  -8  -2   0   70.89    8.70
  -8  -2   0   50.69   11.20
  -8  -2   0   49.10   10.00
  -8  -2   0   49.30   12.10
   8   2   0   47.40    6.30
   8   2   0   44.90    9.60
   8   2   0   53.29    6.00
  -9  -2   0   88.69   16.20
  -9  -2   0  140.09   18.10
  -9  -2   0   59.39   15.00
  -9  -2   0   79.59   13.40
   9   2   0   49.20   15.50
   9   2   0   86.49   12.40
   9   2   0  103.19   12.10
   8  -3   0  134.39   14.20
   8  -3   0  102.49   12.20
   8  -3   0  147.09   15.70
  -8   3   0  106.29   17.10
   7  -3   0  294.57   18.60
   7  -3   0  253.97   17.70
   7  -3   0  254.57   19.00
   7  -3   0  282.57   24.80
  -7   3   0  194.58   23.70
   6  -3   0  211.18   15.60
   6  -3   0  226.58   14.50
   6  -3   0  247.18   21.20
   6  -3   0  198.98   14.30
  -6   3   0  231.18   28.10
  -6   3   0  189.38   18.80
  -6   3   0  184.88   14.00
   5  -3   0    2.20    6.20
   5  -3   0    6.10    3.10
   5  -3   0    0.60    4.50
   5  -3   0    3.00    2.90
   5  -3   0   -2.90    4.40
   5  -3   0    3.00    3.50
   5  -3   0    6.20    6.30
  -5   3   0    1.20    3.60
  -5   3   0    6.60    5.60
  -5   3   0    0.40    8.50
   4  -3   0   15.90    3.50
   4  -3   0   17.90    2.80
   4  -3   0   15.30    4.10
   4  -3   0   16.00    3.10
   4  -3   0   16.10    4.00
   4  -3   0   31.60    7.60
   4  -3   0   22.00    5.70
   4  -3   0   16.50    3.60
  -4   3   0   14.90    3.50
  -4   3   0    9.90    7.60
  -4   3   0   16.80    4.50
   3  -3   0 1157.98   58.59
   3  -3   0 1211.48   58.99
   3  -3   0  970.10   59.09
   3  -3   0 1193.58   58.99
   3  -3   0 1080.89   59.09
   3  -3   0 1176.98   59.09
   3  -3   0 1026.90   59.49
  -3   3   0 1093.09   59.49
  -3   3   0 1134.89   59.49
  -3   3   0 1036.60   58.79
  -3   3   0 1035.20   62.59
   2  -3   0 6054.49  315.07
   2  -3   0 6554.84  314.87
   2  -3   0 5984.60  316.97
  -2   3   0 5956.20  315.37
  -2   3   0 5335.17  314.47
   1  -3   0 4251.77  208.88
   1  -3   0 4046.90  207.38
   1  -3   0 4251.07  207.18
  -1   3   0 3487.25  208.68
  -1   3   0 3556.44  206.78
  -1   3   0 3997.00  207.78
   0  -3   0   17.10    2.50
   0  -3   0   21.50    2.50
   0  -3   0   25.90    3.70
   0  -3   0   22.10    1.70
   0  -3   0   19.00    2.00
   0  -3   0   22.80    2.40
   0  -3   0   23.80    2.30
   0   3   0   21.50    2.40
   0   3   0   23.60    2.20
   0   3   0   21.50    2.60
   0   3   0   27.00    4.00
   0   3   0   27.00    2.30
   0   3   0   23.00    2.40
   0   3   0   15.70    3.40
  -1  -3   0  157.58   10.10
  -1  -3   0  164.28    9.30
  -1  -3   0  165.78    9.60
  -1  -3   0  155.48    9.30
  -1  -3   0  160.48    9.30
  -1  -3   0  163.08    8.80
  -1  -3   0  162.38    9.90
   1   3   0  159.08    9.30
   1   3   0  156.58    8.80
   1   3   0  164.28    9.50
   1   3   0  161.18    9.10
   1   3   0  161.88    9.30
  -2  -3   0  175.48   10.80
  -2  -3   0  162.28   10.40
  -2  -3   0  168.78   10.00
  -2  -3   0  175.28    9.90
  -2  -3   0  172.28   10.90
  -2  -3   0  171.08    9.60
  -2  -3   0  164.78   10.20
   2   3   0  171.18   11.10
   2   3   0  170.18   10.20
   2   3   0  172.18   10.00
   2   3   0  172.48   10.20
   2   3   0  180.08   10.40
   2   3   0  165.28    9.50
  -3  -3   0  125.19    9.00
  -3  -3   0  141.29    9.00
  -3  -3   0  118.89    9.10
  -3  -3   0  136.99    7.60
  -3  -3   0  138.49    9.80
  -3  -3   0  142.29    9.50
   3   3   0  141.89    9.10
   3   3   0  137.29    8.50
   3   3   0  133.89    8.40
   3   3   0  129.69   10.50
   3   3   0  130.29    8.60
  -4  -3   0 1367.76   69.89
  -4  -3   0 1282.67   69.79
  -4  -3   0 1293.37   69.99
  -4  -3   0 1300.27   70.29
  -4  -3   0 1277.67   69.29
  -4  -3   0 1289.67   69.99
   4   3   0 1291.07   69.19
   4   3   0 1290.47   69.09
   4   3   0 1290.97   69.89
   4   3   0 1273.67   71.59
   4   3   0 1300.87   69.29
  -5  -3   0 2805.12  146.99
  -5  -3   0 2835.02  147.29
  -5  -3   0 2818.22  147.29
  -5  -3   0 2759.42  147.69
  -5  -3   0 2671.43  146.89
  -5  -3   0 2678.93  146.39
   5   3   0 2800.92  145.79
   5   3   0 2721.73  147.29
   5   3   0 2799.22  146.09
   5   3   0 2838.32  146.29
   5   3   0 2603.64  149.69
  -6  -3   0  976.10   57.19
  -6  -3   0 1013.90   56.79
  -6  -3   0  946.01   55.99
  -6  -3   0 1030.80   55.39
  -6  -3   0 1062.69   57.09
  -6  -3   0 1002.30   56.59
   6   3   0 1060.59   54.99
   6   3   0 1083.89   55.89
   6   3   0 1021.40   54.99
   6   3   0 1041.10   56.99
   6   3   0  928.11   60.99
  -7  -3   0   11.90    6.60
  -7  -3   0   12.90    7.50
  -7  -3   0    7.50    4.70
  -7  -3   0    7.60    7.60
  -7  -3   0   13.10    7.30
   7   3   0   17.30    5.40
   7   3   0   10.50    4.20
   7   3   0   -4.80    9.90
   7   3   0    2.10    6.80
   7   3   0    8.90    3.50
  -8  -3   0  135.49   19.90
  -8  -3   0  130.39   20.10
  -8  -3   0  133.39   19.10
  -8  -3   0  152.08   14.10
   8   3   0  137.89   17.70
   8   3   0  132.19   11.00
   8   3   0  152.48   12.50
   8   3   0  155.38   13.60
  -9  -3   0   64.19   13.60
  -9  -3   0   72.79   16.40
  -9  -3   0   55.69   18.90
  -9  -3   0   85.49   10.60
   9   3   0   62.29    8.10
   9   3   0   54.09   11.60
   7  -4   0   56.39    9.50
   7  -4   0   74.49    9.40
   7  -4   0   40.20   10.30
  -7   4   0   67.69   13.00
   6  -4   0   19.60    4.80
   6  -4   0   20.80    8.00
   6  -4   0   24.80    6.30
   6  -4   0   24.60    6.40
  -6   4   0   34.40   15.50
  -6   4   0   31.60    9.00
   5  -4   0    8.70    9.20
   5  -4   0   15.30    2.70
   5  -4   0   15.10    3.70
   5  -4   0   19.60    7.50
   5  -4   0   17.70    3.50
  -5   4   0   16.00   11.90
  -5   4   0   21.90    6.70
   4  -4   0  260.07   14.30
   4  -4   0  212.98   15.10
   4  -4   0  250.67   14.70
   4  -4   0  244.18   13.90
  -4   4   0  242.88   16.60
  -4   4   0  249.18   13.60
  -4   4   0  224.68   14.20
  -4   4   0  232.98   23.00
   3  -4   0 2920.51  147.49
   3  -4   0 2930.31  146.79
   3  -4   0 2803.82  146.99
   3  -4   0 2736.73  147.29
  -3   4   0 2782.22  147.59
  -3   4   0 2526.95  148.09
  -3   4   0 2760.92  146.89
   2  -4   0 1907.41   99.99
   2  -4   0 1954.50  100.59
   2  -4   0 1964.40   99.89
   2  -4   0 1898.11  100.09
   2  -4   0 1634.94  101.19
   2  -4   0 1917.61  102.79
   2  -4   0 1876.31   99.79
  -2   4   0 1991.30   99.69
  -2   4   0 1834.12  101.09
  -2   4   0 1929.01   99.89
  -2   4   0 1770.82   99.59
  -2   4   0 1936.01   99.99
   1  -4   0   55.99    4.30
   1  -4   0   56.09    3.90
   1  -4   0   52.69    4.80
   1  -4   0   54.69    5.60
   1  -4   0   60.49    4.30
   1  -4   0   56.59    4.70
  -1   4   0   56.19    4.10
  -1   4   0   54.69    3.80
  -1   4   0   39.40    5.10
  -1   4   0   54.89    7.00
  -1   4   0   56.49    4.50
  -1   4   0   40.10    6.80
  -1   4   0   47.50    4.00
  -1   4   0   52.99    4.20
   0  -4   0  233.28   13.30
   0  -4   0  231.48   13.20
   0  -4   0  230.08   12.90
   0  -4   0  230.88   14.20
   0  -4   0  241.78   12.70
   0  -4   0  231.78   13.40
   0  -4   0  236.88   13.30
   0   4   0  243.48   14.70
   0   4   0  235.08   13.10
   0   4   0  234.78   13.30
   0   4   0  234.68   13.20
   0   4   0  226.68   15.70
   0   4   0  247.08   13.20
   0   4   0  244.28   13.50
  -1  -4   0   88.09    7.20
  -1  -4   0   84.49    5.60
  -1  -4   0   79.69    4.80
  -1  -4   0   80.59    5.80
  -1  -4   0   80.19    6.70
  -1  -4   0   79.29    5.80
  -1  -4   0   76.99    6.10
   1   4   0   78.79    5.60
   1   4   0   83.49    5.50
   1   4   0   77.89    5.00
   1   4   0   80.59    5.70
   1   4   0   95.99    5.40
   1   4   0   79.79    6.00
  -2  -4   0  121.49    8.70
  -2  -4   0  124.39    8.80
  -2  -4   0  121.29    7.40
  -2  -4   0  127.79    7.60
  -2  -4   0  123.29    8.40
  -2  -4   0  124.49    7.90
  -2  -4   0  124.59    9.60
   2   4   0  125.29    7.80
   2   4   0  125.79    8.20
   2   4   0  122.79    7.80
   2   4   0  119.39    7.10
   2   4   0  130.49    8.80
   2   4   0  114.39    8.10
  -3  -4   0  946.81   53.69
  -3  -4   0 1021.30   53.09
  -3  -4   0  963.50   53.39
  -3  -4   0 1001.70   53.19
  -3  -4   0 1000.70   54.19
  -3  -4   0 1037.10   53.89
  -3  -4   0 1005.00   52.59
   3   4   0  994.00   52.69
   3   4   0  982.80   53.09
   3   4   0  969.40   54.49
   3   4   0  984.50   53.29
   3   4   0 1009.30   53.29
   3   4   0  947.41   53.39
  -4  -4   0 3623.24  202.78
  -4  -4   0 3847.82  201.18
  -4  -4   0 3880.91  200.08
  -4  -4   0 3767.02  201.58
  -4  -4   0 3696.03  201.78
  -4  -4   0 3364.76  202.28
  -4  -4   0 3906.51  201.38
   4   4   0 3837.82  200.58
   4   4   0 3844.32  201.18
   4   4   0 3850.41  200.88
   4   4   0 3892.91  202.88
   4   4   0 3989.70  201.38
   4   4   0 3881.31  200.78
  -5  -4   0 1675.63   87.89
  -5  -4   0 1562.24   87.79
  -5  -4   0 1521.25   87.39
  -5  -4   0 1688.03   86.79
  -5  -4   0 1684.03   87.59
  -5  -4   0 1612.24   87.99
   5   4   0 1650.53   86.39
   5   4   0 1554.44   89.99
   5   4   0 1649.83   86.59
   5   4   0 1639.04   87.69
   5   4   0 1587.64   86.69
  -6  -4   0   -3.50    5.60
  -6  -4   0   -1.90    5.90
  -6  -4   0    5.80    3.60
  -6  -4   0    4.90    6.60
  -6  -4   0    0.30    4.50
  -6  -4   0   18.70    6.10
   6   4   0   -0.80    3.30
   6   4   0    1.30    2.90
   6   4   0    0.00    6.80
   6   4   0   -2.40    3.30
   6   4   0    0.00    5.20
  -7  -4   0  154.28   16.50
  -7  -4   0  151.18   12.40
  -7  -4   0  151.08   17.20
  -7  -4   0  156.58   16.80
  -7  -4   0  145.89   17.30
   7   4   0  158.68   12.70
   7   4   0  131.89   15.80
   7   4   0  155.88   11.90
   7   4   0  118.99   23.40
  -8  -4   0   71.59   11.90
  -8  -4   0   81.89   12.70
  -8  -4   0   81.89   11.50
  -8  -4   0   90.79   13.50
   8   4   0   75.49   11.60
   8   4   0   81.69   12.60
   8   4   0   66.09   11.00
  -9  -4   0   60.89   14.10
  -9  -4   0   78.59   17.30
  -9  -4   0   65.69   16.50
   9   4   0   72.49   14.20
   9   4   0   75.69    9.30
   9   4   0   70.09   20.20
   6  -5   0   43.50    5.70
   6  -5   0   45.20    5.50
   6  -5   0   27.40    9.30
   6  -5   0   39.00    8.50
   6  -5   0   46.30    6.00
   6  -5   0   38.20    9.30
  -6   5   0   44.10   10.20
  -6   5   0   53.69   16.70
   5  -5   0   38.60    7.20
   5  -5   0   22.40    6.70
   5  -5   0   34.00    5.50
   5  -5   0   44.70    6.90
   5  -5   0   24.20    7.70
   5  -5   0   26.20    6.00
  -5   5   0   42.90   15.30
  -5   5   0   44.10    8.00
   4  -5   0  447.36   25.80
   4  -5   0  479.15   26.50
   4  -5   0  478.45   25.90
   4  -5   0  453.55   26.90
  -4   5   0  467.65   35.00
  -4   5   0  454.95   27.70
   3  -5   0  996.70   58.69
   3  -5   0  979.90   54.69
   3  -5   0 1009.40   54.39
   3  -5   0  972.70   54.49
   3  -5   0 1079.09   54.09
   3  -5   0 1050.79   54.89
  -3   5   0  887.11   59.49
  -3   5   0 1024.50   54.79
  -3   5   0  944.01   56.39
  -3   5   0 1086.59   53.79
  -3   5   0 1055.89   53.99
   2  -5   0  454.25   26.20
   2  -5   0  467.05   27.00
   2  -5   0  455.15   26.70
   2  -5   0  546.65   27.20
   2  -5   0  532.25   30.90
   2  -5   0  456.95   26.50
  -2   5   0  459.65   26.50
  -2   5   0  491.85   26.80
  -2   5   0  496.45   26.20
  -2   5   0  467.75   26.20
  -2   5   0  470.85   28.90
  -2   5   0  492.65   26.60
   1  -5   0    7.90    2.60
   1  -5   0    8.80    1.90
   1  -5   0   11.30    3.70
   1  -5   0    5.50    2.40
   1  -5   0    9.20    2.40
  -1   5   0   12.70    2.90
  -1   5   0    7.50    2.20
  -1   5   0    7.10    4.40
  -1   5   0   10.90    1.70
  -1   5   0    8.20    2.10
  -1   5   0    4.30    5.60
  -1   5   0   15.80    2.50
   0  -5   0   83.99    6.40
   0  -5   0   77.29    6.10
   0  -5   0   84.89    6.10
   0  -5   0   88.09    5.30
   0  -5   0   86.49    8.00
   0  -5   0   84.29    6.10
   0  -5   0   79.89    5.00
   0   5   0   77.29    6.50
   0   5   0   86.89    5.80
   0   5   0   86.99    5.90
   0   5   0   79.79    6.70
   0   5   0   91.89    9.00
   0   5   0   87.49    6.20
   0   5   0   77.19   10.40
  -1  -5   0    2.30    1.90
  -1  -5   0    0.40    2.40
  -1  -5   0    0.70    2.60
  -1  -5   0    1.80    1.20
  -1  -5   0    0.40    2.00
  -1  -5   0    1.00    2.50
  -1  -5   0    0.40    1.80
  -1  -5   0    1.00    3.40
   1   5   0   -2.70    3.40
   1   5   0    1.20    2.20
   1   5   0    0.10    2.10
   1   5   0    1.60    1.70
   1   5   0    0.70    1.90
   1   5   0    0.00    2.30
   1   5   0    5.50    4.30
   1   5   0   -2.90    1.80
  -2  -5   0  141.89    7.60
  -2  -5   0  130.49    9.80
  -2  -5   0  124.79    9.00
  -2  -5   0  137.29    8.60
  -2  -5   0  134.39    8.50
  -2  -5   0  118.69    9.50
  -2  -5   0  131.29   10.90
   2   5   0  121.99    8.40
   2   5   0  125.39    8.80
   2   5   0  126.89    7.60
   2   5   0  135.39   10.10
   2   5   0  136.99    8.60
   2   5   0  138.79    8.10
   2   5   0  120.89    9.00
  -3  -5   0 1532.75   78.49
  -3  -5   0 1503.65   78.39
  -3  -5   0 1461.65   80.09
  -3  -5   0 1406.56   79.39
  -3  -5   0 1519.95   79.19
  -3  -5   0 1506.65   78.89
  -3  -5   0 1456.95   80.79
   3   5   0 1532.35   78.89
   3   5   0 1391.86   78.99
   3   5   0 1500.35   78.19
   3   5   0 1449.76   78.69
   3   5   0 1452.15   79.09
   3   5   0 1484.55   80.49
  -4  -5   0 1927.71   96.59
  -4  -5   0 1904.71   96.59
  -4  -5   0 1820.02   95.69
  -4  -5   0 1783.92   97.99
  -4  -5   0 1788.02   97.39
  -4  -5   0 1884.81   97.49
  -4  -5   0 1854.51   97.09
   4   5   0 1814.32   96.69
   4   5   0 1758.82   96.59
   4   5   0 1807.02   95.99
   4   5   0 1775.12   98.49
   4   5   0 1624.14   96.69
   4   5   0 1774.22   96.99
  -5  -5   0  511.25   28.90
  -5  -5   0  484.55   29.20
  -5  -5   0  479.85   28.60
  -5  -5   0  486.65   28.00
  -5  -5   0  478.95   30.00
  -5  -5   0  476.35   26.00
  -5  -5   0  501.65   27.40
   5   5   0  481.05   27.40
   5   5   0  422.16   27.60
   5   5   0  471.85   31.00
   5   5   0  485.15   28.50
   5   5   0  482.55   27.20
   5   5   0  486.25   27.10
  -6  -5   0  390.26   26.30
  -6  -5   0  402.16   24.90
  -6  -5   0  401.56   23.20
  -6  -5   0  378.76   24.60
  -6  -5   0  394.86   25.60
  -6  -5   0  386.16   27.00
   6   5   0  391.46   25.30
   6   5   0  387.06   23.10
   6   5   0  389.66   22.70
   6   5   0  370.36   23.50
   6   5   0  412.16   23.10
   6   5   0  404.66   29.80
  -7  -5   0   98.59   10.40
  -7  -5   0   89.19   12.00
  -7  -5   0  106.89   17.40
  -7  -5   0  106.09   16.80
  -7  -5   0  105.19   12.10
  -7  -5   0  117.29   15.00
   7   5   0   97.19   12.60
   7   5   0   85.69   15.20
   7   5   0  109.29    9.20
   7   5   0  102.99   10.40
   7   5   0   92.59   14.80
  -8  -5   0   29.50    9.80
  -8  -5   0   29.90   12.10
  -8  -5   0   55.19   12.00
  -8  -5   0   20.50   11.30
   8   5   0   29.20    9.20
   8   5   0   36.90    6.40
   8   5   0   10.70   14.50
   8   5   0   32.50    7.50
   8   5   0   21.30    9.40
  -9  -5   0   21.50   11.90
  -9  -5   0   21.40   15.20
  -9  -5   0   18.30    9.00
  -9  -5   0   31.80   15.90
  -9  -5   0   46.00   12.60
   9   5   0   19.80    8.90
   9   5   0   12.90   10.50
   9   5   0  -10.10   15.70
   9   5   0   24.70   13.90
   9   5   0   28.30    8.00
   6  -6   0    1.30    8.70
   6  -6   0    8.70    4.20
   6  -6   0   -6.00   10.00
   6  -6   0    3.70    5.20
  -6   6   0   15.50   10.10
  -6   6   0    6.20   17.80
   5  -6   0   29.80    7.20
   5  -6   0   43.80    5.40
   5  -6   0   55.09    8.50
   5  -6   0   38.50    8.00
  -5   6   0   65.49   18.00
  -5   6   0   58.29    9.00
   4  -6   0  597.54   37.20
   4  -6   0  663.53   36.60
   4  -6   0  613.74   37.80
   4  -6   0  691.23   36.50
   4  -6   0  769.82   44.40
  -4   6   0  675.63   47.10
  -4   6   0  652.23   38.10
   3  -6   0  190.38   19.80
   3  -6   0  178.68   19.30
   3  -6   0  189.08   13.60
   3  -6   0  194.48   14.40
   3  -6   0  216.18   13.70
   3  -6   0  216.58   12.90
   3  -6   0  222.48   14.90
  -3   6   0  211.88   23.60
  -3   6   0  183.58   19.30
  -3   6   0  224.68   12.30
  -3   6   0  227.08   12.70
  -3   6   0  195.38   13.80
  -3   6   0  196.18   14.30
   2  -6   0   -2.60    3.40
   2  -6   0   -1.90    3.50
   2  -6   0    2.50    3.80
   2  -6   0    2.70    2.80
   2  -6   0    2.20    3.80
   2  -6   0    2.90    2.70
  -2   6   0    3.20    2.70
  -2   6   0   -6.10    8.00
  -2   6   0    0.60    3.20
  -2   6   0    4.40    3.30
  -2   6   0   -2.70    6.80
  -2   6   0    3.10    2.70
   1  -6   0    3.10    2.70
   1  -6   0    0.70    3.50
   1  -6   0    1.50    2.50
   1  -6   0    0.30    2.30
   1  -6   0    0.40    2.90
   1  -6   0   -0.30    3.90
  -1   6   0    5.00    2.50
  -1   6   0   -6.10    6.50
  -1   6   0    2.40    2.60
  -1   6   0    4.50    5.60
  -1   6   0    0.70    2.60
   0  -6   0   36.40    3.50
   0  -6   0   49.20    7.70
   0  -6   0   43.60    5.60
   0  -6   0   39.90    5.60
   0  -6   0   39.10    5.10
   0  -6   0   34.00    4.40
   0   6   0   41.30    4.60
   0   6   0   57.09    7.70
   0   6   0   41.00    5.20
   0   6   0   41.60    4.70
   0   6   0   36.40    4.50
   0   6   0   26.40    7.60
   0   6   0   47.70    5.10
  -1  -6   0    5.10    4.20
  -1  -6   0    3.30    1.50
  -1  -6   0    2.20    2.90
  -1  -6   0    2.60    2.30
  -1  -6   0    6.60    3.20
  -1  -6   0    7.00    2.60
  -1  -6   0    9.30    3.10
  -1  -6   0    2.50    3.10
   1   6   0    2.00    2.30
   1   6   0    4.20    3.20
   1   6   0    3.30    2.70
   1   6   0    3.40    5.80
   1   6   0    4.20    5.00
   1   6   0    3.90    2.70
   1   6   0    4.60    2.30
  -2  -6   0  571.24   31.80
  -2  -6   0  580.04   33.30
  -2  -6   0  546.65   32.20
  -2  -6   0  556.84   32.20
  -2  -6   0  576.24   32.80
  -2  -6   0  600.64   31.70
   2   6   0  618.14   31.20
   2   6   0  504.95   30.80
   2   6   0  576.64   31.40
   2   6   0  572.14   32.00
   2   6   0  564.04   31.70
   2   6   0  591.64   31.70
   2   6   0  601.94   33.10
  -3  -6   0 1789.82   90.89
  -3  -6   0 1774.92   92.39
  -3  -6   0 1725.83   91.59
  -3  -6   0 1753.22   91.29
  -3  -6   0 1656.23   92.79
  -3  -6   0 1674.63   91.89
  -3  -6   0 1524.25   90.69
   3   6   0 1715.13   91.59
   3   6   0 1723.83   91.99
   3   6   0 1711.33   91.49
   3   6   0 1730.73   91.09
   3   6   0 1722.43   90.49
   3   6   0 1726.03   91.29
  -4  -6   0  436.96   27.40
  -4  -6   0  479.35   27.80
  -4  -6   0  482.45   26.20
  -4  -6   0  471.15   25.70
  -4  -6   0  455.55   29.50
  -4  -6   0  474.25   28.10
  -4  -6   0  477.35   26.60
   4   6   0  446.46   26.70
   4   6   0  479.15   29.90
   4   6   0  460.45   26.50
   4   6   0  460.15   25.80
   4   6   0  448.96   27.20
   4   6   0  503.25   27.00
   4   6   0  469.35   27.10
  -5  -6   0   29.60    5.00
  -5  -6   0   28.20    4.20
  -5  -6   0   20.70    6.70
  -5  -6   0   23.00    4.00
  -5  -6   0   22.60    6.00
  -5  -6   0   30.70    5.50
  -5  -6   0   33.80    9.10
   5   6   0   27.10    4.70
   5   6   0   20.30    7.10
   5   6   0   32.80    4.80
   5   6   0   25.30    5.90
   5   6   0   42.00    5.30
  -6  -6   0   43.60    6.80
  -6  -6   0   46.10    7.40
  -6  -6   0   29.00    7.60
  -6  -6   0   53.09   10.80
  -6  -6   0   36.20    5.90
  -6  -6   0   48.30    9.50
  -6  -6   0   47.60    4.90
   6   6   0   27.30    8.90
   6   6   0   46.00    6.00
   6   6   0   42.90    5.80
   6   6   0   38.30    7.60
   6   6   0   41.50    5.70
   6   6   0   47.40    6.50
  -7  -6   0  114.09   14.40
  -7  -6   0   87.59   12.90
  -7  -6   0   96.19   12.50
  -7  -6   0   87.79   14.20
  -7  -6   0   91.49   12.10
   7   6   0  100.39   12.40
   7   6   0   90.99   11.90
   7   6   0   66.99   13.20
   7   6   0  105.29   11.00
   7   6   0  100.39    9.90
   7   6   0   77.29    9.00
  -8  -6   0   22.60   12.80
  -8  -6   0   16.90   11.20
  -8  -6   0   12.40    9.50
  -8  -6   0   10.20   12.40
   8   6   0   24.40    6.90
   8   6   0   -3.70   24.10
   8   6   0    8.60   15.30
   8   6   0   17.80    8.90
   8   6   0   17.90    7.10
   5  -7   0   49.99   10.10
   5  -7   0   72.89   10.60
   5  -7   0   73.49   12.10
   5  -7   0   63.29    9.20
  -5   7   0   45.20   11.50
  -5   7   0   68.99   10.30
  -5   7   0   90.79   21.10
   4  -7   0  108.79   14.90
   4  -7   0  103.69   12.90
   4  -7   0  110.09    9.80
   4  -7   0   86.39   11.40
   4  -7   0  100.09   10.00
  -4   7   0   86.19   12.60
  -4   7   0   80.59   17.90
  -4   7   0   87.29   10.40
   3  -7   0  115.29   11.60
   3  -7   0   89.69    9.50
   3  -7   0   67.39    9.90
   3  -7   0   93.79    9.70
   3  -7   0   79.79    8.40
   3  -7   0   90.49   11.50
  -3   7   0   82.79   16.60
  -3   7   0   87.79   10.40
   2  -7   0   -1.00    4.70
   2  -7   0    1.40    3.30
   2  -7   0    3.00    4.20
   2  -7   0   -1.60    3.20
  -2   7   0   -2.00   10.20
  -2   7   0   -2.80    4.00
  -2   7   0   -1.30    3.20
  -2   7   0    9.20    3.60
  -2   7   0   -2.30    9.00
  -2   7   0   -1.90    4.00
   1  -7   0   17.60    5.10
   1  -7   0   14.40    3.30
   1  -7   0   15.70    3.60
   1  -7   0    9.70    3.60
   1  -7   0   15.00    3.20
  -1   7   0   13.80    3.20
  -1   7   0   23.70    3.80
  -1   7   0   17.50    7.70
  -1   7   0   12.10    9.70
  -1   7   0   12.70    3.50
  -1   7   0   20.00    4.20
   0  -7   0  158.78   10.50
   0  -7   0  153.98   13.30
   0  -7   0  160.78   10.50
   0  -7   0  148.39    9.00
   0  -7   0  154.48   11.00
   0  -7   0  143.79   11.30
   0   7   0  139.29   17.70
   0   7   0  159.48    9.80
   0   7   0  143.59   11.40
   0   7   0  150.18   10.10
   0   7   0  151.08   10.60
   0   7   0  149.79   15.10
   0   7   0  165.98   10.50
  -1  -7   0   82.39    5.20
  -1  -7   0   78.89    7.70
  -1  -7   0   84.39    7.30
  -1  -7   0   85.19   11.30
  -1  -7   0   76.59    8.40
  -1  -7   0   75.89    9.30
  -1  -7   0   86.49    8.10
   1   7   0   83.09    7.50
   1   7   0   69.39    8.80
   1   7   0   89.89   11.40
   1   7   0   71.79   14.10
   1   7   0   88.59    7.80
   1   7   0   82.09    6.90
   1   7   0   78.69    7.30
  -2  -7   0  821.02   45.20
  -2  -7   0  841.02   46.80
  -2  -7   0  812.92   46.00
  -2  -7   0  809.82   44.50
  -2  -7   0  801.72   44.80
  -2  -7   0  825.72   44.70
   2   7   0  800.52   45.10
   2   7   0  844.52   46.50
   2   7   0  830.92   44.10
   2   7   0  811.42   44.60
   2   7   0  772.42   47.60
   2   7   0  836.32   44.70
   2   7   0  817.02   44.40
  -3  -7   0 1159.98   64.09
  -3  -7   0 1236.68   63.79
  -3  -7   0 1186.38   66.19
  -3  -7   0 1187.28   64.99
  -3  -7   0 1209.98   62.79
  -3  -7   0 1154.28   64.39
  -3  -7   0 1214.48   65.39
   3   7   0 1194.98   65.19
   3   7   0 1140.69   64.19
   3   7   0 1195.08   64.59
   3   7   0 1153.48   63.09
   3   7   0 1172.68   64.09
   3   7   0 1221.08   63.89
  -4  -7   0    5.00    3.00
  -4  -7   0   12.50    7.30
  -4  -7   0    7.20    4.10
  -4  -7   0    7.50    5.60
  -4  -7   0    6.70    3.00
  -4  -7   0    2.80    5.60
   4   7   0   14.40    4.60
   4   7   0    7.50    3.70
   4   7   0    5.40    4.50
   4   7   0    8.70    4.20
   4   7   0   15.40    5.10
   4   7   0    9.60    3.30
  -5  -7   0  410.16   25.80
  -5  -7   0  419.56   23.30
  -5  -7   0  432.86   29.70
  -5  -7   0  386.66   26.20
  -5  -7   0  425.56   24.20
  -5  -7   0  413.06   27.30
   5   7   0  416.16   25.20
   5   7   0  407.26   24.80
   5   7   0  419.56   23.80
   5   7   0  411.56   24.90
   5   7   0  421.76   24.50
   5   7   0  434.26   29.80
   5   7   0  412.26   26.00
  -6  -7   0   56.49    9.50
  -6  -7   0   84.39   11.20
  -6  -7   0   54.59   10.40
  -6  -7   0   62.19    7.70
  -6  -7   0   65.29    6.50
  -6  -7   0   65.29   12.80
   6   7   0   77.29    9.20
   6   7   0   57.89    8.80
   6   7   0   74.59   12.60
   6   7   0   67.89    7.40
   6   7   0   61.39    9.00
  -7  -7   0    1.40    9.60
  -7  -7   0   -0.20    9.40
  -7  -7   0    1.90   12.50
  -7  -7   0    6.20    7.20
   7   7   0    6.80    7.00
   7   7   0   12.60    6.30
   7   7   0   -3.90    7.40
   7   7   0    4.10    5.60
   7   7   0    7.30   10.70
  -8  -7   0    5.90   11.50
  -8  -7   0   10.90   14.80
  -8  -7   0    8.70   14.00
  -8  -7   0   11.00    9.30
   8   7   0    8.20   15.40
   8   7   0   17.10    7.50
   8   7   0    4.30    9.30
   8   7   0   16.70    9.40
   4  -8   0   26.40    8.50
   4  -8   0   26.60    6.10
  -4   8   0   15.90   18.40
   3  -8   0    0.70    7.40
   3  -8   0   11.70    5.80
   3  -8   0    3.20    7.40
   3  -8   0    0.30    5.50
   3  -8   0    0.70    4.40
  -3   8   0    3.60   14.50
  -3   8   0   -0.90    6.30
   2  -8   0    1.00    7.50
   2  -8   0    0.10    4.20
   2  -8   0   10.30    5.70
   2  -8   0    3.90    4.60
   2  -8   0    4.10    4.70
  -2   8   0    1.30   11.90
  -2   8   0    4.30    4.60
  -2   8   0    1.90    4.80
  -2   8   0    0.80    4.40
  -2   8   0    2.60   13.10
   1  -8   0    4.60    3.10
   1  -8   0   16.60    6.20
   1  -8   0   15.90    4.30
   1  -8   0   13.10    4.40
   1  -8   0   10.60    3.50
  -1   8   0   12.00   11.00
  -1   8   0   13.00    4.60
  -1   8   0    3.40   11.00
  -1   8   0   16.20    4.40
  -1   8   0   10.80    3.70
   0  -8   0    8.20    2.50
   0  -8   0   16.30    6.80
   0  -8   0    6.20    3.70
   0  -8   0    4.70    4.30
   0   8   0    9.60    4.20
   0   8   0    5.80    4.70
   0   8   0    7.70    3.10
   0   8   0   13.50    9.60
   0   8   0   10.30    3.70
   0   8   0    7.30   10.30
  -1  -8   0   78.19    9.00
  -1  -8   0   90.39   10.00
  -1  -8   0  102.09    8.60
  -1  -8   0  112.59   13.20
  -1  -8   0   87.79   10.90
   1   8   0   92.39   11.20
   1   8   0   88.39   17.50
   1   8   0  102.89    8.40
   1   8   0   93.19   13.50
   1   8   0   89.59    8.30
   1   8   0  104.09    9.20
  -2  -8   0  661.73   36.70
  -2  -8   0  638.44   36.20
  -2  -8   0  655.03   36.00
  -2  -8   0  662.63   38.80
  -2  -8   0  667.83   36.00
  -2  -8   0  628.74   37.50
   2   8   0  571.24   40.70
   2   8   0  653.93   35.80
   2   8   0  626.44   35.30
   2   8   0  615.74   40.70
   2   8   0  679.23   35.80
  -3  -8   0    6.20    5.30
  -3  -8   0    3.50    3.60
  -3  -8   0   11.00    7.70
  -3  -8   0    4.60    5.50
  -3  -8   0    8.40    4.60
  -3  -8   0    5.00    3.20
   3   8   0   10.50    5.30
   3   8   0    3.10    5.30
   3   8   0    8.10    4.40
   3   8   0   12.90    3.80
   3   8   0    9.50    4.40
  -4  -8   0  213.08   20.20
  -4  -8   0  181.18   12.50
  -4  -8   0  179.98   11.40
  -4  -8   0  196.78   15.40
  -4  -8   0  188.08   15.30
  -4  -8   0  189.28   12.90
  -4  -8   0  184.48   16.30
   4   8   0  201.48   13.30
   4   8   0  190.78   14.90
   4   8   0  177.88   14.80
   4   8   0  185.98   12.10
   4   8   0  170.68   14.50
   4   8   0  218.48   14.20
  -5  -8   0   47.90    6.90
  -5  -8   0   64.29    9.40
  -5  -8   0   47.70    9.50
  -5  -8   0   65.79   13.00
  -5  -8   0   63.79   10.30
  -5  -8   0   45.70    7.20
   5   8   0   42.50    7.00
   5   8   0   38.90    7.50
   5   8   0   55.29    7.60
   5   8   0   54.69    6.00
   5   8   0   48.20    7.40
   5   8   0   49.50    6.20
  -6  -8   0   35.60   12.90
  -6  -8   0   32.60    6.00
  -6  -8   0   33.00    4.60
  -6  -8   0   24.60    9.00
  -6  -8   0   27.00    9.60
   6   8   0   24.80    7.90
   6   8   0   26.30    5.80
   6   8   0   31.60    6.90
   6   8   0   22.60    8.50
   6   8   0   35.00    8.40
   6   8   0   34.00    6.60
  -7  -8   0    1.20   10.60
  -7  -8   0   -1.30    7.00
  -7  -8   0  -13.20   11.20
  -7  -8   0   -6.70   14.00
  -7  -8   0    3.80    4.10
   7   8   0    5.30    7.40
   7   8   0   -1.00    8.40
   7   8   0    4.10   11.00
   2  -9   0   46.40    8.00
   2  -9   0   33.60    6.10
   2  -9   0   40.50    7.60
   2  -9   0   39.10   10.50
  -2   9   0   26.00    5.20
  -2   9   0   24.40    6.50
  -2   9   0   22.70   16.50
   1  -9   0   68.29    9.30
   1  -9   0   63.99    7.00
   1  -9   0   48.40    6.70
   1  -9   0   57.59    7.60
  -1   9   0   57.99    6.40
  -1   9   0   37.90   15.20
  -1   9   0   43.30    6.40
  -1   9   0   69.69    8.60
   0  -9   0    3.00    5.00
   0  -9   0    2.90    4.60
   0  -9   0    8.50    7.10
   0   9   0   -0.40   12.10
   0   9   0    6.00    4.80
   0   9   0    1.00    4.40
  -1  -9   0  189.48   14.20
  -1  -9   0  189.88   17.50
  -1  -9   0  165.38   14.90
  -1  -9   0  164.28   15.60
  -1  -9   0  165.98   12.70
   1   9   0  172.68   12.20
   1   9   0  171.78   24.20
   1   9   0  144.59   16.00
   1   9   0  175.98   13.20
   1   9   0  166.38   12.30
  -2  -9   0   91.79   10.60
  -2  -9   0   75.89   11.40
  -2  -9   0  106.89   15.80
  -2  -9   0   90.69    9.20
  -2  -9   0   83.59   12.10
   2   9   0   80.29   14.80
   2   9   0   76.09   12.20
   2   9   0  100.39   10.10
   2   9   0   80.99    8.60
   2   9   0   87.19    9.70
  -3  -9   0   49.80   11.50
  -3  -9   0   30.80    6.40
  -3  -9   0   34.40    7.50
  -3  -9   0   36.70    6.50
   3   9   0   40.20    6.20
   3   9   0   51.59    6.70
   3   9   0   44.40    8.70
   3   9   0   32.60   12.10
  -4  -9   0   13.00    6.60
  -4  -9   0   19.80   11.50
  -4  -9   0   10.80    7.30
  -4  -9   0    9.70    4.70
   4   9   0   17.50    7.80
   4   9   0    9.40    5.80
   4   9   0   13.80    4.60
   4   9   0   17.60    6.30
  -5  -9   0    2.70    7.90
  -5  -9   0   -4.70    7.80
  -5  -9   0    4.70    3.10
  -5  -9   0    4.90    4.80
  -5  -9   0   17.50   12.00
   5   9   0   11.50    5.30
   5   9   0   16.10    6.60
   5   9   0   -2.30    6.50
  -6  -9   0   15.80    5.20
  -6  -9   0   15.00    5.40
  -6  -9   0   31.00   10.60
  -6  -9   0   20.30   26.00
  -6  -9   0    3.90    9.30
   6   9   0   24.80    8.30
   6   9   0   10.50    7.80
   6   9   0   22.90    7.10
   0 -10   0   55.39    9.80
   0 -10   0   53.99    8.00
   0  10   0   65.59    7.80
   0  10   0   56.69   18.70
   0  10   0   51.09    7.40
  -1 -10   0   69.49   11.40
  -1 -10   0   62.39    8.40
   1  10   0   58.59    7.20
   1  10   0   56.59    9.20
   1  10   0   77.09    8.10
   1  10   0   56.49   16.80
  -2 -10   0    2.90    8.90
  -2 -10   0    4.90    6.40
   2  10   0   -1.90    4.60
   2  10   0   12.60    6.00
   2  10   0    3.10    5.30
   2  10   0   -1.50   13.80
  -3 -10   0   16.80    7.70
  -3 -10   0   32.90   11.30
  -3 -10   0   21.50    7.00
   3  10   0   21.40    6.30
   3  10   0   20.10   14.40
   3  10   0   18.10   11.40
   3  10   0   30.00    6.70
  -4 -10   0   -7.90    7.10
  -4 -10   0   -6.90    8.10
  -4 -10   0    4.90   11.80
  -4 -10   0    0.60    6.90
   4  10   0   -7.80    6.40
   4  10   0    1.40   10.50
   4  10   0    3.80   14.30
   4  10   0   12.70    6.70
   4  10  -1    2.80    6.60
   4  10  -1    2.60   11.20
   4  10  -1   -2.90    6.40
   4  10  -1    1.70   13.80
  -4 -10   1   -7.60    7.90
  -4 -10   1    9.70    7.50
  -4 -10   1   13.30   12.40
   3  10  -1   -1.40   13.70
   3  10  -1    1.00   10.70
   3  10  -1    6.60    6.40
   3  10  -1   -1.40    5.70
  -3 -10   1    5.60    6.20
  -3 -10   1   17.10   11.70
  -3 -10   1   -5.20    7.10
   2  10  -1   92.99   11.00
   2  10  -1   73.79   17.60
   2  10  -1   87.89   10.20
   2  10  -1  108.99   12.30
  -2 -10   1   87.59   13.40
  -2 -10   1  110.89   14.50
  -2 -10   1  106.39   12.00
   1  10  -1  296.27   19.50
   1  10  -1  225.48   32.20
   1  10  -1  275.37   18.50
  -1 -10   1  294.17   20.20
  -1 -10   1  306.77   24.20
   6   9  -1   20.30    8.80
   6   9  -1   43.30    9.50
   6   9  -1   47.70    7.60
  -6  -9   1   53.09   16.50
  -6  -9   1   31.20   11.10
  -6  -9   1   38.90    7.00
  -6  -9   1   36.10    6.30
  -6  -9   1   21.80   11.10
   5   9  -1   11.50    4.80
   5   9  -1   16.70    9.70
   5   9  -1    9.70    6.80
  -5  -9   1   10.00   14.10
  -5  -9   1    9.20    9.30
  -5  -9   1   12.00    7.70
  -5  -9   1    8.40    5.30
  -5  -9   1    9.40    4.40
   4   9  -1    7.40    6.00
   4   9  -1   -0.80    8.00
   4   9  -1   -3.60   11.30
   4   9  -1   -5.00    5.40
  -4  -9   1    9.60   10.40
  -4  -9   1   -2.00    4.40
  -4  -9   1    3.70    6.50
  -4  -9   1   -6.30    7.40
   3   9  -1   23.80    5.70
   3   9  -1   15.70   11.80
   3   9  -1   21.10    5.90
   3   9  -1   23.20    8.50
  -3  -9   1   25.70    6.60
  -3  -9   1   19.30    7.00
  -3  -9   1   17.10    5.50
  -3  -9   1   20.90    9.20
   2   9  -1  478.15   27.90
   2   9  -1  521.15   28.80
   2   9  -1  492.65   28.20
   2   9  -1  447.86   30.60
   2   9  -1  486.95   36.00
  -2  -9   1  476.65   30.60
  -2  -9   1  486.15   28.80
  -2  -9   1  514.35   32.70
  -2  -9   1  486.65   28.50
  -2  -9   1  510.05   29.70
   1   9  -1  915.01   48.10
   1   9  -1  787.02   54.79
   1   9  -1  852.31   47.70
   1   9  -1  876.61   47.10
  -1  -9   1  882.11   48.30
  -1  -9   1  893.71   48.60
  -1  -9   1  840.72   50.09
  -1  -9   1  907.31   50.79
   0   9  -1  293.57   18.70
   0   9  -1  227.28   30.60
   0   9  -1  300.07   19.00
   0  -9   1  314.47   22.30
   0  -9   1  324.87   19.40
   0  -9   1  301.57   19.20
   0  -9   1  276.87   21.70
  -1   9  -1   -2.20    4.90
  -1   9  -1   -2.00    5.40
  -1   9  -1    5.60    5.80
  -1   9  -1   -3.70   14.10
   1  -9   1   -1.40    4.80
   1  -9   1    6.70    7.00
   1  -9   1    8.80    5.70
  -2   9  -1   38.30    6.70
  -2   9  -1   28.20    6.70
  -2   9  -1   21.70   17.70
   2  -9   1   34.90    5.70
   2  -9   1   36.60   11.20
   2  -9   1   34.80    7.40
   2  -9   1   29.50    7.70
   2  -9   1   35.50    6.10
   7   8  -1   57.99   11.20
   7   8  -1   73.49   16.10
   7   8  -1   83.59   10.00
  -7  -8   1   65.09   13.40
  -7  -8   1   54.39   13.10
  -7  -8   1   83.89   17.70
  -7  -8   1   76.39   10.70
   6   8  -1   -4.20    7.40
   6   8  -1   -5.00    7.90
   6   8  -1    0.80    5.50
   6   8  -1    0.70    6.90
   6   8  -1    5.60    5.80
  -6  -8   1    2.70    9.30
  -6  -8   1   -0.20    4.00
  -6  -8   1    0.40    9.40
  -6  -8   1   -6.90   11.50
  -6  -8   1    0.50    6.20
   5   8  -1   18.40    4.80
   5   8  -1   16.00    6.40
   5   8  -1   22.10    6.80
   5   8  -1   33.60    7.50
   5   8  -1   20.90    5.60
   5   8  -1   24.40    5.50
  -5  -8   1   17.90    7.50
  -5  -8   1   23.20    5.90
  -5  -8   1   16.20    5.10
  -5  -8   1   15.10    8.30
  -5  -8   1   27.60   11.90
  -5  -8   1   17.20    4.30
   4   8  -1   16.40    4.20
   4   8  -1    8.20    5.20
   4   8  -1   13.40    5.70
   4   8  -1   11.10    5.30
   4   8  -1   13.80    3.90
   4   8  -1   16.00    6.20
  -4  -8   1   10.50    5.10
  -4  -8   1   14.50    3.90
  -4  -8   1    3.90    5.90
  -4  -8   1   12.20    3.50
  -4  -8   1    5.50    9.00
  -4  -8   1   10.20    7.10
  -4  -8   1    9.70    3.80
   3   8  -1  553.74   32.70
   3   8  -1  542.65   31.40
   3   8  -1  562.94   31.40
   3   8  -1  545.45   36.20
   3   8  -1  546.45   31.50
  -3  -8   1  540.15   32.70
  -3  -8   1  566.04   32.90
  -3  -8   1  562.04   31.20
  -3  -8   1  545.05   32.00
  -3  -8   1  530.05   30.90
  -3  -8   1  560.44   35.10
   2   8  -1  823.52   44.70
   2   8  -1  799.92   45.80
   2   8  -1  806.42   44.20
   2   8  -1  771.92   49.00
   2   8  -1  817.92   44.50
  -2  -8   1  818.52   44.70
  -2  -8   1  799.42   46.20
  -2  -8   1  829.22   44.70
  -2  -8   1  812.52   45.00
  -2  -8   1  808.92   47.40
  -2  -8   1  838.52   45.60
   1   8  -1  396.96   34.40
   1   8  -1  512.85   27.30
   1   8  -1  464.45   33.60
   1   8  -1  417.16   27.90
   1   8  -1  480.75   26.50
   1   8  -1  477.25   26.80
  -1  -8   1  507.15   27.30
  -1  -8   1  479.75   27.50
  -1  -8   1  491.95   27.90
  -1  -8   1  465.45   27.10
  -1  -8   1  528.35   30.10
  -1  -8   1  462.35   29.00
   0   8  -1   84.19    8.20
   0   8  -1   91.89    8.90
   0   8  -1   77.79   12.00
   0   8  -1   64.69   13.30
   0  -8   1   84.59   12.30
   0  -8   1   89.99    8.50
   0  -8   1   87.69    9.20
  -1   8  -1   24.10    4.80
  -1   8  -1   17.60   12.10
  -1   8  -1   31.40    4.00
  -1   8  -1   28.90    5.30
  -1   8  -1   29.20    7.80
   1  -8   1   28.80    3.50
   1  -8   1   29.90    4.90
   1  -8   1   27.50    6.80
   1  -8   1   27.30    4.80
  -2   8  -1   28.20    5.40
  -2   8  -1   20.60   14.20
  -2   8  -1   28.20    5.90
   2  -8   1   29.70    8.20
   2  -8   1   28.10    5.20
   2  -8   1   26.60    6.70
   2  -8   1   31.80    5.40
   2  -8   1   30.30    4.90
  -3   8  -1   13.70   16.00
  -3   8  -1    6.40    5.90
   3  -8   1   12.20    4.70
   3  -8   1   17.20    6.10
   3  -8   1   14.70    5.70
   3  -8   1   23.30    7.70
   3  -8   1   14.70    7.80
   8   7  -1   53.09   18.80
   8   7  -1   49.99   11.40
   8   7  -1   67.19    9.70
   8   7  -1   61.49   12.90
   8   7  -1   76.69   13.40
  -8  -7   1   85.39   17.40
  -8  -7   1   81.29   15.70
  -8  -7   1   79.99   15.50
  -8  -7   1   63.29   12.60
   7   7  -1   17.80   12.00
   7   7  -1   30.60    7.90
   7   7  -1   17.00    8.70
   7   7  -1   29.50    6.50
  -7  -7   1    9.30   12.50
  -7  -7   1   17.20   10.30
  -7  -7   1   21.90    8.60
  -7  -7   1   16.40   10.40
   6   7  -1    9.90    5.10
   6   7  -1    5.10    6.70
   6   7  -1    7.40    4.60
   6   7  -1   10.60    5.50
   6   7  -1   11.00   10.00
  -6  -7   1   12.50    9.20
  -6  -7   1   11.10   11.20
  -6  -7   1    6.10    3.70
  -6  -7   1    5.00    3.30
  -6  -7   1   16.00    5.40
  -6  -7   1    4.30    9.10
  -6  -7   1    9.40    6.40
   5   7  -1    5.50    7.20
   5   7  -1    0.20    4.60
   5   7  -1   -8.50    5.60
   5   7  -1   -1.80    5.50
   5   7  -1   -1.80    4.40
   5   7  -1    3.00    4.00
   5   7  -1    4.00    4.00
  -5  -7   1   -1.70    3.00
  -5  -7   1    0.10    9.50
  -5  -7   1    1.80    4.80
  -5  -7   1   -3.30    7.20
  -5  -7   1   -3.30    6.60
  -5  -7   1   -0.80    4.10
   4   7  -1   31.30    5.50
   4   7  -1   28.50    4.40
   4   7  -1   35.80    6.00
   4   7  -1   31.80    3.90
   4   7  -1   40.90    6.10
   4   7  -1   45.40    6.20
  -4  -7   1   32.80    7.40
  -4  -7   1   30.90    5.50
  -4  -7   1   33.90    4.70
  -4  -7   1   25.70    4.10
  -4  -7   1   24.90    3.80
  -4  -7   1   39.60    9.60
  -4  -7   1   34.70    6.70
   3   7  -1  575.84   31.50
   3   7  -1  576.34   31.80
   3   7  -1  580.64   32.40
   3   7  -1  567.74   32.70
   3   7  -1  543.25   31.50
  -3  -7   1  562.74   32.70
  -3  -7   1  557.14   31.40
  -3  -7   1  564.74   31.10
  -3  -7   1  551.84   32.90
  -3  -7   1  527.15   32.30
  -3  -7   1  583.64   34.70
  -3  -7   1  555.84   32.20
   2   7  -1 1962.30  102.99
   2   7  -1 1872.31  102.89
   2   7  -1 1820.02  105.59
   2   7  -1 1975.50  102.69
   2   7  -1 1872.31  103.59
   2   7  -1 1918.81  104.49
   2   7  -1 1922.71  103.19
  -2  -7   1 1952.90  104.29
  -2  -7   1 1869.61  104.89
  -2  -7   1 1986.50  103.19
  -2  -7   1 1973.30  103.09
  -2  -7   1 1970.30  103.29
  -2  -7   1 2029.20  103.79
   1   7  -1  767.12   45.40
   1   7  -1  819.72   43.10
   1   7  -1  794.82   43.30
   1   7  -1  798.32   42.90
   1   7  -1  748.53   47.10
   1   7  -1  811.92   43.50
   1   7  -1  738.83   43.90
  -1  -7   1  799.92   45.20
  -1  -7   1  841.12   43.40
  -1  -7   1  785.62   44.80
  -1  -7   1  807.02   43.40
  -1  -7   1  816.82   43.80
  -1  -7   1  795.42   43.60
   0   7  -1  290.77   18.70
   0   7  -1  332.27   22.80
   0   7  -1  319.87   18.90
   0   7  -1  321.07   18.90
   0   7  -1  266.67   24.80
   0   7  -1  327.57   17.80
   0  -7   1  322.27   19.50
   0  -7   1  329.67   19.10
   0  -7   1  353.06   18.80
   0  -7   1  331.77   17.70
   0  -7   1  331.37   18.80
   0  -7   1  331.07   21.10
   0  -7   1  328.57   18.80
  -1   7  -1    1.80    3.40
  -1   7  -1    4.20    3.40
  -1   7  -1    1.20    3.20
  -1   7  -1   -0.40    2.60
  -1   7  -1   -1.70    9.20
  -1   7  -1    2.60    8.00
   1  -7   1    0.30    2.20
   1  -7   1    4.60    4.80
   1  -7   1    0.10    2.40
   1  -7   1    3.90    3.10
   1  -7   1    1.20    2.90
  -2   7  -1    1.60   10.60
  -2   7  -1    5.90    4.00
  -2   7  -1    8.20    4.00
   2  -7   1    2.50    5.00
   2  -7   1    9.90    4.40
   2  -7   1    5.00    3.20
   2  -7   1    7.20    6.00
   2  -7   1    6.80    3.30
  -3   7  -1  165.78   13.90
  -3   7  -1  196.78   27.80
   3  -7   1  177.68   11.90
   3  -7   1  182.08   13.50
   3  -7   1  183.38   14.30
   3  -7   1  150.08   13.50
   3  -7   1  176.38   12.50
   3  -7   1  187.08   15.30
  -4   7  -1  399.36   26.60
  -4   7  -1  427.36   39.40
   4  -7   1  363.06   25.00
   4  -7   1  424.86   27.40
   4  -7   1  422.36   24.80
   4  -7   1  433.46   24.10
   4  -7   1  450.65   27.30
  -5   7  -1  242.48   22.10
  -5   7  -1  329.37   39.10
  -5   7  -1  282.07   22.90
   5  -7   1  275.47   17.80
   5  -7   1  308.57   18.40
   5  -7   1  280.37   21.30
   5  -7   1  229.18   20.60
   8   6  -1   55.59    8.70
   8   6  -1   35.50   12.10
   8   6  -1   43.60   10.30
   8   6  -1   58.09    8.30
  -8  -6   1   53.49   12.00
  -8  -6   1   73.19   14.90
  -8  -6   1   59.59   19.80
  -8  -6   1   40.70   14.30
   7   6  -1   22.10   12.10
   7   6  -1   28.40    6.20
   7   6  -1   35.10    6.20
   7   6  -1   23.30    7.60
   7   6  -1   17.20    8.00
  -7  -6   1   25.60   11.50
  -7  -6   1   27.30    8.70
  -7  -6   1   21.20    6.60
  -7  -6   1   14.50   10.60
  -7  -6   1   21.20   10.90
  -7  -6   1   22.70    4.80
   6   6  -1   28.50    5.00
   6   6  -1   26.10    4.80
   6   6  -1   36.80   10.70
   6   6  -1   30.10    7.50
   6   6  -1   31.80    6.20
  -6  -6   1   31.10    7.20
  -6  -6   1   16.40    8.10
  -6  -6   1   23.30    5.30
  -6  -6   1   22.70    4.80
  -6  -6   1   19.10    7.90
  -6  -6   1   33.10   10.30
   5   6  -1    3.50    4.10
   5   6  -1   -0.60    4.70
   5   6  -1    0.00    3.70
   5   6  -1    2.20    3.80
   5   6  -1    8.90    7.30
   5   6  -1    1.10    3.80
  -5  -6   1    0.40    2.40
  -5  -6   1    2.20    4.80
  -5  -6   1   -1.00    5.70
  -5  -6   1   -3.20    6.20
  -5  -6   1    8.30    8.20
  -5  -6   1    1.00    3.80
  -5  -6   1    0.00    3.30
   4   6  -1  773.52   43.20
   4   6  -1  753.82   43.50
   4   6  -1  792.92   45.80
   4   6  -1  778.12   43.30
   4   6  -1  766.42   42.00
   4   6  -1  798.12   43.10
   4   6  -1  788.42   42.80
  -4  -6   1  781.62   45.50
  -4  -6   1  805.82   43.90
  -4  -6   1  754.42   42.80
  -4  -6   1  794.42   42.10
  -4  -6   1  757.82   43.80
  -4  -6   1  800.72   43.10
  -4  -6   1  786.12   44.50
   3   6  -1 2459.05  134.99
   3   6  -1 2555.04  135.49
   3   6  -1 2513.75  134.69
   3   6  -1 2613.94  134.89
  -3  -6   1 2501.25  135.59
  -3  -6   1 2548.74  134.49
  -3  -6   1 2629.04  134.89
  -3  -6   1 2410.36  136.39
  -3  -6   1 2482.15  135.19
  -3  -6   1 2561.64  134.49
  -3  -6   1 2645.04  135.79
   2   6  -1  882.21   46.50
   2   6  -1  841.32   46.00
   2   6  -1  797.62   45.90
   2   6  -1  902.81   45.70
   2   6  -1  812.32   45.80
   2   6  -1  848.32   47.20
   2   6  -1  836.22   48.10
  -2  -6   1  835.02   46.70
  -2  -6   1  859.11   47.80
  -2  -6   1  861.21   47.00
  -2  -6   1  856.41   46.00
  -2  -6   1  855.61   46.20
  -2  -6   1  846.52   45.90
   1   6  -1    0.20    3.30
   1   6  -1    0.30    2.30
   1   6  -1    2.80    5.10
   1   6  -1   -0.70    5.70
   1   6  -1   -2.00    2.30
   1   6  -1    1.80    2.80
  -1  -6   1    5.20    2.80
  -1  -6   1   -0.70    2.90
  -1  -6   1    0.60    1.20
  -1  -6   1    1.80    4.70
  -1  -6   1    0.10    2.10
  -1  -6   1    1.30    2.90
  -1  -6   1    0.00    3.10
   0   6  -1    8.80    3.10
   0   6  -1   16.50    3.00
   0   6  -1   16.10    2.30
   0   6  -1   14.10    2.60
   0   6  -1   13.00    5.30
   0   6  -1   11.70    7.00
   0   6  -1   15.40    3.40
   0  -6   1   13.70    2.70
   0  -6   1   14.20    3.10
   0  -6   1   11.30    3.20
   0  -6   1   15.00    3.00
   0  -6   1   14.80    3.60
   0  -6   1   13.50    4.60
   0  -6   1   14.90    1.70
   0  -6   1   13.80    1.80
  -1   6  -1  287.47   15.90
  -1   6  -1  274.87   16.30
  -1   6  -1  270.27   16.20
  -1   6  -1  278.17   19.90
   1  -6   1  266.97   15.50
   1  -6   1  277.97   16.40
   1  -6   1  272.47   17.60
   1  -6   1  280.97   15.50
   1  -6   1  280.57   15.90
   1  -6   1  268.27   17.10
   1  -6   1  278.47   16.00
  -2   6  -1   32.00   10.60
  -2   6  -1   38.30    4.40
  -2   6  -1   35.90    4.90
   2  -6   1   36.00    5.50
   2  -6   1   31.20    4.70
   2  -6   1   42.20    5.40
   2  -6   1   34.80    6.10
   2  -6   1   40.50    5.10
   2  -6   1   40.20    5.20
   2  -6   1   36.00    5.40
   2  -6   1   34.30    5.10
  -3   6  -1  528.65   30.20
  -3   6  -1  488.65   38.30
   3  -6   1  569.14   35.70
   3  -6   1  542.65   28.80
   3  -6   1  501.05   29.10
   3  -6   1  492.65   31.30
   3  -6   1  491.95   30.10
   3  -6   1  579.54   30.80
   3  -6   1  525.45   29.70
  -4   6  -1  540.95   33.30
  -4   6  -1  547.95   43.00
  -4   6  -1  539.65   33.60
   4  -6   1  603.24   31.80
   4  -6   1  565.64   32.20
   4  -6   1  648.04   39.80
   4  -6   1  548.45   33.30
   4  -6   1  613.74   33.60
  -5   6  -1   90.79   18.50
  -5   6  -1  108.29   14.40
   5  -6   1   86.89   12.10
   5  -6   1  110.29   11.80
   5  -6   1   97.09    8.90
   5  -6   1   72.29    9.70
   5  -6   1  108.49   18.20
   5  -6   1  113.99    9.50
  -6   6  -1    8.60   17.80
  -6   6  -1    3.60    9.30
   6  -6   1    1.20    8.90
   6  -6   1   -6.30    9.30
   6  -6   1    2.30    5.20
   6  -6   1    1.70    6.80
   6  -6   1    6.30    4.10
   9   5  -1   -1.80   18.20
   9   5  -1   36.30    8.40
   9   5  -1   18.60   11.10
  -9  -5   1    9.20   13.30
  -9  -5   1   16.70   16.70
   8   5  -1   -5.40    5.90
   8   5  -1  -13.50   14.00
   8   5  -1    3.40    9.40
   8   5  -1    5.20    5.60
  -8  -5   1    5.20   13.00
  -8  -5   1    5.00    6.10
  -8  -5   1    0.60    9.60
  -8  -5   1   -3.30   10.50
  -8  -5   1   -2.60   10.60
   7   5  -1   13.60    7.60
   7   5  -1   20.80    5.50
   7   5  -1    4.80   10.80
   7   5  -1   23.60    5.50
  -7  -5   1   27.60   10.20
  -7  -5   1   16.10    9.30
  -7  -5   1   16.30    5.50
  -7  -5   1   19.10    5.20
  -7  -5   1   13.60    9.60
  -7  -5   1   16.10    7.90
   6   5  -1   90.59    8.70
   6   5  -1   65.09    9.30
   6   5  -1   95.19   17.80
   6   5  -1   87.19    8.60
  -6  -5   1   86.19   10.90
  -6  -5   1   74.99   10.40
  -6  -5   1   97.49   11.50
  -6  -5   1   94.99   13.20
  -6  -5   1   87.39    8.70
  -6  -5   1  105.39   15.60
   5   5  -1  690.93   42.40
   5   5  -1  671.93   39.80
   5   5  -1  677.13   38.40
   5   5  -1  705.63   38.70
   5   5  -1  715.33   38.50
   5   5  -1  697.93   38.40
  -5  -5   1  684.03   40.00
  -5  -5   1  690.83   40.60
  -5  -5   1  721.13   39.70
  -5  -5   1  719.93   39.90
  -5  -5   1  690.23   41.00
  -5  -5   1  694.43   38.50
  -5  -5   1  689.93   37.40
   4   5  -1 1409.46   76.29
   4   5  -1 1401.56   76.39
   4   5  -1 1429.46   75.69
   4   5  -1 1365.76   76.09
   4   5  -1 1380.56   78.29
   4   5  -1 1413.66   76.79
  -4  -5   1 1386.36   77.79
  -4  -5   1 1422.46   77.39
  -4  -5   1 1442.96   76.69
  -4  -5   1 1493.15   76.29
  -4  -5   1 1344.77   76.79
  -4  -5   1 1517.75   77.19
  -4  -5   1 1462.25   75.39
   3   5  -1 1522.65   77.99
   3   5  -1 1528.15   79.29
   3   5  -1 1550.94   78.79
   3   5  -1 1529.65   80.49
   3   5  -1 1492.25   79.09
   3   5  -1 1273.37   79.49
   3   5  -1 1469.35   78.99
  -3  -5   1 1543.35   78.79
  -3  -5   1 1466.35   80.29
  -3  -5   1 1527.05   79.19
  -3  -5   1 1451.35   79.59
  -3  -5   1 1257.77   81.59
  -3  -5   1 1548.15   78.39
   2   5  -1   28.40    5.70
   2   5  -1   31.40    2.60
   2   5  -1   36.80    3.90
   2   5  -1   36.80    8.80
   2   5  -1   24.50    3.40
   2   5  -1   30.60    3.80
   2   5  -1   28.30    3.90
  -2  -5   1   29.90    4.20
  -2  -5   1   27.70    5.50
  -2  -5   1   26.60    3.90
  -2  -5   1   31.20    4.20
  -2  -5   1   32.00    4.10
  -2  -5   1   26.20    4.10
   1   5  -1  523.25   28.70
   1   5  -1  507.75   29.20
   1   5  -1  584.64   28.70
   1   5  -1  503.75   29.30
   1   5  -1  526.05   28.70
   1   5  -1  502.65   30.80
  -1  -5   1  519.75   29.10
  -1  -5   1  518.35   30.30
  -1  -5   1  544.45   29.70
  -1  -5   1  539.65   29.00
  -1  -5   1  521.45   28.90
  -1  -5   1  538.15   28.80
   0   5  -1   38.40    3.50
   0   5  -1   34.00    4.80
   0   5  -1   26.50    4.90
   0   5  -1   35.10    3.90
   0   5  -1   30.20    4.70
   0   5  -1   36.90    4.40
   0   5  -1   29.60    6.60
   0  -5   1   27.90    4.80
   0  -5   1   38.60    4.50
   0  -5   1   39.70    4.20
   0  -5   1   39.20    3.90
   0  -5   1   34.60    3.00
   0  -5   1   34.10    2.70
   0  -5   1   38.80    4.40
  -1   5  -1    2.00    2.70
  -1   5  -1    0.60    6.00
  -1   5  -1    2.70    3.60
  -1   5  -1    1.00    4.50
  -1   5  -1    0.80    2.30
   1  -5   1    2.70    1.70
   1  -5   1    3.20    2.20
   1  -5   1    1.30    1.70
   1  -5   1    1.50    3.10
   1  -5   1    2.20    2.00
   1  -5   1    0.90    2.40
   1  -5   1    1.90    3.70
  -2   5  -1  433.16   25.10
  -2   5  -1  444.36   25.40
   2  -5   1  463.05   25.80
   2  -5   1  447.16   29.10
   2  -5   1  469.85   24.80
   2  -5   1  446.56   24.90
   2  -5   1  454.05   25.30
   2  -5   1  465.25   26.60
   2  -5   1  460.55   25.80
   2  -5   1  458.75   24.90
  -3   5  -1  937.51   63.19
  -3   5  -1 1032.20   57.89
   3  -5   1 1055.39   57.89
   3  -5   1 1074.59   58.29
   3  -5   1 1038.00   57.39
   3  -5   1 1075.39   57.69
   3  -5   1 1102.09   62.09
   3  -5   1 1141.69   58.59
   3  -5   1 1137.19   57.19
   3  -5   1 1112.79   57.59
  -4   5  -1  258.57   17.70
  -4   5  -1  246.08   26.30
   4  -5   1  276.67   15.30
   4  -5   1  274.97   15.90
   4  -5   1  258.77   17.00
   4  -5   1  244.58   16.30
   4  -5   1  272.17   17.00
   4  -5   1  258.17   15.70
  -5   5  -1    1.50   13.60
  -5   5  -1    9.80    6.10
   5  -5   1    7.80    5.20
   5  -5   1    5.60    6.40
   5  -5   1    6.80    3.30
   5  -5   1    8.80    4.80
   5  -5   1    6.60    3.50
   5  -5   1    1.90    7.20
   5  -5   1   17.70    9.10
  -6   5  -1   38.40   17.30
  -6   5  -1   46.00    9.60
   6  -5   1   31.10    9.00
   6  -5   1   66.39   11.20
   6  -5   1   47.00    5.70
   6  -5   1   43.60    6.70
   6  -5   1   41.50    8.70
   6  -5   1   63.49    8.60
   9   4  -1    4.60    9.50
   9   4  -1    6.90    6.80
  -9  -4   1    0.70   16.00
  -9  -4   1   10.40    9.10
  -9  -4   1  -22.40   15.20
  -9  -4   1  -10.20   12.40
   8   4  -1    5.40   14.10
   8   4  -1   45.70    6.90
   8   4  -1   34.50    7.00
   8   4  -1   39.60   10.50
  -8  -4   1   44.60   13.30
  -8  -4   1   31.20   11.00
  -8  -4   1   63.09   10.40
  -8  -4   1   30.40   11.50
  -8  -4   1   41.20    7.50
   7   4  -1   23.00    5.70
   7   4  -1   21.40    8.10
   7   4  -1   11.40   11.90
   7   4  -1   28.80    5.60
  -7  -4   1   25.10    5.60
  -7  -4   1   24.60    8.80
  -7  -4   1   22.80    9.20
  -7  -4   1   17.10    5.90
  -7  -4   1   36.10    9.00
  -7  -4   1   28.30    9.80
   6   4  -1   32.20    7.00
   6   4  -1   39.40   11.30
   6   4  -1   47.90    9.70
   6   4  -1   49.10    6.80
   6   4  -1   46.60    7.10
  -6  -4   1   27.80    7.30
  -6  -4   1   32.70    5.60
  -6  -4   1   54.19    8.40
  -6  -4   1   38.60    8.30
  -6  -4   1   51.39    8.50
  -6  -4   1   43.50    7.00
   5   4  -1  291.47   16.00
   5   4  -1  271.87   16.20
   5   4  -1  235.08   17.80
   5   4  -1  250.97   15.60
   5   4  -1  265.97   21.60
  -5  -4   1  261.07   18.30
  -5  -4   1  259.87   18.70
  -5  -4   1  266.57   16.10
  -5  -4   1  258.97   18.30
  -5  -4   1  265.77   17.60
  -5  -4   1  250.87   18.60
   4   4  -1 2065.19  111.09
   4   4  -1 2104.69  108.79
   4   4  -1 2133.19  109.09
   4   4  -1 2143.39  109.59
   4   4  -1 2059.09  108.79
  -4  -4   1 1984.50  109.49
  -4  -4   1 1832.32  112.39
  -4  -4   1 1921.71  109.89
  -4  -4   1 2014.40  109.89
  -4  -4   1 2112.49  108.89
  -4  -4   1 2107.29  108.09
  -4  -4   1 2069.49  109.59
   3   4  -1  267.37   15.60
   3   4  -1  269.37   15.90
   3   4  -1  272.87   15.00
   3   4  -1  266.87   16.00
   3   4  -1  268.67   17.40
   3   4  -1  272.47   15.80
  -3  -4   1  278.07   15.60
  -3  -4   1  267.17   17.40
  -3  -4   1  274.67   16.40
  -3  -4   1  268.57   15.00
  -3  -4   1  263.57   16.40
  -3  -4   1  250.77   16.70
   2   4  -1  210.18   11.70
   2   4  -1  216.38   12.70
   2   4  -1  213.18   12.90
   2   4  -1  206.28   12.50
   2   4  -1  215.28   13.30
   2   4  -1  215.98   12.60
  -2  -4   1  215.68   14.20
  -2  -4   1  218.88   12.30
  -2  -4   1  215.28   13.20
  -2  -4   1  225.58   12.50
  -2  -4   1  212.48   12.90
  -2  -4   1  205.98   13.30
   1   4  -1  126.69    8.30
   1   4  -1  145.59    8.20
   1   4  -1  150.58   10.40
   1   4  -1  126.19    8.30
   1   4  -1  137.69    8.90
   1   4  -1  151.78    9.90
   1   4  -1  140.39    8.50
  -1  -4   1  131.39    8.30
  -1  -4   1  136.19    8.60
  -1  -4   1  137.29    8.90
  -1  -4   1  147.89   10.10
  -1  -4   1  133.89    9.20
  -1  -4   1  140.99    8.60
   0   4  -1   -0.30    2.70
   0   4  -1    2.50    1.60
   0   4  -1    4.80    1.90
   0   4  -1    1.80    1.90
   0   4  -1   -0.60    1.90
   0   4  -1    0.60    3.90
   0  -4   1    1.20    1.40
   0  -4   1    1.70    1.90
   0  -4   1    2.50    2.90
   0  -4   1    0.90    1.60
   0  -4   1    3.00    1.00
   0  -4   1    1.00    1.70
   0  -4   1    1.20    1.10
   0  -4   1    1.20    1.60
  -1   4  -1  265.67   17.00
  -1   4  -1  277.87   15.30
  -1   4  -1  270.07   15.30
  -1   4  -1  273.77   15.00
   1  -4   1  264.87   15.80
   1  -4   1  278.67   15.00
   1  -4   1  268.57   16.10
   1  -4   1  272.57   17.90
   1  -4   1  267.27   15.30
   1  -4   1  267.47   15.00
   1  -4   1  284.87   15.00
  -2   4  -1  564.24   30.20
  -2   4  -1  535.65   30.20
   2  -4   1  559.84   30.70
   2  -4   1  614.14   33.70
   2  -4   1  563.04   30.50
   2  -4   1  551.74   29.70
   2  -4   1  562.74   30.10
   2  -4   1  471.85   31.10
   2  -4   1  578.54   31.30
   2  -4   1  548.45   29.90
  -3   4  -1  640.54   35.60
  -3   4  -1  540.05   40.00
   3  -4   1  674.53   35.20
   3  -4   1  665.93   34.60
   3  -4   1  691.93   36.00
   3  -4   1  623.64   35.30
   3  -4   1  644.84   35.10
   3  -4   1  652.73   35.10
   3  -4   1  666.03   35.70
  -4   4  -1  172.38   12.80
  -4   4  -1  155.88   20.40
   4  -4   1  176.18   11.80
   4  -4   1  136.99   11.30
   4  -4   1  155.88   11.50
   4  -4   1  188.88   10.40
   4  -4   1  171.48   11.80
   4  -4   1  174.38   11.00
   4  -4   1  170.98   10.50
  -5   4  -1   59.49   14.20
  -5   4  -1   52.89    7.70
   5  -4   1   64.09    8.20
   5  -4   1   47.50    6.10
   5  -4   1   52.19    6.10
   5  -4   1   71.29   12.90
   5  -4   1   36.30    5.60
   5  -4   1   51.79    8.80
   5  -4   1   47.10    5.00
   5  -4   1   58.29    7.40
  -6   4  -1  101.29   15.30
  -6   4  -1   53.39   16.40
   6  -4   1   62.09    7.80
   6  -4   1   47.50    7.10
   6  -4   1   58.59    9.60
   6  -4   1   54.19    8.10
   6  -4   1   66.29    9.60
   6  -4   1   58.99   10.10
   6  -4   1   62.19    8.30
  -7   4  -1    6.10    9.70
   7  -4   1   12.10    9.40
   7  -4   1   -1.30    7.80
   7  -4   1   -2.80    6.20
   7  -4   1   -4.70    8.30
   7  -4   1    3.60    5.40
   9   3  -1   -6.50   16.00
   9   3  -1   18.40   10.40
   9   3  -1   19.60    8.20
  -9  -3   1   26.60    9.20
  -9  -3   1    5.50   15.50
  -9  -3   1   58.89   15.40
  -9  -3   1    4.20   12.60
  -9  -3   1   -9.50   12.10
   8   3  -1  105.29   12.60
   8   3  -1   96.19   10.40
   8   3  -1   90.99   12.50
   8   3  -1   91.19   11.70
  -8  -3   1   97.79   14.50
  -8  -3   1   58.59   12.80
  -8  -3   1  107.79   13.10
  -8  -3   1   85.49   13.00
   7   3  -1   -6.80   12.20
   7   3  -1   10.40    4.20
   7   3  -1    9.20    7.90
   7   3  -1    9.20    3.60
   7   3  -1   13.10    5.00
  -7  -3   1    2.80    7.50
  -7  -3   1   16.10    7.00
  -7  -3   1   12.40    8.50
  -7  -3   1    8.50    5.20
  -7  -3   1    2.80    5.70
  -7  -3   1    7.40    7.80
   6   3  -1  228.68   13.80
   6   3  -1  223.58   17.70
   6   3  -1  218.38   15.70
   6   3  -1  219.58   13.70
   6   3  -1  186.18   23.20
  -6  -3   1  196.78   14.20
  -6  -3   1  209.28   17.40
  -6  -3   1  227.58   18.10
  -6  -3   1  199.68   17.80
  -6  -3   1  213.48   16.20
  -6  -3   1  210.98   16.40
   5   3  -1 1278.17   64.59
   5   3  -1 1152.28   65.59
   5   3  -1 1202.78   64.09
   5   3  -1 1073.49   68.29
   5   3  -1 1281.87   64.39
   5   3  -1 1215.68   63.29
  -5  -3   1 1180.98   65.09
  -5  -3   1 1185.28   65.49
  -5  -3   1 1188.48   65.59
  -5  -3   1 1165.88   65.59
  -5  -3   1 1136.29   64.29
  -5  -3   1 1248.18   65.99
   4   3  -1  676.13   38.10
   4   3  -1  719.73   39.20
   4   3  -1  697.33   38.30
   4   3  -1  708.33   41.10
   4   3  -1  728.33   37.60
   4   3  -1  733.83   38.10
  -4  -3   1  670.83   39.10
  -4  -3   1  711.23   39.20
  -4  -3   1  695.83   39.40
  -4  -3   1  679.03   39.30
  -4  -3   1  676.83   39.10
  -4  -3   1  718.53   38.30
   3   3  -1  126.19    8.40
   3   3  -1  123.59    8.30
   3   3  -1  136.49   10.50
   3   3  -1  129.89    8.20
   3   3  -1  116.59    8.90
  -3  -3   1  124.89    9.70
  -3  -3   1  128.59    8.30
  -3  -3   1  114.89    9.10
  -3  -3   1  133.09    9.20
  -3  -3   1  118.79    9.50
  -3  -3   1  128.19    7.40
   2   3  -1  331.47   19.30
   2   3  -1  345.67   19.50
   2   3  -1  367.56   19.10
   2   3  -1  335.97   20.00
   2   3  -1  349.77   19.20
   2   3  -1  358.66   19.30
  -2  -3   1  318.07   20.00
  -2  -3   1  341.77   19.50
  -2  -3   1  359.56   19.20
  -2  -3   1  351.56   18.90
  -2  -3   1  331.57   19.70
  -2  -3   1  364.76   19.70
   1   3  -1   21.50    2.30
   1   3  -1   20.30    2.20
   1   3  -1   14.50    2.20
   1   3  -1   20.10    2.80
   1   3  -1   18.40    2.60
  -1  -3   1   19.50    2.20
  -1  -3   1   18.50    3.10
  -1  -3   1   20.30    2.50
  -1  -3   1   17.00    2.40
  -1  -3   1   17.70    3.20
  -1  -3   1   16.20    2.30
   0   3  -1   65.79    5.80
   0   3  -1   74.49    4.30
   0   3  -1   60.79    4.60
   0   3  -1   67.59    4.40
   0   3  -1   67.79    4.00
   0   3  -1   61.49    6.60
   0  -3   1   66.39    4.40
   0  -3   1   68.79    5.70
   0  -3   1   67.19    4.30
   0  -3   1   68.49    4.10
   0  -3   1   68.59    4.90
   0  -3   1   71.69    4.50
   0  -3   1   63.39    3.80
   0  -3   1   64.29    4.50
  -1   3  -1   48.00    6.00
  -1   3  -1   53.29    3.60
  -1   3  -1   52.39    4.30
  -1   3  -1   57.39    4.10
   1  -3   1   54.49    6.90
   1  -3   1   53.59    4.70
   1  -3   1   51.19    4.20
   1  -3   1   56.19    3.70
   1  -3   1   56.39    3.90
   1  -3   1   55.79    3.70
   1  -3   1   54.89    3.70
   1  -3   1   55.79    5.20
  -2   3  -1 2878.71  150.28
  -2   3  -1 2832.72  150.38
   2  -3   1 2863.51  150.08
   2  -3   1 2754.92  152.58
   2  -3   1 2859.41  150.98
   2  -3   1 2936.51  150.28
   2  -3   1 2904.01  150.48
   2  -3   1 2872.11  150.38
   2  -3   1 2725.73  150.58
  -3   3  -1  385.86   22.70
   3  -3   1  395.36   21.90
   3  -3   1  407.66   21.90
   3  -3   1  393.36   22.40
   3  -3   1  405.46   21.50
   3  -3   1  378.76   22.70
   3  -3   1  396.86   21.90
   3  -3   1  419.56   22.20
   3  -3   1  412.56   22.70
  -4   3  -1   74.69    8.40
   4  -3   1   67.89    6.80
   4  -3   1   68.49    6.10
   4  -3   1   67.29    6.60
   4  -3   1   54.49    8.00
   4  -3   1   59.89   10.20
   4  -3   1   64.89    5.00
   4  -3   1   52.89    6.50
   4  -3   1   60.59    5.90
   4  -3   1   74.59    5.70
  -5   3  -1  121.79   12.20
  -5   3  -1   98.29   19.00
   5  -3   1  105.69    8.10
   5  -3   1  141.89   14.50
   5  -3   1  102.99    8.60
   5  -3   1   91.69    9.10
   5  -3   1  119.39    8.20
   5  -3   1   96.39    6.50
   5  -3   1  127.39   14.40
   5  -3   1   98.39    8.30
   5  -3   1   97.49    8.90
  -6   3  -1    4.30    7.00
   6  -3   1   -4.20    4.40
   6  -3   1   -7.90    5.70
   6  -3   1    6.90    7.80
   6  -3   1    1.40    4.50
   6  -3   1    0.70    3.50
   6  -3   1    4.90    4.00
  -7   3  -1   12.10    9.00
   7  -3   1   21.10    6.30
   7  -3   1    2.30    6.30
   7  -3   1    5.50    9.30
   7  -3   1    0.80    7.00
   7  -3   1    5.90    4.70
  -8   3  -1   74.59   14.30
   8  -3   1   89.69   12.80
   8  -3   1  125.29   15.50
   8  -3   1  133.09   24.10
   8  -3   1   81.29   11.10
   9   2  -1   41.80    7.90
   9   2  -1   10.10   14.20
   9   2  -1   38.00   10.50
  -9  -2   1   56.49   10.90
  -9  -2   1   33.30   12.50
  -9  -2   1   43.90   15.40
  -9  -2   1   20.80   14.10
   8   2  -1   58.99    7.60
   8   2  -1   48.50    9.60
   8   2  -1   44.40    6.60
   8   2  -1   50.09    7.80
  -8  -2   1   51.49   10.90
  -8  -2   1   36.00   12.30
   7   2  -1    8.50    6.70
   7   2  -1  -21.40   11.20
   7   2  -1    7.20    4.80
   7   2  -1    6.60    4.00
   7   2  -1    6.20    3.30
  -7  -2   1   12.60    5.80
  -7  -2   1    4.40    8.60
  -7  -2   1    7.20    4.70
  -7  -2   1    1.20    7.20
  -7  -2   1   -6.70    7.30
   6   2  -1  641.84   35.90
   6   2  -1  622.64   33.20
   6   2  -1  654.03   34.10
   6   2  -1  568.14   33.00
   6   2  -1  618.14   32.10
   6   2  -1  535.65   41.60
  -6  -2   1  596.94   35.50
  -6  -2   1  619.14   34.60
  -6  -2   1  574.84   36.10
  -6  -2   1  578.34   36.30
  -6  -2   1  561.54   35.20
  -6  -2   1  549.45   33.40
   5   2  -1  378.46   21.30
   5   2  -1  361.96   28.30
   5   2  -1  403.76   22.10
   5   2  -1  377.96   21.30
   5   2  -1  381.66   20.60
   5   2  -1  369.86   23.50
  -5  -2   1  365.56   21.80
  -5  -2   1  368.36   23.10
  -5  -2   1  362.56   21.70
  -5  -2   1  369.16   23.80
  -5  -2   1  356.76   22.90
  -5  -2   1  371.36   23.40
   4   2  -1    7.90    2.40
   4   2  -1    7.20    6.00
   4   2  -1    8.60    4.10
   4   2  -1   12.80    2.10
   4   2  -1    9.60    2.70
   4   2  -1   14.00    3.00
  -4  -2   1    9.90    3.00
  -4  -2   1   13.30    3.50
  -4  -2   1    5.90    4.10
  -4  -2   1    7.50    3.90
  -4  -2   1   13.90    3.70
  -4  -2   1    8.50    4.00
   3   2  -1  413.76   23.00
   3   2  -1  418.06   23.60
   3   2  -1  429.66   22.70
   3   2  -1  422.46   22.40
   3   2  -1  386.76   24.80
   3   2  -1  398.16   22.80
  -3  -2   1  424.06   23.40
  -3  -2   1  405.46   23.30
  -3  -2   1  408.36   23.00
  -3  -2   1  404.66   23.60
  -3  -2   1  440.96   23.80
   2   2  -1   61.59    4.50
   2   2  -1   57.69    4.40
   2   2  -1   61.69    5.60
   2   2  -1   58.59    4.00
  -2  -2   1   56.69    4.40
  -2  -2   1   55.79    5.30
  -2  -2   1   57.29    5.10
  -2  -2   1   62.39    4.90
  -2  -2   1   57.39    3.80
  -2  -2   1   63.09    5.40
   1   2  -1  268.97   15.10
   1   2  -1  280.97   14.70
   1   2  -1  257.77   14.80
   1   2  -1  270.37   15.10
   1   2  -1  262.17   14.80
   1   2  -1  271.87   15.00
  -1  -2   1  283.47   14.70
  -1  -2   1  252.57   15.00
  -1  -2   1  287.17   15.00
  -1  -2   1  273.17   14.60
  -1  -2   1  256.07   15.80
   0   2  -1   42.70    3.00
   0   2  -1   38.40    4.00
   0   2  -1   33.20    4.20
   0   2  -1   40.80    2.70
   0  -2   1   41.30    3.90
   0  -2   1   40.30    3.20
   0  -2   1   36.50    2.90
   0  -2   1   38.60    2.80
   0  -2   1   40.50    3.10
  -1   2  -1 1453.05   77.89
  -1   2  -1 1583.04   77.89
   1  -2   1 1483.55   78.09
   1  -2   1 1466.45   78.19
   1  -2   1 1550.94   77.89
   1  -2   1 1536.45   77.89
   1  -2   1 1318.97   79.09
   1  -2   1 1401.46   78.49
  -2   2  -1  948.21   51.69
   2  -2   1  959.60   51.59
   2  -2   1  981.50   51.09
   2  -2   1  949.80   51.29
   2  -2   1  949.51   51.49
   2  -2   1  992.40   50.99
   2  -2   1 1024.50   53.59
   2  -2   1  960.90   51.49
   2  -2   1  946.61   51.99
   2  -2   1  973.20   51.49
  -3   2  -1   47.70    7.90
  -3   2  -1   60.89    5.80
  -3   2  -1   51.39    8.30
   3  -2   1   64.09    8.80
   3  -2   1   58.59    4.10
   3  -2   1   48.00    4.90
   3  -2   1   62.59    4.00
   3  -2   1   59.09    5.50
   3  -2   1   60.69    7.70
   3  -2   1   56.29    4.80
   3  -2   1   47.50    4.50
   3  -2   1   50.99    4.10
   3  -2   1   56.29    4.80
  -4   2  -1  414.46   25.00
  -4   2  -1  438.36   23.30
   4  -2   1  407.66   24.20
   4  -2   1  438.86   24.20
   4  -2   1  437.16   24.20
   4  -2   1  362.56   23.70
   4  -2   1  432.46   23.10
   4  -2   1  439.06   23.60
   4  -2   1  449.95   24.00
   4  -2   1  471.05   23.90
   4  -2   1  467.15   27.00
  -5   2  -1  240.28   17.80
  -5   2  -1  301.37   21.90
  -5   2  -1  250.87   15.00
   5  -2   1  261.87   15.30
   5  -2   1  288.97   15.70
   5  -2   1  245.08   15.70
   5  -2   1  304.57   19.90
   5  -2   1  227.48   15.60
  -6   2  -1  105.29   13.70
  -6   2  -1   92.89    8.30
   6  -2   1   88.49    9.10
   6  -2   1  135.59   17.10
   6  -2   1  114.99    9.00
  -7   2  -1   52.39   12.80
  -7   2  -1   20.60    8.50
  -7   2  -1   24.40    5.50
   7  -2   1   29.90    5.70
   7  -2   1   22.40    4.30
   7  -2   1   43.50    6.70
   7  -2   1   17.20    5.60
   7  -2   1   23.70    9.60
   7  -2   1   24.00    6.70
  -8   2  -1  131.69   22.10
  -8   2  -1   81.59   11.80
   8  -2   1   97.19   11.80
   8  -2   1   72.09   10.10
   8  -2   1   63.69    8.70
   9   1  -1   72.59   17.20
   9   1  -1  108.59   17.10
   9   1  -1   71.49    8.80
  -9  -1   1   49.80   12.90
  -9  -1   1   77.69   16.20
   8   1  -1    6.20    5.30
   8   1  -1  -12.80   10.60
   8   1  -1    2.60    7.70
   8   1  -1    1.30    3.20
  -8  -1   1    4.30   12.70
  -8  -1   1    3.70    8.70
  -8  -1   1  -12.30    9.90
  -8  -1   1   -1.20    9.80
   7   1  -1   65.39    8.20
   7   1  -1   70.49    7.50
   7   1  -1   69.19    9.90
   7   1  -1   71.59    9.60
   7   1  -1   78.89   14.80
  -7  -1   1   60.99    9.50
  -7  -1   1   37.60    9.70
  -7  -1   1   79.49   10.80
   6   1  -1  308.97   19.00
   6   1  -1  344.17   22.10
   6   1  -1  302.57   19.00
   6   1  -1  330.67   27.90
   6   1  -1  362.66   20.70
  -6  -1   1  345.57   24.60
  -6  -1   1  313.07   21.60
  -6  -1   1  305.37   21.30
  -6  -1   1  301.07   23.10
   5   1  -1   19.90    3.40
   5   1  -1   22.70    3.50
   5   1  -1   26.50    4.70
   5   1  -1   17.60    5.20
   5   1  -1    4.10    7.20
  -5  -1   1   21.50    3.40
  -5  -1   1   26.00    5.00
  -5  -1   1   21.20    6.20
  -5  -1   1   14.60    4.80
  -5  -1   1   20.50    5.30
  -5  -1   1   20.10    6.10
   4   1  -1 1270.37   66.89
   4   1  -1 1169.58   70.29
   4   1  -1 1284.67   66.79
   4   1  -1 1383.76   67.69
   4   1  -1 1300.47   68.19
  -4  -1   1 1210.88   66.49
  -4  -1   1 1204.88   67.59
  -4  -1   1 1207.88   67.99
  -4  -1   1 1310.77   69.09
  -4  -1   1 1246.78   67.39
  -4  -1   1 1155.78   67.39
   3   1  -1    0.80    4.10
   3   1  -1    1.40    1.80
   3   1  -1    7.30    2.10
   3   1  -1    3.40    2.30
   3   1  -1   -0.10    2.80
  -3  -1   1    1.50    1.90
  -3  -1   1   -1.00    2.80
  -3  -1   1   -0.30    2.10
  -3  -1   1    2.30    2.40
  -3  -1   1   -1.10    2.40
  -3  -1   1   -0.60    2.30
   2   1  -1  400.06   21.50
   2   1  -1  433.76   21.70
   2   1  -1  413.96   21.70
   2   1  -1  377.96   21.40
   2   1  -1  388.16   22.00
  -2  -1   1  377.46   21.50
  -2  -1   1  386.86   21.80
  -2  -1   1  381.36   22.20
   1   1  -1  105.59    6.90
   1   1  -1  114.39    6.70
   1   1  -1  118.89    6.60
   1   1  -1  117.89    7.00
  -1  -1   1  102.59    7.00
  -1  -1   1  128.69    6.90
  -1  -1   1  101.29    6.80
  -1  -1   1  112.79    7.00
  -1  -1   1  117.69    6.50
  -1  -1   1  125.39    6.80
   0   1  -1  717.73   43.90
   0   1  -1  866.41   43.70
   0   1  -1  901.81   43.80
   0   1  -1  730.33   43.70
   0  -1   1  883.61   43.70
   0  -1   1  882.21   43.80
   0  -1   1  941.91   43.70
   0  -1   1  742.63   43.90
   0  -1   1  836.92   43.70
   0  -1   1  704.33   43.70
  -1   1  -1  525.85   28.00
  -1   1  -1  527.95   28.60
  -1   1  -1  497.65   28.00
  -1   1  -1  525.15   29.00
   1  -1   1  512.45   28.00
   1  -1   1  524.25   28.00
   1  -1   1  535.65   28.40
   1  -1   1  517.25   28.00
   1  -1   1  573.14   29.00
  -2   1  -1   51.69    6.30
  -2   1  -1   59.29    4.20
  -2   1  -1   48.20    5.60
  -2   1  -1   51.59    3.10
   2  -1   1   65.79    6.00
   2  -1   1   54.69    3.90
   2  -1   1   51.39    3.60
   2  -1   1   59.19    3.20
   2  -1   1   53.39    3.10
   2  -1   1   54.89    4.50
   2  -1   1   47.10    3.40
   2  -1   1   48.20    5.60
   2  -1   1   61.89    3.80
  -3   1  -1  706.53   39.00
  -3   1  -1  638.94   40.90
  -3   1  -1  648.14   40.40
  -3   1  -1  715.33   38.20
   3  -1   1  719.33   38.90
   3  -1   1  676.73   38.30
   3  -1   1  820.42   41.00
   3  -1   1  710.63   38.00
   3  -1   1  726.93   38.40
   3  -1   1  815.22   40.50
   3  -1   1  730.93   38.20
   3  -1   1  745.43   38.70
   3  -1   1  671.53   38.40
  -4   1  -1   14.80    2.50
  -4   1  -1   16.20    3.60
  -4   1  -1   12.20    6.50
   4  -1   1   12.40    2.30
   4  -1   1   16.50    4.40
   4  -1   1   24.70    3.60
   4  -1   1   19.90    5.60
   4  -1   1   19.50    2.50
   4  -1   1   13.70    2.10
   4  -1   1   11.40    2.40
  -5   1  -1  148.59    9.70
  -5   1  -1  148.89   12.20
  -5   1  -1  121.19   17.90
   5  -1   1  172.28   13.00
   5  -1   1  146.79    9.80
   5  -1   1  135.29    9.30
   5  -1   1  141.19    9.20
   5  -1   1  142.29    9.50
  -6   1  -1   24.20    6.40
  -6   1  -1   35.10    4.90
   6  -1   1   16.40    5.40
   6  -1   1   33.00    9.40
   6  -1   1   19.10    3.40
   6  -1   1   18.80    3.90
   6  -1   1   23.70    3.80
  -7   1  -1    2.30   13.00
  -7   1  -1    0.80    5.60
  -7   1  -1   -1.30    6.90
   7  -1   1   -6.00    9.00
   7  -1   1    5.90    3.50
   7  -1   1   -1.00    3.80
   7  -1   1   13.90    6.10
   7  -1   1    1.10    4.10
  -8   1  -1   90.99   10.50
  -8   1  -1   66.09   12.90
   8  -1   1   77.29   10.30
   8  -1   1   98.89   14.80
   8  -1   1   92.89   10.10
   9   0  -1   40.20    6.30
   9   0  -1   68.19   10.80
   9   0  -1   49.90   13.50
   9   0  -1   45.00    7.80
  -9   0   1   12.40   14.60
  -9   0   1   57.59   15.70
  -9   0   1   81.19   13.20
  -9   0   1   28.50   10.40
   8   0  -1    5.80    3.90
   8   0  -1    2.00    5.20
   8   0  -1    7.10    5.50
   8   0  -1    3.10   10.80
  -8   0   1    3.10   10.20
  -8   0   1   -3.70    7.70
  -8   0   1   -6.00   10.50
  -8   0   1   -5.50   11.90
  -8   0   1  -16.00   10.20
   7   0  -1  108.99   11.80
   7   0  -1  107.89    9.70
  -7   0   1   83.29   12.90
   6   0  -1    2.60    2.90
   6   0  -1    2.30    3.70
   6   0  -1    6.90    4.50
   6   0  -1   14.10    6.00
   6   0  -1   -3.40    8.50
  -6   0   1   -1.90    4.90
  -6   0   1   -2.00    5.70
  -6   0   1    0.00    7.20
  -6   0   1   -0.10    6.30
  -6   0   1   -1.00    9.50
   5   0  -1  354.86   20.80
   5   0  -1  338.97   19.60
   5   0  -1  363.16   22.70
  -5   0   1  321.07   20.90
  -5   0   1  338.37   22.30
  -5   0   1  317.87   20.60
   4   0  -1   60.69    7.10
   4   0  -1   51.49    7.70
   4   0  -1   56.99    5.20
   4   0  -1   52.89    5.40
  -4   0   1   50.29    7.00
  -4   0   1   53.59    8.10
  -4   0   1   41.10    7.40
  -4   0   1   46.30    6.40
  -4   0   1   60.79    8.70
   3   0  -1  290.47   15.50
   3   0  -1  247.78   14.30
   3   0  -1  300.77   17.80
   3   0  -1  278.17   15.30
   3   0  -1  254.17   14.30
  -3   0   1  243.98   15.40
  -3   0   1  226.68   14.70
  -3   0   1  229.88   17.30
  -3   0   1  213.88   16.20
  -3   0   1  214.08   14.70
   2   0  -1 1274.17   59.99
   2   0  -1 1058.69   59.39
   2   0  -1 1265.77   61.09
   2   0  -1 1193.68   59.59
  -2   0   1 1058.69   59.59
  -2   0   1  952.50   60.19
  -2   0   1 1026.40   59.99
   1   0  -1  871.91   45.00
   1   0  -1  843.62   45.00
   1   0  -1  931.11   45.70
   1   0  -1  946.41   45.30
  -1   0   1  790.82   45.30
  -1   0   1  848.12   45.60
  -1   0   1  770.52   45.00
  -1   0   1  772.12   45.20
  -1   0  -1  330.07   16.60
  -1   0  -1  315.67   16.60
  -1   0  -1  287.57   17.30
  -1   0  -1  262.87   17.30
  -1   0  -1  325.27   16.80
   1   0   1  330.07   16.60
   1   0   1  277.27   17.30
   1   0   1  326.47   16.70
   1   0   1  329.07   16.60
   1   0   1  318.07   17.20
   1   0   1  333.07   16.70
  -2   0  -1  371.76   20.30
  -2   0  -1  314.37   21.70
  -2   0  -1  327.47   21.30
  -2   0  -1  380.56   19.90
   2   0   1  385.06   20.20
   2   0   1  356.66   20.30
   2   0   1  377.76   20.70
   2   0   1  387.76   19.90
   2   0   1  372.66   20.90
   2   0   1  382.06   20.00
   2   0   1  383.06   19.90
  -3   0  -1  782.72   49.50
  -3   0  -1  802.22   47.50
  -3   0  -1  737.83   48.90
  -3   0  -1  924.01   46.90
  -3   0  -1  945.91   47.60
   3   0   1  788.22   49.30
   3   0   1  973.80   47.30
   3   0   1  920.81   46.90
   3   0   1  915.41   47.00
   3   0   1  907.81   46.60
   3   0   1  961.80   48.30
   3   0   1  871.31   47.50
   3   0   1  920.01   46.80
  -4   0  -1   22.00    3.80
  -4   0  -1   14.90    6.40
  -4   0  -1   17.10    2.70
  -4   0  -1    9.40    4.90
  -4   0  -1   13.20    2.30
  -4   0  -1    7.20    3.70
   4   0   1   11.70    1.80
   4   0   1    8.70    3.30
   4   0   1    8.60    2.30
   4   0   1   14.50    4.20
   4   0   1   13.30    2.30
   4   0   1    8.30    5.20
   4   0   1   11.30    2.00
  -5   0  -1  715.03   39.20
  -5   0  -1  853.91   45.50
  -5   0  -1  740.33   40.90
  -5   0  -1  707.23   39.50
   5   0   1  783.62   41.20
   5   0   1  699.73   38.80
   5   0   1  750.02   40.50
   5   0   1  706.63   39.20
   5   0   1  717.63   39.50
   5   0   1  657.43   44.00
   5   0   1  666.83   39.10
  -6   0  -1    0.70    5.80
  -6   0  -1    3.50    4.20
  -6   0  -1    4.50    3.60
  -6   0  -1   14.90    6.30
  -6   0  -1   -5.30   11.20
   6   0   1    3.00    4.80
   6   0   1    0.40    3.90
   6   0   1    2.60    2.60
   6   0   1    3.60    2.80
   6   0   1   -5.20    7.50
   6   0   1    5.30    2.70
  -7   0  -1  258.47   18.20
  -7   0  -1  246.38   16.20
  -7   0  -1  267.97   21.50
  -7   0  -1  255.17   18.10
   7   0   1  243.18   15.20
   7   0   1  255.57   15.90
   7   0   1  308.97   26.80
   7   0   1  259.07   18.90
   7   0   1  271.17   18.70
   7   0   1  247.78   15.80
  -8   0  -1   27.30    9.80
  -8   0  -1   69.59   17.40
  -8   0  -1   26.50    9.20
   8   0   1   26.70    7.90
   8   0   1   28.40    5.00
   8   0   1   28.70    4.50
   8   0   1   26.10   12.30
   8   0   1   29.40    5.60
   8   0   1   38.70    9.90
  -9   0  -1   17.10   13.00
  -9   0  -1  -15.20   11.50
  -9   0  -1   27.00   17.00
   9   0   1   19.80    8.60
   9   0   1   13.90    6.10
   9   0   1    5.90   13.20
   8  -1  -1    4.40    5.90
   8  -1  -1   19.00    7.80
   8  -1  -1   -0.10    9.90
   8  -1  -1    0.60    4.40
  -8   1   1    4.20    9.40
  -8   1   1    6.70   10.60
  -8   1   1   -9.90   11.20
   7  -1  -1    0.20    4.50
   7  -1  -1   20.30    6.50
   7  -1  -1    1.60    4.50
   7  -1  -1    4.10    8.90
   7  -1  -1    5.20    3.70
  -7   1   1   -8.20    7.80
  -7   1   1   -0.70    5.60
  -7   1   1    6.90    9.50
  -7   1   1   -0.90    9.10
  -7   1   1    0.60    7.90
   6  -1  -1  198.48   12.60
   6  -1  -1  188.08   11.90
   6  -1  -1  204.58   15.10
  -6   1   1  157.88   14.90
  -6   1   1  143.99   17.30
  -6   1   1  157.28   13.20
   5  -1  -1   29.90    5.60
   5  -1  -1   24.10    3.50
   5  -1  -1   31.20    4.30
   5  -1  -1   37.30    7.60
  -5   1   1   27.30   10.10
  -5   1   1   26.10    6.40
  -5   1   1   38.60    7.70
  -5   1   1   19.80    4.50
  -5   1   1   14.60    5.90
  -5   1   1   16.10    4.70
   4  -1  -1  332.07   18.10
   4  -1  -1  340.67   18.40
   4  -1  -1  299.87   17.80
   4  -1  -1  361.16   20.40
  -4   1   1  275.17   18.20
  -4   1   1  261.37   21.60
   3  -1  -1  913.01   46.70
   3  -1  -1  901.51   46.60
   3  -1  -1  918.81   46.70
   3  -1  -1  953.40   48.30
  -3   1   1  849.61   46.70
  -3   1   1  773.22   48.60
  -3   1   1  744.13   47.00
  -3   1   1  880.71   47.40
   2  -1  -1  239.98   12.40
   2  -1  -1  239.88   12.30
   2  -1  -1  201.48   12.40
  -2   1   1  225.28   12.90
  -2   1   1  177.98   13.80
  -2   1   1  203.98   12.00
  -2   1   1  185.48   12.50
  -2   1   1  212.58   12.50
  -2   1   1  230.88   12.00
   1  -1  -1   65.49    4.20
   1  -1  -1   71.59    4.40
   1  -1  -1   70.19    5.40
   1  -1  -1   65.89    4.30
   1  -1  -1   66.99    4.10
  -1   1   1   63.29    4.30
  -1   1   1   67.69    4.40
  -1   1   1   67.69    4.30
  -1   1   1   60.29    5.40
  -1   1   1   68.39    4.30
   0  -1  -1  654.13   33.00
   0  -1  -1  643.84   33.00
   0  -1  -1  611.34   33.20
   0  -1  -1  558.64   32.90
   0  -1  -1  671.93   33.00
   0   1   1  605.44   33.00
   0   1   1  648.54   32.90
   0   1   1  665.43   33.00
   0   1   1  547.65   33.00
  -1  -1  -1  882.71   45.90
  -1  -1  -1  850.11   46.20
  -1  -1  -1  866.01   45.90
  -1  -1  -1  841.12   45.90
  -1  -1  -1  803.12   46.10
  -1  -1  -1  881.31   45.90
  -1  -1  -1  857.41   46.00
   1   1   1  845.82   46.10
   1   1   1  896.31   46.20
   1   1   1  895.91   45.90
   1   1   1  921.61   46.00
   1   1   1  848.52   45.90
   1   1   1  865.01   46.00
   1   1   1  888.01   45.90
  -2  -1  -1 4136.59  218.28
  -3  -1  -1   -0.40    1.60
  -3  -1  -1   -0.30    1.50
  -3  -1  -1    3.90    2.60
  -3  -1  -1    2.00    1.90
  -3  -1  -1    0.30    1.70
  -3  -1  -1    2.70    2.30
   3   1   1    2.80    1.60
   3   1   1    1.30    2.60
   3   1   1    2.60    1.40
   3   1   1   -0.80    1.30
   3   1   1   -1.20    1.80
  -4  -1  -1  719.03   41.30
  -4  -1  -1  780.22   41.40
  -4  -1  -1  728.53   43.20
  -4  -1  -1  776.12   41.80
  -4  -1  -1  710.43   41.20
   4   1   1  804.02   41.00
   4   1   1  776.92   40.50
   4   1   1  788.72   41.30
   4   1   1  784.82   42.10
   4   1   1  775.62   41.00
   4   1   1  754.82   41.80
  -5  -1  -1  242.78   16.30
  -5  -1  -1  255.07   15.30
  -5  -1  -1  237.58   15.20
  -5  -1  -1  250.57   15.50
  -5  -1  -1  270.07   19.40
   5   1   1  249.18   13.50
   5   1   1  243.88   14.90
   5   1   1  253.27   14.40
   5   1   1  237.58   16.10
   5   1   1  233.08   20.80
   5   1   1  257.97   14.50
  -6  -1  -1   47.90    9.20
  -6  -1  -1   49.60   12.40
  -6  -1  -1   39.40    8.50
  -6  -1  -1   55.49    7.80
  -6  -1  -1   56.19    6.50
  -6  -1  -1   43.90    5.70
   6   1   1   41.80    5.70
   6   1   1   31.20   10.50
   6   1   1   44.60    5.40
   6   1   1   45.80    7.90
   6   1   1   32.80    6.30
  -7  -1  -1   15.60    5.80
  -7  -1  -1   17.00    7.50
  -7  -1  -1   29.10    6.80
  -7  -1  -1   43.40   14.40
  -7  -1  -1   27.80    9.00
   7   1   1   15.40    5.20
   7   1   1   20.10    3.70
   7   1   1   -6.80    9.70
   7   1   1   17.40    4.00
   7   1   1   19.30    6.50
  -8  -1  -1    1.00    8.30
  -8  -1  -1   -3.00    8.40
  -8  -1  -1    4.10    9.20
  -8  -1  -1   -1.50    7.00
  -8  -1  -1   -8.10   15.00
   8   1   1    5.60    7.00
   8   1   1  -20.40   10.70
   8   1   1   -0.20    3.70
   8   1   1    0.00    4.20
  -9  -1  -1    5.20   12.40
  -9  -1  -1   -8.90   16.40
  -9  -1  -1   -4.00   11.40
  -9  -1  -1   -6.20    9.60
  -9  -1  -1   -5.30    8.60
   9   1   1  -16.80   12.50
   9   1   1    5.00    5.90
   9   1   1    4.60    8.40
   8  -2  -1   13.70   11.20
   8  -2  -1    5.70    7.00
   8  -2  -1   18.30    6.20
   8  -2  -1   21.20    7.80
   8  -2  -1   14.30    7.30
  -8   2   1   17.10   11.30
   7  -2  -1   46.40    7.40
   7  -2  -1   31.30    7.50
   7  -2  -1   28.30    5.10
   7  -2  -1   39.10   10.60
   7  -2  -1   28.50    7.00
  -7   2   1   31.60    8.90
  -7   2   1   23.90   10.70
   6  -2  -1  219.88   15.10
   6  -2  -1  226.98   15.00
   6  -2  -1  238.68   19.80
   6  -2  -1  200.28   13.80
   6  -2  -1  209.08   16.80
  -6   2   1  238.28   25.30
  -6   2   1  158.18   18.70
  -6   2   1  173.28   16.10
   5  -2  -1   18.80    6.40
   5  -2  -1   10.90    4.60
  -5   2   1   21.30    5.30
  -5   2   1   11.10    8.90
  -5   2   1   22.40    6.40
   4  -2  -1  513.05   30.10
   4  -2  -1  580.64   28.60
   4  -2  -1  489.55   27.80
  -4   2   1  469.65   28.40
  -4   2   1  492.15   27.60
  -4   2   1  492.05   32.40
  -4   2   1  501.45   29.40
  -4   2   1  482.75   27.70
   3  -2  -1 1323.47   71.79
   3  -2  -1 1403.56   71.09
   3  -2  -1 1364.26   71.39
   3  -2  -1 1392.66   70.99
   3  -2  -1 1519.65   71.89
  -3   2   1 1320.57   71.69
  -3   2   1 1360.36   71.39
  -3   2   1 1230.48   71.69
  -3   2   1 1215.28   74.09
  -3   2   1 1286.27   71.39
  -3   2   1 1346.57   72.29
   2  -2  -1   16.70    2.70
   2  -2  -1   22.50    3.30
   2  -2  -1   16.80    2.50
   2  -2  -1   12.60    2.30
   2  -2  -1   10.50    2.40
  -2   2   1   12.90    2.60
  -2   2   1   11.10    2.50
  -2   2   1   20.30    3.30
  -2   2   1    9.90    4.30
  -2   2   1   14.10    2.60
   1  -2  -1  193.18   10.80
   1  -2  -1  195.68   12.50
   1  -2  -1  198.78   10.70
   1  -2  -1  194.08   10.60
   1  -2  -1  196.78   10.80
  -1   2   1  189.38   11.20
  -1   2   1  172.38   12.20
  -1   2   1  193.78   10.70
  -1   2   1  188.98   10.80
  -1   2   1  190.68   10.70
   0  -2  -1  601.14   32.00
   0  -2  -1  593.84   32.30
   0  -2  -1  608.04   31.90
   0  -2  -1  610.84   32.10
   0  -2  -1  605.54   32.10
   0   2   1  553.34   32.00
   0   2   1  605.54   32.10
   0   2   1  621.44   32.50
   0   2   1  625.44   32.10
   0   2   1  609.84   31.90
   0   2   1  588.44   32.00
  -1  -2  -1 1545.15   80.49
  -1  -2  -1 1627.24   80.89
  -1  -2  -1 1519.85   80.29
  -1  -2  -1 1547.15   80.49
  -1  -2  -1 1287.17   80.69
   1   2   1 1562.34   80.79
   1   2   1 1507.35   80.59
   1   2   1 1541.05   80.29
   1   2   1 1492.95   80.49
   1   2   1 1549.74   80.29
  -2  -2  -1  131.49    7.70
  -2  -2  -1  139.69    7.80
  -2  -2  -1  137.59    8.10
  -2  -2  -1  118.89    7.80
  -2  -2  -1  144.59    8.60
  -2  -2  -1  118.99    8.90
   2   2   1  141.39    8.00
   2   2   1  139.29    7.70
   2   2   1  130.69    8.00
   2   2   1  132.29    8.00
   2   2   1  142.99    7.80
   2   2   1  122.59    7.80
  -3  -2  -1 1406.66   80.39
  -3  -2  -1 1511.45   80.29
  -3  -2  -1 1518.65   80.69
  -3  -2  -1 1526.45   80.49
  -3  -2  -1 1517.45   81.19
  -3  -2  -1 1526.85   80.59
   3   2   1 1535.75   80.19
   3   2   1 1526.85   80.59
   3   2   1 1520.75   80.29
   3   2   1 1553.04   80.29
   3   2   1 1532.65   80.19
   3   2   1 1483.35   81.59
  -4  -2  -1 1191.78   64.89
  -4  -2  -1 1246.48   65.09
  -4  -2  -1 1102.69   64.99
  -4  -2  -1 1224.38   65.19
  -4  -2  -1 1198.18   66.19
  -4  -2  -1 1155.18   64.69
   4   2   1 1242.78   64.29
   4   2   1 1270.67   64.59
   4   2   1 1179.58   65.19
   4   2   1 1284.57   64.79
   4   2   1 1223.78   64.59
  -5  -2  -1  126.09   10.30
  -5  -2  -1  127.19   12.20
  -5  -2  -1  124.99    9.20
  -5  -2  -1  128.29    9.70
  -5  -2  -1   97.89   10.30
  -5  -2  -1  137.79   10.70
   5   2   1  124.49   15.40
   5   2   1  101.89   10.60
   5   2   1  140.89    8.70
   5   2   1  118.99   10.50
   5   2   1  128.89    7.70
  -6  -2  -1   40.10    6.10
  -6  -2  -1   39.50    6.20
  -6  -2  -1   32.30    6.00
  -6  -2  -1   64.59    9.40
  -6  -2  -1   34.60    7.20
  -6  -2  -1   37.30    5.00
  -6  -2  -1   54.49   10.90
   6   2   1   25.50    6.10
   6   2   1   39.40    5.30
   6   2   1   34.80    3.90
   6   2   1   39.50    5.80
   6   2   1   42.40    6.20
   6   2   1   15.90    8.70
  -7  -2  -1   79.29   14.60
  -7  -2  -1   50.49    8.70
  -7  -2  -1   45.50    7.60
  -7  -2  -1   46.80    8.20
  -7  -2  -1   60.19    9.40
   7   2   1   45.90    6.10
   7   2   1   40.50    7.70
   7   2   1   41.60    5.20
   7   2   1   17.60   11.20
   7   2   1   42.80    7.00
  -8  -2  -1   44.00   15.70
  -8  -2  -1   19.80    9.10
  -8  -2  -1    8.20    8.10
  -8  -2  -1   12.30    8.90
  -8  -2  -1   26.20    7.10
   8   2   1   18.80    5.20
   8   2   1   20.60    4.30
   8   2   1   14.30    7.80
   8   2   1   -2.60   12.50
  -9  -2  -1   20.50   17.20
  -9  -2  -1    6.60   10.70
  -9  -2  -1   19.80   10.40
  -9  -2  -1   24.40   10.00
  -9  -2  -1   11.30   15.60
   9   2   1   10.20    9.20
   9   2   1   14.30    6.10
   8  -3  -1   26.20    9.20
   8  -3  -1   54.79    9.00
   8  -3  -1   23.80    8.20
   8  -3  -1   33.80   12.40
   8  -3  -1   15.80    9.30
  -8   3   1   33.50   14.80
  -8   3   1   -4.00   13.40
   7  -3  -1  135.69   14.50
   7  -3  -1  126.29   12.90
   7  -3  -1  163.28   19.90
   7  -3  -1  150.18   13.40
  -7   3   1  151.68   29.30
  -7   3   1   97.39   12.30
   6  -3  -1   -1.70    5.80
   6  -3  -1    0.20    4.50
   6  -3  -1    0.40    6.90
   6  -3  -1    5.30    4.20
  -6   3   1    9.90    8.00
  -6   3   1    3.60   11.30
  -6   3   1    2.00    6.40
   5  -3  -1  222.88   15.40
   5  -3  -1  212.78   13.80
   5  -3  -1  208.28   17.90
   5  -3  -1  188.28   15.10
  -5   3   1  215.18   15.30
  -5   3   1  259.27   23.40
  -5   3   1  223.08   17.60
   4  -3  -1 1598.84   79.59
   4  -3  -1 1357.06   78.69
   4  -3  -1 1423.06   78.49
   4  -3  -1 1499.45   79.49
   4  -3  -1 1393.26   79.29
  -4   3   1 1461.25   80.29
  -4   3   1 1496.95   83.69
  -4   3   1 1426.56   79.09
  -4   3   1 1663.23   79.49
   3  -3  -1  153.88    9.00
   3  -3  -1  144.69   10.10
   3  -3  -1  156.48   10.00
   3  -3  -1  137.89   10.60
   3  -3  -1  156.58    9.20
   3  -3  -1  167.18    9.40
  -3   3   1  126.59   14.40
  -3   3   1  155.08    9.90
  -3   3   1  162.28   11.00
  -3   3   1  146.09   10.60
  -3   3   1  151.68    8.80
  -3   3   1  132.39    9.10
   2  -3  -1  182.28   10.40
   2  -3  -1  166.18   10.20
   2  -3  -1  163.18   10.10
   2  -3  -1  169.88   10.20
   2  -3  -1  173.58   10.00
  -2   3   1  153.48   13.70
  -2   3   1  178.08   11.20
  -2   3   1  169.18    9.80
  -2   3   1  166.58   10.10
  -2   3   1  175.88   10.60
   1  -3  -1    3.70    1.50
   1  -3  -1    3.00    2.10
   1  -3  -1    2.50    1.90
   1  -3  -1    5.10    1.60
  -1   3   1    5.80    1.60
  -1   3   1    2.20    3.60
  -1   3   1    1.40    2.70
  -1   3   1    5.40    1.60
  -1   3   1    8.50    1.40
  -1   3   1    4.60    1.40
   0  -3  -1  486.65   25.60
   0  -3  -1  481.35   25.70
   0  -3  -1  475.25   25.50
   0  -3  -1  483.95   26.10
   0  -3  -1  483.85   25.70
   0   3   1  439.86   25.60
   0   3   1  480.85   25.70
   0   3   1  480.35   25.80
   0   3   1  470.15   25.20
   0   3   1  478.45   25.70
   0   3   1  476.35   26.40
   0   3   1  477.25   25.50
  -1  -3  -1   73.99    5.00
  -1  -3  -1   76.39    4.50
  -1  -3  -1   73.69    5.90
  -1  -3  -1   72.29    5.20
  -1  -3  -1   77.29    5.10
  -1  -3  -1   77.89    5.90
   1   3   1   73.89    5.00
   1   3   1   79.79    5.00
   1   3   1   78.39    6.00
   1   3   1   76.49    4.70
   1   3   1   76.89    4.60
  -2  -3  -1  884.81   49.70
  -2  -3  -1  960.10   48.80
  -2  -3  -1  937.31   49.40
  -2  -3  -1  863.81   49.20
  -2  -3  -1  876.11   49.10
  -2  -3  -1  953.50   49.80
   2   3   1  915.71   48.80
   2   3   1  900.21   49.40
   2   3   1  906.11   49.20
   2   3   1  959.50   49.99
   2   3   1  936.81   49.10
   2   3   1  951.80   49.30
  -3  -3  -1 2591.44  135.09
  -3  -3  -1 2688.83  135.99
  -3  -3  -1 2675.53  135.19
  -3  -3  -1 2471.85  135.49
  -3  -3  -1 2543.45  134.59
  -3  -3  -1 2573.34  135.79
  -3  -3  -1 2445.86  135.29
   3   3   1 2535.55  136.29
   3   3   1 2633.94  135.09
   3   3   1 2493.95  135.19
   3   3   1 2513.95  135.39
   3   3   1 2517.95  134.99
   3   3   1 2536.65  135.19
  -4  -3  -1  885.21   45.70
  -4  -3  -1  820.62   46.40
  -4  -3  -1  868.91   45.90
  -4  -3  -1  818.02   46.10
  -4  -3  -1  805.12   45.90
  -4  -3  -1  855.51   46.80
   4   3   1  857.31   45.50
   4   3   1  828.52   46.10
   4   3   1  867.61   45.40
   4   3   1  826.62   45.50
   4   3   1  817.92   47.70
   4   3   1  881.71   45.70
  -5  -3  -1   19.50    4.70
  -5  -3  -1   17.30    4.80
  -5  -3  -1   12.50    5.20
  -5  -3  -1   20.00    5.40
  -5  -3  -1   13.00    3.00
  -5  -3  -1   16.90    4.20
   5   3   1   14.70    2.90
   5   3   1   16.10    6.20
   5   3   1   18.00    3.20
   5   3   1   20.20    4.80
   5   3   1   10.30    2.70
  -6  -3  -1    7.50    5.60
  -6  -3  -1    9.60    5.70
  -6  -3  -1    6.20    4.70
  -6  -3  -1    6.20    5.60
  -6  -3  -1    4.30    5.60
  -6  -3  -1    7.80    3.50
   6   3   1    6.50    2.70
   6   3   1   -1.00    6.60
   6   3   1    8.90    2.60
   6   3   1   15.50    3.50
   6   3   1    0.80    4.70
  -7  -3  -1    1.10    4.30
  -7  -3  -1   -3.00    6.50
  -7  -3  -1    3.70    7.10
  -7  -3  -1    6.10    6.50
   7   3   1    1.60    2.80
   7   3   1    8.40    3.40
   7   3   1   -2.80    9.80
   7   3   1   -1.90    4.40
   7   3   1   -2.50    3.80
   7   3   1   -3.70    5.90
  -8  -3  -1   35.00    9.80
  -8  -3  -1   46.80    9.80
  -8  -3  -1   51.59    7.40
  -8  -3  -1   47.70   14.20
   8   3   1   41.90    6.20
   8   3   1   52.09    7.10
   8   3   1   40.30    8.90
   8   3   1   37.00   15.10
  -9  -3  -1   41.00   12.00
  -9  -3  -1   94.69   19.30
  -9  -3  -1   48.80   14.30
  -9  -3  -1   54.29    9.40
   9   3   1   28.10   16.90
   9   3   1   33.70   10.10
   9   3   1   43.20    7.40
   7  -4  -1    8.30    5.90
   7  -4  -1   -1.60    8.60
   7  -4  -1    1.30    8.00
   7  -4  -1    3.80    9.50
   7  -4  -1   -1.60    7.80
  -7   4   1    1.40   11.20
  -7   4   1    2.50   15.50
  -7   4   1    9.10    8.20
   6  -4  -1  315.57   19.70
   6  -4  -1  216.08   19.30
   6  -4  -1  294.57   23.60
   6  -4  -1  255.27   17.40
  -6   4   1  326.97   30.60
  -6   4   1  242.88   18.60
  -6   4   1  242.18   23.20
   5  -4  -1  560.34   32.40
   5  -4  -1  557.44   34.80
   5  -4  -1  541.75   30.00
   5  -4  -1  533.85   30.30
   5  -4  -1  505.05   30.80
  -5   4   1  663.73   40.40
  -5   4   1  567.74   31.90
  -5   4   1  555.84   34.20
   4  -4  -1  313.87   18.70
   4  -4  -1  315.57   18.20
   4  -4  -1  328.47   18.50
   4  -4  -1  328.17   20.00
   4  -4  -1  291.07   19.60
  -4   4   1  332.77   21.10
  -4   4   1  364.36   26.90
  -4   4   1  339.97   20.90
   3  -4  -1   97.49    7.00
   3  -4  -1   94.19    7.10
   3  -4  -1  107.19   13.50
   3  -4  -1   88.29    7.70
   3  -4  -1   86.19    6.90
   3  -4  -1   92.19    7.90
  -3   4   1   71.59    9.90
  -3   4   1   91.89    7.50
  -3   4   1  109.19    8.80
   2  -4  -1   11.40    2.90
   2  -4  -1   18.20    2.80
   2  -4  -1   17.10    3.10
   2  -4  -1   20.10    7.00
   2  -4  -1   24.10    3.90
  -2   4   1   18.30    2.80
  -2   4   1   19.50    3.00
  -2   4   1   16.80    2.30
  -2   4   1   20.80    2.70
  -2   4   1   13.00    4.50
  -2   4   1   12.90    6.50
   1  -4  -1   19.50    2.60
   1  -4  -1   29.90    4.10
   1  -4  -1   28.90    3.60
   1  -4  -1   22.70    3.40
   1  -4  -1   28.00    3.40
  -1   4   1   22.30    3.30
  -1   4   1   26.40    3.40
  -1   4   1   28.30    3.10
  -1   4   1   24.30    4.40
  -1   4   1   20.10    2.60
  -1   4   1   23.60    5.80
  -1   4   1   25.80    3.50
   0  -4  -1  271.37   15.10
   0  -4  -1  263.57   15.00
   0  -4  -1  256.17   14.70
   0  -4  -1  271.47   15.70
   0  -4  -1  266.77   14.80
   0   4   1  255.47   17.20
   0   4   1  257.97   15.10
   0   4   1  270.97   15.00
   0   4   1  265.97   16.20
   0   4   1  267.47   14.90
   0   4   1  280.47   14.70
  -1  -4  -1    8.50    2.20
  -1  -4  -1    6.60    2.60
  -1  -4  -1    8.20    1.90
  -1  -4  -1    5.40    1.90
  -1  -4  -1   13.70    2.60
  -1  -4  -1   12.70    1.90
   1   4   1    6.70    2.90
   1   4   1    9.00    2.00
   1   4   1    8.30    1.80
   1   4   1    6.40    1.80
   1   4   1    9.10    2.00
  -2  -4  -1 4357.56  228.68
  -2  -4  -1 4601.54  229.48
  -2  -4  -1 4089.29  228.68
  -2  -4  -1 4310.17  228.88
  -2  -4  -1 4395.36  229.38
   2   4   1 4301.77  229.08
   2   4   1 4344.77  228.38
   2   4   1 4365.06  228.78
   2   4   1 4249.27  228.58
   2   4   1 4335.27  228.78
  -3  -4  -1 1739.83   92.69
  -3  -4  -1 1755.22   91.79
  -3  -4  -1 1664.03   93.19
  -3  -4  -1 1744.73   92.49
  -3  -4  -1 1837.32   93.19
  -3  -4  -1 1772.02   91.99
  -3  -4  -1 1781.42   92.39
   3   4   1 1765.12   92.49
   3   4   1 1677.93   93.49
   3   4   1 1720.13   92.59
   3   4   1 1706.33   92.29
   3   4   1 1699.33   91.89
   3   4   1 1713.43   92.49
  -4  -4  -1  133.89    9.20
  -4  -4  -1  132.49    9.00
  -4  -4  -1  143.99   10.90
  -4  -4  -1  121.39    9.80
  -4  -4  -1  124.59    7.60
  -4  -4  -1  127.59   10.50
  -4  -4  -1  125.09   11.60
   4   4   1  144.29    8.90
   4   4   1  135.49    8.90
   4   4   1  133.49    9.20
   4   4   1  123.49    9.00
   4   4   1  128.89    9.90
   4   4   1  139.19   12.10
  -5  -4  -1   62.49    8.30
  -5  -4  -1   65.39    6.60
  -5  -4  -1   58.39    9.30
  -5  -4  -1   65.09    9.30
  -5  -4  -1   56.79    8.40
  -5  -4  -1   67.79    8.00
   5   4   1   58.39    6.10
   5   4   1   69.79    6.90
   5   4   1   62.59    7.20
   5   4   1   61.39   11.90
   5   4   1   58.19    8.30
   5   4   1   63.39    6.40
  -6  -4  -1    7.00    3.60
  -6  -4  -1    9.80    5.10
  -6  -4  -1    4.40    5.80
  -6  -4  -1    6.20    6.40
  -6  -4  -1    3.70    5.30
  -6  -4  -1   -0.10    5.80
   6   4   1    0.90    4.90
   6   4   1    8.40    3.30
   6   4   1    5.20    3.00
   6   4   1    4.50    5.00
   6   4   1    6.00    3.70
   6   4   1    4.80    7.10
  -7  -4  -1   10.70    6.80
  -7  -4  -1    4.10    7.80
  -7  -4  -1    4.90    7.10
  -7  -4  -1    7.30    7.20
  -7  -4  -1    2.90    4.30
   7   4   1   -4.50   10.10
   7   4   1    5.30    4.50
   7   4   1   -4.40    6.00
   7   4   1    6.90    3.50
   7   4   1   -3.50    6.20
   7   4   1    4.80    3.40
  -8  -4  -1   59.69   11.90
  -8  -4  -1   54.49   10.30
  -8  -4  -1   58.29   11.30
  -8  -4  -1   57.59    7.60
   8   4   1   52.29   10.10
   8   4   1   58.89   10.00
   8   4   1   59.29   10.40
   8   4   1   68.19   10.10
   8   4   1   40.80   15.30
  -9  -4  -1  255.47   26.10
  -9  -4  -1  235.58   29.70
  -9  -4  -1  227.98   19.80
  -9  -4  -1  236.28   25.20
   9   4   1  227.18   22.60
   9   4   1  190.58   25.80
   6  -5  -1  192.38   14.80
   6  -5  -1  192.48   21.40
  -6   5   1  192.98   22.40
  -6   5   1  248.78   33.80
   5  -5  -1  320.27   19.60
   5  -5  -1  344.27   18.90
   5  -5  -1  284.77   22.00
   5  -5  -1  336.47   19.10
  -5   5   1  319.77   19.30
  -5   5   1  327.07   20.60
  -5   5   1  386.16   31.70
  -5   5   1  334.37   24.00
   4  -5  -1  167.18   11.30
   4  -5  -1  157.48   13.00
   4  -5  -1  185.08   11.80
   4  -5  -1  181.78   11.60
  -4   5   1  171.78   22.60
  -4   5   1  184.08   14.80
  -4   5   1  193.48   16.70
  -4   5   1  169.98   11.30
   3  -5  -1   12.80    3.10
   3  -5  -1   11.50    3.50
   3  -5  -1    0.90    6.10
   3  -5  -1    8.90    3.50
   3  -5  -1   12.00    3.50
   3  -5  -1   11.90    3.50
  -3   5   1    0.30    8.70
  -3   5   1   10.10    6.40
  -3   5   1   13.60    3.40
  -3   5   1   18.60    4.30
  -3   5   1   17.10    3.10
   2  -5  -1   65.49    6.00
   2  -5  -1   70.19    7.10
   2  -5  -1   68.29    6.80
   2  -5  -1   64.99    6.40
   2  -5  -1   68.79    6.10
  -2   5   1   67.39    6.00
  -2   5   1   60.19    8.00
  -2   5   1   76.59    6.50
  -2   5   1   69.59    5.70
   1  -5  -1  620.74   33.30
   1  -5  -1  597.24   33.10
   1  -5  -1  605.94   33.70
   1  -5  -1  592.04   33.00
   1  -5  -1  614.74   33.10
  -1   5   1  575.64   36.40
  -1   5   1  634.04   33.10
  -1   5   1  610.44   33.00
  -1   5   1  615.74   34.90
  -1   5   1  632.04   33.00
  -1   5   1  611.24   32.90
  -1   5   1  599.54   33.10
   0  -5  -1   51.39    6.50
   0  -5  -1   39.40    4.50
   0  -5  -1   51.39    4.00
   0  -5  -1   44.60    5.10
   0  -5  -1   47.40    4.60
   0   5   1   46.80    4.60
   0   5   1   54.79    5.20
   0   5   1   50.89    4.10
   0   5   1   34.10    6.30
   0   5   1   50.39    6.90
   0   5   1   45.20    4.50
   0   5   1   47.40    7.40
  -1  -5  -1 2273.37  121.09
  -1  -5  -1 2289.47  120.49
  -1  -5  -1 2243.98  121.79
  -1  -5  -1 2324.77  121.19
  -1  -5  -1 2323.27  120.79
  -1  -5  -1 2307.37  120.99
   1   5   1 2261.97  121.19
   1   5   1 2164.48  120.69
   1   5   1 2283.17  120.99
   1   5   1 2330.57  122.09
   1   5   1 2117.49  120.59
   1   5   1 2520.65  120.69
   1   5   1 2261.57  120.99
  -2  -5  -1 1910.11  106.89
  -2  -5  -1 2026.30  106.29
  -2  -5  -1 2003.10  107.19
  -2  -5  -1 2004.60  107.89
  -2  -5  -1 2091.39  107.89
  -2  -5  -1 2109.59  106.99
   2   5   1 1977.10  106.39
   2   5   1 1982.10  107.69
   2   5   1 1949.20  106.59
   2   5   1 1884.31  106.89
   2   5   1 2050.89  106.89
   2   5   1 2179.68  106.49
   2   5   1 2012.50  107.09
  -3  -5  -1  937.11   49.20
  -3  -5  -1  931.01   50.69
  -3  -5  -1  925.01   49.99
  -3  -5  -1  930.01   49.70
  -3  -5  -1  886.01   50.19
  -3  -5  -1  921.11   51.09
   3   5   1  912.21   49.20
   3   5   1  886.71   49.90
   3   5   1  902.41   49.40
   3   5   1  966.90   49.70
   3   5   1  932.61   49.90
  -4  -5  -1    3.60    2.40
  -4  -5  -1   -1.20    4.10
  -4  -5  -1    0.20    3.80
  -4  -5  -1    1.10    1.90
  -4  -5  -1    1.00    2.60
  -4  -5  -1    0.20    3.20
  -4  -5  -1    1.00    5.20
   4   5   1    2.60    4.30
   4   5   1   -1.10    3.00
   4   5   1    3.50    2.90
   4   5   1    4.10    3.10
   4   5   1    4.60    2.90
   4   5   1    3.20    3.20
  -5  -5  -1   53.99    7.40
  -5  -5  -1   53.59    8.60
  -5  -5  -1   41.80    6.80
  -5  -5  -1   48.50    6.60
  -5  -5  -1   60.19    6.40
  -5  -5  -1   56.29    9.30
  -5  -5  -1   51.29    4.20
   5   5   1   72.09   12.20
   5   5   1   57.09    6.80
   5   5   1   46.40    6.40
   5   5   1   69.59    6.60
   5   5   1   56.49    8.60
   5   5   1   61.19    6.90
  -6  -5  -1   -0.60    7.50
  -6  -5  -1    2.90    5.50
  -6  -5  -1    3.20    3.60
  -6  -5  -1   -7.80    5.70
  -6  -5  -1    2.40    6.10
   6   5   1    0.90    6.80
   6   5   1   -0.40    5.00
   6   5   1   -0.70    3.30
   6   5   1    0.70    4.80
   6   5   1    4.20    6.70
  -7  -5  -1   24.70    9.80
  -7  -5  -1   19.90    8.30
  -7  -5  -1   20.40    8.10
  -7  -5  -1   29.40    7.20
  -7  -5  -1   30.10    5.20
   7   5   1   26.40    5.30
   7   5   1   10.90    7.20
   7   5   1   21.00    4.60
   7   5   1    8.50    9.40
   7   5   1   27.80    7.10
  -8  -5  -1  265.57   24.40
  -8  -5  -1  272.37   21.90
  -8  -5  -1  252.97   23.40
   8   5   1  193.78   17.30
   8   5   1  236.28   21.30
   8   5   1  241.78   17.30
   8   5   1  225.28   19.10
   8   5   1  251.37   15.50
   8   5   1  194.88   29.40
  -9  -5  -1  244.48   31.70
  -9  -5  -1  266.87   27.50
  -9  -5  -1  225.78   25.10
   9   5   1  235.78   19.30
   9   5   1  230.88   23.70
   6  -6  -1  229.18   23.60
   6  -6  -1  180.18   14.90
   6  -6  -1  152.68   17.20
  -6   6   1  213.08   24.60
   5  -6  -1  210.48   19.20
   5  -6  -1  235.08   15.30
   5  -6  -1  230.08   14.80
   5  -6  -1  243.68   15.90
  -5   6   1  249.88   30.30
  -5   6   1  249.38   21.20
   4  -6  -1   16.80    4.80
   4  -6  -1   40.90    7.70
   4  -6  -1   16.20    4.40
   4  -6  -1   -5.00    9.10
   4  -6  -1   22.60    4.30
   4  -6  -1   11.80    5.30
  -4   6   1   20.80   10.40
  -4   6   1   20.50    4.10
  -4   6   1   27.80    6.30
  -4   6   1   26.90    5.50
  -4   6   1   14.80   12.20
   3  -6  -1  159.38   11.70
   3  -6  -1  153.88   10.60
   3  -6  -1  172.88   12.60
   3  -6  -1  149.39   11.20
   3  -6  -1  143.19   11.40
   3  -6  -1  147.39   11.10
  -3   6   1  145.99   10.60
  -3   6   1  138.79   16.90
  -3   6   1  130.49   21.50
  -3   6   1  146.29   10.00
  -3   6   1  155.78   11.80
   2  -6  -1  126.39    9.10
   2  -6  -1  131.69   10.00
   2  -6  -1  127.19   10.10
   2  -6  -1  119.79    9.40
   2  -6  -1  126.39    9.20
  -2   6   1   89.39   17.20
  -2   6   1  125.89    8.90
  -2   6   1  123.99    8.90
  -2   6   1  131.69    8.70
  -2   6   1  122.59   14.70
   1  -6  -1   19.00    3.40
   1  -6  -1   21.40    4.80
   1  -6  -1   19.10    3.80
   1  -6  -1   16.30    3.30
   1  -6  -1   17.90    3.20
  -1   6   1   19.20    3.20
  -1   6   1   16.30    8.50
  -1   6   1   23.90    7.20
  -1   6   1   15.00    3.20
  -1   6   1   24.10    3.30
  -1   6   1   18.90    3.80
   0  -6  -1 1093.19   58.09
   0  -6  -1 1098.09   58.29
   0  -6  -1 1086.99   58.29
   0  -6  -1 1087.19   57.69
   0  -6  -1 1078.89   59.09
   0   6   1 1095.29   60.09
   0   6   1  963.30   60.99
   0   6   1 1141.29   57.99
   0   6   1 1064.09   57.99
   0   6   1 1080.49   58.49
   0   6   1 1134.19   58.29
   0   6   1 1086.19   57.99
  -1  -6  -1 2569.14  134.89
  -1  -6  -1 2527.35  136.49
  -1  -6  -1 2596.14  135.59
  -1  -6  -1 2677.23  135.69
  -1  -6  -1 2643.14  135.29
  -1  -6  -1 2603.34  136.89
  -1  -6  -1 2661.13  135.79
   1   6   1 2324.87  137.49
   1   6   1 2577.74  136.89
   1   6   1 2555.64  135.79
   1   6   1 2460.05  135.39
   1   6   1 2273.77  135.09
   1   6   1 2524.45  135.29
   1   6   1 2758.32  135.19
   1   6   1 2604.94  135.59
  -2  -6  -1 1218.28   64.49
  -2  -6  -1 1202.78   65.29
  -2  -6  -1 1178.18   64.19
  -2  -6  -1 1209.98   63.29
  -2  -6  -1 1240.18   64.19
  -2  -6  -1 1181.28   65.39
  -2  -6  -1 1006.40   65.29
   2   6   1 1231.18   64.09
   2   6   1 1180.78   63.69
   2   6   1 1216.28   65.19
   2   6   1 1197.88   64.39
   2   6   1 1194.38   64.09
   2   6   1 1166.38   63.39
   2   6   1 1276.37   63.59
  -3  -6  -1   16.60    4.40
  -3  -6  -1   17.20    3.10
  -3  -6  -1   16.30    4.10
  -3  -6  -1   17.40    2.00
  -3  -6  -1   21.40    4.20
  -3  -6  -1   18.00    3.10
  -3  -6  -1   15.10    5.50
   3   6   1   22.40    3.60
   3   6   1   18.50    3.90
   3   6   1   23.00    4.00
   3   6   1   10.80    4.10
   3   6   1   21.30    3.10
   3   6   1   24.70    3.80
  -4  -6  -1    3.00    4.60
  -4  -6  -1   -2.50    4.60
  -4  -6  -1    1.50    5.90
  -4  -6  -1   -1.00    3.30
  -4  -6  -1   -1.00    2.30
  -4  -6  -1    0.90    2.30
  -4  -6  -1    2.70    2.90
   4   6   1    1.60    3.10
   4   6   1    2.90    3.40
   4   6   1   -6.20    3.70
   4   6   1    3.10    5.20
   4   6   1    1.10    3.70
   4   6   1    2.30    3.90
   4   6   1    0.40    2.90
  -5  -6  -1   29.10    4.30
  -5  -6  -1   37.10    6.60
  -5  -6  -1   34.40    5.80
  -5  -6  -1   33.50    4.60
  -5  -6  -1   28.20    8.00
  -5  -6  -1   28.00    6.40
  -5  -6  -1   33.90    4.20
   5   6   1   28.20    6.90
   5   6   1   36.60    4.90
   5   6   1   31.20    6.00
   5   6   1   43.10    6.40
   5   6   1   32.00    5.10
   5   6   1   42.30    5.00
  -6  -6  -1   82.29   12.20
  -6  -6  -1  102.39    9.50
  -6  -6  -1  101.39    6.90
  -6  -6  -1  108.49   10.80
  -6  -6  -1   87.29   13.60
  -6  -6  -1  103.79   14.30
   6   6   1  113.39   17.60
   6   6   1  105.09    9.40
   6   6   1  105.09    9.80
   6   6   1  109.69    9.50
   6   6   1  107.79   10.30
   6   6   1  100.09   12.50
  -7  -6  -1  298.67   26.50
  -7  -6  -1  311.27   21.40
  -7  -6  -1  309.17   24.50
  -7  -6  -1  314.57   24.30
   7   6   1  302.37   19.00
   7   6   1  321.07   19.70
   7   6   1  275.27   22.60
   7   6   1  299.97   28.40
   7   6   1  290.47   20.40
  -8  -6  -1  511.95   32.90
  -8  -6  -1  462.85   30.00
  -8  -6  -1  508.15   35.40
  -8  -6  -1  502.25   36.10
   8   6   1  509.95   30.30
   8   6   1  505.75   34.80
   8   6   1  508.25   29.10
   8   6   1  482.15   31.30
   8   6   1  424.66   56.59
   5  -7  -1   66.79    9.50
   5  -7  -1   78.99   11.10
   5  -7  -1   73.79   11.80
   5  -7  -1  109.69   14.00
   5  -7  -1   80.09   11.30
  -5   7   1   79.99   20.40
  -5   7   1   77.19   11.80
   4  -7  -1   55.79    8.80
   4  -7  -1   59.99    7.80
   4  -7  -1   76.29   10.50
   4  -7  -1   45.90    8.00
   4  -7  -1   47.40    6.20
  -4   7   1   56.89   17.50
  -4   7   1   48.30    8.00
   3  -7  -1   60.99    8.30
   3  -7  -1   47.00    5.50
   3  -7  -1   47.70    6.30
   3  -7  -1   52.39    7.20
   3  -7  -1   44.80    6.30
   3  -7  -1   44.70    6.20
  -3   7   1   43.70   14.20
  -3   7   1   44.00    5.60
  -3   7   1   41.50    5.80
  -3   7   1   49.90    7.60
  -3   7   1   30.10    6.10
  -3   7   1   46.60   12.50
   2  -7  -1   77.69   12.50
   2  -7  -1  105.59   10.20
   2  -7  -1  106.59    9.70
   2  -7  -1   95.89    8.90
   2  -7  -1  105.79    9.10
  -2   7   1   83.89   15.00
  -2   7   1   97.79    8.50
  -2   7   1  110.09    8.50
  -2   7   1  104.59   17.40
  -2   7   1   91.89    9.00
   1  -7  -1  269.27   16.40
   1  -7  -1  281.17   17.70
   1  -7  -1  278.07   16.40
   1  -7  -1  255.57   15.70
   1  -7  -1  289.27   16.50
  -1   7   1  242.48   23.10
  -1   7   1  241.58   16.40
  -1   7   1  270.77   16.20
  -1   7   1  257.97   15.40
  -1   7   1  282.67   15.90
  -1   7   1  268.57   21.60
  -1   7   1  283.27   16.20
  -1   7   1  268.17   17.30
   0  -7  -1 1618.84   85.79
   0  -7  -1 1689.33   85.89
   0  -7  -1 1618.64   86.59
   0  -7  -1 1608.34   84.89
   0  -7  -1 1627.04   85.59
   0   7   1 1567.54   85.39
   0   7   1 1637.94   85.29
   0   7   1 1601.74   85.69
   0   7   1 1440.36   89.09
   0   7   1 1613.24   88.19
   0   7   1 1670.33   85.39
   0   7   1 1528.85   85.89
  -1  -7  -1 1685.23   87.79
  -1  -7  -1 1610.74   86.69
  -1  -7  -1 1614.04   88.79
  -1  -7  -1 1630.44   87.79
  -1  -7  -1 1661.73   87.39
  -1  -7  -1 1649.93   87.89
  -1  -7  -1 1681.43   89.29
   1   7   1 1646.84   89.49
   1   7   1 1729.73   87.19
   1   7   1 1638.34   87.29
   1   7   1 1627.34   87.39
   1   7   1 1686.83   87.69
   1   7   1 1622.34   88.09
   1   7   1 1458.05   90.39
  -2  -7  -1  217.88   14.10
  -2  -7  -1  217.18   15.30
  -2  -7  -1  216.58   14.70
  -2  -7  -1  212.78   16.60
  -2  -7  -1  214.28   13.50
  -2  -7  -1  219.58   12.20
  -2  -7  -1  216.38   13.60
   2   7   1  232.28   13.00
   2   7   1  222.68   13.40
   2   7   1  185.68   12.80
   2   7   1  212.48   16.50
   2   7   1  231.48   13.60
   2   7   1  182.88   18.90
   2   7   1  214.78   13.80
  -3  -7  -1    2.80    5.80
  -3  -7  -1   -4.30    2.80
  -3  -7  -1    1.30    4.60
  -3  -7  -1    1.20    2.70
  -3  -7  -1   -0.20    4.00
  -3  -7  -1   -0.90    4.30
   3   7   1   -2.00    4.60
   3   7   1   -0.40    3.50
   3   7   1   -0.10    2.90
   3   7   1    1.80    3.90
   3   7   1    3.90    3.20
   3   7   1    4.20    3.80
  -4  -7  -1    5.80    5.70
  -4  -7  -1    5.70    7.10
  -4  -7  -1   10.00    5.10
  -4  -7  -1   10.30    3.10
  -4  -7  -1    5.70    2.30
  -4  -7  -1    6.80    4.20
   4   7   1   10.30    4.30
   4   7   1    6.90    4.50
   4   7   1    3.60    4.80
   4   7   1    9.80    3.40
   4   7   1    8.90    3.30
   4   7   1   10.50    4.60
  -5  -7  -1   37.20    6.30
  -5  -7  -1   33.80    9.40
  -5  -7  -1   36.40    5.20
  -5  -7  -1   32.50    4.40
  -5  -7  -1   40.50    8.00
  -5  -7  -1   40.50    7.60
   5   7   1   29.80    5.20
   5   7   1   46.30    5.60
   5   7   1   27.40    5.40
   5   7   1   36.90    6.10
   5   7   1   30.30    6.20
   5   7   1   47.40    5.40
  -6  -7  -1  206.28   16.40
  -6  -7  -1  226.98   22.60
  -6  -7  -1  195.38   18.60
  -6  -7  -1  190.08   12.20
  -6  -7  -1  202.38   14.70
  -6  -7  -1  207.88   18.90
   6   7   1  202.38   14.70
   6   7   1  216.78   14.80
   6   7   1  225.78   22.70
   6   7   1  187.18   17.40
   6   7   1  215.28   14.80
  -7  -7  -1  539.95   31.90
  -7  -7  -1  528.05   35.00
  -7  -7  -1  534.25   38.40
  -7  -7  -1  529.55   35.20
   7   7   1  533.35   31.70
   7   7   1  506.75   30.70
   7   7   1  525.55   31.00
   7   7   1  499.75   33.50
   7   7   1  526.25   39.60
  -8  -7  -1  340.77   30.80
  -8  -7  -1  331.27   28.70
  -8  -7  -1  302.87   24.60
  -8  -7  -1  397.16   33.10
   8   7   1  298.07   21.40
   8   7   1  300.57   24.00
   8   7   1  347.67   23.30
   8   7   1  295.17   25.80
   8   7   1  307.47   35.10
   4  -8  -1   75.59   11.10
   4  -8  -1   78.59   11.10
   4  -8  -1   73.49   10.80
  -4   8   1   97.99   21.70
   3  -8  -1   37.50    7.30
   3  -8  -1   34.70    8.00
   3  -8  -1   31.90    5.80
   3  -8  -1   37.30    8.90
   3  -8  -1   32.60    6.60
  -3   8   1   39.10    6.30
  -3   8   1   28.60   15.10
  -3   8   1   49.50   16.80
  -3   8   1   24.20    6.60
  -3   8   1   43.20    7.10
   2  -8  -1  105.39   10.60
   2  -8  -1  103.89   10.00
   2  -8  -1   99.89   10.20
   2  -8  -1  110.09   11.70
  -2   8   1  103.99    9.70
  -2   8   1   86.59   15.70
  -2   8   1   92.89   16.80
  -2   8   1  101.29   10.70
  -2   8   1  100.29   10.10
   1  -8  -1  775.02   43.40
   1  -8  -1  834.32   44.30
   1  -8  -1  738.83   42.40
   1  -8  -1  820.62   43.20
  -1   8   1  697.93   49.90
  -1   8   1  820.32   42.90
  -1   8   1  770.72   43.00
  -1   8   1  783.62   48.60
  -1   8   1  785.32   42.60
   0  -8  -1  713.53   39.20
   0  -8  -1  766.52   41.90
   0  -8  -1  729.53   40.50
   0  -8  -1  767.32   40.50
   0   8   1  726.93   39.80
   0   8   1  665.23   40.80
   0   8   1  756.42   40.00
   0   8   1  720.63   44.50
   0   8   1  673.83   46.00
   0   8   1  751.92   39.70
  -1  -8  -1  399.66   24.30
  -1  -8  -1  357.06   23.80
  -1  -8  -1  344.97   20.10
  -1  -8  -1  358.56   21.60
  -1  -8  -1  374.86   22.30
  -1  -8  -1  356.66   22.00
   1   8   1  374.36   21.40
   1   8   1  368.46   28.10
   1   8   1  385.46   25.60
   1   8   1  355.76   22.80
   1   8   1  378.26   21.40
   1   8   1  357.26   21.10
  -2  -8  -1    3.80    4.00
  -2  -8  -1    7.60    3.10
  -2  -8  -1   11.40    4.40
  -2  -8  -1    8.60    6.50
  -2  -8  -1   15.10    4.50
  -2  -8  -1    5.80    4.90
   2   8   1    6.70    5.30
   2   8   1   10.40    3.90
   2   8   1    6.80    3.40
   2   8   1    9.30    3.90
   2   8   1   13.30    8.90
  -3  -8  -1    3.90    4.70
  -3  -8  -1    6.80    3.30
  -3  -8  -1    1.90    4.10
  -3  -8  -1    4.30    7.20
  -3  -8  -1    0.50    3.60
  -3  -8  -1    5.50    5.50
   3   8   1    9.10    4.00
   3   8   1    2.80    4.20
   3   8   1    7.40    5.30
   3   8   1    3.20    3.60
   3   8   1    4.80    3.40
  -4  -8  -1   29.70    4.60
  -4  -8  -1   32.20    6.20
  -4  -8  -1   40.80   10.20
  -4  -8  -1   34.20    6.50
  -4  -8  -1   19.80    6.50
   4   8   1   34.10    6.10
   4   8   1   45.40    5.00
   4   8   1   27.50    5.80
   4   8   1   25.50    5.80
   4   8   1   48.70    6.20
   4   8   1   36.90    5.00
  -5  -8  -1    7.00    7.60
  -5  -8  -1    8.10    4.80
  -5  -8  -1   16.40    3.90
  -5  -8  -1   14.80    6.90
  -5  -8  -1   14.60    3.40
  -5  -8  -1   24.60   10.60
   5   8   1   16.10    4.50
   5   8   1   21.20    4.90
   5   8   1   11.70    5.90
   5   8   1   12.80    5.90
   5   8   1   21.10    5.90
  -6  -8  -1  386.16   26.60
  -6  -8  -1  358.46   22.30
  -6  -8  -1  370.26   27.20
  -6  -8  -1  430.66   31.70
   6   8   1  375.76   24.50
   6   8   1  372.56   23.00
   6   8   1  358.36   25.40
   6   8   1  366.56   23.50
   6   8   1  375.86   23.80
  -7  -8  -1  631.34   43.40
  -7  -8  -1  595.94   35.00
  -7  -8  -1  606.14   39.10
  -7  -8  -1  559.74   32.30
  -7  -8  -1  593.54   39.40
   7   8   1  577.24   37.40
   7   8   1  618.14   44.10
   7   8   1  584.04   35.30
   7   8   1  577.24   35.10
   2  -9  -1  231.98   21.70
   2  -9  -1  199.68   17.50
   2  -9  -1  224.88   15.60
   2  -9  -1  222.38   17.20
   2  -9  -1  197.48   15.70
  -2   9   1  227.38   33.60
  -2   9   1  196.58   16.20
  -2   9   1  173.28   20.40
   1  -9  -1  555.64   31.10
   1  -9  -1  514.05   31.70
   1  -9  -1  507.05   29.80
   1  -9  -1  594.04   32.70
  -1   9   1  524.25   30.90
  -1   9   1  511.35   30.30
  -1   9   1  474.85   40.80
  -1   9   1  567.14   30.60
  -1   9   1  570.34   48.70
   0  -9  -1  309.47   19.70
   0  -9  -1  325.97   19.90
   0  -9  -1  303.17   17.50
   0  -9  -1  348.47   22.10
   0   9   1  327.87   19.00
   0   9   1  311.27   34.80
   0   9   1  282.27   29.70
   0   9   1  253.57   20.80
   0   9   1  287.57   18.10
   0   9   1  303.27   18.80
  -1  -9  -1   54.39    8.00
  -1  -9  -1   35.80    8.20
  -1  -9  -1   45.10    5.10
  -1  -9  -1   31.20    5.70
  -1  -9  -1   33.40    6.30
  -1  -9  -1   38.60    8.20
   1   9   1   48.60    8.60
   1   9   1   32.60   12.10
   1   9   1   43.10    5.60
   1   9   1   41.20    5.70
   1   9   1   42.80    5.50
  -2  -9  -1    4.80    7.30
  -2  -9  -1    6.00    3.90
  -2  -9  -1   -1.00    5.40
  -2  -9  -1   -3.10    4.60
   2   9   1    4.30    4.80
   2   9   1    2.30   10.40
   2   9   1    1.50    3.90
   2   9   1   -0.30    4.40
   2   9   1    5.40    7.00
  -3  -9  -1    3.70    4.40
  -3  -9  -1    8.80    5.90
  -3  -9  -1   12.10    6.30
  -3  -9  -1   20.60    9.70
   3   9   1    5.10    7.00
   3   9   1    3.20    5.00
   3   9   1    8.10   11.20
   3   9   1   10.50    4.90
  -4  -9  -1   -5.10    9.20
  -4  -9  -1    2.30    4.70
  -4  -9  -1    5.70    6.20
  -4  -9  -1   -1.00    6.60
   4   9   1    2.10    4.80
   4   9   1   -0.10    6.90
   4   9   1   -4.60    5.30
   4   9   1    5.30    5.30
  -5  -9  -1  350.36   21.50
  -5  -9  -1  349.87   25.70
  -5  -9  -1  378.96   30.10
  -5  -9  -1  344.97   24.60
   5   9   1  371.56   22.90
   5   9   1  340.37   23.90
   5   9   1  360.96   24.60
   5   9   1  346.37   21.60
  -6  -9  -1  567.84   36.20
  -6  -9  -1  537.05   31.00
  -6  -9  -1  538.25   30.60
  -6  -9  -1  547.65   35.60
   6   9   1  546.25   32.10
   6   9   1  549.15   34.50
   6   9   1  535.35   35.00
   0 -10  -1   80.59    8.00
   0 -10  -1   86.19   12.20
   0 -10  -1  101.99   12.20
   0  10   1   94.89   11.10
   0  10   1   70.29   17.80
   0  10   1   90.19   11.00
  -1 -10  -1    8.20    8.90
  -1 -10  -1    1.10    5.90
   1  10   1    3.50   14.10
   1  10   1    7.90    5.70
   1  10   1    4.60    5.00
   1  10   1    0.20    9.90
   1  10   1    7.40    5.20
  -2 -10  -1    6.60    6.40
  -2 -10  -1    8.30    9.60
   2  10   1    2.00    5.40
   2  10   1    8.80    7.10
   2  10   1    1.60    4.70
   2  10   1    7.40   10.10
   2  10   1   -2.20   12.90
  -3 -10  -1    2.30    6.90
  -3 -10  -1   19.40   10.90
   3  10   1    8.00   13.80
   3  10   1   18.20   10.90
   3  10   1   10.10    5.90
   3  10   1   18.30   10.60
  -4 -10  -1  172.28   22.60
  -4 -10  -1  123.29   16.10
  -4 -10  -1  146.29   15.70
  -4 -10  -1  110.69   14.00
   4  10   1  149.79   13.40
   4  10   1  121.49   19.80
   4  10   1  127.49   14.50
   3  10  -2   93.89   16.80
   3  10  -2   74.99   11.80
   3  10  -2   93.89   12.30
   3  10  -2  107.39   13.00
  -3 -10   2  101.79   15.20
  -3 -10   2  103.29   16.40
  -3 -10   2   79.19    9.70
   2  10  -2   13.30    5.10
   2  10  -2    7.90    7.50
   2  10  -2   26.10    7.20
   2  10  -2    9.50    5.30
   2  10  -2   21.50   14.70
  -2 -10   2   12.70    6.10
  -2 -10   2   16.00   10.50
  -2 -10   2    8.60    7.10
   1  10  -2    3.00   15.30
   1  10  -2    5.90    5.90
  -1 -10   2   -0.60    6.40
  -1 -10   2    4.80    9.00
   6   9  -2   31.30    9.70
   6   9  -2   47.10   10.70
  -6  -9   2   48.30   15.70
  -6  -9   2   63.69   16.30
  -6  -9   2   38.00   12.20
   5   9  -2   -6.10   11.90
   5   9  -2   -1.90    6.90
   5   9  -2    8.60    7.40
  -5  -9   2   -0.60   14.80
  -5  -9   2    1.80    5.70
  -5  -9   2   -3.20   14.20
  -5  -9   2    3.10    5.30
  -5  -9   2    2.80    8.00
   4   9  -2  124.29   13.60
   4   9  -2  151.78   13.80
   4   9  -2  141.39   17.90
   4   9  -2  138.29   20.90
  -4  -9   2  140.79   10.90
  -4  -9   2  148.89   22.50
  -4  -9   2  140.29   17.20
  -4  -9   2  124.19   15.30
  -4  -9   2  164.68   21.00
   3   9  -2  167.98   13.60
   3   9  -2  160.78   21.60
   3   9  -2  165.58   14.20
  -3  -9   2  166.58   14.70
  -3  -9   2  181.38   20.90
  -3  -9   2  129.29   15.00
  -3  -9   2  177.38   16.60
  -3  -9   2  172.48   15.90
   2   9  -2   18.30    7.00
   2   9  -2   19.90    5.90
   2   9  -2   25.00   11.80
   2   9  -2   22.00    4.90
   2   9  -2   23.30    4.80
  -2  -9   2   22.30    5.90
  -2  -9   2   18.70    5.40
  -2  -9   2   11.50    6.60
  -2  -9   2   13.10    5.90
  -2  -9   2   22.50    9.10
  -2  -9   2   19.20    4.60
   1   9  -2   27.00   13.40
   1   9  -2   36.10    5.90
   1   9  -2   34.10    6.20
  -1  -9   2   31.20    6.60
  -1  -9   2   30.10    7.20
  -1  -9   2   31.70    5.80
  -1  -9   2   44.20    9.70
  -1  -9   2   37.70    5.80
   0   9  -2    0.50   13.20
   0   9  -2    7.50    5.10
   0   9  -2    7.70    5.50
   0  -9   2    9.80    5.10
   0  -9   2    6.10    5.10
   0  -9   2   17.50    7.90
   0  -9   2    1.90    6.00
  -1   9  -2   -4.30    5.10
  -1   9  -2   -5.90   14.50
  -1   9  -2    0.30    5.40
   1  -9   2    0.10    5.60
   1  -9   2   -0.60    4.90
   1  -9   2    4.30    7.60
  -2   9  -2    7.20   17.60
  -2   9  -2   11.20    6.20
  -2   9  -2    3.90    5.80
   2  -9   2   21.30    7.50
   2  -9   2   17.70    6.80
   2  -9   2    9.10    4.00
   2  -9   2    9.50    5.50
   7   8  -2   16.10    8.80
   7   8  -2    6.30    9.50
   7   8  -2    9.00   13.00
  -7  -8   2    7.00   14.80
  -7  -8   2   -3.10   11.40
  -7  -8   2    4.90   12.90
  -7  -8   2   10.70    9.60
   6   8  -2   10.70    7.60
   6   8  -2   13.80    6.20
   6   8  -2    3.40    7.70
   6   8  -2    5.30    9.90
  -6  -8   2    5.70   10.40
  -6  -8   2    1.50    9.00
  -6  -8   2    9.30    4.60
  -6  -8   2   14.20    7.90
  -6  -8   2   -4.20   12.80
   5   8  -2   37.40    5.90
   5   8  -2   47.80    8.10
   5   8  -2   45.40    8.10
   5   8  -2   53.39    8.20
   5   8  -2   48.50    5.50
  -5  -8   2   46.30    5.50
  -5  -8   2   51.79    9.70
  -5  -8   2   53.49   12.70
  -5  -8   2   46.50    7.30
  -5  -8   2   44.60   10.20
  -5  -8   2   46.40    7.20
   4   8  -2  581.14   33.20
   4   8  -2  587.94   34.10
   4   8  -2  550.74   33.30
   4   8  -2  572.74   36.70
   4   8  -2  519.55   32.30
  -4  -8   2  611.74   32.60
  -4  -8   2  578.44   32.50
  -4  -8   2  593.54   35.40
  -4  -8   2  561.64   33.90
  -4  -8   2  590.24   38.00
  -4  -8   2  557.44   34.10
  -4  -8   2  551.64   32.00
   3   8  -2   85.39   12.40
   3   8  -2   66.59   11.30
   3   8  -2   81.59    8.10
   3   8  -2   62.59    8.90
  -3  -8   2   77.69    7.70
  -3  -8   2   59.29    8.60
  -3  -8   2   61.39    7.60
  -3  -8   2   71.29    8.00
  -3  -8   2   72.59    8.00
  -3  -8   2   79.89   12.40
  -3  -8   2   63.29   10.30
   2   8  -2   35.90    4.90
   2   8  -2   39.80    4.80
   2   8  -2   27.90    5.10
   2   8  -2   32.60   10.20
  -2  -8   2   36.70    4.80
  -2  -8   2   30.80    3.80
  -2  -8   2   32.70    8.40
  -2  -8   2   24.70    4.40
  -2  -8   2   30.90    6.40
  -2  -8   2   35.20    5.80
  -2  -8   2   27.60    5.50
   1   8  -2   12.70    3.30
   1   8  -2   10.30    4.30
   1   8  -2   12.80    3.90
   1   8  -2   16.60    5.00
   1   8  -2    4.70    9.80
  -1  -8   2   14.80    4.50
  -1  -8   2   14.10    3.90
  -1  -8   2   14.30    5.20
  -1  -8   2    7.40    4.60
  -1  -8   2   18.20    7.50
   0   8  -2   71.89    8.40
   0   8  -2   39.30   12.90
   0   8  -2   58.89    7.80
   0  -8   2   55.89    8.40
   0  -8   2   59.39    7.40
   0  -8   2   62.99    8.60
   0  -8   2   56.79    5.40
   0  -8   2   68.09    7.50
  -1   8  -2    6.40    4.30
  -1   8  -2   -0.90   12.10
  -1   8  -2   -3.10    4.40
  -1   8  -2    0.50    4.30
   1  -8   2    2.80    3.90
   1  -8   2    3.50    3.10
   1  -8   2    8.00    6.80
   1  -8   2    2.80    4.00
  -2   8  -2   74.69   10.10
  -2   8  -2   88.79    9.60
  -2   8  -2   76.99   17.70
   2  -8   2   61.49    7.80
   2  -8   2   78.59    9.00
   2  -8   2   80.09    8.40
   2  -8   2   81.19   11.70
   2  -8   2   80.19   14.40
   2  -8   2   79.39    8.60
  -3   8  -2  117.89   21.60
  -3   8  -2  149.69   14.80
   3  -8   2  173.18   18.10
   3  -8   2  177.18   14.40
   3  -8   2  155.78   11.90
   3  -8   2  153.28   13.20
   7   7  -2  100.69   15.70
   7   7  -2  100.39   18.20
   7   7  -2  101.39   11.30
   7   7  -2  115.29   12.50
  -7  -7   2  120.39   18.30
  -7  -7   2  100.09   14.90
  -7  -7   2  112.89   27.00
  -7  -7   2  129.19   17.70
   6   7  -2   13.50    9.70
   6   7  -2   11.40    7.60
   6   7  -2   10.50    5.80
   6   7  -2   15.20    4.50
  -6  -7   2    8.10    9.10
  -6  -7   2    9.10    4.30
  -6  -7   2    6.30    5.40
  -6  -7   2    5.90    9.60
  -6  -7   2   18.50   11.30
  -6  -7   2    9.10    7.50
   5   7  -2  493.35   28.20
   5   7  -2  486.25   29.00
   5   7  -2  508.35   31.00
   5   7  -2  466.75   30.50
   5   7  -2  528.35   30.20
   5   7  -2  519.15   34.90
  -5  -7   2  531.95   33.00
  -5  -7   2  505.05   34.60
  -5  -7   2  530.95   30.80
  -5  -7   2  492.95   31.70
  -5  -7   2  504.65   30.50
  -5  -7   2  504.55   28.10
   4   7  -2  353.56   21.50
   4   7  -2  332.97   19.90
   4   7  -2  320.67   18.50
   4   7  -2  332.17   20.90
   4   7  -2  310.67   21.10
  -4  -7   2  334.47   21.20
  -4  -7   2  327.57   19.30
  -4  -7   2  325.57   20.80
  -4  -7   2  360.66   25.50
  -4  -7   2  336.77   19.90
  -4  -7   2  327.87   21.90
  -4  -7   2  339.47   23.20
   3   7  -2   19.90    5.40
   3   7  -2   16.40    5.00
   3   7  -2   20.00    4.50
   3   7  -2   17.80    7.70
   3   7  -2   18.70    4.20
   3   7  -2   16.80    4.60
  -3  -7   2   17.50    3.50
  -3  -7   2   11.40    5.80
  -3  -7   2   15.00    5.50
  -3  -7   2   26.30    8.70
  -3  -7   2   20.60    3.70
  -3  -7   2   18.40    4.60
   2   7  -2   13.00    3.80
   2   7  -2   16.10    4.90
   2   7  -2   14.30    5.20
   2   7  -2   15.00    7.30
   2   7  -2   12.50    6.10
   2   7  -2   13.50    3.60
  -2  -7   2   11.60    3.10
  -2  -7   2   16.60    3.80
  -2  -7   2   18.30    7.80
  -2  -7   2   13.10    4.10
  -2  -7   2   11.80    4.90
  -2  -7   2   12.70    4.40
   1   7  -2  121.69   10.40
   1   7  -2  135.09   10.20
   1   7  -2  128.39   16.10
   1   7  -2  136.69    9.60
   1   7  -2  137.19    9.10
   1   7  -2  146.19   10.20
  -1  -7   2  134.89   10.20
  -1  -7   2  144.49    9.80
  -1  -7   2  150.18   10.20
  -1  -7   2  146.59   11.10
  -1  -7   2  156.78   14.20
  -1  -7   2  126.39    8.20
  -1  -7   2  128.79   11.30
   0   7  -2   31.70    4.50
   0   7  -2   18.60    9.30
   0   7  -2   39.60    5.00
   0   7  -2   42.20    5.10
   0  -7   2   30.40    4.80
   0  -7   2   35.50    4.10
   0  -7   2   33.30    4.30
   0  -7   2   40.60    7.40
   0  -7   2   34.10    4.70
   0  -7   2   34.70    5.50
  -1   7  -2   97.49    8.50
  -1   7  -2  108.89    8.90
  -1   7  -2   68.89   13.50
  -1   7  -2  112.99    9.20
  -1   7  -2  102.19    6.90
   1  -7   2  103.69    7.50
   1  -7   2   96.39    6.50
   1  -7   2  113.59    8.50
   1  -7   2  118.79   11.70
   1  -7   2  103.59    8.10
  -2   7  -2  277.07   29.70
  -2   7  -2  355.96   20.40
  -2   7  -2  336.77   19.80
   2  -7   2  322.77   19.10
   2  -7   2  338.37   19.10
   2  -7   2  338.67   21.20
   2  -7   2  324.87   19.30
   2  -7   2  334.27   19.30
   2  -7   2  329.97   22.70
  -3   7  -2  427.06   26.40
  -3   7  -2  366.26   36.40
   3  -7   2  453.45   27.70
   3  -7   2  441.86   25.00
   3  -7   2  447.06   26.00
   3  -7   2  451.85   24.50
   3  -7   2  419.16   26.50
   3  -7   2  441.66   24.80
  -4   7  -2   19.00    7.00
  -4   7  -2   42.40   17.70
   4  -7   2   30.60    6.00
   4  -7   2   33.80    5.80
   4  -7   2   34.10    8.90
   4  -7   2   32.90    4.90
  -5   7  -2   56.09   22.40
   5  -7   2   53.59    6.60
   8   6  -2   51.39   35.20
   8   6  -2   91.39   12.30
   8   6  -2   83.49   12.50
   8   6  -2   60.49   13.20
  -8  -6   2  129.19   17.00
  -8  -6   2   86.19   17.60
  -8  -6   2   70.09   13.70
  -8  -6   2   93.29   15.80
   7   6  -2    5.30    4.90
   7   6  -2    2.00    7.50
   7   6  -2    5.10    5.20
   7   6  -2   -1.30   11.40
   7   6  -2   -8.20    8.20
  -7  -6   2   -0.60    8.70
  -7  -6   2    1.10   10.00
  -7  -6   2   -1.20    5.60
  -7  -6   2    6.30    5.40
  -7  -6   2   12.70   11.20
  -7  -6   2    5.80   11.40
   6   6  -2  497.85   33.00
   6   6  -2  543.65   30.30
   6   6  -2  512.25   37.60
   6   6  -2  500.45   30.50
  -6  -6   2  544.55   35.20
  -6  -6   2  559.94   34.20
  -6  -6   2  533.65   33.30
  -6  -6   2  536.35   34.70
  -6  -6   2  511.05   31.70
   5   6  -2  614.74   35.30
   5   6  -2  695.43   40.50
   5   6  -2  644.94   36.00
   5   6  -2  617.24   37.10
   5   6  -2  608.54   34.90
  -5  -6   2  619.34   37.00
  -5  -6   2  632.14   38.40
  -5  -6   2  617.84   39.30
  -5  -6   2  632.24   34.40
  -5  -6   2  620.54   37.50
  -5  -6   2  647.74   36.80
   4   6  -2  355.86   20.70
   4   6  -2  301.97   20.60
   4   6  -2  333.87   19.70
   4   6  -2  331.67   23.80
   4   6  -2  325.87   18.70
   4   6  -2  321.17   21.00
  -4  -6   2  325.57   21.50
  -4  -6   2  358.46   24.10
  -4  -6   2  343.37   19.10
  -4  -6   2  330.27   22.60
  -4  -6   2  326.87   20.80
  -4  -6   2  348.37   19.90
   3   6  -2  139.89    7.90
   3   6  -2  117.79   15.30
   3   6  -2  146.69   10.50
   3   6  -2  145.59   11.30
   3   6  -2  134.09    9.90
   3   6  -2  126.79   10.50
  -3  -6   2  116.39   11.20
  -3  -6   2  143.49    9.20
  -3  -6   2  142.29   14.60
  -3  -6   2  144.59    9.80
  -3  -6   2  141.59   11.00
  -3  -6   2  119.59   12.40
   2   6  -2   77.59    7.10
   2   6  -2   70.69    8.30
   2   6  -2   70.49   10.60
   2   6  -2   76.79    7.30
   2   6  -2   74.19    6.70
   2   6  -2   68.99    9.50
   2   6  -2   78.19    6.30
  -2  -6   2   77.49   11.20
  -2  -6   2   67.99    6.60
  -2  -6   2   74.39    6.30
  -2  -6   2   61.69    7.70
  -2  -6   2   70.79    7.80
  -2  -6   2   69.19    8.70
   1   6  -2   14.50    3.40
   1   6  -2   11.90    6.60
   1   6  -2    8.60    3.00
   1   6  -2   11.80    2.60
   1   6  -2   11.70    2.70
   1   6  -2   11.30    5.70
  -1  -6   2    7.50    2.90
  -1  -6   2    9.80    3.20
  -1  -6   2    9.70    3.60
  -1  -6   2   11.70    2.00
  -1  -6   2   11.80    3.20
  -1  -6   2   17.20    6.20
  -1  -6   2   12.90    2.80
   0   6  -2   96.99    7.70
   0   6  -2  111.49    7.90
   0   6  -2   96.49    7.50
   0   6  -2   77.29   13.50
   0  -6   2  101.29    7.20
   0  -6   2   93.99    8.50
   0  -6   2   95.89    6.40
   0  -6   2  108.39    7.40
   0  -6   2  101.49   10.60
   0  -6   2  101.99    8.00
   0  -6   2   95.89    7.50
  -1   6  -2  425.56   24.20
  -1   6  -2  447.96   24.60
  -1   6  -2  409.46   24.50
   1  -6   2  431.16   26.00
   1  -6   2  448.96   24.00
   1  -6   2  445.56   24.30
   1  -6   2  420.36   23.70
   1  -6   2  453.45   24.10
   1  -6   2  450.15   24.60
   1  -6   2  450.35   24.20
   1  -6   2  425.76   25.30
  -2   6  -2 1514.45   81.49
  -2   6  -2 1483.55   81.19
   2  -6   2 1558.04   80.99
   2  -6   2 1509.25   81.89
   2  -6   2 1503.55   80.89
   2  -6   2 1561.14   85.09
   2  -6   2 1594.94   83.09
   2  -6   2 1445.46   81.69
   2  -6   2 1519.25   80.79
   2  -6   2 1519.75   81.29
  -3   6  -2   95.09    9.70
   3  -6   2  102.29    7.70
   3  -6   2   95.39    8.60
   3  -6   2   95.09    9.60
   3  -6   2  108.59   11.10
   3  -6   2   97.59    8.30
   3  -6   2  104.19   13.90
   3  -6   2   98.69    7.30
   3  -6   2  102.59    9.70
  -4   6  -2   -7.90   12.00
  -4   6  -2    0.10    5.70
   4  -6   2    3.50    4.30
   4  -6   2    7.00    5.80
   4  -6   2    3.80    3.80
   4  -6   2   -1.50    4.10
   4  -6   2    0.70    3.10
   4  -6   2    5.70    9.90
   4  -6   2    3.70    3.70
   4  -6   2    4.30    5.10
  -5   6  -2   32.40    7.60
  -5   6  -2   19.10    7.40
  -5   6  -2   31.30   17.00
   5  -6   2   37.90    7.60
   5  -6   2   36.40   11.70
   5  -6   2   39.70    5.00
   5  -6   2   33.50    5.30
   5  -6   2   29.90    9.50
   5  -6   2   36.10    6.40
   8   5  -2    4.50   15.90
   8   5  -2   43.60   11.30
   8   5  -2   48.30    7.60
   8   5  -2   40.90    7.30
  -8  -5   2   45.80    9.00
  -8  -5   2   64.49   12.90
  -8  -5   2   30.30   11.30
  -8  -5   2   41.00   14.90
  -8  -5   2   28.50   12.20
   7   5  -2  129.39   17.70
   7   5  -2  132.79   11.80
   7   5  -2  127.79   11.50
  -7  -5   2  140.69   16.10
  -7  -5   2  134.09   18.90
  -7  -5   2  132.29   18.50
  -7  -5   2  117.09   13.60
  -7  -5   2  156.38   19.40
   6   5  -2  859.91   57.79
   6   5  -2  944.21   54.29
   6   5  -2  962.40   51.59
   6   5  -2  971.00   51.89
   6   5  -2  966.00   51.69
  -6  -5   2 1001.20   55.19
  -6  -5   2  904.71   51.79
  -6  -5   2  957.90   53.39
  -6  -5   2  959.90   54.39
  -6  -5   2  930.71   54.49
  -6  -5   2  905.61   54.49
   5   5  -2 1103.09   66.49
   5   5  -2 1184.58   63.09
   5   5  -2 1060.09   64.09
   5   5  -2 1156.08   62.69
  -5  -5   2 1119.09   64.49
  -5  -5   2 1175.78   65.09
  -5  -5   2 1094.99   64.09
  -5  -5   2 1263.77   61.89
  -5  -5   2 1166.48   65.19
  -5  -5   2 1232.78   63.89
  -5  -5   2 1179.18   62.89
   4   5  -2   41.60    5.30
   4   5  -2   59.19   10.90
   4   5  -2   43.50    6.10
   4   5  -2   42.60    5.90
  -4  -5   2   40.70    8.10
  -4  -5   2   50.09    4.90
  -4  -5   2   51.59    6.40
  -4  -5   2   44.00    7.40
  -4  -5   2   53.49    7.40
  -4  -5   2   43.40    7.10
   3   5  -2    2.80    3.50
   3   5  -2    4.70    3.20
   3   5  -2    4.60    3.40
   3   5  -2   11.60    4.40
   3   5  -2    8.60    3.00
   3   5  -2    3.70    3.50
  -3  -5   2    4.50    2.30
  -3  -5   2    5.20    3.00
  -3  -5   2    7.20    4.70
  -3  -5   2    7.20    5.20
  -3  -5   2    8.50    2.80
  -3  -5   2    6.70    4.40
   2   5  -2  460.35   26.80
   2   5  -2  464.55   26.40
   2   5  -2  451.75   26.30
   2   5  -2  492.05   26.00
   2   5  -2  464.55   26.20
   2   5  -2  491.05   27.70
   2   5  -2  478.55   27.40
  -2  -5   2  481.05   27.30
  -2  -5   2  482.45   26.10
  -2  -5   2  454.85   26.60
  -2  -5   2  488.55   26.30
  -2  -5   2  479.35   26.90
   1   5  -2   59.29    4.80
   1   5  -2   53.59    7.80
   1   5  -2   49.00    8.60
   1   5  -2   52.89    5.50
   1   5  -2   51.19    5.20
   1   5  -2   44.60    6.00
   1   5  -2   50.39    4.60
  -1  -5   2   52.39    6.10
  -1  -5   2   54.09    5.40
  -1  -5   2   51.69    5.30
  -1  -5   2   57.39    8.60
  -1  -5   2   55.39    4.90
  -1  -5   2   51.49    6.30
   0   5  -2 1091.99   67.29
   0   5  -2 1276.67   67.19
   0   5  -2 1262.57   67.89
   0   5  -2 1324.97   67.89
   0  -5   2 1258.87   67.79
   0  -5   2 1277.57   67.79
   0  -5   2 1312.77   69.19
   0  -5   2 1324.07   67.99
   0  -5   2 1248.58   68.19
   0  -5   2 1343.57   67.79
   0  -5   2 1294.47   67.49
  -1   5  -2 2087.49  116.39
  -1   5  -2 2184.28  116.69
  -1   5  -2 2127.99  116.79
   1  -5   2 2196.08  117.59
   1  -5   2 2184.48  118.79
   1  -5   2 2301.37  116.39
   1  -5   2 2234.08  116.49
   1  -5   2 2229.28  116.49
   1  -5   2 2212.38  116.69
   1  -5   2 2250.27  116.49
   1  -5   2 2227.08  117.19
  -2   5  -2  764.92   42.50
  -2   5  -2  789.02   42.10
   2  -5   2  769.12   41.50
   2  -5   2  693.43   44.60
   2  -5   2  785.22   41.60
   2  -5   2  809.92   45.80
   2  -5   2  802.92   42.80
   2  -5   2  791.52   42.20
   2  -5   2  803.22   41.90
   2  -5   2  767.92   42.60
  -3   5  -2   28.20   10.10
  -3   5  -2   38.70    5.20
   3  -5   2   47.80    4.20
   3  -5   2   45.50    6.00
   3  -5   2   49.90    8.10
   3  -5   2   51.49    6.70
   3  -5   2   37.70    4.90
   3  -5   2   49.00    9.30
   3  -5   2   48.20    4.80
  -4   5  -2   35.50    6.10
  -4   5  -2   36.10    5.50
  -4   5  -2   18.00   11.10
   4  -5   2   38.50    6.40
   4  -5   2   49.70    5.80
   4  -5   2   33.80    5.50
   4  -5   2   43.60    6.10
   4  -5   2   41.00    6.20
   4  -5   2   40.20    6.20
  -5   5  -2    3.20   12.90
  -5   5  -2   19.70    6.00
   5  -5   2   15.40    4.10
   5  -5   2   26.30    9.60
   5  -5   2   12.20    4.70
   5  -5   2   15.20    3.70
   5  -5   2   17.40    3.70
   5  -5   2   12.90    5.60
   5  -5   2   10.50    7.80
   5  -5   2   11.40    5.70
   5  -5   2    5.00    5.40
  -6   5  -2   11.20    7.90
   6  -5   2   18.30    8.30
   6  -5   2   28.60    6.80
   6  -5   2   29.30    4.00
   6  -5   2   28.00    9.40
   6  -5   2   27.90    4.90
   9   4  -2   35.80    8.50
   9   4  -2   23.70   11.30
   9   4  -2   -8.10   16.60
  -9  -4   2   60.99   10.20
  -9  -4   2   36.60   10.10
  -9  -4   2   20.00   17.00
  -9  -4   2   24.40   15.90
  -9  -4   2   15.30   13.60
   8   4  -2    4.50    6.00
   8   4  -2    1.50    5.00
   8   4  -2   -6.60    9.40
  -8  -4   2    0.00   10.50
  -8  -4   2   -3.30   12.50
  -8  -4   2    3.20    9.10
  -8  -4   2   -3.60   10.90
   7   4  -2  559.64   30.70
   7   4  -2  516.55   35.00
   7   4  -2  536.05   30.10
   7   4  -2  444.26   41.90
  -7  -4   2  515.25   32.40
  -7  -4   2  553.64   35.10
  -7  -4   2  503.55   30.60
  -7  -4   2  553.24   35.80
  -7  -4   2  529.75   35.00
   6   4  -2  908.11   46.70
   6   4  -2  824.92   46.70
   6   4  -2  866.81   45.70
   6   4  -2  746.23   53.49
   6   4  -2  874.81   46.50
   6   4  -2  851.71   49.50
  -6  -4   2  853.41   46.90
  -6  -4   2  849.81   49.70
  -6  -4   2  912.91   49.80
  -6  -4   2  825.72   48.70
  -6  -4   2  832.92   49.40
  -6  -4   2  804.02   48.00
   5   4  -2  423.46   22.60
   5   4  -2  395.06   23.20
   5   4  -2  388.46   25.10
   5   4  -2  415.86   23.40
   5   4  -2  397.36   28.70
  -5  -4   2  399.06   25.50
  -5  -4   2  361.56   25.20
  -5  -4   2  424.36   24.90
  -5  -4   2  400.96   25.70
  -5  -4   2  380.06   23.20
  -5  -4   2  410.16   26.10
   4   4  -2   68.59   10.70
   4   4  -2   50.69    8.20
   4   4  -2   60.89    6.90
   4   4  -2   76.29    6.40
   4   4  -2   61.29    6.20
  -4  -4   2   58.29    5.00
  -4  -4   2   64.39   10.00
  -4  -4   2   57.29    7.10
  -4  -4   2   43.80    6.90
   3   4  -2  904.61   49.50
   3   4  -2  894.91   48.00
   3   4  -2  839.52   48.00
   3   4  -2  911.51   48.50
   3   4  -2  895.21   48.60
  -3  -4   2  910.71   48.10
  -3  -4   2  831.82   48.70
  -3  -4   2  861.81   49.50
  -3  -4   2  907.41   47.60
  -3  -4   2  943.11   48.70
   2   4  -2   11.90    2.70
   2   4  -2    6.90    2.80
   2   4  -2   11.10    2.50
   2   4  -2    8.10    2.70
   2   4  -2    6.50    2.40
  -2  -4   2   10.40    4.40
  -2  -4   2    4.40    3.00
  -2  -4   2    6.90    2.30
  -2  -4   2    9.60    2.20
  -2  -4   2    8.40    3.00
  -2  -4   2    9.50    2.10
   1   4  -2  132.89    9.90
   1   4  -2  131.49    8.10
   1   4  -2  147.39    8.60
   1   4  -2  140.29    8.10
   1   4  -2  128.99    8.90
   1   4  -2  129.09    8.30
   1   4  -2  115.69    8.80
  -1  -4   2  136.99   10.40
  -1  -4   2  131.79    8.80
  -1  -4   2  139.19    8.70
  -1  -4   2  134.99    8.20
  -1  -4   2  124.99    9.00
  -1  -4   2  134.49    8.40
   0   4  -2 3036.90  163.18
   0   4  -2 3030.30  163.18
   0   4  -2 3259.77  163.28
   0  -4   2 3166.58  163.18
   0  -4   2 3202.48  163.08
   0  -4   2 2974.80  164.08
   0  -4   2 2954.50  163.38
   0  -4   2 3160.48  163.08
   0  -4   2 3047.90  163.48
   0  -4   2 3092.09  163.18
  -1   4  -2 3203.88  198.98
  -1   4  -2 3790.32  199.38
  -1   4  -2 3965.40  199.58
   1  -4   2 3881.11  199.78
   1  -4   2 3824.82  200.08
   1  -4   2 3812.32  201.28
   1  -4   2 3968.40  199.28
   1  -4   2 3805.22  199.38
  -2   4  -2  308.67   17.00
  -2   4  -2  295.37   16.80
   2  -4   2  290.57   16.80
   2  -4   2  308.77   20.40
   2  -4   2  280.47   18.00
   2  -4   2  298.77   17.50
   2  -4   2  295.77   16.70
   2  -4   2  302.77   16.20
   2  -4   2  301.67   18.40
   2  -4   2  294.77   16.10
  -3   4  -2   14.90    3.30
  -3   4  -2   15.40    7.90
   3  -4   2   24.40    3.60
   3  -4   2   29.50    4.10
   3  -4   2   36.90    7.60
   3  -4   2   23.50    2.70
   3  -4   2   28.20    3.70
   3  -4   2   25.80    3.30
   3  -4   2   22.30    3.70
   3  -4   2   26.40    4.70
  -4   4  -2    3.00    4.00
  -4   4  -2   -2.40    9.00
   4  -4   2    7.40    3.00
   4  -4   2    4.30    2.70
   4  -4   2   12.60    6.40
   4  -4   2    1.70    2.70
   4  -4   2    6.00    4.10
   4  -4   2    5.50    2.10
   4  -4   2   -3.10    2.70
   4  -4   2    6.50    3.70
  -5   4  -2   -5.80   12.20
  -5   4  -2    7.90    5.60
   5  -4   2    0.70    6.60
   5  -4   2   -1.00    3.60
   5  -4   2    2.80    4.40
   5  -4   2    0.20    4.30
   5  -4   2    1.20    3.00
   5  -4   2    4.60    2.70
   5  -4   2    7.80    6.90
   5  -4   2   -1.40    2.70
   5  -4   2   -1.80    4.20
  -6   4  -2  229.38   18.60
   6  -4   2  195.58   14.50
   6  -4   2  206.88   13.60
   6  -4   2  174.58   12.70
   6  -4   2  177.58   15.90
   6  -4   2  213.38   13.30
  -7   4  -2  273.07   26.90
   7  -4   2  386.86   29.30
   7  -4   2  370.16   22.00
   7  -4   2  315.57   21.80
   9   3  -2   14.70   12.30
   9   3  -2   39.60    8.20
   9   3  -2   -0.20   14.90
  -9  -3   2   13.50   14.50
  -9  -3   2    1.10    8.30
  -9  -3   2   34.70   13.30
  -9  -3   2   20.50   16.90
   8   3  -2  398.36   29.50
   8   3  -2  374.46   24.70
   8   3  -2  389.56   25.00
  -8  -3   2  370.36   31.90
  -8  -3   2  419.76   26.00
  -8  -3   2  384.36   30.10
  -8  -3   2  391.16   32.80
   7   3  -2 1068.79   60.09
   7   3  -2  981.50   55.29
   7   3  -2 1120.89   57.19
   7   3  -2 1006.90   56.29
  -7  -3   2 1019.30   59.09
  -7  -3   2 1041.90   56.99
  -7  -3   2 1051.99   59.89
  -7  -3   2  974.10   60.29
  -7  -3   2 1021.10   60.09
   6   3  -2  544.85   33.50
   6   3  -2  437.76   38.30
   6   3  -2  547.95   29.80
   6   3  -2  551.34   30.00
   6   3  -2  577.04   30.30
   6   3  -2  558.14   29.10
  -6  -3   2  518.45   33.20
  -6  -3   2  510.25   31.30
  -6  -3   2  486.65   30.10
  -6  -3   2  528.85   33.10
  -6  -3   2  517.25   31.80
  -6  -3   2  524.75   33.70
   5   3  -2  246.78   14.50
   5   3  -2  236.08   17.60
   5   3  -2  238.48   14.90
   5   3  -2  251.37   14.60
   5   3  -2  209.18   21.20
   5   3  -2  250.77   14.10
  -5  -3   2  226.78   17.30
  -5  -3   2  220.18   16.30
  -5  -3   2  234.88   16.20
  -5  -3   2  208.48   17.30
  -5  -3   2  223.28   14.90
  -5  -3   2  221.98   17.70
   4   3  -2  514.75   31.80
   4   3  -2  532.35   33.80
   4   3  -2  526.65   31.40
   4   3  -2  575.14   30.20
   4   3  -2  577.54   30.40
   4   3  -2  581.74   30.60
  -4  -3   2  533.75   30.60
  -4  -3   2  507.95   32.00
  -4  -3   2  562.44   31.90
  -4  -3   2  587.54   31.70
  -4  -3   2  555.84   31.70
   3   3  -2  221.28   14.10
   3   3  -2  217.68   13.50
   3   3  -2  223.98   15.20
   3   3  -2  217.28   13.20
   3   3  -2  232.68   13.10
  -3  -3   2  221.98   12.50
  -3  -3   2  239.08   13.90
  -3  -3   2  218.58   13.30
  -3  -3   2  221.18   14.70
  -3  -3   2  206.68   14.60
  -3  -3   2  221.08   14.30
   2   3  -2  227.28   12.80
   2   3  -2  210.88   13.10
   2   3  -2  217.08   12.90
   2   3  -2  212.28   12.70
   2   3  -2  223.68   13.60
  -2  -3   2  221.38   12.30
  -2  -3   2  204.18   13.50
  -2  -3   2  213.28   14.10
  -2  -3   2  212.68   13.20
  -2  -3   2  239.18   13.10
   1   3  -2 4450.05  241.88
   1   3  -2 4413.56  241.88
   1   3  -2 5219.28  241.78
  -1  -3   2 4453.75  241.88
  -1  -3   2 4813.02  241.78
  -1  -3   2 4524.95  241.78
  -1  -3   2 4362.96  242.58
  -1  -3   2 4478.35  242.18
   0   3  -2 4905.31  270.87
   0   3  -2 5781.12  270.87
   0  -3   2 4935.11  271.47
   0  -3   2 4836.22  271.47
   0  -3   2 5241.98  270.97
  -1   3  -2 2488.45  123.29
  -1   3  -2 2086.49  124.89
  -1   3  -2 2292.47  123.19
   1  -3   2 2313.97  123.19
   1  -3   2 2268.57  123.09
   1  -3   2 2398.86  124.89
   1  -3   2 2353.76  122.99
   1  -3   2 2434.36  122.89
   1  -3   2 2366.86  123.49
   1  -3   2 2324.27  123.79
  -2   3  -2    2.50    1.80
  -2   3  -2    3.50    2.20
  -2   3  -2    4.80    2.00
  -2   3  -2    5.50    5.10
   2  -3   2    4.70    2.00
   2  -3   2    5.20    2.60
   2  -3   2    3.00    1.60
   2  -3   2    2.30    2.90
   2  -3   2    3.60    1.90
   2  -3   2    3.30    3.80
  -3   3  -2   23.00    6.70
  -3   3  -2   41.30    5.60
   3  -3   2   36.20    5.90
   3  -3   2   39.50    6.00
   3  -3   2   38.40    7.80
   3  -3   2   40.50    4.60
   3  -3   2   30.60    3.00
   3  -3   2   42.00    4.90
   3  -3   2   40.00    4.40
  -4   3  -2   13.70    7.70
  -4   3  -2   27.50    4.80
   4  -3   2   22.30    3.50
   4  -3   2   23.80    4.30
   4  -3   2   23.40    6.40
   4  -3   2   25.90    4.10
   4  -3   2   38.20    7.30
   4  -3   2   21.80    3.30
   4  -3   2   19.10    5.30
   4  -3   2   16.40    3.30
   4  -3   2   32.30    3.50
  -5   3  -2  197.08   15.00
   5  -3   2  189.28   12.10
   5  -3   2  174.28   11.60
   5  -3   2  182.88   12.60
   5  -3   2  193.88   12.90
   5  -3   2  188.48   10.80
   5  -3   2  174.28   12.60
  -6   3  -2  624.54   38.30
   6  -3   2  735.23   36.20
   6  -3   2  611.34   35.60
   6  -3   2  594.04   36.00
   6  -3   2  656.53   35.10
   6  -3   2  613.94   35.90
  -7   3  -2  485.15   35.60
   7  -3   2  498.85   30.70
   7  -3   2  645.84   32.30
  -8   3  -2  124.49   16.60
   9   2  -2   66.49   16.70
   9   2  -2   62.39    8.70
   9   2  -2   77.79   11.90
   9   2  -2   91.59   16.30
  -9  -2   2   85.69   14.80
  -9  -2   2   49.20   16.90
  -9  -2   2   51.39   15.10
   8   2  -2  405.26   28.20
   8   2  -2  411.56   24.00
   8   2  -2  403.36   24.80
   8   2  -2  325.57   22.40
  -8  -2   2  390.66   31.50
  -8  -2   2  355.36   31.60
  -8  -2   2  389.16   29.20
   7   2  -2  915.81   50.69
   7   2  -2  942.61   50.69
   7   2  -2  926.61   49.99
   7   2  -2  924.51   53.99
   7   2  -2  977.40   51.59
   7   2  -2  925.61   60.99
  -7  -2   2  891.51   54.19
  -7  -2   2  894.61   53.79
  -7  -2   2  956.40   54.19
  -7  -2   2  867.91   55.19
   6   2  -2  448.66   23.20
   6   2  -2  413.56   24.10
   6   2  -2  407.26   26.70
   6   2  -2  389.66   23.10
   6   2  -2  358.46   23.00
   6   2  -2  319.57   32.40
  -6  -2   2  387.96   26.50
  -6  -2   2  411.06   26.60
  -6  -2   2  410.26   24.20
  -6  -2   2  439.56   26.90
  -6  -2   2  379.06   27.40
  -6  -2   2  398.86   23.80
   5   2  -2  118.09    8.70
   5   2  -2  108.39    8.50
   5   2  -2   91.99    7.80
   5   2  -2   90.49    8.00
   5   2  -2   88.19   11.90
  -5  -2   2   88.19   10.50
  -5  -2   2   76.79   12.10
  -5  -2   2   85.39   11.40
  -5  -2   2   90.89   11.00
  -5  -2   2   91.19    9.20
   4   2  -2  341.77   18.90
   4   2  -2  373.06   19.00
   4   2  -2  323.47   18.70
   4   2  -2  306.87   20.60
   4   2  -2  329.57   18.90
   4   2  -2  296.87   23.60
  -4  -2   2  332.17   20.40
  -4  -2   2  323.47   20.20
  -4  -2   2  305.57   20.40
  -4  -2   2  314.37   19.10
  -4  -2   2  319.37   19.40
   3   2  -2   20.80    3.30
   3   2  -2   10.60    3.80
   3   2  -2   12.50    2.50
   3   2  -2    7.80    3.30
  -3  -2   2   16.10    2.90
  -3  -2   2   23.90    3.80
  -3  -2   2   15.40    3.50
  -3  -2   2   14.90    3.50
   2   2  -2 1344.77   76.09
   2   2  -2 1421.46   75.99
   2   2  -2 1384.06   76.09
   2   2  -2 1497.25   76.69
   2   2  -2 1480.75   76.29
  -2  -2   2 1528.55   76.19
  -2  -2   2 1364.96   75.89
  -2  -2   2 1405.66   76.49
  -2  -2   2 1469.25   75.59
  -2  -2   2 1385.16   76.49
   1   2  -2 9999.00  525.95
   0   2  -2 4368.96  246.08
   0   2  -2 5174.28  245.68
   0  -2   2 4465.45  246.28
   0  -2   2 4655.13  245.78
  -1   2  -2  375.86   20.80
  -1   2  -2  381.86   22.30
  -1   2  -2  409.16   21.20
   1  -2   2  402.56   20.80
   1  -2   2  407.26   20.60
   1  -2   2  385.46   21.60
   1  -2   2  347.47   21.70
   1  -2   2  408.86   21.10
   1  -2   2  412.16   21.00
   1  -2   2  338.27   22.20
  -2   2  -2  102.99    9.80
  -2   2  -2  108.99    7.20
   2  -2   2  115.59    7.00
   2  -2   2  120.59    8.30
   2  -2   2  114.99    7.60
   2  -2   2  129.09    9.80
   2  -2   2  109.29    7.00
   2  -2   2  112.29    7.30
  -3   2  -2  291.37   16.50
  -3   2  -2  246.08   18.90
  -3   2  -2  252.97   19.70
   3  -2   2  283.67   16.00
   3  -2   2  324.67   18.80
   3  -2   2  294.97   16.60
   3  -2   2  269.07   18.00
   3  -2   2  264.07   15.90
   3  -2   2  287.17   16.80
   3  -2   2  296.47   16.00
  -4   2  -2  145.49   10.60
  -4   2  -2  124.59   15.00
   4  -2   2  176.28   13.20
   4  -2   2  137.79    8.30
   4  -2   2  136.59    8.60
   4  -2   2  143.39    9.30
   4  -2   2  138.19    9.50
   4  -2   2  137.89    8.20
   4  -2   2  128.59    9.40
   4  -2   2  141.09   10.10
  -5   2  -2  822.22   46.60
  -5   2  -2  741.73   50.39
   5  -2   2  832.82   45.60
   5  -2   2  831.22   44.20
   5  -2   2  936.51   48.50
   5  -2   2  844.42   45.30
   5  -2   2  773.12   45.50
   5  -2   2  851.71   44.70
   5  -2   2  856.01   45.30
  -6   2  -2  925.61   51.49
   6  -2   2  911.41   49.30
   6  -2   2  946.21   48.80
   6  -2   2  823.62   49.70
   6  -2   2  913.01   49.40
  -7   2  -2  459.15   31.30
   7  -2   2  435.76   27.20
   7  -2   2  460.25   26.40
   7  -2   2  502.15   27.10
  -8   2  -2    8.20   14.60
  -8   2  -2   11.10   12.30
   8  -2   2    4.40   12.30
   8  -2   2    8.40    6.50
   8  -2   2   14.50    7.30
   8  -2   2    0.60    6.70
   9   1  -2  187.28   16.60
   9   1  -2  167.98   12.60
   9   1  -2  242.88   30.40
  -9  -1   2  215.28   24.60
  -9  -1   2  225.28   29.10
  -9  -1   2  142.59   20.40
   8   1  -2  587.94   31.90
   8   1  -2  539.35   31.30
  -8  -1   2  572.84   36.10
  -8  -1   2  534.05   38.10
  -8  -1   2  485.85   39.40
   7   1  -2  306.97   19.60
   7   1  -2  293.27   18.30
  -7  -1   2  294.57   23.30
  -7  -1   2  232.28   24.60
  -7  -1   2  270.47   22.10
   6   1  -2  163.98   12.00
   6   1  -2  205.18   16.60
   6   1  -2  196.28   22.70
   6   1  -2  183.68   13.30
  -6  -1   2  133.19   17.60
  -6  -1   2  123.09   17.20
  -6  -1   2  196.88   17.50
  -6  -1   2  145.49   15.80
   5   1  -2  222.38   22.40
   5   1  -2  241.38   14.80
   5   1  -2  255.57   15.80
   5   1  -2  231.78   14.80
   5   1  -2  240.28   17.70
  -5  -1   2  226.08   14.60
  -5  -1   2  260.37   18.70
  -5  -1   2  235.18   17.00
  -5  -1   2  285.77   17.00
  -5  -1   2  211.78   18.00
   4   1  -2  357.26   18.80
   4   1  -2  301.57   23.90
   4   1  -2  348.87   18.90
   4   1  -2  357.66   21.00
  -4  -1   2  346.47   19.80
  -4  -1   2  303.37   20.00
  -4  -1   2  350.66   21.50
  -4  -1   2  285.67   18.70
  -4  -1   2  274.47   21.10
   3   1  -2 1265.37   59.99
   3   1  -2 1190.78   60.89
   3   1  -2 1014.20   62.09
   3   1  -2 1085.29   59.59
   3   1  -2 1174.38   59.79
  -3  -1   2 1115.79   60.99
  -3  -1   2 1005.10   60.19
  -3  -1   2 1066.89   59.69
  -3  -1   2 1097.79   60.09
   2   1  -2 4740.53  253.87
   2   1  -2 4811.32  252.87
   2   1  -2 4692.53  252.67
   2   1  -2 5102.79  252.87
   2   1  -2 4975.80  253.27
  -2  -1   2 4601.44  253.07
  -2  -1   2 4470.35  252.97
  -2  -1   2 5044.10  253.27
  -2  -1   2 4682.93  252.77
   0   1  -2  864.31   45.10
   0   1  -2  836.82   45.00
   0   1  -2  860.21   45.30
   0   1  -2  894.31   45.10
   0   1  -2  854.81   45.00
   0   1  -2  824.22   45.20
   0  -1   2  847.22   45.00
   0  -1   2  866.01   45.40
   0  -1   2  890.91   45.30
   0  -1   2  843.92   45.20
   0  -1   2  866.51   45.00
   0  -1   2  802.02   45.80
   0  -1   2  835.82   45.20
  -1   1  -2   74.89    4.50
  -1   1  -2   76.39    4.80
   1  -1   2   78.09    4.70
   1  -1   2   78.09    4.50
   1  -1   2   76.69    5.60
   1  -1   2   75.69    4.40
   1  -1   2   73.79    4.60
   1  -1   2   74.49    5.60
  -2   1  -2   -0.30    1.30
  -2   1  -2    5.40    3.20
  -2   1  -2   -1.10    1.40
   2  -1   2   -0.80    2.40
   2  -1   2   -1.10    1.30
   2  -1   2   -1.40    1.20
   2  -1   2   -0.90    2.40
   2  -1   2   -0.40    0.70
   2  -1   2    0.20    2.00
   2  -1   2   -2.90    1.10
  -3   1  -2   11.50    5.20
  -3   1  -2   13.30    2.80
   3  -1   2   13.40    3.10
   3  -1   2   12.60    1.90
   3  -1   2   15.80    2.20
   3  -1   2    6.70    3.60
   3  -1   2   14.60    2.10
   3  -1   2   13.70    1.70
   3  -1   2   10.80    3.40
  -4   1  -2  822.72   42.90
  -4   1  -2  799.62   44.20
  -4   1  -2  688.83   47.20
   4  -1   2  823.32   43.00
   4  -1   2  793.92   43.10
   4  -1   2  850.61   44.20
   4  -1   2  823.32   43.30
   4  -1   2  840.62   43.70
   4  -1   2  828.62   46.50
   4  -1   2  792.22   43.70
  -5   1  -2 2540.55  139.89
  -5   1  -2 2565.84  138.39
   5  -1   2 2604.34  139.29
   5  -1   2 2599.84  139.09
   5  -1   2 2932.71  142.59
   5  -1   2 2454.85  138.59
   5  -1   2 2485.05  138.69
   5  -1   2 2467.15  138.49
   5  -1   2 2965.90  141.39
  -6   1  -2  896.91   49.10
  -6   1  -2  929.01   51.59
   6  -1   2  899.41   49.60
   6  -1   2  940.81   49.30
   6  -1   2  910.01   50.29
   6  -1   2 1030.80   52.39
   6  -1   2  866.11   49.20
   6  -1   2  841.62   49.40
  -7   1  -2  180.38   17.30
  -7   1  -2  161.78   11.90
   7  -1   2  152.48   10.90
   7  -1   2  154.38   13.90
   7  -1   2  144.39   11.40
   7  -1   2  158.18   11.20
  -8   1  -2   34.80    9.20
  -8   1  -2   63.79   17.90
  -8   1  -2   27.90   10.60
   8  -1   2   40.80    8.10
   8  -1   2   23.50   11.90
   8  -1   2   30.00    5.30
   8  -1   2   28.60    6.00
   8  -1   2   29.20    5.60
   8   0  -2  316.57   20.60
   8   0  -2  399.06   21.60
   8   0  -2  328.97   24.60
  -8   0   2  358.66   28.60
  -8   0   2  336.37   25.80
  -8   0   2  249.97   30.40
   7   0  -2  244.18   17.10
   7   0  -2  225.18   14.70
   7   0  -2  250.67   15.60
  -7   0   2  213.28   19.00
  -7   0   2  213.38   20.80
  -7   0   2  176.48   22.60
   6   0  -2  136.39   10.60
   6   0  -2  147.99   12.20
   6   0  -2  180.88   19.80
   6   0  -2  125.39    9.60
  -6   0   2  100.39   13.40
  -6   0   2  111.79   14.50
   5   0  -2  105.89    7.90
   5   0  -2  117.89    8.60
  -5   0   2   89.19   10.60
  -5   0   2   84.29   13.10
  -5   0   2   88.89   11.00
   4   0  -2    9.90    4.20
   4   0  -2   -1.70    3.20
   4   0  -2   -1.60    2.60
   4   0  -2   -2.30    5.30
   4   0  -2    2.00    2.30
  -4   0   2    4.40    4.20
  -4   0   2   -0.30    3.70
  -4   0   2   -0.30    3.60
  -4   0   2   -0.20    2.30
  -4   0   2    1.00    4.60
  -4   0   2    1.20    5.00
   3   0  -2 1334.67   77.39
   3   0  -2 1614.74   78.39
   3   0  -2 1361.56   77.39
  -3   0   2 1499.75   78.59
   1   0  -2 2966.00  139.79
   1   0  -2 2649.14  140.19
   1   0  -2 2680.03  139.89
   1   0  -2 2647.54  140.09
   1   0  -2 2510.95  139.79
  -1   0   2 2400.66  139.69
  -1   0   2 2680.53  139.79
   0   0  -2  348.67   18.00
   0   0  -2  359.46   18.10
   0   0  -2  336.67   18.40
   0   0  -2  276.87   18.30
   0   0   2  315.87   18.50
   0   0   2  364.66   18.10
   0   0   2  353.36   18.10
   0   0   2  338.87   18.00
  -1   0  -2   -4.10    0.80
  -1   0  -2   -3.00    0.80
  -1   0  -2   -5.30    0.80
  -1   0  -2   -3.70    1.20
  -1   0  -2   -2.60    2.00
   1   0   2   -3.30    0.90
   1   0   2   -4.80    0.50
   1   0   2   -0.20    2.00
   1   0   2   -4.00    0.70
   1   0   2   -5.60    0.80
   1   0   2   -3.20    0.90
   1   0   2   -5.60    0.70
  -2   0  -2  346.97   23.30
  -2   0  -2  356.76   23.50
  -2   0  -2  390.56   21.70
  -2   0  -2  428.86   21.80
  -2   0  -2  410.56   22.20
   2   0   2  417.66   21.90
   2   0   2  430.16   21.80
   2   0   2  435.46   21.80
   2   0   2  416.96   21.90
   2   0   2  422.46   22.90
   2   0   2  420.56   22.10
  -3   0  -2  739.93   37.70
  -3   0  -2  700.13   38.40
  -3   0  -2  620.44   40.50
  -3   0  -2  723.53   37.90
  -3   0  -2  617.14   40.60
   3   0   2  750.42   37.90
   3   0   2  730.83   37.80
   3   0   2  739.93   37.90
   3   0   2  734.23   39.00
   3   0   2  720.03   38.20
   3   0   2  705.43   39.30
   3   0   2  736.33   38.00
   3   0   2  703.03   38.20
   3   0   2  721.43   40.50
  -4   0  -2 3680.63  193.28
  -4   0  -2 3615.14  194.28
  -4   0  -2 3185.88  196.68
  -4   0  -2 3691.93  193.48
   4   0   2 3699.13  193.28
   4   0   2 3660.23  193.48
   4   0   2 3711.33  193.98
   4   0   2 3909.21  195.18
   4   0   2 3677.93  193.38
   4   0   2 3788.82  193.88
   4   0   2 3641.94  196.68
   4   0   2 3777.32  193.48
  -5   0  -2 2797.32  151.78
  -5   0  -2 3003.90  156.78
  -5   0  -2 2855.01  151.38
  -5   0  -2 2805.02  152.88
   5   0   2 3103.09  153.78
   5   0   2 2800.82  155.68
   5   0   2 2846.32  151.68
   5   0   2 2846.92  151.48
   5   0   2 2882.21  152.08
   5   0   2 2831.72  152.48
   5   0   2 2904.81  151.68
   5   0   2 2782.02  151.08
  -6   0  -2  751.72   48.80
  -6   0  -2  712.03   41.60
  -6   0  -2  721.53   39.70
   6   0   2  698.33   39.30
   6   0   2  719.83   39.00
   6   0   2  796.22   41.90
   6   0   2  702.33   39.30
   6   0   2  674.53   45.30
   6   0   2  734.83   39.90
   6   0   2  742.63   40.80
  -7   0  -2    9.20    6.60
  -7   0  -2    7.00    5.20
  -7   0  -2    0.70   14.50
   7   0   2   -0.90    3.30
   7   0   2   -1.80    5.50
   7   0   2  -11.60    8.60
   7   0   2    4.40    3.40
   7   0   2    6.00    3.10
   7   0   2    0.60    4.50
  -8   0  -2   86.39   12.20
  -8   0  -2   96.09   13.60
   8   0   2   92.99   14.80
   8   0   2   97.49    9.80
   8   0   2   92.09   13.70
   8   0   2   96.89    9.40
   8   0   2   98.49    8.50
  -9   0  -2  101.29   13.60
  -9   0  -2   67.29   13.50
   9   0   2   97.09   17.50
   9   0   2   76.19   11.50
   9   0   2   88.69   11.40
   8  -1  -2  177.48   30.80
   8  -1  -2  146.29   14.80
   8  -1  -2  135.79   12.10
  -8   1   2  189.68   22.60
  -8   1   2   97.29   16.40
  -8   1   2  152.08   22.20
   7  -1  -2   35.90    6.50
   7  -1  -2   34.90    5.20
   7  -1  -2   31.10    6.70
   7  -1  -2   53.09   11.20
  -7   1   2   12.90    9.60
  -7   1   2   15.90    7.20
  -7   1   2   39.40   12.00
   6  -1  -2  555.74   31.10
   6  -1  -2  545.15   32.80
   6  -1  -2  490.95   30.50
  -6   1   2  592.54   35.70
  -6   1   2  506.85   35.70
  -6   1   2  586.84   38.80
   5  -1  -2  150.58   15.00
   5  -1  -2  125.59   10.10
   5  -1  -2  112.39    9.30
   5  -1  -2  136.99   12.10
   5  -1  -2  152.88   11.20
  -5   1   2   92.99   14.20
  -5   1   2  154.88   12.70
  -5   1   2  120.59   12.20
  -5   1   2  122.39   16.40
   4  -1  -2 1385.86   66.89
   4  -1  -2 1438.86   67.09
  -4   1   2 1311.27   67.39
  -4   1   2 1088.19   67.89
  -4   1   2 1143.59   66.69
  -4   1   2 1202.78   69.49
  -4   1   2 1114.59   67.09
   3  -1  -2 6071.89  295.57
   3  -1  -2 6545.15  294.57
  -3   1   2 5630.54  294.47
  -3   1   2 5811.72  294.67
  -3   1   2 5229.78  294.97
  -3   1   2 4882.01  295.07
  -3   1   2 5344.27  295.87
  -3   1   2 5105.09  293.87
   2  -1  -2 3908.11  194.38
   2  -1  -2 3648.03  194.58
   2  -1  -2 4006.50  194.58
  -2   1   2 3746.53  194.98
  -2   1   2 3742.73  194.48
  -2   1   2 3576.44  194.38
  -2   1   2 3543.35  194.48
  -2   1   2 3283.57  195.28
   1  -1  -2  423.46   20.30
   1  -1  -2  377.06   20.90
   1  -1  -2  395.36   20.80
   1  -1  -2  390.06   20.80
  -1   1   2  360.36   21.20
  -1   1   2  328.77   21.00
  -1   1   2  398.76   20.70
  -1   1   2  384.46   21.10
  -1   1   2  370.76   21.30
   0  -1  -2  605.84   31.60
   0  -1  -2  610.74   31.80
   0  -1  -2  585.54   31.50
   0  -1  -2  621.44   31.20
   0   1   2  599.64   31.40
   0   1   2  539.95   32.00
   0   1   2  569.14   31.50
   0   1   2  587.54   31.70
  -1  -1  -2   21.60    2.40
  -1  -1  -2   26.80    2.80
  -1  -1  -2   26.80    3.00
  -1  -1  -2   25.70    2.50
  -1  -1  -2   22.60    3.80
  -1  -1  -2   24.90    4.10
   1   1   2   24.40    2.50
   1   1   2   27.10    2.60
   1   1   2   27.60    2.90
   1   1   2   22.80    3.40
   1   1   2   23.70    2.40
  -2  -1  -2 1762.72  103.79
  -2  -1  -2 1820.12  102.59
  -2  -1  -2 1936.71  102.49
  -2  -1  -2 1923.71  102.29
  -2  -1  -2 2037.90  103.19
  -2  -1  -2 1996.80  102.59
  -2  -1  -2 2051.79  102.49
   2   1   2 1952.70  102.69
   2   1   2 1958.90  102.49
   2   1   2 1956.80  102.39
   2   1   2 1994.90  102.49
   2   1   2 1948.01  102.49
   2   1   2 2045.80  102.49
   2   1   2 1775.52  103.59
  -3  -1  -2 4096.89  241.98
  -3  -1  -2 4437.26  241.38
   3   1   2 4955.00  240.38
   3   1   2 4429.06  241.58
   3   1   2 4867.11  240.08
  -4  -1  -2 2028.50  115.79
  -4  -1  -2 2110.59  114.39
  -4  -1  -2 2011.90  113.99
  -4  -1  -2 2232.38  113.99
   4   1   2 2189.68  114.29
   4   1   2 2244.68  114.09
   4   1   2 2258.27  113.89
   4   1   2 2252.87  113.59
   4   1   2 2254.87  113.79
   4   1   2 1921.51  116.29
  -5  -1  -2 1961.70  104.59
  -5  -1  -2 1942.21  105.19
  -5  -1  -2 1957.00  104.39
  -5  -1  -2 1874.71  107.09
   5   1   2 2076.59  105.69
   5   1   2 2010.80  104.39
   5   1   2 1964.10  103.59
   5   1   2 1786.72  107.69
   5   1   2 1932.61  104.89
   5   1   2 2031.40  104.09
   5   1   2 2051.59  104.19
  -6  -1  -2   73.49   10.20
  -6  -1  -2   85.49    9.40
  -6  -1  -2   54.59   13.40
  -6  -1  -2   69.79    7.80
  -6  -1  -2   67.89   10.50
  -6  -1  -2   68.39    7.90
   6   1   2   68.49    9.30
   6   1   2   65.59    7.10
   6   1   2   72.79    9.30
   6   1   2   67.89    6.20
   6   1   2   69.09    6.50
   6   1   2   67.19    4.50
  -7  -1  -2  249.48   22.60
  -7  -1  -2  212.68   15.20
  -7  -1  -2  226.78   18.30
  -7  -1  -2  222.58   15.80
   7   1   2  225.88   16.40
   7   1   2  211.48   16.70
   7   1   2  208.08   13.70
   7   1   2  164.18   24.40
   7   1   2  206.98   13.50
  -8  -1  -2  121.99   17.60
  -8  -1  -2  118.39   18.10
  -8  -1  -2   78.09   12.20
  -8  -1  -2  106.49   11.40
   8   1   2   91.89    9.60
   8   1   2  108.19    9.10
   8   1   2   80.59   12.00
   8   1   2   91.49   13.90
  -9  -1  -2   76.09   13.30
  -9  -1  -2   54.29   12.40
   9   1   2   29.50   14.30
   9   1   2   62.99    7.60
   9   1   2   63.19   10.50
   8  -2  -2  122.19   15.60
   8  -2  -2   81.99   10.50
   8  -2  -2   69.59   13.10
  -8   2   2   71.99   14.60
   7  -2  -2  157.48   20.60
   7  -2  -2  155.08   13.90
   7  -2  -2  120.79   11.60
   7  -2  -2  126.79   15.00
  -7   2   2  137.39   17.70
  -7   2   2   82.29   15.00
   6  -2  -2    4.80    4.10
   6  -2  -2    1.10    5.40
   6  -2  -2    0.90    5.50
   6  -2  -2    2.40    6.80
   6  -2  -2    7.90    4.80
  -6   2   2    8.30    7.20
  -6   2   2   -2.00   10.90
  -6   2   2    5.30    7.20
  -6   2   2   -6.40    7.00
  -6   2   2   -1.40    5.00
   5  -2  -2   -2.00    4.60
   5  -2  -2    3.00    3.60
   5  -2  -2    0.30    5.90
   5  -2  -2    2.60    5.00
   5  -2  -2    4.80    3.60
  -5   2   2    2.00    8.50
  -5   2   2    1.60    4.30
  -5   2   2    7.90    6.00
  -5   2   2    4.90    6.20
  -5   2   2    2.60    5.00
   4  -2  -2 2463.85  124.59
   4  -2  -2 2532.15  123.39
   4  -2  -2 2205.78  122.59
  -4   2   2 2356.76  123.19
  -4   2   2 2227.18  124.19
  -4   2   2 2385.76  126.29
  -4   2   2 2108.89  123.39
  -4   2   2 2204.68  122.19
   3  -2  -2 4542.45  244.58
   3  -2  -2 4828.32  245.18
   3  -2  -2 4475.05  245.18
  -3   2   2 5088.99  245.28
  -3   2   2 4589.84  245.68
  -3   2   2 4589.94  245.18
  -3   2   2 4945.41  245.78
  -3   2   2 4630.44  244.78
  -3   2   2 4052.59  246.58
   2  -2  -2  542.15   29.20
   2  -2  -2  555.94   29.60
   2  -2  -2  574.84   29.30
   2  -2  -2  580.04   31.50
   2  -2  -2  549.95   29.70
  -2   2   2  519.75   29.30
  -2   2   2  521.45   29.40
  -2   2   2  544.45   29.70
  -2   2   2  544.25   29.70
  -2   2   2  473.75   30.90
   1  -2  -2  113.59    7.10
   1  -2  -2  111.89    7.20
   1  -2  -2  107.59    6.60
   1  -2  -2  117.19    6.90
  -1   2   2  117.49    7.20
  -1   2   2  110.29    6.80
  -1   2   2  111.09    8.40
  -1   2   2  111.89    7.70
  -1   2   2  109.29    6.90
   0  -2  -2   90.19    5.70
   0  -2  -2   92.49    5.30
   0  -2  -2   85.39    5.60
   0  -2  -2   87.89    6.20
   0  -2  -2   77.99    6.10
   0   2   2   69.89    5.80
   0   2   2   90.39    5.30
   0   2   2   90.89    5.70
   0   2   2   83.79    6.50
   0   2   2   97.79    5.80
  -1  -2  -2    2.30    1.10
  -1  -2  -2    3.20    2.10
  -1  -2  -2    2.40    1.20
  -1  -2  -2    0.90    1.20
  -1  -2  -2    4.90    1.10
   1   2   2    0.90    0.70
   1   2   2    1.70    1.90
   1   2   2    1.10    1.00
   1   2   2    3.30    1.20
   1   2   2    2.40    1.10
   1   2   2    1.10    0.70
   1   2   2    0.80    1.10
  -2  -2  -2  778.02   41.30
  -2  -2  -2  769.92   40.60
  -2  -2  -2  770.02   40.70
  -2  -2  -2  754.92   40.80
  -2  -2  -2  767.22   40.70
  -2  -2  -2  732.43   41.20
  -2  -2  -2  741.73   40.60
   2   2   2  764.72   40.70
   2   2   2  771.82   40.80
   2   2   2  741.53   40.80
   2   2   2  789.92   40.60
   2   2   2  748.03   40.60
   2   2   2  800.92   41.40
   2   2   2  740.43   40.90
  -3  -2  -2 3571.14  192.78
  -3  -2  -2 3841.02  192.68
  -3  -2  -2 3750.52  193.58
  -3  -2  -2 3643.54  192.68
  -3  -2  -2 3525.15  192.68
  -3  -2  -2 3369.26  193.18
   3   2   2 3688.73  193.78
   3   2   2 3591.24  192.78
   3   2   2 3676.83  192.68
   3   2   2 3613.14  192.58
   3   2   2 3643.84  192.68
   3   2   2 3762.02  192.68
   3   2   2 3797.02  192.58
  -4  -2  -2 4152.48  215.18
  -4  -2  -2 4051.49  215.48
  -4  -2  -2 4156.58  215.28
  -4  -2  -2 4175.68  216.68
  -4  -2  -2 3603.54  215.78
  -4  -2  -2 4140.79  215.48
   4   2   2 4000.20  215.18
   4   2   2 4104.49  215.58
   4   2   2 4024.60  217.28
   4   2   2 4244.08  215.08
   4   2   2 4253.57  215.28
   4   2   2 4136.29  214.98
   4   2   2 3967.60  215.28
  -5  -2  -2  144.59   12.50
  -5  -2  -2  106.89   15.90
  -5  -2  -2  137.19    9.80
  -5  -2  -2  148.99   10.30
  -5  -2  -2  129.49    9.40
  -5  -2  -2  104.39   11.60
  -5  -2  -2  144.59   10.60
   5   2   2  138.09   15.00
   5   2   2  144.79    9.00
   5   2   2  134.99   10.30
   5   2   2  145.39    9.50
   5   2   2  147.09   10.10
   5   2   2  138.79    8.40
  -6  -2  -2   70.09    8.80
  -6  -2  -2   49.00    7.70
  -6  -2  -2   54.89    7.30
  -6  -2  -2   60.79   13.00
  -6  -2  -2   63.19    8.30
  -6  -2  -2   76.49    9.80
   6   2   2   68.09    6.30
   6   2   2   71.89    6.80
   6   2   2   72.29    6.90
   6   2   2   58.89   11.40
   6   2   2   67.49    8.90
   6   2   2   63.89    5.00
   6   2   2   57.89    9.20
  -7  -2  -2  162.28   12.70
  -7  -2  -2  217.38   26.60
  -7  -2  -2  159.28   18.50
  -7  -2  -2  144.19   13.90
  -7  -2  -2  146.89   13.80
  -7  -2  -2  164.78   15.30
   7   2   2  158.08   14.60
   7   2   2  127.69   23.00
   7   2   2  149.19    9.30
   7   2   2  156.48   11.40
   7   2   2  159.28   10.80
   7   2   2  167.18   13.70
  -8  -2  -2   45.90    9.30
  -8  -2  -2   51.69   11.10
  -8  -2  -2   49.60    9.10
  -8  -2  -2   77.39    8.50
   8   2   2   55.29    7.10
   8   2   2   53.49    9.10
   8   2   2   60.19    6.70
   8   2   2   24.40   12.70
  -9  -2  -2  103.89   13.00
  -9  -2  -2  122.29   15.60
  -9  -2  -2  136.69   20.90
   9   2   2  114.49   12.10
   9   2   2  117.59   17.10
   7  -3  -2   59.79   10.50
   7  -3  -2   62.09    8.70
   7  -3  -2   64.79    9.80
   7  -3  -2   86.29   11.80
  -7   3   2   77.99   11.90
  -7   3   2   28.20   12.20
  -7   3   2  109.29   19.20
   6  -3  -2    1.60    4.30
   6  -3  -2    3.20    7.60
   6  -3  -2   -0.70    5.10
   6  -3  -2    9.90    6.70
  -6   3   2   -0.60   11.60
  -6   3   2   -1.20    8.80
  -6   3   2   12.50    7.40
   5  -3  -2  494.35   27.30
   5  -3  -2  508.25   30.60
   5  -3  -2  441.86   28.30
   5  -3  -2  465.75   28.60
  -5   3   2  585.24   35.00
  -5   3   2  463.95   27.50
  -5   3   2  465.35   27.30
  -5   3   2  434.66   30.40
   4  -3  -2 1534.95   75.69
   4  -3  -2 1335.77   74.89
   4  -3  -2 1326.17   75.69
   4  -3  -2 1464.25   76.19
  -4   3   2 1483.55   79.59
  -4   3   2 1400.36   75.29
  -4   3   2 1358.76   76.79
  -4   3   2 1326.07   75.29
  -4   3   2 1409.46   75.29
   3  -3  -2  989.50   54.29
   3  -3  -2 1006.40   53.09
   3  -3  -2 1059.49   58.19
   3  -3  -2  983.00   53.69
   3  -3  -2 1013.60   53.49
   3  -3  -2 1021.70   54.49
  -3   3   2  980.10   54.89
  -3   3   2  979.50   53.99
  -3   3   2 1123.99   54.29
  -3   3   2  866.81   56.69
  -3   3   2  998.40   54.39
   2  -3  -2  440.56   24.50
   2  -3  -2  466.75   27.50
   2  -3  -2  443.06   24.40
   2  -3  -2  453.55   24.90
   2  -3  -2  477.45   25.20
   2  -3  -2  470.05   24.50
  -2   3   2  442.76   24.60
  -2   3   2  418.56   25.30
  -2   3   2  418.56   24.50
  -2   3   2  435.16   25.20
   1  -3  -2  114.59    7.30
   1  -3  -2  111.09    7.20
   1  -3  -2  110.89    6.70
   1  -3  -2  112.59    7.00
   1  -3  -2  112.39    7.10
  -1   3   2  109.09    7.20
  -1   3   2  106.89    6.80
  -1   3   2  112.79    7.00
  -1   3   2  109.99    6.60
  -1   3   2   93.39    7.30
  -1   3   2  101.59    9.30
  -1   3   2  106.39    8.40
   0  -3  -2  129.19    7.80
   0  -3  -2  128.99    7.60
   0  -3  -2  128.69    8.40
   0  -3  -2  126.39    7.40
   0  -3  -2  129.29    7.80
   0   3   2  129.19    7.90
   0   3   2  122.09    7.30
   0   3   2  118.19    7.70
   0   3   2  139.39    9.00
   0   3   2  126.39    7.70
   0   3   2  135.19    7.80
  -1  -3  -2   56.19    4.30
  -1  -3  -2   59.99    5.40
  -1  -3  -2   58.79    3.80
  -1  -3  -2   59.79    3.80
  -1  -3  -2   56.69    4.60
  -1  -3  -2   61.19    5.50
   1   3   2   55.99    3.70
   1   3   2   55.89    3.40
   1   3   2   52.19    4.20
   1   3   2   52.39    3.90
   1   3   2   54.89    4.40
   1   3   2   55.69    5.50
  -2  -3  -2 4105.79  223.08
  -2  -3  -2 4274.47  222.88
  -2  -3  -2 4312.57  223.68
  -2  -3  -2 4282.07  223.18
  -2  -3  -2 4503.45  223.78
   2   3   2 4187.18  223.78
   2   3   2 4118.29  223.18
   2   3   2 4094.79  223.08
   2   3   2 4252.57  223.48
   2   3   2 4189.78  222.88
  -3  -3  -2 3912.41  214.08
  -3  -3  -2 4122.69  214.08
  -3  -3  -2 4169.18  214.88
  -3  -3  -2 3898.11  214.68
  -3  -3  -2 3989.20  214.28
   3   3   2 4252.77  214.18
   3   3   2 4197.48  215.18
   3   3   2 3956.50  213.88
   3   3   2 4025.00  214.18
   3   3   2 3905.71  214.18
   3   3   2 4190.98  213.98
  -4  -3  -2 1189.08   63.49
  -4  -3  -2 1122.69   63.79
  -4  -3  -2 1087.69   64.19
  -4  -3  -2 1223.28   64.69
  -4  -3  -2 1207.28   63.39
   4   3   2 1174.98   63.39
   4   3   2 1180.98   63.29
   4   3   2 1209.88   65.39
   4   3   2 1158.78   63.29
   4   3   2 1211.38   63.39
   4   3   2 1240.18   63.39
   4   3   2 1213.48   63.79
  -5  -3  -2   34.00    6.30
  -5  -3  -2   31.50    4.50
  -5  -3  -2   27.00    4.80
  -5  -3  -2   21.00    3.40
   5   3   2   35.00    4.70
   5   3   2   28.10    4.30
   5   3   2   23.50    4.20
   5   3   2   27.50    3.70
   5   3   2   23.60    4.70
  -6  -3  -2  173.28   13.60
  -6  -3  -2  183.78   13.90
  -6  -3  -2  176.88   12.30
  -6  -3  -2  191.48   15.60
  -6  -3  -2  188.18   14.20
  -6  -3  -2  146.99   15.30
   6   3   2  197.88   14.10
   6   3   2  188.48   11.80
   6   3   2  191.28   12.10
   6   3   2  175.78   13.40
   6   3   2  189.98   11.10
   6   3   2  167.58   19.10
  -7  -3  -2   57.59    8.90
  -7  -3  -2   59.89    8.40
  -7  -3  -2   51.29    7.70
  -7  -3  -2   98.69   16.20
  -7  -3  -2   59.29    8.50
  -7  -3  -2   65.49    8.50
   7   3   2   47.50    7.70
   7   3   2   60.99    5.70
   7   3   2   50.49    8.00
   7   3   2   54.79    6.80
   7   3   2   65.09    9.70
   7   3   2   60.19    7.80
   7   3   2   39.70   12.10
  -8  -3  -2  130.09   17.60
  -8  -3  -2  111.99   16.20
  -8  -3  -2  137.59   17.00
  -8  -3  -2  122.09   12.80
  -8  -3  -2  128.99   23.10
   8   3   2  121.49   11.30
   8   3   2  102.59   14.70
   8   3   2   90.89   17.80
   8   3   2  114.09   15.40
   8   3   2  132.39   10.10
  -9  -3  -2  170.98   24.80
  -9  -3  -2  142.19   21.90
  -9  -3  -2  192.28   17.90
   9   3   2  171.68   15.10
   9   3   2  170.18   19.60
   9   3   2  173.38   18.70
   7  -4  -2   71.49   11.00
   7  -4  -2   66.69   11.30
   7  -4  -2   75.99   12.10
   7  -4  -2   57.29   11.40
  -7   4   2   84.49   12.60
  -7   4   2   42.10   14.20
  -7   4   2   93.79   19.90
   6  -4  -2    4.30    4.80
   6  -4  -2   -5.10    7.20
   6  -4  -2   -1.60    6.70
   6  -4  -2   11.50    8.20
  -6   4   2   16.00   13.50
  -6   4   2   15.80    8.10
  -6   4   2    8.60    9.70
   5  -4  -2  866.11   48.30
   5  -4  -2  749.42   47.60
   5  -4  -2  909.71   50.29
   5  -4  -2  784.52   46.60
  -5   4   2  832.02   49.99
  -5   4   2 1008.40   54.69
   4  -4  -2 1499.45   76.19
   4  -4  -2 1402.06   76.79
   4  -4  -2 1508.35   75.39
   4  -4  -2 1371.86   77.19
   4  -4  -2 1490.75   75.69
  -4   4   2 1394.36   77.89
  -4   4   2 1369.76   75.79
  -4   4   2 1401.06   80.99
  -4   4   2 1385.06   77.19
  -4   4   2 1397.56   75.69
   3  -4  -2  100.19    7.40
   3  -4  -2   88.99    7.00
   3  -4  -2   93.69   14.00
   3  -4  -2   93.59    8.00
   3  -4  -2   87.69    8.20
   3  -4  -2   95.49    6.60
  -3   4   2   72.49   13.50
  -3   4   2   85.69    7.40
  -3   4   2   96.79    9.40
  -3   4   2  107.39    8.10
  -3   4   2   83.59   10.00
  -3   4   2   89.29    7.70
   2  -4  -2  104.89    7.60
   2  -4  -2  104.89    8.50
   2  -4  -2  105.29    7.80
   2  -4  -2  109.49    7.50
  -2   4   2   84.19   11.60
  -2   4   2  114.59    8.20
  -2   4   2   99.69   10.00
  -2   4   2  100.89    7.40
  -2   4   2  109.29    7.60
   1  -4  -2  394.56   21.20
   1  -4  -2  388.16   21.50
   1  -4  -2  396.16   21.50
   1  -4  -2  388.16   21.30
   1  -4  -2  397.36   21.70
  -1   4   2  353.76   21.50
  -1   4   2  392.56   22.80
  -1   4   2  394.76   21.00
  -1   4   2  348.47   23.70
  -1   4   2  381.16   21.30
  -1   4   2  397.56   21.40
  -1   4   2  384.36   21.50
   0  -4  -2   19.50    3.30
   0  -4  -2   16.80    2.30
   0  -4  -2   23.00    2.70
   0  -4  -2   27.30    3.50
   0   4   2   25.20    3.60
   0   4   2   19.70    3.00
   0   4   2   23.90    3.00
   0   4   2   28.50    4.60
   0   4   2   28.60    2.60
   0   4   2   28.00    3.60
   0   4   2   29.90    4.00
  -1  -4  -2 1982.60  106.09
  -1  -4  -2 2059.89  106.09
  -1  -4  -2 1983.00  106.59
  -1  -4  -2 2029.70  105.69
  -1  -4  -2 2021.00  105.69
   1   4   2 1959.80  105.99
   1   4   2 1991.30  106.19
   1   4   2 1965.30  105.99
   1   4   2 2120.79  106.89
   1   4   2 1942.31  105.69
   1   4   2 1962.70  105.69
  -2  -4  -2 3888.31  195.48
  -2  -4  -2 3630.54  195.28
  -2  -4  -2 3641.54  194.58
  -2  -4  -2 3542.55  194.68
  -2  -4  -2 3649.23  194.18
  -2  -4  -2 3468.95  194.58
   2   4   2 3748.02  195.08
   2   4   2 3699.43  194.68
   2   4   2 3739.03  194.08
   2   4   2 3614.14  194.18
   2   4   2 3860.61  194.78
   2   4   2 3731.13  194.18
   2   4   2 3695.23  194.58
  -3  -4  -2 1894.61   95.19
  -3  -4  -2 1691.03   94.19
  -3  -4  -2 1790.82   93.69
  -3  -4  -2 1818.62   95.19
  -3  -4  -2 1797.72   94.19
  -3  -4  -2 1680.83   94.39
   3   4   2 1736.23   93.79
   3   4   2 1758.62   95.29
   3   4   2 1706.63   94.09
   3   4   2 1777.12   94.49
   3   4   2 1756.42   94.29
   3   4   2 1872.21   93.89
   3   4   2 1751.02   94.39
  -4  -4  -2   53.39    5.40
  -4  -4  -2   41.70    6.90
  -4  -4  -2   59.09    7.60
  -4  -4  -2   52.59    3.70
  -4  -4  -2   45.70    6.40
  -4  -4  -2   52.59    5.20
  -4  -4  -2   54.19    6.90
   4   4   2   42.80    5.70
   4   4   2   44.50    5.70
   4   4   2   50.79    5.30
   4   4   2   48.80    5.40
   4   4   2   49.50    6.40
  -5  -4  -2  356.86   21.00
  -5  -4  -2  327.77   23.00
  -5  -4  -2  379.16   20.80
  -5  -4  -2  353.66   21.90
  -5  -4  -2  377.06   22.80
  -5  -4  -2  341.77   21.50
   5   4   2  355.96   20.50
   5   4   2  377.76   24.50
   5   4   2  384.16   20.80
   5   4   2  347.87   21.70
   5   4   2  354.96   20.90
   5   4   2  347.97   20.60
  -6  -4  -2   54.59    7.20
  -6  -4  -2   57.59    7.70
  -6  -4  -2   61.89    7.30
  -6  -4  -2   63.79   11.30
  -6  -4  -2   66.49    9.00
  -6  -4  -2   55.99    9.00
   6   4   2   49.30    6.40
   6   4   2   60.69    6.90
   6   4   2   56.89    6.10
   6   4   2   49.70    6.80
   6   4   2   52.59    6.80
   6   4   2   64.49   10.60
  -7  -4  -2   28.70    7.80
  -7  -4  -2   33.70    5.50
  -7  -4  -2   40.60    8.50
  -7  -4  -2   44.50    9.90
  -7  -4  -2   38.50    7.30
   7   4   2   31.00    4.40
   7   4   2   16.70    9.80
   7   4   2   33.40    7.30
   7   4   2   39.50    5.70
   7   4   2   36.20    4.60
   7   4   2   33.80    7.70
  -8  -4  -2  295.17   22.70
  -8  -4  -2  271.97   18.50
  -8  -4  -2  288.87   22.10
  -8  -4  -2  299.77   24.30
   8   4   2  206.08   29.40
   8   4   2  290.67   19.80
   8   4   2  238.78   20.10
   8   4   2  251.87   16.10
   8   4   2  273.47   18.20
   8   4   2  231.78   21.30
  -9  -4  -2  294.07   29.70
  -9  -4  -2  257.97   25.00
  -9  -4  -2  266.57   25.60
  -9  -4  -2  251.87   20.40
   9   4   2  265.77   18.60
   9   4   2  253.57   23.00
   9   4   2  221.18   21.70
   9   4   2  182.58   26.10
   6  -5  -2  233.98   15.80
   6  -5  -2  226.98   27.20
   6  -5  -2  154.48   20.10
  -6   5   2  191.68   24.30
  -6   5   2  307.57   45.10
   5  -5  -2  547.85   29.80
   5  -5  -2  479.85   32.00
  -5   5   2  540.75   34.10
   4  -5  -2   85.39    6.80
   4  -5  -2   82.89    7.50
   4  -5  -2   81.79    8.40
   4  -5  -2   75.69    9.90
   4  -5  -2   87.59    8.60
  -4   5   2   99.59   13.80
  -4   5   2   91.69    9.70
  -4   5   2   65.59   12.90
  -4   5   2   97.79   12.50
   3  -5  -2    0.30    3.00
   3  -5  -2    3.30    3.10
   3  -5  -2   -0.60    3.60
   3  -5  -2    1.50    4.60
   3  -5  -2    4.80    3.30
   3  -5  -2    0.70    3.30
  -3   5   2    2.70    3.00
  -3   5   2    6.50    4.40
  -3   5   2    1.30    2.80
  -3   5   2    5.00    3.40
  -3   5   2    1.80    3.10
  -3   5   2   -0.50    6.20
  -3   5   2   -2.00    8.20
   2  -5  -2   13.90    3.20
   2  -5  -2   10.60    3.40
   2  -5  -2   17.70    4.40
   2  -5  -2   11.40    3.10
   2  -5  -2   10.70    3.60
  -2   5   2    9.30    5.50
  -2   5   2    2.40    5.70
  -2   5   2   10.90    2.90
  -2   5   2   10.10    3.20
  -2   5   2   11.50    3.10
  -2   5   2   20.40    3.50
  -2   5   2   13.40    3.20
   1  -5  -2    2.60    2.30
   1  -5  -2    0.10    2.30
   1  -5  -2    3.20    3.20
   1  -5  -2    0.50    2.40
   1  -5  -2    2.50    2.70
  -1   5   2    2.10    4.70
  -1   5   2   -1.10    4.60
  -1   5   2    2.80    2.40
  -1   5   2    2.50    2.60
  -1   5   2    1.70    2.90
  -1   5   2    2.00    2.30
  -1   5   2    4.10    2.70
   0  -5  -2  264.27   15.40
   0  -5  -2  269.07   14.90
   0  -5  -2  266.37   15.00
   0  -5  -2  268.97   16.30
   0  -5  -2  261.07   15.40
   0   5   2  245.48   18.20
   0   5   2  280.57   14.80
   0   5   2  269.97   14.90
   0   5   2  270.37   15.30
   0   5   2  228.18   16.80
   0   5   2  268.57   17.30
   0   5   2  271.97   15.70
  -1  -5  -2 1370.26   73.09
  -1  -5  -2 1378.86   73.19
  -1  -5  -2 1401.66   72.49
  -1  -5  -2 1362.76   72.69
  -1  -5  -2 1384.06   73.79
   1   5   2 1314.67   72.59
   1   5   2 1421.26   74.19
   1   5   2 1302.37   72.89
   1   5   2 1334.27   73.19
   1   5   2 1367.66   72.99
   1   5   2 1486.05   72.49
   1   5   2 1301.57   72.59
  -2  -5  -2 1648.14   84.69
  -2  -5  -2 1659.13   84.09
  -2  -5  -2 1540.85   85.09
  -2  -5  -2 1608.54   84.89
  -2  -5  -2 1592.94   85.59
  -2  -5  -2 1446.36   88.29
   2   5   2 1696.23   84.69
   2   5   2 1626.44   84.19
   2   5   2 1373.06   87.69
   2   5   2 1594.94   84.69
   2   5   2 1591.54   84.09
   2   5   2 1657.83   84.89
  -3  -5  -2  388.16   23.90
  -3  -5  -2  379.16   22.80
  -3  -5  -2  403.06   23.60
  -3  -5  -2  423.76   22.30
  -3  -5  -2  386.56   22.50
   3   5   2  384.56   22.50
   3   5   2  402.26   21.80
   3   5   2  401.46   21.70
   3   5   2  387.66   23.00
   3   5   2  395.96   22.20
   3   5   2  368.06   23.00
  -4  -5  -2  287.67   19.10
  -4  -5  -2  309.67   17.60
  -4  -5  -2  292.77   18.00
  -4  -5  -2  320.87   19.80
  -4  -5  -2  303.07   18.80
  -4  -5  -2  322.77   20.80
  -4  -5  -2  328.77   17.20
   4   5   2  323.47   18.10
   4   5   2  327.97   20.90
   4   5   2  303.37   17.80
   4   5   2  296.57   18.70
   4   5   2  314.97   18.60
   4   5   2  302.57   18.30
  -5  -5  -2   35.80    7.80
  -5  -5  -2   39.40    5.70
  -5  -5  -2   34.50    6.00
  -5  -5  -2   31.10    5.60
  -5  -5  -2   29.90    4.30
  -5  -5  -2   31.90    3.20
  -5  -5  -2   21.70    5.50
   5   5   2   29.00    5.20
   5   5   2   35.60    4.80
   5   5   2   29.80    4.10
   5   5   2   40.80    7.60
   5   5   2   31.70    4.60
   5   5   2   34.30    4.70
  -6  -5  -2  186.68   12.50
  -6  -5  -2  176.28   17.80
  -6  -5  -2  179.58   13.40
  -6  -5  -2  174.38   15.10
  -6  -5  -2  175.88   15.50
   6   5   2  169.28   11.90
   6   5   2  182.28   18.50
   6   5   2  165.88   14.70
   6   5   2  186.08   12.40
   6   5   2  183.08   13.20
  -7  -5  -2   78.09    9.50
  -7  -5  -2   73.69   10.10
  -7  -5  -2   81.79   11.70
  -7  -5  -2   80.19   12.40
  -7  -5  -2   88.99   11.00
   7   5   2   73.29    8.10
   7   5   2   82.49   11.10
   7   5   2   51.99   11.40
   7   5   2   69.89    9.70
  -8  -5  -2  159.38   14.50
  -8  -5  -2  194.88   22.40
  -8  -5  -2  190.78   18.30
  -8  -5  -2  198.28   20.70
   8   5   2  181.18   13.00
   8   5   2  177.88   17.00
   8   5   2  184.58   15.00
   8   5   2  142.59   26.20
   8   5   2  184.98   18.40
  -9  -5  -2  120.09   18.00
  -9  -5  -2  103.39   13.90
  -9  -5  -2   90.39   15.00
   9   5   2   55.19   17.30
   9   5   2   83.69   12.50
   9   5   2  117.89   14.60
   9   5   2   86.19   13.80
   6  -6  -2  104.29   12.00
   6  -6  -2   66.39   14.30
  -6   6   2  121.49   20.40
  -6   6   2   78.99   15.10
  -6   6   2  115.49   16.30
   5  -6  -2   92.59    7.80
   5  -6  -2   82.49   11.40
   5  -6  -2   96.79   10.40
   5  -6  -2   94.89    9.10
  -5   6   2   99.49   12.50
  -5   6   2   91.99   11.50
  -5   6   2  152.08   27.30
   4  -6  -2    6.00    5.70
   4  -6  -2   10.50    4.30
   4  -6  -2   21.10    6.90
   4  -6  -2   10.90    3.80
   4  -6  -2    7.60    4.20
   4  -6  -2    2.70    4.10
  -4   6   2   20.10    6.80
  -4   6   2   15.60   10.10
  -4   6   2    5.90   11.40
  -4   6   2   15.00    5.70
   3  -6  -2    5.20    3.90
   3  -6  -2   -0.10    3.70
   3  -6  -2    0.80    3.50
   3  -6  -2    9.60    5.50
   3  -6  -2   -1.40    4.10
   3  -6  -2    0.80    3.80
  -3   6   2    3.70    4.60
  -3   6   2    1.00    3.50
  -3   6   2   -5.50    9.90
  -3   6   2   -2.30    3.40
  -3   6   2   -1.80    8.50
   2  -6  -2   27.40    4.30
   2  -6  -2   25.40    4.70
   2  -6  -2   32.60    5.80
   2  -6  -2   23.40    4.60
   2  -6  -2   22.10    4.00
  -2   6   2   26.20    4.10
  -2   6   2   24.20    3.50
  -2   6   2   22.50    4.10
  -2   6   2   28.80    3.90
  -2   6   2   20.70    7.90
  -2   6   2   19.30    9.40
  -2   6   2   28.20    4.10
   1  -6  -2  148.39    9.80
   1  -6  -2  138.49    9.60
   1  -6  -2  144.59   10.00
   1  -6  -2  142.39    9.90
   1  -6  -2  150.28   11.10
  -1   6   2  151.28    9.90
  -1   6   2  138.69    9.50
  -1   6   2  144.59    9.60
  -1   6   2  137.59    8.50
  -1   6   2  143.39   10.40
  -1   6   2  108.99   15.40
  -1   6   2  133.69   13.80
  -1   6   2  146.79    9.50
   0  -6  -2  609.94   33.60
   0  -6  -2  637.94   33.90
   0  -6  -2  636.34   35.00
   0  -6  -2  654.23   34.30
   0  -6  -2  612.04   34.20
   0   6   2  628.24   36.30
   0   6   2  614.24   34.00
   0   6   2  614.64   34.10
   0   6   2  631.74   33.70
   0   6   2  618.44   34.50
   0   6   2  545.35   37.00
   0   6   2  643.44   33.70
  -1  -6  -2 1839.62   98.09
  -1  -6  -2 1866.21   98.89
  -1  -6  -2 1898.81   98.89
  -1  -6  -2 1902.91   98.39
  -1  -6  -2 1828.32   99.59
   1   6   2 1985.70   98.19
   1   6   2 1878.81   98.79
   1   6   2 1758.12   98.59
   1   6   2 1841.22   98.29
   1   6   2 1872.01  100.19
   1   6   2 1916.71   99.09
   1   6   2 1663.83   98.29
  -2  -6  -2  240.68   15.70
  -2  -6  -2  267.07   17.20
  -2  -6  -2  271.07   15.50
  -2  -6  -2  247.38   16.10
  -2  -6  -2  265.37   17.60
  -2  -6  -2  256.87   14.50
   2   6   2  260.07   14.60
   2   6   2  269.97   17.50
   2   6   2  274.17   15.50
   2   6   2  248.28   16.80
   2   6   2  252.27   15.60
   2   6   2  258.77   15.00
   2   6   2  254.17   14.80
  -3  -6  -2  128.89   11.20
  -3  -6  -2  120.49   10.30
  -3  -6  -2  119.99   12.50
  -3  -6  -2  124.29    9.10
  -3  -6  -2  121.69    9.80
   3   6   2  119.19   10.50
   3   6   2  120.39    9.00
   3   6   2  136.39    9.70
   3   6   2  124.39    8.40
   3   6   2  120.29    9.50
   3   6   2  128.49    8.70
  -4  -6  -2  145.89   14.30
  -4  -6  -2  138.19    8.60
  -4  -6  -2  137.99    9.50
  -4  -6  -2  135.99   12.00
  -4  -6  -2  127.99   10.90
  -4  -6  -2  122.79   11.60
  -4  -6  -2  124.79    8.40
   4   6   2  119.19    9.60
   4   6   2  137.79   10.10
   4   6   2  127.99    9.10
   4   6   2  118.99   10.50
   4   6   2  126.89   10.40
   4   6   2  134.79    9.60
  -5  -6  -2    0.90    2.90
  -5  -6  -2   -4.40    5.00
  -5  -6  -2    3.50    4.70
  -5  -6  -2    0.10    4.80
  -5  -6  -2    4.20    6.90
  -5  -6  -2    0.10    2.10
  -5  -6  -2    7.20    3.10
   5   6   2    4.10    3.90
   5   6   2    2.70    3.50
   5   6   2    3.40    3.70
   5   6   2    0.10    3.50
   5   6   2   -1.50    4.40
   5   6   2    9.90    6.10
  -6  -6  -2   -4.30    6.60
  -6  -6  -2    4.50    8.70
  -6  -6  -2   -1.10    6.70
  -6  -6  -2    3.90    2.00
  -6  -6  -2    3.70    3.90
  -6  -6  -2    3.10    4.30
   6   6   2    3.90    3.90
   6   6   2    2.50    4.30
   6   6   2    2.00    5.90
   6   6   2   13.00    7.40
   6   6   2    4.60    5.00
  -7  -6  -2  188.28   22.50
  -7  -6  -2  201.38   19.60
  -7  -6  -2  223.58   16.50
  -7  -6  -2  183.58   19.30
   7   6   2  196.78   14.20
   7   6   2  215.08   23.60
   7   6   2  203.08   15.00
   7   6   2  205.58   15.90
   7   6   2  191.58   17.80
  -8  -6  -2  231.28   26.40
  -8  -6  -2  202.28   18.80
  -8  -6  -2  194.68   23.20
  -8  -6  -2  171.48   16.10
  -8  -6  -2  204.18   21.80
   8   6   2  155.68   14.00
   8   6   2  160.18   18.50
   8   6   2  177.48   15.60
   8   6   2  171.78   17.40
   5  -7  -2   17.10   10.70
   5  -7  -2   23.50    5.80
   5  -7  -2   16.60    6.10
   5  -7  -2   20.30    4.90
  -5   7   2   37.00    9.10
  -5   7   2   30.80   17.90
  -5   7   2   12.40   10.40
   4  -7  -2   -1.80    6.60
   4  -7  -2    1.80    5.10
   4  -7  -2    0.50    4.70
   4  -7  -2    9.90    9.00
   4  -7  -2   -1.50    4.60
  -4   7   2   -1.30    6.20
  -4   7   2  -10.00   13.00
  -4   7   2   -0.50    6.80
  -4   7   2   -1.90   12.50
   3  -7  -2   34.20    7.40
   3  -7  -2   20.20    5.60
   3  -7  -2   20.30    5.40
   3  -7  -2   17.50    5.60
   3  -7  -2   22.90    5.70
   3  -7  -2   23.80    4.90
  -3   7   2   29.50   12.50
  -3   7   2   26.90   12.90
  -3   7   2   23.60    5.30
  -3   7   2   23.80    4.70
   2  -7  -2   75.39    8.40
   2  -7  -2   76.59    8.30
   2  -7  -2   75.19    8.80
   2  -7  -2   85.59    8.60
   2  -7  -2   82.79    9.40
  -2   7   2   47.60   11.50
  -2   7   2   77.29    7.20
  -2   7   2   59.59   12.30
  -2   7   2   71.99    7.90
  -2   7   2   78.39    8.50
  -2   7   2   71.89    8.00
  -2   7   2   77.09    7.40
   1  -7  -2  124.59   11.10
   1  -7  -2  109.29    8.80
   1  -7  -2  122.79    9.40
   1  -7  -2  119.69    9.50
   1  -7  -2  107.39    9.10
  -1   7   2  122.19    8.90
  -1   7   2   99.79   17.10
  -1   7   2  114.19    8.80
  -1   7   2  112.39    8.90
  -1   7   2  107.29    8.80
  -1   7   2  113.69   10.50
  -1   7   2  123.19    9.00
  -1   7   2  102.49   15.80
   0  -7  -2  131.89    9.20
   0  -7  -2  140.89   10.30
   0  -7  -2  130.09   10.70
   0  -7  -2  154.98   12.50
   0  -7  -2  134.89    9.90
   0   7   2  136.19   14.70
   0   7   2  156.78   11.70
   0   7   2  147.29   17.10
   0   7   2  137.19    9.80
   0   7   2  142.49    9.50
   0   7   2  144.69   10.40
   0   7   2  139.49   10.10
  -1  -7  -2  735.03   41.70
  -1  -7  -2  737.93   40.00
  -1  -7  -2  746.13   39.50
  -1  -7  -2  744.83   41.30
  -1  -7  -2  716.13   38.90
  -1  -7  -2  738.13   40.20
   1   7   2  703.63   42.00
   1   7   2  733.53   39.90
   1   7   2  630.04   43.00
   1   7   2  764.92   39.30
   1   7   2  734.13   39.70
   1   7   2  719.13   40.50
   1   7   2  713.93   39.40
  -2  -7  -2   17.80    3.60
  -2  -7  -2   17.70    4.70
  -2  -7  -2   10.40    4.00
  -2  -7  -2   18.90    2.80
  -2  -7  -2   19.40    6.30
   2   7   2   20.50    3.30
   2   7   2   17.80    3.60
   2   7   2   15.60    3.60
   2   7   2   22.00    3.80
   2   7   2   12.60    5.70
   2   7   2   18.90    4.00
   2   7   2   17.50    4.40
  -3  -7  -2  182.98   16.00
  -3  -7  -2  166.48   13.30
  -3  -7  -2  186.58   11.90
  -3  -7  -2  180.18   12.80
  -3  -7  -2  173.08   13.90
  -3  -7  -2  183.08   11.70
   3   7   2  170.98   12.50
   3   7   2  154.48   13.40
   3   7   2  179.38   11.90
   3   7   2  175.08   11.60
   3   7   2  176.88   12.70
   3   7   2  177.28   11.30
  -4  -7  -2    8.00    6.10
  -4  -7  -2    6.60    5.00
  -4  -7  -2    9.10    4.60
  -4  -7  -2    3.50    5.40
  -4  -7  -2   16.30    7.90
   4   7   2   11.10    3.70
   4   7   2   11.10    4.30
   4   7   2    2.40    4.50
   4   7   2   10.40    3.80
   4   7   2    6.70    3.90
   4   7   2    9.00    4.60
  -5  -7  -2   10.60    6.30
  -5  -7  -2   16.60    6.50
  -5  -7  -2   19.50    3.40
  -5  -7  -2   19.00    3.60
  -5  -7  -2   26.70    9.60
   5   7   2   17.70    5.70
   5   7   2   28.70    5.30
   5   7   2   25.90    4.80
   5   7   2   19.00    4.80
   5   7   2   23.40    5.50
   5   7   2   19.10    5.40
  -6  -7  -2   38.80    8.90
  -6  -7  -2   43.10   11.70
  -6  -7  -2   27.30    8.10
  -6  -7  -2   28.50    5.10
  -6  -7  -2   31.10    3.60
   6   7   2   40.60    5.90
   6   7   2   34.80    6.30
   6   7   2   42.70   10.50
   6   7   2   41.50    6.50
   6   7   2   32.70    7.50
  -7  -7  -2  293.57   24.20
  -7  -7  -2  317.07   24.50
  -7  -7  -2  315.97   28.70
  -7  -7  -2  285.37   20.20
   7   7   2  282.27   19.30
   7   7   2  266.87   22.20
   7   7   2  299.67   20.60
   7   7   2  306.17   28.80
   7   7   2  291.47   19.90
  -8  -7  -2   65.69   14.00
  -8  -7  -2   56.39    9.60
  -8  -7  -2   59.29   12.60
  -8  -7  -2   85.09   17.20
   8   7   2   63.99    9.20
   8   7   2   43.90   13.80
   8   7   2   67.29    8.90
   8   7   2   47.90   10.70
   8   7   2   79.09   11.10
   3  -8  -2   65.59    9.00
   3  -8  -2   73.89   10.20
   3  -8  -2   68.49   10.40
   3  -8  -2   64.89    9.90
   3  -8  -2   68.99   12.30
  -3   8   2   65.79    7.60
  -3   8   2   61.69    7.20
  -3   8   2   62.59    8.70
  -3   8   2   61.29   17.50
  -3   8   2   55.69   20.50
   2  -8  -2   31.60    6.50
   2  -8  -2   31.60    5.90
   2  -8  -2   27.30    6.30
   2  -8  -2   27.20    5.30
  -2   8   2   21.40    5.40
  -2   8   2   26.10   13.70
  -2   8   2   31.10    5.70
  -2   8   2   17.80   12.00
   1  -8  -2  113.19   10.40
   1  -8  -2  133.79   10.90
   1  -8  -2  109.39    9.80
   1  -8  -2  128.59   12.50
  -1   8   2  126.69    9.90
  -1   8   2  112.89    9.90
  -1   8   2  119.99    9.20
  -1   8   2  107.49   12.10
  -1   8   2  107.89   16.20
  -1   8   2  118.79   10.10
  -1   8   2  118.69   15.80
   0  -8  -2  534.75   30.30
   0  -8  -2  571.44   30.90
   0  -8  -2  528.15   30.80
   0  -8  -2  518.05   29.60
   0  -8  -2  587.74   32.30
   0   8   2  557.64   30.10
   0   8   2  530.35   30.10
   0   8   2  521.85   30.00
   0   8   2  526.85   35.40
   0   8   2  506.95   36.50
   0   8   2  532.55   31.80
  -1  -8  -2    1.40    6.40
  -1  -8  -2   -0.30    4.30
  -1  -8  -2    2.60    2.80
  -1  -8  -2    2.30    3.20
  -1  -8  -2    1.60    4.30
   1   8   2    3.70    8.40
   1   8   2    2.60    3.70
   1   8   2   -4.40    6.80
   1   8   2    1.50    3.60
   1   8   2    2.20    3.60
  -2  -8  -2   78.49    9.90
  -2  -8  -2   82.99   10.70
  -2  -8  -2   78.99    7.70
  -2  -8  -2   77.49    8.80
  -2  -8  -2   76.49    6.30
  -2  -8  -2   82.29   12.60
   2   8   2   67.29    8.30
   2   8   2   84.99    7.90
   2   8   2   82.69   11.00
   2   8   2   77.69    8.60
   2   8   2   72.59    8.00
   2   8   2   80.09    7.40
  -3  -8  -2   -1.50    5.10
  -3  -8  -2    2.80    3.40
  -3  -8  -2    7.30    3.80
  -3  -8  -2   -3.20    4.70
  -3  -8  -2    3.30    4.70
  -3  -8  -2   -1.50    7.30
   3   8   2    0.80    4.20
   3   8   2    6.20    4.00
   3   8   2    2.10    5.20
   3   8   2   -0.30    3.30
   3   8   2   -1.80    3.70
  -4  -8  -2   11.80    4.00
  -4  -8  -2   10.40    6.30
  -4  -8  -2   14.50    5.90
  -4  -8  -2   12.50    5.00
  -4  -8  -2   18.50    9.80
   4   8   2   17.70    4.60
   4   8   2   13.40    4.10
   4   8   2   18.00    4.70
   4   8   2    4.00    5.00
   4   8   2   15.20    5.60
   4   8   2    8.70    5.30
  -5  -8  -2   22.50    3.30
  -5  -8  -2   23.00    4.30
  -5  -8  -2   22.30    7.80
  -5  -8  -2   17.60    5.40
  -5  -8  -2   20.50    6.80
  -5  -8  -2   28.70   10.60
   5   8   2   20.10    6.50
   5   8   2   28.10    5.40
   5   8   2   29.50    6.10
   5   8   2   34.40    5.70
   5   8   2   15.20    6.10
  -6  -8  -2   97.09    9.50
  -6  -8  -2   86.49   11.60
  -6  -8  -2   86.19   10.80
  -6  -8  -2  106.19   15.90
  -6  -8  -2   88.69    8.10
   6   8   2  111.89   10.20
   6   8   2   73.59    9.90
   6   8   2   85.29   11.20
   6   8   2  109.59   11.00
   6   8   2  104.09   11.50
  -7  -8  -2   52.49   15.80
  -7  -8  -2   44.40   11.20
  -7  -8  -2   39.90    6.90
  -7  -8  -2   56.39   12.10
  -7  -8  -2   41.00    4.50
   7   8   2   46.30    9.70
   7   8   2   36.90    9.20
   7   8   2   34.60    8.40
   7   8   2   56.69    8.90
   7   8   2   31.50   11.50
   2  -9  -2   -5.60    7.10
   2  -9  -2    3.30    5.40
   2  -9  -2   13.00    6.80
  -2   9   2    0.60    5.90
  -2   9   2   17.30   32.00
  -2   9   2   10.80   14.80
  -2   9   2    4.50    6.40
   1  -9  -2   94.49   10.00
   1  -9  -2   99.69   12.40
   1  -9  -2  106.09   13.10
   1  -9  -2   87.59   11.20
  -1   9   2   94.59   10.30
  -1   9   2  111.59   10.40
  -1   9   2   88.99   28.70
  -1   9   2   88.19   17.20
  -1   9   2   87.59   10.50
   0  -9  -2   49.20    5.50
   0  -9  -2   39.50    6.60
   0  -9  -2   51.29    6.70
   0  -9  -2   59.19    9.20
   0   9   2   43.80   13.30
   0   9   2   40.20    8.60
   0   9   2   49.80    6.10
   0   9   2   41.70    5.60
   0   9   2   48.10    5.90
   0   9   2   42.60   22.20
  -1  -9  -2   49.00    7.20
  -1  -9  -2   54.89    8.10
  -1  -9  -2   55.39    9.30
  -1  -9  -2   45.70    6.20
  -1  -9  -2   44.30    6.90
   1   9   2   45.20    5.90
   1   9   2   37.80   12.30
   1   9   2   37.70   10.20
   1   9   2   43.00    5.90
   1   9   2   48.70    6.00
  -2  -9  -2   47.20    7.30
  -2  -9  -2   48.80    5.90
  -2  -9  -2   54.39   10.00
  -2  -9  -2   34.20    6.50
   2   9   2   39.70    5.30
   2   9   2   44.30    6.20
   2   9   2   39.40   12.40
   2   9   2   46.90    8.80
   2   9   2   49.90    6.00
  -3  -9  -2   10.20    6.10
  -3  -9  -2   15.40    4.90
  -3  -9  -2   19.10    9.50
   3   9   2    4.70    5.00
   3   9   2    9.60    7.30
   3   9   2   13.70    4.90
   3   9   2    9.40    5.30
  -4  -9  -2   70.19   12.60
  -4  -9  -2   67.29    9.50
  -4  -9  -2   86.89   12.10
  -4  -9  -2   65.79    9.60
   4   9   2   64.69    7.10
   4   9   2   57.89    8.00
   4   9   2   73.69    7.60
  -5  -9  -2    5.20    5.00
  -5  -9  -2    4.00    7.40
  -5  -9  -2   11.00   11.80
  -5  -9  -2   10.20    7.90
   5   9   2    8.40    7.60
   5   9   2   13.80    6.00
   5   9   2   16.50    6.00
   5   9   2   -2.20    6.10
  -6  -9  -2   40.50    9.20
  -6  -9  -2   20.60    5.30
  -6  -9  -2   33.60    9.70
   6   9   2   35.40    7.70
   6   9   2   27.30    7.60
   6   9   2   21.40    8.10
   0 -10  -2    2.10    7.80
   0 -10  -2    1.20    5.00
   0 -10  -2   -6.80    5.80
   0  10   2   -0.50    5.60
   0  10   2   -4.80   22.20
   0  10   2    5.70    9.20
   0  10   2    3.30    5.00
   0  10   2    2.20    5.50
  -1 -10  -2   11.60    6.30
  -1 -10  -2   20.30    9.20
  -1 -10  -2   20.50    4.80
   1  10   2   19.90    5.70
   1  10   2   19.20    5.60
   1  10   2   12.10   13.70
   1  10   2   22.70    9.10
  -2 -10  -2   41.30    9.90
  -2 -10  -2   31.90    7.50
   2  10   2   35.40    6.50
   2  10   2   21.40   10.60
   2  10   2   20.50   14.20
   2  10   2   26.10    5.60
   2  10   2   28.60    6.40
  -3 -10  -2  100.49   13.60
  -3 -10  -2   76.99   10.70
   3  10   2   74.19   17.20
   3  10   2   95.69   10.80
   3  10   2   71.99   12.30
   3  10   2   70.79   11.80
  -4 -10  -2    6.10    7.30
  -4 -10  -2   10.80    7.10
  -4 -10  -2   12.30   10.90
   4  10   2    9.90   11.90
   4  10   2   23.00   11.20
   4  10   2    3.70    6.80
   4  10   2   11.20    6.70
   5   9  -3   14.90    8.60
   5   9  -3   21.80   10.40
   5   9  -3    8.30    7.40
  -5  -9   3    5.10   10.50
  -5  -9   3    7.10   10.80
  -5  -9   3   13.90    7.70
  -5  -9   3   17.10   13.80
   4   9  -3  424.46   28.40
   4   9  -3  412.76   26.80
   4   9  -3  417.56   26.40
  -4  -9   3  390.56   26.90
  -4  -9   3  441.56   25.80
  -4  -9   3  388.66   31.00
  -4  -9   3  436.46   28.50
  -4  -9   3  388.26   36.40
  -4  -9   3  423.76   29.50
   3   9  -3  643.14   37.20
   3   9  -3  630.34   35.40
   3   9  -3  597.34   37.20
  -3  -9   3  602.44   37.30
  -3  -9   3  624.44   44.40
  -3  -9   3  640.34   37.90
  -3  -9   3  625.64   36.50
  -3  -9   3  601.04   35.60
   2   9  -3  228.48   18.60
   2   9  -3  269.27   17.20
   2   9  -3  265.27   16.80
   2   9  -3  287.97   25.80
   2   9  -3  294.67   18.70
  -2  -9   3  259.07   15.30
  -2  -9   3  284.87   24.00
  -2  -9   3  258.17   20.20
  -2  -9   3  284.87   18.40
  -2  -9   3  273.37   17.80
  -2  -9   3  267.57   20.10
   1   9  -3    0.80   11.50
   1   9  -3    0.50    4.40
   1   9  -3    4.50    5.80
  -1  -9   3   -2.80    5.90
  -1  -9   3    0.30    5.00
  -1  -9   3   -6.00    5.60
  -1  -9   3    6.80    8.50
  -1  -9   3    2.60    4.80
  -1  -9   3    2.20    2.70
   0   9  -3    2.20    4.90
   0   9  -3    7.40    6.20
   0   9  -3    6.70   13.40
   0  -9   3    0.60    3.30
   0  -9   3   -0.60    5.20
   0  -9   3    2.60    7.70
   0  -9   3   -2.30    6.40
   0  -9   3    5.50    5.30
  -1   9  -3   -0.60   15.00
  -1   9  -3   -2.80    5.50
  -1   9  -3    1.30    5.20
   1  -9   3    6.80    7.80
   1  -9   3    5.90    6.00
   1  -9   3   -0.70    5.10
   1  -9   3    4.20    4.30
   6   8  -3    0.30    6.10
   6   8  -3  -15.30    9.20
   6   8  -3   -2.70    8.10
  -6  -8   3   10.80   13.30
  -6  -8   3   -8.80   12.60
  -6  -8   3  -19.10   10.50
  -6  -8   3   -5.00    8.60
  -6  -8   3    2.80    4.90
   5   8  -3  239.48   14.50
   5   8  -3  243.98   19.40
   5   8  -3  252.57   19.60
  -5  -8   3  230.98   18.60
  -5  -8   3  222.18   20.90
  -5  -8   3  244.98   23.00
  -5  -8   3  273.37   20.00
  -5  -8   3  258.77   26.10
  -5  -8   3  223.38   15.60
   4   8  -3  989.90   55.79
   4   8  -3 1162.88   57.69
   4   8  -3  976.90   55.89
   4   8  -3 1071.29   58.79
  -4  -8   3  960.20   56.39
  -4  -8   3  978.50   55.39
  -4  -8   3  980.90   57.99
  -4  -8   3  992.80   56.89
  -4  -8   3  954.00   54.69
  -4  -8   3 1014.60   60.29
   3   8  -3  620.84   36.40
   3   8  -3  631.84   37.60
   3   8  -3  666.93   36.80
  -3  -8   3  646.84   36.30
  -3  -8   3  662.83   37.30
  -3  -8   3  653.43   38.50
  -3  -8   3  629.34   36.10
  -3  -8   3  624.04   37.50
  -3  -8   3  691.23   41.50
   2   8  -3   34.80    5.00
   2   8  -3   32.50    4.70
   2   8  -3   36.30    5.80
   2   8  -3   35.40    6.50
   2   8  -3   43.40    9.80
  -2  -8   3   25.60    5.60
  -2  -8   3   38.10    7.00
  -2  -8   3   32.60    5.90
  -2  -8   3   39.60    9.80
  -2  -8   3   47.10    6.90
  -2  -8   3   34.70    3.80
  -2  -8   3   34.70    5.90
   1   8  -3   51.09   11.40
   1   8  -3   49.20    6.10
   1   8  -3   47.40    5.80
  -1  -8   3   54.99    6.10
  -1  -8   3   53.49    6.80
  -1  -8   3   59.69   10.30
  -1  -8   3   43.40    5.40
  -1  -8   3   57.89    7.40
  -1  -8   3   40.30    6.40
   0   8  -3    1.00    4.20
   0   8  -3    9.70   10.40
   0   8  -3    4.90    4.60
   0  -8   3    0.90    4.70
   0  -8   3    1.50    3.90
   0  -8   3   -0.80    3.80
   0  -8   3    2.40    2.80
   0  -8   3    5.70    7.20
   0  -8   3    1.70    4.30
   0  -8   3    6.40    3.90
  -1   8  -3   22.20    5.40
  -1   8  -3    4.60    4.60
  -1   8  -3   19.80   12.70
   1  -8   3   12.70    3.60
   1  -8   3   24.50    8.10
   1  -8   3   12.40    4.40
   1  -8   3   16.50    7.80
   1  -8   3   17.70    4.60
  -2   8  -3  270.27   19.00
  -2   8  -3  254.67   31.60
  -2   8  -3  316.57   18.50
   2  -8   3  274.67   17.90
   2  -8   3  282.57   16.10
   2  -8   3  316.17   20.70
   2  -8   3  283.77   17.70
   2  -8   3  296.47   23.10
   2  -8   3  263.37   16.40
   2  -8   3  294.17   17.60
  -3   8  -3  365.76   24.50
  -3   8  -3  338.97   38.70
   3  -8   3  427.76   24.70
   3  -8   3  398.66   22.50
   3  -8   3  369.56   22.10
   3  -8   3  374.36   23.40
   3  -8   3  388.76   23.80
   3  -8   3  366.16   28.50
   3  -8   3  376.26   23.00
   7   7  -3    8.90   10.10
   7   7  -3    2.50   14.20
   7   7  -3    7.00    8.50
   7   7  -3    7.80    5.40
  -7  -7   3    4.80   11.90
  -7  -7   3    4.50   10.20
  -7  -7   3    8.60   13.20
  -7  -7   3    1.70   10.90
   6   7  -3   85.29   10.90
   6   7  -3   60.89   10.50
   6   7  -3   79.59   14.20
   6   7  -3   83.09    9.80
  -6  -7   3   83.49   13.20
  -6  -7   3   83.59    8.90
  -6  -7   3   86.19   12.20
  -6  -7   3   80.19   11.40
  -6  -7   3   85.39   13.50
  -6  -7   3   80.89   14.50
   5   7  -3  535.45   34.20
   5   7  -3  554.94   31.60
   5   7  -3  551.04   32.50
   5   7  -3  574.94   34.70
   5   7  -3  584.44   33.90
   5   7  -3  578.94   38.60
  -5  -7   3  559.74   34.60
  -5  -7   3  581.44   34.10
  -5  -7   3  566.14   31.70
  -5  -7   3  583.54   38.60
  -5  -7   3  555.04   35.50
  -5  -7   3  639.04   37.40
   4   7  -3  911.11   51.89
   4   7  -3 1030.90   49.90
   4   7  -3  934.31   51.59
   4   7  -3  902.41   51.19
   4   7  -3  939.11   52.09
   4   7  -3  924.91   52.59
  -4  -7   3  897.01   51.09
  -4  -7   3  926.61   52.09
  -4  -7   3  974.40   53.99
  -4  -7   3  921.31   55.29
  -4  -7   3  911.91   52.59
  -4  -7   3  910.11   50.49
   3   7  -3  274.17   18.70
   3   7  -3  256.27   16.50
   3   7  -3  243.98   16.30
  -3  -7   3  259.87   15.80
  -3  -7   3  250.17   17.00
  -3  -7   3  225.78   17.20
  -3  -7   3  253.67   15.60
  -3  -7   3  255.87   21.60
  -3  -7   3  245.58   19.00
   2   7  -3  185.48   12.90
   2   7  -3  178.98   12.20
   2   7  -3  192.38   12.30
   2   7  -3  211.48   16.70
   2   7  -3  172.08   13.80
  -2  -7   3  190.58   12.50
  -2  -7   3  188.58   14.90
  -2  -7   3  177.68   13.70
  -2  -7   3  173.48   13.50
  -2  -7   3  200.18   18.20
  -2  -7   3  204.78   12.40
   1   7  -3   19.60    4.30
   1   7  -3   15.80    2.90
   1   7  -3   17.10    3.80
   1   7  -3   15.80    3.70
   1   7  -3   22.70    4.50
   1   7  -3   19.60    8.20
  -1  -7   3   18.60    3.50
  -1  -7   3   16.50    2.80
  -1  -7   3   15.90    4.00
  -1  -7   3   11.90    3.50
  -1  -7   3   14.50    4.00
  -1  -7   3   12.40    4.60
  -1  -7   3   11.90    7.40
   0   7  -3   -2.30    4.00
   0   7  -3    0.10    3.70
   0   7  -3   -0.60    3.50
   0   7  -3    4.00    8.20
   0  -7   3    0.20    3.20
   0  -7   3   -0.80    2.30
   0  -7   3    2.50    6.10
   0  -7   3    1.60    3.70
   0  -7   3   -1.80    3.40
   0  -7   3    4.20    3.00
   0  -7   3   -2.70    3.10
   0  -7   3    2.80    2.90
  -1   7  -3   13.80    4.40
  -1   7  -3   18.80   10.30
  -1   7  -3    7.30    4.10
   1  -7   3    9.60    5.90
   1  -7   3   13.60    3.70
   1  -7   3    1.10    3.00
   1  -7   3   14.60    3.30
   1  -7   3    7.90    2.90
   1  -7   3   11.20    3.40
  -2   7  -3  652.23   35.20
  -2   7  -3  619.74   35.60
  -2   7  -3  535.35   42.60
   2  -7   3  666.53   36.50
   2  -7   3  644.94   34.00
   2  -7   3  675.43   34.50
   2  -7   3  616.44   35.00
   2  -7   3  585.14   35.80
   2  -7   3  647.44   38.00
   2  -7   3  632.94   34.40
  -3   7  -3  460.65   41.10
  -3   7  -3  530.15   31.60
   3  -7   3  554.04   31.70
   3  -7   3  550.44   38.90
   3  -7   3  572.94   33.60
   3  -7   3  544.25   30.50
   3  -7   3  563.94   29.80
   3  -7   3  518.25   32.00
  -4   7  -3   17.30   16.90
  -4   7  -3   20.50    7.60
   4  -7   3   29.90    5.80
   4  -7   3   34.00    9.30
   4  -7   3   27.80    5.80
   4  -7   3   29.20    4.30
   4  -7   3   27.80    6.20
   8   6  -3   46.80    7.90
   8   6  -3   52.59    8.40
   8   6  -3   36.50   13.40
   8   6  -3   24.40   19.90
  -8  -6   3   32.50   13.10
  -8  -6   3   45.40   16.00
  -8  -6   3   45.30   14.50
  -8  -6   3   69.09   15.20
   7   6  -3    2.80    4.90
   7   6  -3   -4.90    8.70
   7   6  -3   -0.30   12.90
   7   6  -3    0.00    5.10
  -7  -6   3    4.30   11.60
  -7  -6   3   -6.50    9.20
  -7  -6   3    4.90    7.30
  -7  -6   3   -8.00   10.00
  -7  -6   3   -1.50   12.00
   6   6  -3  463.55   25.80
   6   6  -3  438.76   34.90
   6   6  -3  438.46   26.30
   6   6  -3  391.66   29.80
  -6  -6   3  493.95   30.50
  -6  -6   3  424.16   31.90
  -6  -6   3  450.85   28.30
  -6  -6   3  478.85   31.70
  -6  -6   3  452.05   32.00
   5   6  -3 1000.10   58.29
   5   6  -3 1003.20   53.69
   5   6  -3  993.50   54.19
   5   6  -3  972.00   55.39
   5   6  -3  946.41   53.19
  -5  -6   3  967.20   54.59
  -5  -6   3  964.30   57.29
  -5  -6   3  980.00   56.19
  -5  -6   3 1040.10   57.09
  -5  -6   3  946.21   52.79
   4   6  -3  311.87   18.80
   4   6  -3  281.27   17.70
   4   6  -3  293.87   22.00
   4   6  -3  267.67   19.00
   4   6  -3  281.47   16.50
   4   6  -3  263.57   18.80
  -4  -6   3  284.07   16.80
  -4  -6   3  287.57   17.60
  -4  -6   3  263.47   20.20
  -4  -6   3  313.27   18.70
  -4  -6   3  316.57   21.70
  -4  -6   3  299.87   23.00
   3   6  -3   35.40    5.20
   3   6  -3   44.20    6.80
   3   6  -3   44.90    6.30
   3   6  -3   46.90    5.60
  -3  -6   3   39.80    7.00
  -3  -6   3   41.70    7.30
  -3  -6   3   39.00    8.90
  -3  -6   3   39.10    5.60
  -3  -6   3   35.00    4.10
  -3  -6   3   38.10    6.50
   2   6  -3    4.60    3.60
   2   6  -3    0.10    5.20
   2   6  -3    8.60    3.80
   2   6  -3    1.10    2.90
   2   6  -3    2.60    2.70
   2   6  -3    1.10    3.20
  -2  -6   3    2.00    4.60
  -2  -6   3   11.50    6.60
  -2  -6   3    0.40    3.80
  -2  -6   3    2.80    2.70
  -2  -6   3    3.30    3.00
  -2  -6   3    1.80    2.50
   1   6  -3  182.58   10.70
   1   6  -3  183.98   11.90
   1   6  -3  182.58   15.40
   1   6  -3  157.28   11.70
   1   6  -3  182.38   11.70
   1   6  -3  174.68   11.20
  -1  -6   3  186.28   15.40
  -1  -6   3  186.88   11.30
  -1  -6   3  176.68   11.70
  -1  -6   3  183.98   11.80
  -1  -6   3  176.38   12.70
   0   6  -3   32.50    4.40
   0   6  -3   39.00    4.70
   0   6  -3   27.50    3.90
   0   6  -3   36.90    8.00
   0  -6   3   31.40    4.30
   0  -6   3   23.80    3.90
   0  -6   3   42.60    4.80
   0  -6   3   36.60    7.30
   0  -6   3   36.60    4.40
   0  -6   3   34.70    5.10
   0  -6   3   37.20    4.70
  -1   6  -3 1553.34   83.49
  -1   6  -3 1522.95   83.59
  -1   6  -3 1394.36   87.09
   1  -6   3 1529.65   83.99
   1  -6   3 1568.84   83.19
   1  -6   3 1561.64   83.19
   1  -6   3 1603.44   82.59
   1  -6   3 1593.54   83.19
   1  -6   3 1602.04   84.79
   1  -6   3 1642.24   83.09
   1  -6   3 1559.74   83.39
   1  -6   3 1625.34   82.49
  -2   6  -3  716.03   49.60
  -2   6  -3  768.92   44.40
  -2   6  -3  796.82   44.10
   2  -6   3  789.62   44.00
   2  -6   3  806.02   44.70
   2  -6   3  839.02   43.60
   2  -6   3  827.82   46.30
   2  -6   3  850.11   43.50
   2  -6   3  822.62   45.20
   2  -6   3  844.02   43.90
   2  -6   3  837.82   48.40
  -3   6  -3  116.99   11.00
  -3   6  -3  106.19   21.40
   3  -6   3  131.89    9.80
   3  -6   3  111.29   17.70
   3  -6   3  122.79   11.10
   3  -6   3  122.89    9.60
   3  -6   3  128.19   12.80
   3  -6   3  129.19    8.40
   3  -6   3  112.69   10.60
  -4   6  -3   20.30   14.50
  -4   6  -3    6.70    5.20
   4  -6   3   17.10    6.70
   4  -6   3   19.50   11.30
   4  -6   3   12.50    5.60
   4  -6   3   15.90    5.10
   4  -6   3   12.50    4.80
   4  -6   3   13.00    3.50
   4  -6   3   11.50    4.20
  -5   6  -3   31.70   18.50
  -5   6  -3   36.90    7.90
   5  -6   3   52.59   10.70
   5  -6   3   47.30    6.20
   5  -6   3   53.29    6.40
   5  -6   3   53.39    9.10
   5  -6   3   47.60    6.60
   5  -6   3   59.99    7.40
   8   5  -3   -1.50   12.10
   8   5  -3   17.00    6.50
   8   5  -3  -18.20   17.00
  -8  -5   3    2.90   11.20
  -8  -5   3   10.10   15.20
  -8  -5   3   -1.90   13.00
  -8  -5   3   27.10   12.50
   7   5  -3  110.59   14.70
   7   5  -3  130.49   11.00
   7   5  -3   92.99   18.90
   7   5  -3  120.09   11.00
   7   5  -3  134.29   10.80
  -7  -5   3  114.29   14.00
  -7  -5   3  136.69   16.50
  -7  -5   3   96.89   13.50
  -7  -5   3   92.89   11.90
  -7  -5   3  106.19   14.40
  -7  -5   3  140.49   18.80
   6   5  -3  419.96   24.50
   6   5  -3  425.26   24.10
   6   5  -3  369.16   32.80
   6   5  -3  433.76   24.50
   6   5  -3  394.96   28.60
   6   5  -3  437.56   25.00
  -6  -5   3  381.46   24.60
  -6  -5   3  384.46   28.70
  -6  -5   3  441.66   29.90
  -6  -5   3  448.96   30.20
  -6  -5   3  406.26   26.10
  -6  -5   3  450.55   28.50
   5   5  -3 1167.18   62.09
   5   5  -3 1152.78   61.39
   5   5  -3 1119.09   66.19
   5   5  -3 1148.39   62.39
   5   5  -3 1181.18   62.09
   5   5  -3 1100.99   63.89
  -5  -5   3 1159.98   64.49
  -5  -5   3 1127.19   62.99
  -5  -5   3 1096.59   64.69
  -5  -5   3 1225.08   65.19
  -5  -5   3 1109.69   62.19
   4   5  -3    4.50    3.10
   4   5  -3    7.10    5.60
   4   5  -3   12.80    5.20
   4   5  -3   -0.30    3.60
   4   5  -3    3.80    4.00
  -4  -5   3    2.20    2.90
  -4  -5   3    4.10    7.20
  -4  -5   3   -6.80    5.50
  -4  -5   3    5.50    2.60
  -4  -5   3   -5.10    5.80
  -4  -5   3    2.70    3.60
   3   5  -3  111.79    9.70
   3   5  -3  120.09   10.10
   3   5  -3  119.79   11.90
   3   5  -3  117.29    9.80
   3   5  -3  124.29   10.00
   3   5  -3  122.59    9.10
  -3  -5   3  125.49    8.90
  -3  -5   3  130.79   13.40
  -3  -5   3  128.69    8.40
  -3  -5   3  101.49   10.80
  -3  -5   3  125.79    9.60
  -3  -5   3  114.59   11.80
   2   5  -3   19.90    3.80
   2   5  -3   16.80    3.90
   2   5  -3   15.20    3.40
   2   5  -3   17.10    3.20
   2   5  -3   17.60    4.70
   2   5  -3   19.20    3.80
  -2  -5   3   26.40    6.40
  -2  -5   3   17.00    3.40
  -2  -5   3   12.60    3.40
  -2  -5   3   15.10    4.10
  -2  -5   3   18.50    4.90
  -2  -5   3   17.70    3.40
   1   5  -3    5.90    3.00
   1   5  -3    7.00    2.90
   1   5  -3    7.60    2.30
   1   5  -3    5.40    2.80
   1   5  -3    5.80    2.10
   1   5  -3    9.30    4.70
  -1  -5   3    9.10    2.70
  -1  -5   3    7.00    2.20
  -1  -5   3   14.00    5.80
  -1  -5   3    5.50    3.50
  -1  -5   3    5.30    2.70
  -1  -5   3    7.00    3.10
   0   5  -3  366.46   22.50
   0   5  -3  399.76   22.40
   0   5  -3  401.96   22.40
   0   5  -3  381.66   25.00
   0  -5   3  417.26   22.30
   0  -5   3  399.06   24.40
   0  -5   3  387.46   22.70
   0  -5   3  408.76   22.70
   0  -5   3  427.26   22.20
   0  -5   3  419.66   22.10
   0  -5   3  413.06   22.20
  -1   5  -3 1838.82   96.29
  -1   5  -3 1667.63   98.89
  -1   5  -3 1778.42   96.09
   1  -5   3 1809.72   98.19
   1  -5   3 1852.31   96.59
   1  -5   3 1759.12   97.09
   1  -5   3 1872.31   95.79
   1  -5   3 1653.83   96.39
   1  -5   3 1903.41   95.79
   1  -5   3 1846.12   96.09
   1  -5   3 1871.41   95.49
   1  -5   3 1856.61   95.99
  -2   5  -3  636.24   43.30
  -2   5  -3  717.03   39.00
  -2   5  -3  716.13   39.30
   2  -5   3  704.33   42.60
   2  -5   3  735.33   39.60
   2  -5   3  727.43   38.40
   2  -5   3  742.63   40.00
   2  -5   3  724.43   41.00
   2  -5   3  737.03   38.90
   2  -5   3  717.23   39.00
   2  -5   3  734.63   38.40
  -3   5  -3   -2.10    8.50
  -3   5  -3    3.50    3.70
   3  -5   3    1.20    4.90
   3  -5   3   -0.80    3.10
   3  -5   3    3.60    1.90
   3  -5   3   -3.10    6.20
   3  -5   3   -0.90    4.00
   3  -5   3    0.20    2.50
   3  -5   3    2.30    1.70
   3  -5   3   -1.20    3.10
  -4   5  -3  180.58   24.80
   4  -5   3  206.18   12.90
   4  -5   3  199.28   13.90
   4  -5   3  224.88   13.90
   4  -5   3  188.38   14.70
   4  -5   3  238.78   15.90
   4  -5   3  225.78   12.30
   4  -5   3  232.38   14.20
  -5   5  -3    5.20    5.70
   5  -5   3    5.50    3.80
   5  -5   3    4.30    3.10
   5  -5   3   -3.40    4.50
   5  -5   3   -2.70    5.50
   5  -5   3    1.20    5.20
   5  -5   3    2.20    3.90
   5  -5   3   -0.20    7.10
   5  -5   3   10.10    8.70
   5  -5   3   -2.10    4.10
  -6   5  -3   12.90    9.20
  -6   5  -3   22.30    8.00
   6  -5   3   22.90    4.80
   6  -5   3   23.40    9.70
   6  -5   3   15.40    8.10
   6  -5   3   25.10    4.30
   6  -5   3   16.90    5.40
   6  -5   3    4.70    6.70
   6  -5   3   20.90    7.50
   8   4  -3   39.50    7.30
   8   4  -3   34.30    4.90
   8   4  -3   29.60   11.50
   8   4  -3   34.90    6.90
  -8  -4   3   21.90   15.20
  -8  -4   3   32.20    7.50
  -8  -4   3   34.00   12.20
  -8  -4   3   28.40   12.50
  -8  -4   3   61.59   11.40
   7   4  -3  328.97   19.80
   7   4  -3  315.57   18.90
   7   4  -3  306.67   25.50
   7   4  -3  318.47   19.70
   7   4  -3  215.58   33.50
  -7  -4   3  360.06   27.20
  -7  -4   3  307.07   25.80
  -7  -4   3  301.97   27.30
  -7  -4   3  370.56   24.20
  -7  -4   3  259.97   21.60
   6   4  -3  336.17   25.30
   6   4  -3  346.57   20.80
   6   4  -3  349.47   20.80
   6   4  -3  303.07   30.70
   6   4  -3  366.96   20.70
   6   4  -3  348.97   21.00
  -6  -4   3  319.87   21.10
  -6  -4   3  412.76   25.40
  -6  -4   3  359.36   24.40
  -6  -4   3  332.07   26.10
  -6  -4   3  323.07   22.70
  -6  -4   3  355.76   25.80
   5   4  -3   -2.00    6.00
   5   4  -3    4.70    3.00
   5   4  -3   -1.70    7.20
   5   4  -3    8.50    4.30
   5   4  -3    2.10    3.00
   5   4  -3    6.70    3.50
  -5  -4   3    7.20    6.90
  -5  -4   3    2.70    3.50
  -5  -4   3    1.20    6.30
  -5  -4   3   -3.80    6.40
   4   4  -3   17.30    4.10
   4   4  -3   20.90    4.30
   4   4  -3   21.50    3.90
   4   4  -3   13.10    5.50
   4   4  -3   14.00    3.80
   4   4  -3    7.50    4.80
  -4  -4   3   20.30    6.60
  -4  -4   3   10.90    6.10
  -4  -4   3   13.60    2.80
  -4  -4   3   11.00    5.80
  -4  -4   3   18.00    3.90
   3   4  -3   12.70    3.70
   3   4  -3   22.80    4.00
   3   4  -3   17.20    3.20
   3   4  -3   19.00    4.30
  -3  -4   3   13.20    2.50
  -3  -4   3   29.40    5.60
  -3  -4   3   18.60    4.70
  -3  -4   3   20.00    5.40
  -3  -4   3   27.00    6.40
  -3  -4   3   14.00    2.90
   2   4  -3   20.30    3.40
   2   4  -3   14.50    3.10
   2   4  -3   14.40    2.10
   2   4  -3   14.00    2.90
   2   4  -3   19.60    3.30
   2   4  -3   12.30    3.10
   2   4  -3   12.70    3.10
  -2  -4   3   13.50    3.80
  -2  -4   3   10.10    2.40
  -2  -4   3   13.30    2.60
  -2  -4   3   14.70    4.20
  -2  -4   3   17.10    5.60
  -2  -4   3   13.20    2.80
   1   4  -3    9.70    3.10
   1   4  -3   13.50    2.30
   1   4  -3   12.90    2.90
   1   4  -3    8.70    2.70
   1   4  -3   13.60    2.60
   1   4  -3   14.20    3.50
   1   4  -3   15.40    2.20
  -1  -4   3   15.10    2.30
  -1  -4   3   14.60    2.70
  -1  -4   3   12.40    2.50
  -1  -4   3   13.80    3.00
  -1  -4   3   21.00    5.20
  -1  -4   3   15.80    3.60
   0   4  -3 1799.02   91.99
   0   4  -3 1711.03   93.29
   0   4  -3 1716.33   91.89
   0  -4   3 1739.73   93.19
   0  -4   3 1712.73   91.89
   0  -4   3 1747.53   92.19
   0  -4   3 1818.92   91.79
   0  -4   3 1666.43   91.79
   0  -4   3 1754.52   92.29
   0  -4   3 1680.93   92.69
  -1   4  -3 1253.57   73.59
  -1   4  -3 1401.46   71.59
  -1   4  -3 1351.16   71.49
   1  -4   3 1414.66   71.09
   1  -4   3 1343.17   71.39
   1  -4   3 1338.07   72.49
   1  -4   3 1348.67   71.29
   1  -4   3 1279.17   73.19
   1  -4   3 1394.36   70.99
   1  -4   3 1295.27   73.09
   1  -4   3 1388.36   71.09
   1  -4   3 1404.46   71.49
   1  -4   3 1254.47   72.19
  -2   4  -3    4.30    5.70
  -2   4  -3    4.40    2.70
  -2   4  -3    0.10    2.30
   2  -4   3    0.50    2.00
   2  -4   3    5.50    3.60
   2  -4   3    0.40    2.00
   2  -4   3    0.80    1.30
   2  -4   3    3.20    1.10
   2  -4   3    1.20    3.60
   2  -4   3    3.10    2.80
   2  -4   3    0.10    5.20
  -3   4  -3   99.09    8.30
  -3   4  -3  106.49   15.10
   3  -4   3  102.39    8.40
   3  -4   3  112.29   10.30
   3  -4   3  103.29    7.70
   3  -4   3  128.79   13.50
   3  -4   3   87.59    9.10
   3  -4   3  110.29    8.60
  -4   4  -3   88.69    9.10
  -4   4  -3   89.99   14.40
  -4   4  -3   93.59    9.30
   4  -4   3   94.39    6.50
   4  -4   3   90.19    8.70
   4  -4   3   99.49   12.60
   4  -4   3   89.69    9.80
   4  -4   3   99.89    8.00
   4  -4   3   95.29    7.70
   4  -4   3   99.29    5.90
   4  -4   3   94.19    8.00
  -5   4  -3    6.90    4.80
   5  -4   3    7.80    3.10
   5  -4   3    7.00    2.60
   5  -4   3    2.40    5.00
   5  -4   3    4.30    3.20
   5  -4   3    8.00    3.30
   5  -4   3    8.90    7.30
   5  -4   3    1.70    3.60
   5  -4   3    3.50    4.50
  -6   4  -3   16.40    7.20
   6  -4   3   15.20    4.10
   6  -4   3    6.00    7.90
   6  -4   3    6.00    3.00
   6  -4   3   -1.40    5.90
   6  -4   3    2.10    3.90
   6  -4   3    1.30    4.80
   6  -4   3    6.40    5.40
   6  -4   3    6.70    4.10
  -7   4  -3   78.19   12.30
   7  -4   3   95.99   11.50
   7  -4   3  152.08   22.00
   7  -4   3  117.69   11.90
   9   3  -3   13.30   10.20
   9   3  -3    0.00    7.60
  -9  -3   3   11.10   12.80
  -9  -3   3    0.70   17.60
  -9  -3   3  -11.30   13.40
  -9  -3   3   -2.20    9.40
   8   3  -3   21.70    6.60
   8   3  -3   15.30    6.40
   8   3  -3   19.40   10.10
   8   3  -3   17.30    4.50
  -8  -3   3   13.60   11.00
  -8  -3   3    5.30   13.20
  -8  -3   3    3.20    5.70
  -8  -3   3   25.00   11.00
  -8  -3   3   23.60    8.50
   7   3  -3  159.58   18.60
   7   3  -3  145.79   12.20
   7   3  -3  138.99   11.30
   7   3  -3  158.18   12.30
  -7  -3   3  160.18   21.20
  -7  -3   3  139.69   16.50
  -7  -3   3  157.08   19.30
  -7  -3   3  129.19   15.60
  -7  -3   3  150.48   13.50
   6   3  -3  217.68   14.30
   6   3  -3  225.58   14.40
   6   3  -3  198.28   19.00
   6   3  -3  207.58   14.30
  -6  -3   3  214.88   14.90
  -6  -3   3  204.78   19.30
  -6  -3   3  189.88   19.30
  -6  -3   3  210.78   16.90
  -6  -3   3  254.77   19.50
  -6  -3   3  190.58   16.50
   5   3  -3   73.59    9.80
   5   3  -3   82.99    8.00
   5   3  -3   83.99    7.30
   5   3  -3   51.39   10.70
   5   3  -3   80.19    7.60
   5   3  -3   87.59    8.50
  -5  -3   3   76.99    9.50
  -5  -3   3   64.99    7.90
  -5  -3   3   89.09   10.30
  -5  -3   3   73.29   10.60
   4   3  -3  131.99    8.20
   4   3  -3  143.99   14.40
   4   3  -3  110.59    8.70
   4   3  -3  130.49    9.50
   4   3  -3   96.39   11.40
  -4  -3   3  107.89   11.70
  -4  -3   3  126.09   10.00
  -4  -3   3  105.09    9.10
  -4  -3   3  104.79   11.90
  -4  -3   3  117.49   11.50
   3   3  -3  671.73   35.10
   3   3  -3  631.64   36.70
   3   3  -3  589.04   35.80
   3   3  -3  645.44   35.10
   3   3  -3  692.53   34.30
  -3  -3   3  598.24   36.00
  -3  -3   3  618.94   36.30
  -3  -3   3  645.54   35.40
  -3  -3   3  624.74   36.40
  -3  -3   3  645.94   35.10
  -3  -3   3  657.73   34.50
   2   3  -3  737.43   40.90
   2   3  -3  734.33   40.80
   2   3  -3  748.43   40.80
   2   3  -3  735.13   41.10
   2   3  -3  774.22   41.30
  -2  -3   3  754.22   42.00
  -2  -3   3  767.52   40.40
  -2  -3   3  804.82   40.90
  -2  -3   3  769.12   40.70
  -2  -3   3  750.92   41.70
  -2  -3   3  699.83   41.30
   1   3  -3 2042.10  118.19
   1   3  -3 2215.38  117.89
   1   3  -3 2238.48  117.39
   1   3  -3 2207.38  117.89
   1   3  -3 2398.66  117.89
   1   3  -3 2290.87  117.89
   1   3  -3 2209.98  118.29
  -1  -3   3 2113.09  118.59
  -1  -3   3 2285.07  117.99
  -1  -3   3 2140.89  119.09
  -1  -3   3 2390.46  118.09
  -1  -3   3 2168.98  118.29
  -1  -3   3 2279.97  118.09
   0   3  -3 1884.01  101.49
   0   3  -3 2015.10  101.29
   0   3  -3 1911.01  100.69
   0   3  -3 1731.63  102.49
   0   3  -3 1906.61  101.09
   0  -3   3 1976.10  101.09
   0  -3   3 1972.40  101.39
   0  -3   3 1898.61  101.29
   0  -3   3 1949.51  101.79
   0  -3   3 1885.11  101.09
   0  -3   3 1857.01  101.49
   0  -3   3 1982.60  102.39
   0  -3   3 1909.21  100.69
  -1   3  -3  280.27   17.90
  -1   3  -3  298.17   16.60
  -1   3  -3  298.17   16.10
  -1   3  -3  285.27   15.90
   1  -3   3  279.27   15.80
   1  -3   3  305.77   16.10
   1  -3   3  243.98   17.80
   1  -3   3  298.27   15.60
   1  -3   3  270.27   17.60
   1  -3   3  295.87   15.60
   1  -3   3  280.17   17.30
   1  -3   3  301.77   15.50
   1  -3   3  297.27   16.40
  -2   3  -3  180.68   14.70
  -2   3  -3  200.48   11.50
  -2   3  -3  188.48   11.30
   2  -3   3  198.18   11.40
   2  -3   3  189.48   11.70
   2  -3   3  192.88   13.10
   2  -3   3  197.08   12.40
   2  -3   3  202.58   11.30
   2  -3   3  184.08   14.70
  -3   3  -3  450.45   30.90
  -3   3  -3  500.35   27.10
  -3   3  -3  465.95   27.20
   3  -3   3  515.25   27.00
   3  -3   3  506.15   27.20
   3  -3   3  480.75   36.40
   3  -3   3  487.05   27.10
   3  -3   3  500.65   28.20
  -4   3  -3    9.10    3.80
   4  -3   3    7.10    2.60
   4  -3   3    9.20    3.00
   4  -3   3    7.90    3.40
   4  -3   3    4.20    4.50
   4  -3   3    2.20    4.90
   4  -3   3   13.00    6.40
   4  -3   3    6.10    2.40
   4  -3   3    4.80    3.20
  -5   3  -3   86.69   10.60
   5  -3   3   95.59    9.50
   5  -3   3   81.09    7.80
   5  -3   3   65.19    7.90
   5  -3   3  108.89   15.10
   5  -3   3   87.19    6.70
   5  -3   3   90.99    6.80
   5  -3   3  106.19   13.20
   5  -3   3   83.19    6.30
   5  -3   3   72.99    8.60
  -6   3  -3   90.89   13.60
   6  -3   3  111.49   13.80
   6  -3   3   74.79    9.20
   6  -3   3   80.99    7.30
   6  -3   3   72.89   10.00
   6  -3   3   79.59    8.30
   6  -3   3  108.29   17.20
   6  -3   3   53.09    6.90
   6  -3   3   83.19    9.70
  -7   3  -3  194.18   20.50
   7  -3   3  228.18   24.20
   7  -3   3  153.38   16.10
   7  -3   3  197.68   15.10
   7  -3   3  209.48   15.40
   9   2  -3   32.50   10.50
   9   2  -3   -7.00   13.70
   9   2  -3    8.80    7.80
   9   2  -3    7.00    7.80
  -9  -2   3  -14.70   13.20
  -9  -2   3   14.10   12.90
  -9  -2   3    3.30   16.70
  -9  -2   3   -0.20   11.30
  -9  -2   3   17.30   12.40
   8   2  -3   43.80   10.20
   8   2  -3   39.40   16.40
   8   2  -3   33.30    7.00
   8   2  -3   50.49    8.60
   8   2  -3   42.00    6.30
  -8  -2   3   27.30   12.00
  -8  -2   3   51.19   11.60
  -8  -2   3   43.20   13.30
  -8  -2   3   54.49    9.30
   7   2  -3  178.28   13.10
   7   2  -3  154.38   28.90
   7   2  -3  192.68   14.70
   7   2  -3  201.28   15.10
   7   2  -3  213.08   20.00
   7   2  -3  208.58   15.10
  -7  -2   3  210.78   20.70
  -7  -2   3  219.58   17.00
  -7  -2   3  242.78   15.80
  -7  -2   3  204.78   23.00
  -7  -2   3  197.48   18.50
  -7  -2   3  139.69   20.90
   6   2  -3   22.10    5.10
   6   2  -3   15.20    5.90
   6   2  -3   18.30    7.30
   6   2  -3   17.60    3.80
   6   2  -3   17.30    4.50
  -6  -2   3   18.00    7.60
  -6  -2   3    6.20    7.60
  -6  -2   3   18.70    7.40
  -6  -2   3   19.60    5.90
  -6  -2   3   25.20    5.60
  -6  -2   3   21.20    6.30
   5   2  -3   61.29    7.10
   5   2  -3   35.20   11.50
   5   2  -3   57.49    7.00
   5   2  -3   69.79    9.30
   5   2  -3   67.39    9.50
  -5  -2   3   60.79    8.90
  -5  -2   3   65.09    8.20
  -5  -2   3   56.09    9.90
  -5  -2   3   53.99    8.70
  -5  -2   3   49.10    8.30
   4   2  -3  465.75   23.00
   4   2  -3  422.66   23.00
   4   2  -3  440.46   23.70
   4   2  -3  408.96   25.30
   4   2  -3  335.67   25.90
   4   2  -3  367.86   28.30
  -4  -2   3  402.16   24.80
  -4  -2   3  381.46   24.10
  -4  -2   3  389.86   23.20
  -4  -2   3  385.16   23.80
  -4  -2   3  402.96   24.70
   3   2  -3  146.29    9.80
   3   2  -3  164.68   10.10
   3   2  -3  149.79   10.30
   3   2  -3  170.48    9.30
   3   2  -3  142.19   12.90
   3   2  -3  146.29   11.60
  -3  -2   3  145.29   11.40
  -3  -2   3  137.49   10.10
  -3  -2   3  123.69   11.20
  -3  -2   3  127.29   11.30
  -3  -2   3  145.29   10.50
   2   2  -3  256.87   15.20
   2   2  -3  257.17   14.60
   2   2  -3  234.08   15.00
   2   2  -3  256.07   14.70
   2   2  -3  245.78   14.50
  -2  -2   3  244.88   13.90
  -2  -2   3  252.47   14.50
  -2  -2   3  208.28   15.00
  -2  -2   3  244.18   14.40
  -2  -2   3  226.58   15.30
   1   2  -3 1522.45   77.39
   1   2  -3 1567.94   77.09
   1   2  -3 1235.68   77.39
   1   2  -3 1471.85   76.89
   1   2  -3 1474.45   77.29
   1   2  -3 1449.55   77.49
  -1  -2   3 1465.55   77.19
  -1  -2   3 1502.45   77.39
  -1  -2   3 1310.17   77.69
  -1  -2   3 1562.44   77.29
   0   2  -3  668.83   31.70
   0   2  -3  591.34   32.00
   0   2  -3  545.35   31.70
   0   2  -3  598.74   31.30
   0   2  -3  613.04   31.50
   0   2  -3  603.74   31.40
   0   2  -3  620.34   31.40
   0  -2   3  589.04   31.50
   0  -2   3  599.94   31.30
   0  -2   3  491.05   31.80
   0  -2   3  629.34   31.60
   0  -2   3  545.95   31.80
  -1   2  -3  271.37   15.00
  -1   2  -3  273.87   15.50
  -1   2  -3  292.27   15.20
   1  -2   3  271.57   14.90
   1  -2   3  273.67   16.70
   1  -2   3  270.37   16.50
   1  -2   3  267.77   15.20
   1  -2   3  275.97   15.00
  -2   2  -3  518.45   26.90
  -2   2  -3  503.95   27.00
  -2   2  -3  515.45   26.80
  -2   2  -3  442.06   29.00
   2  -2   3  494.75   27.00
   2  -2   3  476.25   26.70
   2  -2   3  511.95   29.00
   2  -2   3  482.95   28.10
   2  -2   3  489.75   26.90
   2  -2   3  510.95   26.80
  -3   2  -3    5.70    2.40
  -3   2  -3    6.30    5.80
   3  -2   3    1.20    3.10
   3  -2   3    1.40    1.80
   3  -2   3    1.90    3.60
   3  -2   3    3.40    4.10
   3  -2   3    1.40    1.80
   3  -2   3    1.20    2.10
  -4   2  -3  329.67   19.90
  -4   2  -3  287.07   24.70
   4  -2   3  343.77   18.30
   4  -2   3  371.66   22.70
   4  -2   3  325.87   19.10
   4  -2   3  351.86   19.20
   4  -2   3  335.77   18.00
   4  -2   3  313.37   19.10
   4  -2   3  318.47   18.30
   4  -2   3  329.67   20.10
   4  -2   3  366.86   22.20
   4  -2   3  335.17   18.80
  -5   2  -3  136.49   11.90
  -5   2  -3  104.29   15.80
   5  -2   3  128.69    9.60
   5  -2   3  131.09    9.60
   5  -2   3  133.99    9.70
   5  -2   3  128.69   10.80
   5  -2   3  142.89    8.50
   5  -2   3  123.69    9.70
   5  -2   3  150.18   13.40
   5  -2   3  127.19    8.90
   5  -2   3  156.58   15.90
   5  -2   3  133.89    8.20
  -6   2  -3   67.89   15.80
  -6   2  -3   53.49    8.10
   6  -2   3   61.09    7.30
   6  -2   3   59.49   10.00
   6  -2   3   46.30    9.20
   6  -2   3   61.09    4.40
   6  -2   3   79.29    7.20
   6  -2   3   67.09    5.90
   6  -2   3   66.09    8.30
   6  -2   3   63.59    4.70
  -7   2  -3  113.39   16.50
   7  -2   3  107.39   20.60
   7  -2   3  102.79   11.40
   7  -2   3   86.99   10.70
   7  -2   3   91.29    8.50
   7  -2   3   85.09    8.90
   7  -2   3  105.59    9.50
   7  -2   3   79.59   10.40
  -8   2  -3    5.40    9.50
  -8   2  -3    7.00   16.80
   8  -2   3    6.50    6.90
   8  -2   3    9.70    5.80
   8  -2   3    8.60    7.20
   8  -2   3   -4.20   11.80
   8  -2   3    9.60    5.40
   8   1  -3   33.50    6.80
   8   1  -3   34.60    7.00
   8   1  -3   53.29   14.80
  -8  -1   3   25.20   12.20
  -8  -1   3   49.40   13.70
  -8  -1   3   67.29   11.80
  -8  -1   3   44.20   11.40
   7   1  -3   13.70    5.00
   7   1  -3   23.40    5.90
   7   1  -3   22.50    4.10
   7   1  -3   44.70    8.90
   7   1  -3    6.40   10.70
  -7  -1   3   22.10   10.10
  -7  -1   3   23.90    9.00
  -7  -1   3   42.90   10.00
  -7  -1   3   23.70    8.00
  -7  -1   3   33.70   11.50
   6   1  -3    4.80    4.20
   6   1  -3    9.40    4.20
   6   1  -3   10.70    3.30
   6   1  -3   14.90    6.90
   6   1  -3   -4.30   10.00
  -6  -1   3    6.40    5.80
  -6  -1   3   11.60    7.00
  -6  -1   3    6.40    7.90
  -6  -1   3    7.50    7.00
   5   1  -3    9.20    3.90
   5   1  -3   11.90    4.10
   5   1  -3   17.70    6.30
   5   1  -3    8.80    8.00
   5   1  -3   14.70    3.40
  -5  -1   3   17.40    6.00
  -5  -1   3    9.50    4.10
  -5  -1   3    7.60    5.50
  -5  -1   3   -2.00    5.30
  -5  -1   3   12.00    6.20
   4   1  -3  210.18   13.20
   4   1  -3  214.78   16.30
   4   1  -3  220.68   13.30
  -4  -1   3  209.08   14.50
  -4  -1   3  185.88   15.00
  -4  -1   3  219.38   13.70
  -4  -1   3  195.08   15.70
  -4  -1   3  203.78   15.20
   3   1  -3  617.84   31.80
   3   1  -3  588.64   33.40
   3   1  -3  536.85   35.00
   3   1  -3  613.64   32.00
  -3  -1   3  536.05   32.20
  -3  -1   3  563.54   32.60
  -3  -1   3  569.64   32.60
  -3  -1   3  572.34   33.10
   2   1  -3  742.23   37.30
   2   1  -3  703.43   38.30
   2   1  -3  666.43   38.70
   2   1  -3  680.23   37.80
   2   1  -3  722.93   37.10
   2   1  -3  685.23   37.40
  -2  -1   3  656.53   37.60
  -2  -1   3  669.23   37.80
  -2  -1   3  583.84   37.10
  -2  -1   3  715.73   37.70
   1   1  -3 2857.31  145.99
   1   1  -3 2712.63  145.99
   1   1  -3 2803.02  146.39
   1   1  -3 2546.55  145.89
   1   1  -3 2958.90  146.09
   1   1  -3 3106.19  145.59
  -1  -1   3 2666.73  145.79
  -1  -1   3 2711.33  145.99
  -1  -1   3 2518.75  145.99
  -1  -1   3 2722.33  145.99
   0   1  -3  328.47   17.30
   0   1  -3  339.97   17.40
   0   1  -3  328.07   17.20
   0   1  -3  311.87   17.50
   0   1  -3  318.67   17.50
   0   1  -3  366.76   17.40
   0  -1   3  314.07   17.40
   0  -1   3  330.37   17.70
   0  -1   3  328.97   17.30
   0  -1   3  303.17   17.50
   0  -1   3  300.87   17.70
   0  -1   3  287.37   18.30
  -1   1  -3 2558.04  132.59
  -1   1  -3 2726.53  132.39
  -1   1  -3 2303.07  133.39
   1  -1   3 2498.95  132.29
   1  -1   3 2477.45  132.29
   1  -1   3 2527.65  132.59
   1  -1   3 2553.84  132.19
   1  -1   3 2393.46  133.29
  -2   1  -3   29.20    3.50
  -2   1  -3   29.20    5.20
  -2   1  -3   30.60    2.80
   2  -1   3   29.80    3.30
   2  -1   3   31.40    2.70
   2  -1   3   30.40    3.30
   2  -1   3   29.50    3.20
   2  -1   3   28.30    4.90
   2  -1   3   30.80    5.00
  -3   1  -3  393.36   26.80
  -3   1  -3  433.06   24.00
  -3   1  -3  433.16   23.40
   3  -1   3  451.15   22.90
   3  -1   3  426.56   23.70
   3  -1   3  455.75   23.60
   3  -1   3  395.46   25.70
   3  -1   3  451.55   23.00
   3  -1   3  441.86   25.40
   3  -1   3  429.16   23.40
   3  -1   3  433.66   24.70
   3  -1   3  421.36   23.20
  -4   1  -3   97.29   15.40
  -4   1  -3  112.79    8.90
   4  -1   3   93.19   10.00
   4  -1   3  127.09    9.20
   4  -1   3  106.79    7.50
   4  -1   3  106.99    6.70
   4  -1   3  123.09   12.80
   4  -1   3  112.89   11.80
   4  -1   3  106.29    6.50
   4  -1   3  107.29    7.60
  -5   1  -3   39.40    5.60
  -5   1  -3   37.50   11.80
   5  -1   3   42.50    6.10
   5  -1   3   50.79    9.40
   5  -1   3   41.60    5.90
   5  -1   3   45.70    5.50
   5  -1   3   46.40    4.70
   5  -1   3   43.40    7.30
   5  -1   3   51.39    4.20
  -6   1  -3  246.08   29.70
  -6   1  -3  258.07   18.20
   6  -1   3  251.07   14.80
   6  -1   3  243.98   16.30
   6  -1   3  256.77   15.40
   6  -1   3  242.08   23.30
   6  -1   3  251.77   15.60
   6  -1   3  256.97   14.60
  -7   1  -3   28.20   17.50
  -7   1  -3   15.70    7.20
   7  -1   3   15.80    3.50
   7  -1   3   10.80    9.80
   7  -1   3   15.90    4.90
   7  -1   3   17.90    4.00
   7  -1   3   13.80    3.80
   7  -1   3   14.60    5.80
  -8   1  -3   21.20   18.10
  -8   1  -3   15.40    9.90
   8  -1   3    0.00   11.30
   8  -1   3   13.70    5.80
   8  -1   3   13.10    8.10
   8  -1   3   13.80    6.90
   8  -1   3   13.00    5.00
   8   0  -3   -2.60    6.30
   8   0  -3    3.30    7.80
   8   0  -3   -2.40   11.00
  -8   0   3   23.00   12.60
  -8   0   3  -17.50   10.90
  -8   0   3    2.60    8.80
  -8   0   3    8.60    9.90
  -8   0   3   -7.00   12.00
   7   0  -3   47.20    9.00
   7   0  -3   10.00    9.70
   7   0  -3   23.00    6.50
   7   0  -3   19.10    5.40
   7   0  -3   16.70    4.00
  -7   0   3    2.30    9.30
  -7   0   3   24.20   10.10
  -7   0   3   22.60   10.30
  -7   0   3   36.90    9.50
  -7   0   3   25.30    8.70
   6   0  -3    1.20    4.80
   6   0  -3    0.40    2.80
   6   0  -3    0.40    8.80
   6   0  -3    4.90    4.00
  -6   0   3    6.70    6.60
  -6   0   3   -0.20    7.80
  -6   0   3   11.80    7.40
  -6   0   3    2.50    7.50
   5   0  -3  429.46   24.60
   5   0  -3  421.76   24.70
   5   0  -3  453.35   27.40
  -5   0   3  448.96   29.20
  -5   0   3  465.65   27.10
  -5   0   3  424.76   24.00
  -5   0   3  374.96   27.40
  -5   0   3  409.06   26.50
   4   0  -3  335.67   20.10
   4   0  -3  312.97   19.90
   4   0  -3  411.66   21.50
  -4   0   3  336.77   21.50
  -4   0   3  317.87   21.30
   3   0  -3  165.58   11.50
   3   0  -3  220.48   14.50
   3   0  -3  193.48   11.80
  -3   0   3  201.58   13.70
  -3   0   3  157.08   13.10
  -3   0   3  172.28   12.30
  -3   0   3  156.98   12.30
   2   0  -3  117.29    8.70
   2   0  -3  122.89    8.80
   2   0  -3  145.99    9.10
  -2   0   3  144.19   10.10
  -2   0   3  119.69    8.80
   1   0  -3  999.00   56.39
   1   0  -3 1110.29   56.19
   1   0  -3 1130.09   56.69
   1   0  -3 1129.09   56.89
   1   0  -3 1050.49   56.39
  -1   0   3  966.80   56.29
  -1   0   3  996.90   56.39
  -1   0   3 1003.80   56.09
  -1   0   3 1114.29   56.29
   0   0  -3  182.68   12.20
   0   0  -3  199.18   12.10
   0   0  -3  211.38   11.60
   0   0  -3  212.18   11.50
   0   0   3  210.78   11.50
   0   0   3  197.18   12.40
   0   0   3  180.98   12.40
   0   0   3  230.68   11.60
   0   0   3  176.48   12.00
  -1   0  -3 2740.93  139.89
  -1   0  -3 2739.73  139.59
  -1   0  -3 2683.83  140.59
  -1   0  -3 2537.65  139.89
   1   0   3 2514.45  139.69
   1   0   3 2674.83  140.59
  -2   0  -3  124.39    7.60
  -2   0  -3  124.89   10.10
  -2   0  -3  120.69    7.80
  -2   0  -3  130.69    9.60
   2   0   3  132.99    7.70
   2   0   3  140.29    7.40
   2   0   3  137.29    7.80
   2   0   3  127.79    7.80
   2   0   3  132.19    9.20
   2   0   3  131.49    7.30
   2   0   3  127.39    8.60
   2   0   3  131.49    7.40
  -3   0  -3 2703.43  146.09
  -3   0  -3 2451.65  147.99
  -3   0  -3 2479.65  148.09
   3   0   3 2800.72  145.79
   3   0   3 2990.00  145.99
   3   0   3 2839.12  145.99
   3   0   3 2588.34  147.29
   3   0   3 2887.01  146.89
   3   0   3 2933.71  145.69
   3   0   3 2928.61  145.59
  -4   0  -3  139.99   10.10
  -4   0  -3  127.79   15.60
  -4   0  -3  122.99   15.80
   4   0   3  152.08    8.90
   4   0   3  149.79    8.60
   4   0   3  153.68   11.50
   4   0   3  146.59    9.40
   4   0   3  143.09    9.40
   4   0   3  141.69    8.90
   4   0   3  146.49    8.50
   4   0   3  139.79   13.30
  -5   0  -3  275.77   15.70
  -5   0  -3  270.57   17.60
  -5   0  -3  285.47   23.60
  -5   0  -3  215.08   24.50
   5   0   3  296.57   18.70
   5   0   3  280.07   16.60
   5   0   3  283.67   16.50
   5   0   3  266.97   15.20
   5   0   3  255.97   21.30
   5   0   3  284.17   15.80
   5   0   3  285.47   15.60
   5   0   3  281.57   15.60
  -6   0  -3   63.69   13.30
  -6   0  -3   57.09    6.50
  -6   0  -3   57.89    7.40
  -6   0  -3   35.40   14.40
   6   0   3   56.79    4.00
   6   0   3   64.19    7.20
   6   0   3   54.59    9.70
   6   0   3   57.89    6.20
   6   0   3   55.19    5.80
   6   0   3   58.29    8.10
   6   0   3   42.30    6.50
  -7   0  -3   36.30    7.70
  -7   0  -3   56.59    6.20
  -7   0  -3   42.70   17.60
   7   0   3   40.40    4.80
   7   0   3   35.30    6.50
   7   0   3   19.20    9.70
   7   0   3   40.30    5.90
   7   0   3   49.90    6.90
  -8   0  -3   -2.10   18.30
  -8   0  -3    8.60    8.80
  -8   0  -3   -1.50    6.60
   8   0   3    3.90    4.00
   8   0   3   -0.30    4.30
   8   0   3   -2.10    4.10
   8   0   3   -2.80    6.40
   8   0   3  -18.50   10.50
  -9   0  -3   13.20   11.20
  -9   0  -3    5.60   20.60
   9   0   3    8.50    5.60
   9   0   3    5.70    6.70
   9   0   3    7.10    8.10
   8  -1  -3   19.90   13.80
   8  -1  -3   54.99    9.50
   8  -1  -3   33.70    8.80
  -8   1   3  -10.90   22.10
  -8   1   3   40.40   10.60
  -8   1   3   49.90   15.20
   7  -1  -3   22.10    6.30
   7  -1  -3   29.40    5.40
   7  -1  -3   22.40   10.70
   7  -1  -3   46.00    8.10
   7  -1  -3   19.40    7.10
  -7   1   3   26.70   13.20
  -7   1   3   25.00    9.90
  -7   1   3   34.20    8.70
  -7   1   3    4.20   11.40
   6  -1  -3  218.18   16.70
   6  -1  -3  319.07   19.50
   6  -1  -3  249.58   18.10
   6  -1  -3  235.58   18.90
   6  -1  -3  274.17   23.20
  -6   1   3  259.77   24.70
  -6   1   3  310.87   16.40
  -6   1   3  213.88   19.60
  -6   1   3  334.97   25.60
  -6   1   3  275.37   20.60
   5  -1  -3  586.74   32.10
   5  -1  -3  570.14   34.40
   5  -1  -3  516.65   31.40
   5  -1  -3  568.94   32.00
   5  -1  -3  589.34   33.30
  -5   1   3  623.64   36.10
  -5   1   3  500.05   32.60
  -5   1   3  577.34   33.10
  -5   1   3  483.85   35.30
   4  -1  -3  195.98   13.40
   4  -1  -3  220.38   16.40
   4  -1  -3  222.08   14.00
   4  -1  -3  202.58   13.30
  -4   1   3  155.58   15.10
  -4   1   3  193.38   14.40
  -4   1   3  174.88   16.40
  -4   1   3  221.38   14.10
   3  -1  -3   24.40    4.10
   3  -1  -3   36.50    5.10
   3  -1  -3   41.00    5.60
   3  -1  -3   21.70    4.10
  -3   1   3   41.20    5.80
  -3   1   3   30.50    5.90
  -3   1   3   22.50    5.00
  -3   1   3   15.90    5.30
   2  -1  -3  106.39    7.60
   2  -1  -3  111.49    7.70
   2  -1  -3  104.69    7.30
   2  -1  -3  125.29    9.00
  -2   1   3   98.09    7.20
  -2   1   3   93.89    8.40
  -2   1   3   87.99    9.30
  -2   1   3   93.79    8.80
   1  -1  -3  303.67   15.30
   1  -1  -3  276.07   15.80
   1  -1  -3  290.77   16.00
   1  -1  -3  288.37   15.80
   1  -1  -3  286.47   15.90
  -1   1   3  260.87   15.60
  -1   1   3  294.37   15.70
  -1   1   3  279.57   16.50
  -1   1   3  287.67   16.40
  -1   1   3  243.38   15.90
   0   1   3 3661.83  202.58
   0   1   3 4011.50  203.18
  -1  -1  -3 2916.31  151.58
   1   1   3 2708.13  151.48
   1   1   3 3097.49  150.58
   1   1   3 2693.63  151.18
  -2  -1  -3 4118.09  230.68
  -2  -1  -3 4624.84  229.98
  -2  -1  -3 4511.05  229.28
   2   1   3 4025.50  229.68
   2   1   3 4482.65  229.28
  -3  -1  -3  166.98   14.50
  -3  -1  -3  193.58   10.40
  -3  -1  -3  186.18   10.80
  -3  -1  -3  192.58   11.10
  -3  -1  -3  181.78   11.30
  -3  -1  -3  184.18   13.00
   3   1   3  184.78   11.20
   3   1   3  188.28   10.70
   3   1   3  191.88   11.00
   3   1   3  183.88   11.20
   3   1   3  182.88   11.00
   3   1   3  198.58   12.80
   3   1   3  185.88   10.70
  -4  -1  -3  431.26   22.80
  -4  -1  -3  376.76   22.70
  -4  -1  -3  394.56   25.50
  -4  -1  -3  349.57   27.30
  -4  -1  -3  413.46   23.40
   4   1   3  425.46   22.60
   4   1   3  444.56   23.10
   4   1   3  424.46   23.00
   4   1   3  411.76   23.20
   4   1   3  405.66   25.70
   4   1   3  434.96   22.60
   4   1   3  433.36   22.70
  -5  -1  -3   78.89    6.60
  -5  -1  -3   72.89    6.50
  -5  -1  -3   62.09    7.00
  -5  -1  -3   72.49    8.30
  -5  -1  -3   68.89   12.10
   5   1   3   73.39   13.40
   5   1   3   65.29    6.60
   5   1   3   76.19    5.70
   5   1   3   74.89    5.60
   5   1   3   73.39    5.20
   5   1   3   71.29    7.20
  -6  -1  -3   43.30    5.20
  -6  -1  -3   12.20   12.00
  -6  -1  -3   50.19    5.70
  -6  -1  -3   41.60    9.20
  -6  -1  -3   42.70    6.50
   6   1   3   35.40    4.90
   6   1   3   35.00   10.20
   6   1   3   45.80    7.10
   6   1   3   41.10    5.60
   6   1   3   29.40    4.00
   6   1   3   38.50    5.60
   6   1   3   39.60    3.80
  -7  -1  -3   15.30    5.50
  -7  -1  -3   13.00    4.70
  -7  -1  -3    1.40   15.40
  -7  -1  -3   12.60    8.50
  -7  -1  -3    8.50    6.00
  -7  -1  -3   14.30    5.70
   7   1   3   10.30    3.80
   7   1   3    8.70    5.80
   7   1   3   10.40    3.20
   7   1   3    0.80    9.70
   7   1   3    9.10    1.80
   7   1   3    7.30    3.50
   7   1   3    5.90    5.40
  -8  -1  -3   59.49   20.30
  -8  -1  -3   44.50    8.40
  -8  -1  -3   37.60    9.20
  -8  -1  -3   35.80   14.20
   8   1   3   35.60    8.00
   8   1   3   36.10    5.50
   8   1   3   37.10    5.10
   8   1   3   12.90   12.10
  -9  -1  -3   70.49   22.10
  -9  -1  -3   44.60   12.50
  -9  -1  -3   41.20   11.80
   9   1   3   34.60    9.70
   9   1   3    8.40   14.40
   9   1   3   31.20    6.10
   9   1   3   40.90    9.30
   8  -2  -3  -10.40    8.20
   8  -2  -3    8.00    7.70
   8  -2  -3   -7.30    9.60
  -8   2   3  -23.50   12.60
  -8   2   3    1.80   12.20
  -8   2   3    2.70    8.50
  -8   2   3    5.90   13.30
   7  -2  -3   64.69   12.00
   7  -2  -3   69.79   10.20
   7  -2  -3   85.59   12.90
   7  -2  -3   61.49   10.90
  -7   2   3   54.99   13.70
  -7   2   3   98.89   12.40
  -7   2   3   74.99    9.90
  -7   2   3  106.69   18.10
   6  -2  -3   85.99    9.80
   6  -2  -3  100.09   12.50
   6  -2  -3  108.49   11.50
   6  -2  -3   96.99   16.00
   6  -2  -3   90.69   11.90
  -6   2   3   98.19   13.10
  -6   2   3   99.99   19.50
   5  -2  -3 1095.79   57.39
   5  -2  -3  884.11   56.19
   5  -2  -3  991.60   58.69
   5  -2  -3 1081.29   56.99
  -5   2   3 1035.70   57.39
  -5   2   3  993.60   60.59
  -5   2   3 1187.98   57.89
   4  -2  -3   14.60    5.40
   4  -2  -3   17.30    5.60
   4  -2  -3    7.10    4.50
   4  -2  -3    9.20    4.00
   4  -2  -3   13.70    3.50
  -4   2   3   18.30    4.80
  -4   2   3   18.00    4.60
  -4   2   3   10.50    4.30
  -4   2   3   18.50    6.10
  -4   2   3   13.90    6.90
  -4   2   3    8.60    6.00
   3  -2  -3   68.39    9.30
   3  -2  -3   56.59    5.70
   3  -2  -3   50.09    6.50
   3  -2  -3   52.69    7.00
  -3   2   3   53.99    8.20
  -3   2   3   57.09    6.10
  -3   2   3   46.00    7.60
  -3   2   3   46.30    7.40
   2  -2  -3  146.09    9.60
   2  -2  -3  142.89    9.10
   2  -2  -3  171.18    9.90
   2  -2  -3  145.59    9.50
  -2   2   3  140.39    9.10
  -2   2   3  124.39   10.40
  -2   2   3  124.39    9.80
  -2   2   3  135.09   11.00
  -2   2   3  138.29    9.10
   1  -2  -3  695.63   34.70
   1  -2  -3  653.93   35.20
   1  -2  -3  623.44   35.20
   1  -2  -3  647.94   34.70
   1  -2  -3  653.33   35.20
   1  -2  -3  691.23   35.10
  -1   2   3  645.24   35.40
  -1   2   3  681.53   35.00
  -1   2   3  580.44   35.80
  -1   2   3  637.24   35.00
  -1   2   3  618.34   35.90
   0  -2  -3   24.60    2.90
   0  -2  -3   22.90    2.00
   0  -2  -3   25.70    3.30
   0  -2  -3   17.70    2.80
   0   2   3   25.80    2.90
   0   2   3   26.10    2.00
   0   2   3   27.50    3.40
   0   2   3   20.10    2.90
   0   2   3   38.80    5.10
  -1  -2  -3 2082.09  107.89
  -1  -2  -3 2017.40  107.79
  -1  -2  -3 2045.50  108.39
  -1  -2  -3 2119.39  107.69
  -1  -2  -3 2159.78  108.29
   1   2   3 1912.81  107.69
   1   2   3 2030.90  107.79
   1   2   3 1966.30  108.49
   1   2   3 2026.20  107.99
  -2  -2  -3 1787.52   96.99
  -2  -2  -3 1714.73   97.79
  -2  -2  -3 1814.02   96.89
  -2  -2  -3 1907.41   97.19
  -2  -2  -3 1858.91   97.59
   2   2   3 1843.52   96.99
   2   2   3 1846.92   96.89
   2   2   3 1756.82   97.49
   2   2   3 1857.31   97.59
   2   2   3 1936.31   96.99
   2   2   3 1888.71   97.09
   2   2   3 1786.12   97.09
  -3  -2  -3    7.00    1.90
  -3  -2  -3    9.40    2.30
  -3  -2  -3    9.60    2.20
  -3  -2  -3    8.10    2.70
  -3  -2  -3    8.60    3.90
  -3  -2  -3   10.00    1.90
   3   2   3    7.30    2.10
   3   2   3    7.10    2.10
   3   2   3    8.50    1.90
   3   2   3    8.50    1.90
   3   2   3    9.70    3.20
   3   2   3   14.50    2.70
   3   2   3    8.40    1.90
  -4  -2  -3  233.88   14.40
  -4  -2  -3  247.58   14.20
  -4  -2  -3  250.97   14.80
  -4  -2  -3  255.37   14.70
  -4  -2  -3  253.17   16.40
  -4  -2  -3  197.78   18.70
   4   2   3  254.57   14.70
   4   2   3  255.47   14.20
   4   2   3  251.47   14.20
   4   2   3  251.57   14.40
   4   2   3  255.67   17.10
   4   2   3  243.78   14.70
   4   2   3  249.68   14.20
  -5  -2  -3  124.69    9.60
  -5  -2  -3  133.19    9.90
  -5  -2  -3  104.19   16.80
  -5  -2  -3  130.69    9.30
  -5  -2  -3  139.49   12.90
  -5  -2  -3  147.59   10.50
   5   2   3  134.29   13.90
   5   2   3  138.99    8.50
   5   2   3  140.19   10.20
   5   2   3  142.69    8.90
   5   2   3  130.09   10.00
   5   2   3  139.39    9.30
  -6  -2  -3   94.09   10.10
  -6  -2  -3   48.10   13.30
  -6  -2  -3   83.49   12.80
  -6  -2  -3   79.39    8.90
  -6  -2  -3   81.19    8.60
  -6  -2  -3   68.49    7.70
   6   2   3   60.99   10.70
   6   2   3   83.99    6.70
   6   2   3   74.09    9.20
   6   2   3   79.49    6.00
   6   2   3   80.39    7.00
   6   2   3   86.69    9.10
   6   2   3   90.29    7.70
  -7  -2  -3   17.80    5.00
  -7  -2  -3    8.20    8.10
  -7  -2  -3   19.20    6.20
  -7  -2  -3   17.20   15.10
  -7  -2  -3   17.40    6.10
   7   2   3    4.10   10.10
   7   2   3   13.10    6.60
   7   2   3   19.00    2.80
   7   2   3    9.50    3.50
   7   2   3   19.90    4.10
   7   2   3   18.80    6.00
   7   2   3   28.00    6.30
   7   2   3   21.80    3.80
  -8  -2  -3  131.99   15.90
  -8  -2  -3  106.39   14.60
  -8  -2  -3  127.09   22.20
  -8  -2  -3  144.89   16.90
   8   2   3  122.59    9.80
   8   2   3  118.89   10.90
   8   2   3  106.79   14.60
   8   2   3  111.49   14.50
   8   2   3  114.89   14.10
   8   2   3  120.39    7.60
  -9  -2  -3  118.09   17.00
  -9  -2  -3  147.69   21.60
  -9  -2  -3  162.28   21.60
   9   2   3  121.49   17.60
   9   2   3  137.89   13.20
   9   2   3  144.29   17.80
   7  -3  -3  182.88   17.10
   7  -3  -3  186.18   16.10
   7  -3  -3  171.88   22.10
   7  -3  -3  174.38   18.50
  -7   3   3  231.78   21.50
  -7   3   3  205.48   29.00
   6  -3  -3  340.17   23.40
   6  -3  -3  384.86   25.80
   6  -3  -3  388.96   28.00
   6  -3  -3  436.26   25.10
  -6   3   3  450.65   32.90
  -6   3   3  362.76   24.60
   5  -3  -3    7.30    7.20
   5  -3  -3    2.50    3.90
   5  -3  -3   -8.30    5.70
   5  -3  -3    2.00    6.30
   5  -3  -3    4.30    4.90
  -5   3   3    2.90    4.80
  -5   3   3   11.00    5.50
  -5   3   3    8.90    5.30
  -5   3   3    4.20    9.70
  -5   3   3    6.30    6.90
  -5   3   3   -8.00    7.20
   4  -3  -3  125.29   11.60
   4  -3  -3  148.49   12.20
   4  -3  -3  157.68   11.60
   4  -3  -3  145.39   10.30
  -4   3   3  148.29   16.60
  -4   3   3  165.38   12.20
  -4   3   3  153.28   13.20
  -4   3   3  142.49   14.80
   3  -3  -3  189.78   15.50
   3  -3  -3  179.98   12.00
   3  -3  -3  176.38   11.90
   3  -3  -3  179.08   11.10
   3  -3  -3  171.78   14.40
  -3   3   3  140.29   13.40
  -3   3   3  155.28   12.60
  -3   3   3  172.88   12.40
  -3   3   3  168.78   11.20
  -3   3   3  152.48   15.10
   2  -3  -3  498.95   25.90
   2  -3  -3  493.75   26.50
   2  -3  -3  467.05   26.40
   2  -3  -3  489.45   25.90
   2  -3  -3  461.35   25.80
  -2   3   3  472.85   26.00
  -2   3   3  429.26   27.00
  -2   3   3  463.85   25.90
  -2   3   3  473.15   26.50
  -2   3   3  436.36   28.10
   1  -3  -3   72.09    5.60
   1  -3  -3   72.79    5.90
   1  -3  -3   75.19    6.10
   1  -3  -3   66.19    5.00
   1  -3  -3   70.19    5.70
  -1   3   3   70.69    7.60
  -1   3   3   74.69    5.60
  -1   3   3   73.99    5.70
  -1   3   3   68.79    7.80
  -1   3   3   73.49    6.10
   0  -3  -3 1338.37   70.59
   0  -3  -3 1333.37   69.99
   0  -3  -3 1355.86   70.49
   0  -3  -3 1302.27   70.29
   0  -3  -3 1370.06   70.79
   0   3   3 1344.57   69.99
   0   3   3 1245.08   70.29
   0   3   3 1328.67   71.29
   0   3   3 1272.37   70.39
   0   3   3 1351.46   70.59
  -1  -3  -3 4174.48  219.58
  -1  -3  -3 4132.49  219.18
  -1  -3  -3 4078.09  219.68
   1   3   3 4055.09  218.88
   1   3   3 4166.08  219.28
   1   3   3 4284.67  219.88
   1   3   3 4197.78  219.08
  -2  -3  -3  685.03   40.30
  -2  -3  -3  703.23   39.70
  -2  -3  -3  727.83   39.30
  -2  -3  -3  725.83   39.60
  -2  -3  -3  775.12   40.40
   2   3   3  736.53   39.40
   2   3   3  749.13   39.70
   2   3   3  759.82   39.10
   2   3   3  764.32   40.30
   2   3   3  724.93   39.70
   2   3   3  739.83   39.20
   2   3   3  737.63   39.60
  -3  -3  -3    8.40    2.10
  -3  -3  -3    3.00    3.90
  -3  -3  -3    6.90    2.00
  -3  -3  -3    5.80    1.80
  -3  -3  -3    7.80    3.00
  -3  -3  -3    5.60    2.40
   3   3   3    3.80    2.60
   3   3   3    4.80    2.10
   3   3   3    7.20    2.10
   3   3   3    4.60    2.50
   3   3   3    8.80    2.30
   3   3   3    6.00    1.70
   3   3   3    6.20    2.30
  -4  -3  -3   10.80    3.40
  -4  -3  -3   10.90    3.00
  -4  -3  -3   15.70    2.60
  -4  -3  -3    9.70    5.00
  -4  -3  -3   11.80    2.70
  -4  -3  -3   11.40    3.70
   4   3   3   10.90    3.90
   4   3   3   11.50    2.40
   4   3   3    9.50    2.40
   4   3   3   14.70    2.90
   4   3   3   10.30    3.00
   4   3   3    9.50    2.40
   4   3   3   11.50    2.80
  -5  -3  -3  100.99   10.60
  -5  -3  -3   90.39    8.40
  -5  -3  -3   68.19   11.50
  -5  -3  -3  101.89    8.50
  -5  -3  -3   92.29    7.40
  -5  -3  -3   90.59    8.90
   5   3   3   79.79   10.50
   5   3   3   88.09    8.50
   5   3   3   94.99    7.20
   5   3   3   97.89   12.20
   5   3   3   95.09    8.20
   5   3   3   96.29    7.20
   5   3   3   90.79    7.00
  -6  -3  -3    6.60    4.20
  -6  -3  -3   -1.10    4.60
  -6  -3  -3    2.50    5.10
  -6  -3  -3    1.70    3.30
  -6  -3  -3    9.30   10.60
  -6  -3  -3   -0.70    4.50
   6   3   3    2.30    4.90
   6   3   3    3.60    2.60
   6   3   3    0.70    2.60
   6   3   3   -0.20    3.10
   6   3   3    2.40    3.00
   6   3   3    8.00    6.40
   6   3   3   -0.80    4.30
  -7  -3  -3  348.47   22.50
  -7  -3  -3  418.06   33.50
  -7  -3  -3  312.77   20.30
  -7  -3  -3  326.87   22.00
  -7  -3  -3  312.67   24.40
  -7  -3  -3  335.07   22.30
   7   3   3  327.47   28.50
   7   3   3  309.77   21.40
   7   3   3  322.57   19.60
   7   3   3  339.37   20.10
   7   3   3  334.57   18.80
   7   3   3  330.57   22.10
   7   3   3  338.47   20.00
  -8  -3  -3  367.36   25.40
  -8  -3  -3  420.56   35.90
  -8  -3  -3  363.56   25.40
  -8  -3  -3  356.76   25.10
   8   3   3  308.47   32.40
   8   3   3  338.77   23.90
   8   3   3  336.77   24.60
   8   3   3  362.36   21.80
   8   3   3  343.37   19.80
   8   3   3  343.07   23.90
   8   3   3  336.67   20.90
  -9  -3  -3   54.89   11.90
  -9  -3  -3   47.40   12.60
  -9  -3  -3   67.09   15.40
  -9  -3  -3   87.59   22.30
  -9  -3  -3   74.49   10.30
   9   3   3   21.80   15.30
   9   3   3   56.29    7.90
   9   3   3   44.30   10.20
   9   3   3   53.89   10.50
   7  -4  -3  158.48   21.60
   7  -4  -3  121.59   15.00
   7  -4  -3  128.39   14.80
  -7   4   3  202.28   22.10
  -7   4   3  180.98   28.60
   6  -4  -3  214.78   18.40
   6  -4  -3  197.28   15.10
   6  -4  -3  150.08   18.20
   6  -4  -3  241.58   20.70
  -6   4   3  264.37   26.80
  -6   4   3  140.09   23.10
   5  -4  -3  137.99   14.70
   5  -4  -3  146.29   13.90
   5  -4  -3  165.98   12.40
   5  -4  -3  171.18   17.60
  -5   4   3  207.28   22.90
  -5   4   3  136.49   18.20
  -5   4   3  192.78   14.80
  -5   4   3  204.78   13.80
  -5   4   3  150.88   14.30
   4  -4  -3  107.39   10.30
   4  -4  -3  108.99    9.10
   4  -4  -3  145.19   15.80
   4  -4  -3   91.99   10.70
  -4   4   3   99.89   17.20
  -4   4   3  102.19   12.20
  -4   4   3  105.39   11.10
  -4   4   3  132.29   10.50
  -4   4   3  116.99   13.90
   3  -4  -3  166.58   10.70
   3  -4  -3  163.08    9.10
   3  -4  -3  145.29   10.80
   3  -4  -3  177.78   12.30
   3  -4  -3  158.78   10.30
   3  -4  -3  158.28   11.50
  -3   4   3  137.69   13.50
  -3   4   3  157.48   11.80
  -3   4   3  148.99   13.20
  -3   4   3  135.49   15.90
   2  -4  -3  141.39    9.70
   2  -4  -3  141.19   10.00
   2  -4  -3  169.58   10.80
   2  -4  -3  157.58    9.80
   2  -4  -3  146.89    9.90
  -2   4   3  151.08   10.60
  -2   4   3  152.58    9.80
  -2   4   3  130.19   11.30
  -2   4   3  145.79    9.70
  -2   4   3  132.59   12.40
  -2   4   3  128.89   13.60
   1  -4  -3  691.03   36.20
   1  -4  -3  670.83   36.70
   1  -4  -3  655.73   36.60
   1  -4  -3  669.03   36.70
   1  -4  -3  702.73   36.50
  -1   4   3  626.44   38.40
  -1   4   3  664.03   36.30
  -1   4   3  655.03   37.90
  -1   4   3  682.03   36.40
  -1   4   3  692.53   36.80
   0  -4  -3 3327.97  176.18
   0  -4  -3 3573.14  176.78
   0  -4  -3 3315.17  176.38
   0  -4  -3 3369.26  176.98
   0  -4  -3 3429.66  176.58
   0   4   3 3285.17  176.78
   0   4   3 3469.45  176.68
   0   4   3 2895.51  176.28
   0   4   3 3388.96  177.68
   0   4   3 3423.66  176.08
   0   4   3 3288.47  176.48
  -1  -4  -3 2116.79  111.69
  -1  -4  -3 2154.38  111.19
  -1  -4  -3 2144.19  110.79
  -1  -4  -3 2084.59  111.19
  -1  -4  -3 2114.39  110.69
   1   4   3 2079.49  110.59
   1   4   3 2138.59  111.29
   1   4   3 2096.39  110.39
   1   4   3 2125.99  111.99
   1   4   3 1954.60  110.99
   1   4   3 2050.79  110.79
   1   4   3 2088.99  111.09
  -2  -4  -3  110.29    9.40
  -2  -4  -3  122.89    9.10
  -2  -4  -3  107.19    7.70
  -2  -4  -3  110.79    7.10
  -2  -4  -3  112.09    8.10
   2   4   3  124.19    8.10
   2   4   3  112.69    7.00
   2   4   3  112.89    6.80
   2   4   3  124.59    9.20
   2   4   3  119.59    7.70
   2   4   3  113.69    7.40
  -3  -4  -3  130.59    8.80
  -3  -4  -3  130.99    8.20
  -3  -4  -3  137.99   11.00
  -3  -4  -3  143.19    8.40
  -3  -4  -3  127.09    9.60
  -3  -4  -3  134.79    9.20
  -3  -4  -3  146.99   10.60
   3   4   3  133.79    9.20
   3   4   3  134.79   10.80
   3   4   3  127.99    8.60
   3   4   3  131.19    9.70
   3   4   3  143.09    8.40
   3   4   3  130.29    9.20
   3   4   3  146.29    8.90
  -4  -4  -3   85.19    8.30
  -4  -4  -3   80.09   10.60
  -4  -4  -3   86.09    8.00
  -4  -4  -3   89.29    6.90
  -4  -4  -3   86.19    6.90
  -4  -4  -3   90.19    9.00
   4   4   3   87.29    7.90
   4   4   3   91.19    6.90
   4   4   3   97.69   10.10
   4   4   3   89.09    7.50
   4   4   3   92.69    7.20
   4   4   3   93.39    6.90
   4   4   3   92.89    7.40
  -5  -4  -3   50.79    8.40
  -5  -4  -3   64.19    7.10
  -5  -4  -3   51.89    8.50
  -5  -4  -3   71.79    9.50
  -5  -4  -3   68.89    8.20
  -5  -4  -3   63.99    6.40
   5   4   3   62.39    6.40
   5   4   3   60.59    7.10
   5   4   3   69.79    6.50
   5   4   3   52.29    8.00
   5   4   3   58.59    6.40
   5   4   3   62.99   10.90
   5   4   3   60.49    6.30
  -6  -4  -3  223.38   14.90
  -6  -4  -3  188.38   18.80
  -6  -4  -3  202.68   15.90
  -6  -4  -3  211.28   13.80
  -6  -4  -3  203.38   15.50
  -6  -4  -3  211.78   17.20
   6   4   3  209.18   13.60
   6   4   3  217.48   13.90
   6   4   3  206.48   14.60
   6   4   3  216.88   13.60
   6   4   3  227.18   19.90
   6   4   3  218.28   13.30
   6   4   3  207.58   15.50
  -7  -4  -3  929.01   52.19
  -7  -4  -3  939.11   53.69
  -7  -4  -3  861.21   57.59
  -7  -4  -3 1056.49   55.69
  -7  -4  -3  944.01   53.49
  -7  -4  -3  958.60   53.99
  -7  -4  -3 1127.19   61.49
   7   4   3  894.61   52.89
   7   4   3  887.01   58.19
   7   4   3  984.50   52.19
   7   4   3  944.31   52.09
   7   4   3  948.61   53.69
  -8  -4  -3  331.47   26.30
  -8  -4  -3  344.67   25.20
  -8  -4  -3  352.16   24.30
  -8  -4  -3  321.17   21.30
   8   4   3  348.37   23.80
   8   4   3  311.77   22.90
   8   4   3  356.86   21.00
   8   4   3  296.57   22.50
   8   4   3  266.77   31.00
  -9  -4  -3    4.10   12.80
  -9  -4  -3    6.40   10.80
  -9  -4  -3   -4.30    7.90
  -9  -4  -3   15.60   19.60
  -9  -4  -3   -7.50   11.10
   9   4   3   -2.20    8.30
   9   4   3    4.80    4.60
   9   4   3  -16.80   12.10
   9   4   3    7.40    7.30
   9   4   3    1.60    8.60
   6  -5  -3  155.28   21.10
   6  -5  -3  155.28   13.10
   6  -5  -3  116.49   19.10
  -6   5   3  226.28   34.60
  -6   5   3  105.39   16.50
   5  -5  -3   34.10    8.30
   5  -5  -3   42.40    5.80
   5  -5  -3   48.80    8.70
  -5   5   3   74.39   15.40
  -5   5   3   43.20   10.40
  -5   5   3   72.79   10.30
   4  -5  -3   32.70    5.00
   4  -5  -3   36.10    6.60
   4  -5  -3   30.70    4.50
   4  -5  -3   33.10    3.60
   4  -5  -3   30.00    6.30
  -4   5   3   37.00    7.80
  -4   5   3   20.10   10.30
  -4   5   3   54.99    8.70
  -4   5   3   35.70    5.60
  -4   5   3   39.10    6.10
  -4   5   3   37.90    8.70
   3  -5  -3   71.49    7.30
   3  -5  -3   65.09    8.20
   3  -5  -3   72.89    6.10
   3  -5  -3   87.09    7.60
   3  -5  -3   65.39    7.60
   3  -5  -3   93.09    9.50
  -3   5   3   66.39    9.40
  -3   5   3   49.00   10.00
  -3   5   3   70.19    9.00
  -3   5   3   65.99    7.50
  -3   5   3   75.99   10.40
   2  -5  -3   52.89    6.60
   2  -5  -3   56.69    6.50
   2  -5  -3   44.60    6.10
   2  -5  -3   53.99    7.50
   2  -5  -3   51.89    6.60
  -2   5   3   57.49    6.10
  -2   5   3   56.69    7.60
  -2   5   3   54.49    8.30
  -2   5   3   67.29    7.70
   1  -5  -3 1734.93   89.39
   1  -5  -3 1735.23   89.89
   1  -5  -3 1645.54   89.49
   1  -5  -3 1740.43   89.79
  -1   5   3 1738.13   88.99
  -1   5   3 1593.34   91.09
  -1   5   3 1753.02   89.29
  -1   5   3 1643.64   89.69
  -1   5   3 1510.45   91.59
  -1   5   3 1625.14   89.49
  -1   5   3 1682.43   89.29
  -1   5   3 1729.23   89.19
   0  -5  -3 2041.00  129.19
   0  -5  -3 2406.66  127.59
   0  -5  -3 2484.35  127.19
   0  -5  -3 2380.06  127.99
   0  -5  -3 2475.15  127.29
   0   5   3 2368.06  129.99
   0   5   3 2459.85  127.09
   0   5   3 2177.08  127.39
   0   5   3 2519.85  127.89
   0   5   3 2579.04  127.09
   0   5   3 2491.85  126.79
   0   5   3 2390.66  127.59
   0   5   3 2481.25  127.49
  -1  -5  -3   98.09    6.60
  -1  -5  -3  100.49    9.10
  -1  -5  -3   90.39    7.80
  -1  -5  -3  102.79    6.60
   1   5   3   92.69    7.30
   1   5   3   95.19    7.30
   1   5   3   91.39    7.00
   1   5   3   88.39   14.30
   1   5   3  113.19    6.20
   1   5   3   98.49    6.50
   1   5   3  100.79    7.90
  -2  -5  -3   16.90    2.40
  -2  -5  -3   12.00    2.60
  -2  -5  -3   10.50    4.30
  -2  -5  -3   12.50    3.50
  -2  -5  -3   14.80    4.10
   2   5   3   14.80    3.00
   2   5   3   17.00    2.80
   2   5   3   11.60    3.00
   2   5   3   15.90    2.40
   2   5   3    7.90    4.10
   2   5   3   13.80    1.90
   2   5   3   10.60    2.90
  -3  -5  -3  293.67   18.60
  -3  -5  -3  276.57   17.30
  -3  -5  -3  287.07   18.90
  -3  -5  -3  298.27   16.40
  -3  -5  -3  276.67   16.90
  -3  -5  -3  288.77   17.70
   3   5   3  299.17   17.00
   3   5   3  306.87   18.10
   3   5   3  301.77   16.40
   3   5   3  284.37   17.30
   3   5   3  297.77   16.40
   3   5   3  298.57   17.30
   3   5   3  276.07   16.60
  -4  -5  -3  142.09   11.60
  -4  -5  -3  125.09   10.20
  -4  -5  -3  122.59    8.60
  -4  -5  -3  136.99   12.90
  -4  -5  -3  138.59    9.30
  -4  -5  -3  119.49   10.70
   4   5   3  135.39    9.70
   4   5   3  129.69   12.60
   4   5   3  122.39   10.00
   4   5   3  134.49   10.10
   4   5   3  131.39    9.20
   4   5   3  143.49    9.20
   4   5   3  135.79    9.40
  -5  -5  -3  519.65   29.80
  -5  -5  -3  489.25   30.90
  -5  -5  -3  459.65   29.00
  -5  -5  -3  507.05   27.90
  -5  -5  -3  478.25   27.60
  -5  -5  -3  495.65   26.50
  -5  -5  -3  502.45   28.70
   5   5   3  491.85   28.10
   5   5   3  491.35   27.80
   5   5   3  484.05   27.90
   5   5   3  477.15   28.70
   5   5   3  515.45   28.10
   5   5   3  503.25   31.10
  -6  -5  -3  724.13   39.90
  -6  -5  -3  729.93   39.60
  -6  -5  -3  701.33   40.80
  -6  -5  -3  707.23   41.10
  -6  -5  -3  674.43   43.00
  -6  -5  -3  722.73   41.70
   6   5   3  711.23   39.50
   6   5   3  729.43   39.90
   6   5   3  691.53   43.60
   6   5   3  722.03   40.80
   6   5   3  721.63   39.40
  -7  -5  -3  685.73   44.40
  -7  -5  -3  726.63   42.20
  -7  -5  -3  701.93   40.00
  -7  -5  -3  732.73   41.00
  -7  -5  -3  735.03   42.40
   7   5   3  721.23   46.00
   7   5   3  716.63   39.90
   7   5   3  689.23   39.30
   7   5   3  730.43   41.80
   7   5   3  693.13   39.70
   7   5   3  708.83   40.60
  -8  -5  -3   56.89   12.20
  -8  -5  -3   87.09   14.10
  -8  -5  -3   54.59    8.90
  -8  -5  -3   46.20   10.60
  -8  -5  -3   41.90    7.30
   8   5   3   51.19   14.00
   8   5   3   56.29    6.50
   8   5   3   48.60    9.10
   8   5   3   56.69    9.50
   8   5   3   40.50   12.80
  -9  -5  -3   14.50   23.10
  -9  -5  -3   -1.60   11.60
  -9  -5  -3    3.20    9.20
  -9  -5  -3    9.60   14.40
  -9  -5  -3    0.60    7.80
   9   5   3   10.50    6.10
   9   5   3   -9.60   12.60
   9   5   3   -6.00    9.00
   9   5   3   10.20    8.50
   9   5   3    7.20    9.00
   5  -6  -3   56.29   10.70
   5  -6  -3   64.59    9.80
  -5   6   3  109.79   14.20
  -5   6   3   62.29   19.50
  -5   6   3   99.99   17.00
  -5   6   3   63.09   12.30
   4  -6  -3   39.00    7.40
   4  -6  -3   35.20    5.40
   4  -6  -3   39.70    5.50
   4  -6  -3   35.70    5.60
   4  -6  -3   62.39    8.70
  -4   6   3   49.90   11.60
  -4   6   3   53.89    7.10
  -4   6   3   39.40   13.20
  -4   6   3   23.30    6.50
  -4   6   3   41.80    8.50
   3  -6  -3    9.60    3.70
   3  -6  -3    7.80    4.90
   3  -6  -3    6.60    4.40
   3  -6  -3   11.80    4.10
   3  -6  -3    9.50    4.30
   3  -6  -3   11.20    5.80
  -3   6   3    1.20    9.60
  -3   6   3   14.00    5.60
  -3   6   3    6.70    8.30
  -3   6   3   13.50    4.40
  -3   6   3   10.70    4.40
  -3   6   3   10.30    4.80
  -3   6   3   10.10    4.50
   2  -6  -3  621.74   32.70
   2  -6  -3  585.14   32.90
   2  -6  -3  615.94   33.20
   2  -6  -3  582.44   33.10
   2  -6  -3  566.44   32.60
  -2   6   3  580.84   32.90
  -2   6   3  576.94   32.40
  -2   6   3  593.44   33.20
  -2   6   3  557.14   37.40
  -2   6   3  603.14   32.70
  -2   6   3  549.05   36.10
   1  -6  -3 1697.43   87.69
   1  -6  -3 1678.23   87.69
   1  -6  -3 1611.04   87.29
   1  -6  -3 1652.83   87.19
   1  -6  -3 1679.03   87.09
  -1   6   3 1648.34   87.49
  -1   6   3 1473.75   89.89
  -1   6   3 1646.44   87.09
  -1   6   3 1695.13   86.79
  -1   6   3 1580.04   89.49
  -1   6   3 1632.74   87.69
  -1   6   3 1592.94   86.99
   0  -6  -3  764.02   41.00
   0  -6  -3  778.12   41.50
   0  -6  -3  736.63   42.10
   0  -6  -3  771.32   41.10
   0  -6  -3  771.92   41.70
   0   6   3  782.92   41.90
   0   6   3  771.72   43.90
   0   6   3  704.13   44.30
   0   6   3  778.92   40.80
   0   6   3  754.62   40.90
   0   6   3  751.22   41.50
   0   6   3  739.23   41.30
  -1  -6  -3   52.89    7.00
  -1  -6  -3   58.39    6.00
  -1  -6  -3   50.19    4.90
  -1  -6  -3   53.49    5.20
  -1  -6  -3   45.60    6.60
   1   6   3   57.89    4.60
   1   6   3   53.69    5.50
   1   6   3   34.20    6.50
   1   6   3   47.70    6.90
   1   6   3   42.70    6.10
   1   6   3   48.40    5.90
   1   6   3   54.49    5.20
  -2  -6  -3   23.40    4.40
  -2  -6  -3   22.50    5.40
  -2  -6  -3   15.60    4.20
  -2  -6  -3   23.00    3.50
  -2  -6  -3   31.40    3.20
   2   6   3   22.70    3.40
   2   6   3   30.00    3.60
   2   6   3   18.70    3.60
   2   6   3   23.60    3.20
   2   6   3   27.20    3.10
   2   6   3   20.40    5.80
   2   6   3   27.70    4.30
  -3  -6  -3   75.59   10.80
  -3  -6  -3   79.69    7.30
  -3  -6  -3   78.49    6.10
  -3  -6  -3   86.59    8.20
  -3  -6  -3   76.49    8.70
  -3  -6  -3   78.99    9.90
   3   6   3   79.29    6.60
   3   6   3   81.19    7.90
   3   6   3   73.69    7.80
   3   6   3   86.79    9.10
   3   6   3   86.49    6.90
   3   6   3   98.19    7.40
  -4  -6  -3    4.40    4.30
  -4  -6  -3    3.20    2.20
  -4  -6  -3   -0.50    4.50
  -4  -6  -3    7.50    6.60
  -4  -6  -3    4.80    4.60
  -4  -6  -3    0.10    2.90
   4   6   3    5.00    3.30
   4   6   3   -0.60    3.70
   4   6   3    2.90    3.20
   4   6   3    4.30    4.00
   4   6   3    6.30    3.40
   4   6   3    5.50    3.40
  -5  -6  -3  616.34   36.20
  -5  -6  -3  652.53   38.10
  -5  -6  -3  619.24   34.80
  -5  -6  -3  617.34   36.70
  -5  -6  -3  640.94   35.40
  -5  -6  -3  645.24   38.70
  -5  -6  -3  623.04   34.10
   5   6   3  638.44   35.40
   5   6   3  611.64   36.20
   5   6   3  652.83   38.80
   5   6   3  629.54   35.20
   5   6   3  653.53   35.80
   5   6   3  640.44   35.60
  -6  -6  -3 1843.42   97.49
  -6  -6  -3 1758.42   99.39
  -6  -6  -3 1818.72   96.49
  -6  -6  -3 1759.32   94.89
  -6  -6  -3 1789.12   96.29
  -6  -6  -3 1822.22   97.99
   6   6   3 1773.52   96.39
   6   6   3 1749.32   97.49
   6   6   3 1820.52   96.49
   6   6   3 1837.52   96.49
   6   6   3 1802.72  100.29
  -7  -6  -3  137.49   12.80
  -7  -6  -3  100.19   11.00
  -7  -6  -3  152.58   17.20
  -7  -6  -3  120.59   16.40
  -7  -6  -3  137.29   22.00
   7   6   3  116.39   10.80
   7   6   3  144.19   20.70
   7   6   3  116.39   14.60
   7   6   3  135.99   12.00
   7   6   3  137.09   13.60
  -8  -6  -3    6.20   11.20
  -8  -6  -3    2.30    7.10
  -8  -6  -3   -0.20    9.30
  -8  -6  -3   -5.20   13.30
   8   6   3    6.90   21.40
   8   6   3    1.00    7.00
   8   6   3    8.50    7.90
   8   6   3   -2.70    5.60
   8   6   3    3.40    7.50
   4  -7  -3   13.80    4.30
   4  -7  -3   15.80    9.50
   4  -7  -3   11.80    5.30
   4  -7  -3    2.80    7.50
   4  -7  -3   17.70    5.50
  -4   7   3   27.00    8.70
  -4   7   3    6.10   21.70
  -4   7   3   20.00    7.00
  -4   7   3   18.40   14.20
   3  -7  -3  242.98   15.90
   3  -7  -3  238.78   15.70
   3  -7  -3  245.08   17.90
   3  -7  -3  214.48   16.90
   3  -7  -3  258.07   15.80
  -3   7   3  197.58   25.10
  -3   7   3  239.38   17.40
  -3   7   3  223.18   15.60
  -3   7   3  222.98   25.60
  -3   7   3  207.98   15.80
   2  -7  -3  692.33   39.50
   2  -7  -3  722.13   39.20
   2  -7  -3  690.03   38.90
   2  -7  -3  744.53   38.90
   2  -7  -3  726.43   39.20
  -2   7   3  690.23   44.80
  -2   7   3  707.53   38.60
  -2   7   3  705.93   38.30
  -2   7   3  710.33   38.30
  -2   7   3  620.34   43.00
  -2   7   3  679.13   38.90
  -2   7   3  673.03   39.30
   1  -7  -3  522.85   30.10
   1  -7  -3  526.05   30.10
   1  -7  -3  563.24   30.50
   1  -7  -3  569.54   31.20
   1  -7  -3  542.95   30.70
  -1   7   3  533.95   30.10
  -1   7   3  570.44   29.90
  -1   7   3  531.25   34.80
  -1   7   3  525.25   30.00
  -1   7   3  534.15   31.30
  -1   7   3  494.25   35.30
   0  -7  -3  364.36   21.60
   0  -7  -3  360.96   22.70
   0  -7  -3  379.36   21.10
   0  -7  -3  361.56   20.80
   0  -7  -3  373.66   21.70
   0   7   3  367.66   22.50
   0   7   3  372.76   21.70
   0   7   3  331.87   26.00
   0   7   3  362.76   20.80
   0   7   3  383.56   20.80
   0   7   3  367.46   21.30
   0   7   3  360.76   25.40
  -1  -7  -3    6.60    3.20
  -1  -7  -3    8.20    5.10
  -1  -7  -3   11.40    3.30
  -1  -7  -3    7.70    5.50
  -1  -7  -3    7.10    4.10
  -1  -7  -3    8.00    2.90
   1   7   3    6.10    4.00
   1   7   3    8.40    4.40
   1   7   3    9.60    2.90
   1   7   3   11.90    3.20
   1   7   3    6.40    3.50
   1   7   3    8.80    3.20
   1   7   3   -2.30    6.30
  -2  -7  -3   77.69    8.80
  -2  -7  -3   78.49   11.40
  -2  -7  -3   80.39   10.60
  -2  -7  -3   79.69    6.20
  -2  -7  -3   83.79    7.40
   2   7   3   62.29    8.60
   2   7   3   85.29    9.00
   2   7   3   75.89    6.60
   2   7   3   79.39    7.40
   2   7   3   78.79    8.00
   2   7   3   83.19    7.00
   2   7   3   73.39    7.20
  -3  -7  -3   -0.20    4.20
  -3  -7  -3    2.50    6.30
  -3  -7  -3    4.50    3.10
  -3  -7  -3    2.30    2.60
  -3  -7  -3   -0.10    4.60
   3   7   3    3.30    2.90
   3   7   3    1.00    3.00
   3   7   3    4.60    3.60
   3   7   3   -3.80    4.50
   3   7   3    2.50    3.70
   3   7   3    1.50    3.80
  -4  -7  -3  562.54   33.80
  -4  -7  -3  540.25   31.80
  -4  -7  -3  497.25   30.60
  -4  -7  -3  536.05   31.30
  -4  -7  -3  528.75   31.80
   4   7   3  526.35   31.00
   4   7   3  527.55   31.20
   4   7   3  570.84   30.70
   4   7   3  543.45   30.10
   4   7   3  570.64   31.80
   4   7   3  538.95   30.10
  -5  -7  -3 1208.18   64.49
  -5  -7  -3 1260.37   68.79
  -5  -7  -3 1197.98   64.49
  -5  -7  -3 1114.79   65.59
  -5  -7  -3 1184.58   66.79
  -5  -7  -3 1221.98   66.29
   5   7   3 1216.98   65.19
   5   7   3 1200.98   66.39
   5   7   3 1258.77   65.59
   5   7   3 1202.18   65.79
   5   7   3 1221.68   65.19
   5   7   3 1205.08   66.09
  -6  -7  -3  746.03   45.10
  -6  -7  -3  676.33   38.30
  -6  -7  -3  746.83   42.50
  -6  -7  -3  718.53   39.50
  -6  -7  -3  742.23   41.80
   6   7   3  697.83   40.20
   6   7   3  750.22   40.20
   6   7   3  735.33   40.20
   6   7   3  711.23   41.40
   6   7   3  612.44   40.00
   6   7   3  732.83   45.20
  -7  -7  -3   76.89   11.50
  -7  -7  -3   56.89    7.50
  -7  -7  -3   59.39   10.90
  -7  -7  -3   45.70   14.10
  -7  -7  -3   75.19   10.90
   7   7   3   62.49    7.60
   7   7   3   56.79    9.20
   7   7   3   61.19   10.10
   7   7   3   59.69   13.00
   7   7   3   82.19    9.30
  -8  -7  -3   19.60   12.60
  -8  -7  -3   18.20   16.30
  -8  -7  -3   15.30   10.80
  -8  -7  -3   11.80    7.60
   8   7   3   20.10   12.70
   8   7   3   16.00    7.10
   8   7   3   28.50    8.10
   8   7   3   25.40    8.90
   8   7   3   12.00    8.60
   3  -8  -3  274.77   18.10
   3  -8  -3  273.77   17.20
   3  -8  -3  204.58   19.50
   3  -8  -3  262.77   17.40
   3  -8  -3  237.78   20.00
  -3   8   3  220.48   16.90
  -3   8   3  249.58   30.50
  -3   8   3  224.78   17.40
  -3   8   3  240.88   31.80
  -3   8   3  222.78   18.50
   2  -8  -3  575.74   33.50
   2  -8  -3  575.14   33.00
   2  -8  -3  611.14   33.20
   2  -8  -3  611.34   32.70
  -2   8   3  597.84   31.60
  -2   8   3  560.34   32.40
  -2   8   3  485.05   40.90
  -2   8   3  498.25   32.90
  -2   8   3  552.14   40.50
  -2   8   3  580.94   32.80
   1  -8  -3  284.37   17.80
   1  -8  -3  264.67   17.10
   1  -8  -3  267.77   17.70
   1  -8  -3  295.57   18.90
  -1   8   3  287.17   17.00
  -1   8   3  279.77   17.00
  -1   8   3  269.37   25.80
  -1   8   3  239.38   17.00
  -1   8   3  274.87   17.00
  -1   8   3  246.68   25.70
  -1   8   3  262.17   19.60
   0  -8  -3   -3.60    4.20
   0  -8  -3    2.80    3.70
   0  -8  -3    2.10    3.80
   0  -8  -3    3.70    6.20
   0  -8  -3    1.80    4.20
   0   8   3    4.20    3.70
   0   8   3    2.30    3.80
   0   8   3    1.10    6.10
   0   8   3    4.40    3.70
   0   8   3   -5.60    8.60
   0   8   3   -5.90    9.20
  -1  -8  -3  161.88   11.20
  -1  -8  -3  147.19   10.10
  -1  -8  -3  156.28   12.30
  -1  -8  -3  147.79   14.30
  -1  -8  -3  154.48   11.40
   1   8   3  150.08   11.50
   1   8   3  154.48   10.60
   1   8   3  125.99   17.40
   1   8   3  144.89   10.60
   1   8   3  139.59   18.70
   1   8   3  146.59   13.90
  -2  -8  -3    6.10    3.50
  -2  -8  -3   -0.90    6.90
  -2  -8  -3   -1.80    3.10
  -2  -8  -3   -2.60    4.70
   2   8   3   -3.10    4.10
   2   8   3    3.50    3.80
   2   8   3   -0.90    3.10
   2   8   3    1.20    5.30
   2   8   3   -0.20    3.40
   2   8   3   -0.90    3.90
  -3  -8  -3  166.58   16.60
  -3  -8  -3  150.78   13.40
  -3  -8  -3  144.59   10.70
   3   8   3  153.58   11.00
   3   8   3  139.29   11.00
   3   8   3  155.38   11.50
   3   8   3  144.19   12.40
   3   8   3  167.88   13.50
  -4  -8  -3 1029.50   58.29
  -4  -8  -3 1078.19   60.29
  -4  -8  -3 1054.09   57.79
  -4  -8  -3 1037.20   56.59
   4   8   3 1041.70   58.39
   4   8   3 1017.50   56.59
   4   8   3 1088.19   57.29
   4   8   3 1059.19   57.89
   4   8   3 1024.20   57.79
   4   8   3 1029.30   56.59
  -5  -8  -3  978.20   53.39
  -5  -8  -3  973.20   55.49
  -5  -8  -3  962.50   55.99
  -5  -8  -3 1050.49   58.49
   5   8   3 1036.80   55.49
   5   8   3  930.31   55.09
   5   8   3  995.00   53.99
   5   8   3  999.30   54.09
   5   8   3  981.60   54.49
  -6  -8  -3  105.89    9.50
  -6  -8  -3  107.39   15.70
  -6  -8  -3  108.89   15.30
  -6  -8  -3  132.19   17.10
  -6  -8  -3   93.59    8.60
   6   8   3  115.49   12.30
   6   8   3  116.19   11.60
   6   8   3  116.99   12.30
   6   8   3  105.59   12.30
   6   8   3  114.49   14.10
  -7  -8  -3   46.80    6.50
  -7  -8  -3   49.10   15.50
  -7  -8  -3   43.20    6.80
  -7  -8  -3   37.10   10.40
  -7  -8  -3   47.20   10.40
   7   8   3   53.89    8.90
   7   8   3   59.09    9.00
   7   8   3   45.70    8.80
   7   8   3   57.49   13.10
   7   8   3   40.00    9.20
   2  -9  -3  177.98   17.10
   2  -9  -3  211.08   16.30
   2  -9  -3  199.48   15.80
  -2   9   3  201.58   28.50
  -2   9   3  191.58   15.70
  -2   9   3  178.78   16.00
   1  -9  -3   76.09   12.60
   1  -9  -3   69.79    7.90
   1  -9  -3   70.29   10.40
  -1   9   3   85.79    9.40
  -1   9   3   62.09    8.80
  -1   9   3   57.89    7.40
  -1   9   3   50.29   14.20
  -1   9   3   73.79    9.60
  -1   9   3   64.69   10.20
   0  -9  -3    3.50    4.80
   0  -9  -3   13.00    7.30
   0  -9  -3    5.90    5.40
   0  -9  -3    6.20    7.80
   0   9   3   10.10    4.90
   0   9   3   11.90    4.80
   0   9   3    6.80    8.90
   0   9   3    8.80    4.30
   0   9   3   -2.40   10.50
  -1  -9  -3   -0.80    5.10
  -1  -9  -3    8.40    5.20
  -1  -9  -3   -3.50    7.50
  -1  -9  -3    0.20    4.50
   1   9   3    2.30    4.70
   1   9   3    3.50    4.40
   1   9   3    6.60   10.20
   1   9   3   -0.80    4.40
   1   9   3    5.10    8.20
  -2  -9  -3    9.40    7.30
  -2  -9  -3    1.80    5.70
   2   9   3    5.40    4.70
   2   9   3    3.70    4.10
   2   9   3   12.70    8.00
   2   9   3   -0.60    9.90
   2   9   3   11.70    4.60
  -3  -9  -3  283.47   20.70
  -3  -9  -3  374.66   25.80
  -3  -9  -3  377.36   23.00
   3   9   3  348.87   21.70
   3   9   3  368.66   24.30
   3   9   3  354.86   20.70
   3   9   3  296.67   20.70
  -4  -9  -3  890.31   49.99
  -4  -9  -3  943.71   54.29
  -4  -9  -3  928.11   51.89
   4   9   3  867.61   49.80
   4   9   3  900.51   51.09
   4   9   3  928.21   49.90
  -5  -9  -3  215.48   18.40
  -5  -9  -3  225.78   23.70
  -5  -9  -3  203.38   15.60
   5   9   3  220.08   16.30
   5   9   3  228.08   16.00
   5   9   3  225.98   17.80
  -6  -9  -3   -0.50    8.20
  -6  -9  -3    0.90    4.80
  -6  -9  -3   15.20   15.80
  -6  -9  -3   -4.20    8.20
   6   9   3    1.50    7.00
   6   9   3   11.70    7.10
   6   9   3    5.60    6.60
  -1 -10  -3    4.00    8.00
  -1 -10  -3    0.60    5.40
  -1 -10  -3   -4.20    5.90
   1  10   3    8.60    6.70
   1  10   3    2.30   11.30
   1  10   3   -7.80   14.60
   1  10   3    0.20    5.60
   1  10   3    1.80    5.30
  -2 -10  -3  109.19   13.80
  -2 -10  -3  114.69   12.00
  -2 -10  -3  123.79   16.80
   2  10   3  125.59   18.60
   2  10   3  120.19   12.90
   2  10   3  114.99   11.30
   2  10   3   95.19   10.40
   2  10   3  104.39   14.50
  -3 -10  -3  522.45   41.00
  -3 -10  -3  661.43   39.90
   3  10   3  643.04   36.40
   3  10   3  571.64   44.80
   3  10   3  671.33   35.40
  -4 -10  -3  296.37   22.70
  -4 -10  -3  323.97   24.10
  -4 -10  -3  370.66   28.50
   4  10   3  361.16   21.50
   4  10   3  385.96   31.60
   4  10   3  284.57   21.80
   4  10   3  343.47   24.40
   5   9  -4  196.28   15.30
   5   9  -4  128.49   17.60
   5   9  -4  142.69   17.90
  -5  -9   4  142.89   20.10
  -5  -9   4  154.98   22.60
   4   9  -4    8.90    9.50
   4   9  -4   13.80    7.80
   4   9  -4    5.00    6.60
   4   9  -4   18.00    7.30
  -4  -9   4   15.80   14.00
  -4  -9   4   -1.40    7.20
  -4  -9   4    7.60    7.00
  -4  -9   4    2.20    9.30
   3   9  -4   -0.10    5.30
   3   9  -4    8.40    8.20
   3   9  -4    5.80    6.50
   3   9  -4   -2.90    8.40
  -3  -9   4   -4.90    6.40
  -3  -9   4   13.90   10.90
  -3  -9   4    4.30    8.10
  -3  -9   4    4.40    6.50
   2   9  -4   -1.90    9.10
   2   9  -4    6.50    4.60
   2   9  -4    3.40    7.40
   2   9  -4   -1.70    3.90
   2   9  -4   -2.60    5.40
  -2  -9   4   -9.20    6.70
  -2  -9   4   -2.40    5.90
  -2  -9   4   -2.50    6.20
  -2  -9   4    9.30   11.50
  -2  -9   4   -2.40    3.90
   1   9  -4   12.70    6.30
   1   9  -4    6.90    5.40
   1   9  -4   21.60   11.30
  -1  -9   4    6.20    6.40
  -1  -9   4   11.60   17.40
  -1  -9   4    5.60    6.10
  -1  -9   4   11.60    5.60
  -1  -9   4    6.80    3.80
  -1  -9   4    7.20    5.30
   0   9  -4    2.50    5.70
   0   9  -4   -3.30    5.00
   0   9  -4   -3.90    6.30
   0   9  -4   -0.10   12.20
   0  -9   4    2.20    5.50
   0  -9   4   -4.30    5.60
   0  -9   4    4.40    4.50
   0  -9   4    2.70    6.80
   0  -9   4   -0.70    4.00
  -1   9  -4  124.99   12.50
  -1   9  -4  117.59   19.10
  -1   9  -4  100.99   12.40
   1  -9   4  107.39   11.70
   1  -9   4  102.89   13.10
   6   8  -4  162.78   14.10
   6   8  -4  167.78   11.90
   6   8  -4  162.38   16.90
   6   8  -4  157.78   22.70
  -6  -8   4  197.58   21.30
  -6  -8   4  161.18   22.70
  -6  -8   4  158.28   14.20
  -6  -8   4  175.38   22.30
  -6  -8   4  179.88   24.20
   5   8  -4  141.59   15.20
   5   8  -4  112.59   15.90
   5   8  -4  121.19   15.30
  -5  -8   4  152.78   19.30
  -5  -8   4  120.79   18.20
  -5  -8   4  145.29   16.50
  -5  -8   4  132.49   15.30
  -5  -8   4  130.89   11.70
   4   8  -4    4.90    6.20
   4   8  -4    9.10    7.10
   4   8  -4   -4.90    5.60
   4   8  -4   13.80    6.80
  -4  -8   4    7.00    4.50
  -4  -8   4    4.50    5.10
  -4  -8   4   -2.20   10.20
  -4  -8   4   -1.80    7.40
  -4  -8   4    5.80    8.70
   3   8  -4   26.80    6.50
   3   8  -4   15.90    5.10
   3   8  -4   26.30    7.50
  -3  -8   4    8.80    6.60
  -3  -8   4   19.70    8.30
  -3  -8   4   17.20   10.20
  -3  -8   4   20.40    4.70
  -3  -8   4   20.20    5.50
   2   8  -4   50.79    7.00
   2   8  -4   42.80    5.10
   2   8  -4   40.40    5.30
   2   8  -4   53.29    9.00
   2   8  -4   36.90    6.60
   2   8  -4   65.09    7.40
  -2  -8   4   41.30    6.60
  -2  -8   4   47.10    5.70
  -2  -8   4   48.70   11.20
  -2  -8   4   41.30    6.40
  -2  -8   4   43.60    7.90
   1   8  -4   11.80    5.50
   1   8  -4    7.10    8.90
   1   8  -4    7.90    6.20
   1   8  -4   12.00    4.60
  -1  -8   4    7.30    4.80
  -1  -8   4   11.00    8.40
  -1  -8   4    5.40    5.40
  -1  -8   4    8.90    4.50
  -1  -8   4    5.20    4.30
  -1  -8   4   12.00    4.20
  -1  -8   4    7.40    3.50
   0   8  -4  187.58   13.60
   0   8  -4  158.98   13.10
   0   8  -4  192.98   21.10
   0  -8   4  184.58   18.20
   0  -8   4  174.28   13.50
   0  -8   4  179.78   12.40
   0  -8   4  186.48   12.80
   0  -8   4  165.88   14.80
   0  -8   4  174.38   11.80
  -1   8  -4  367.76   21.90
  -1   8  -4  356.06   30.50
  -1   8  -4  327.67   21.80
   1  -8   4  355.96   21.40
   1  -8   4  378.66   25.10
   1  -8   4  354.06   26.40
   1  -8   4  356.66   21.40
  -2   8  -4   76.49   12.40
  -2   8  -4   61.49   15.70
   2  -8   4   62.29    8.40
   2  -8   4   65.49    9.50
   2  -8   4   67.19    9.60
   2  -8   4   63.59    9.10
  -3   8  -4    1.00    6.40
  -3   8  -4    6.90   16.70
   3  -8   4   13.40    6.80
   3  -8   4   10.60    5.40
   3  -8   4    4.80    5.70
   3  -8   4    7.90    4.40
   3  -8   4    6.80    4.50
   3  -8   4    9.00    7.20
   7   7  -4  252.67   16.90
   7   7  -4  212.18   25.40
   7   7  -4  243.48   36.40
   7   7  -4  230.58   21.50
  -7  -7   4  256.47   29.70
  -7  -7   4  272.17   28.90
  -7  -7   4  296.27   29.70
  -7  -7   4  325.57   26.60
   6   7  -4  261.47   24.30
   6   7  -4  299.17   31.30
   6   7  -4  305.17   20.80
   6   7  -4  300.47   17.80
   6   7  -4  268.27   19.90
  -6  -7   4  365.26   24.50
  -6  -7   4  300.77   27.90
  -6  -7   4  278.27   22.20
  -6  -7   4  304.97   28.50
  -6  -7   4  316.37   27.20
   5   7  -4    2.90    4.40
   5   7  -4   -8.60    7.10
   5   7  -4   -3.80    6.60
   5   7  -4   -2.90    6.10
   5   7  -4    4.70    5.60
   5   7  -4    6.80    5.20
   5   7  -4    3.60    4.00
  -5  -7   4   -0.50    4.70
  -5  -7   4    3.80    3.90
  -5  -7   4    2.40    4.80
  -5  -7   4   -2.30    7.90
  -5  -7   4    0.00    9.30
  -5  -7   4   -8.40   10.70
   4   7  -4    5.40    3.80
   4   7  -4   -0.70    5.40
   4   7  -4    9.30    5.10
   4   7  -4    5.10    6.20
   4   7  -4    6.00    5.40
  -4  -7   4    2.10    3.50
  -4  -7   4    4.90    3.80
  -4  -7   4    5.30    8.50
  -4  -7   4   -2.30    9.40
  -4  -7   4   -6.60    6.50
  -4  -7   4    1.90    4.20
   3   7  -4  138.39   12.00
   3   7  -4  125.29   11.40
   3   7  -4  144.09   15.20
  -3  -7   4  137.39   15.60
  -3  -7   4  154.78   18.90
  -3  -7   4  147.99   11.90
  -3  -7   4  145.79   10.80
  -3  -7   4  113.99   13.10
  -3  -7   4  143.89   10.70
   2   7  -4   10.30    6.10
   2   7  -4    4.70    3.30
   2   7  -4    1.70    4.70
   2   7  -4    5.30    4.30
   2   7  -4    7.40    3.40
  -2  -7   4   -0.80    4.50
  -2  -7   4    9.20    6.00
  -2  -7   4    5.80    3.80
  -2  -7   4    3.30    7.70
  -2  -7   4    7.80    4.00
  -2  -7   4    4.00    3.20
   1   7  -4  170.98   12.00
   1   7  -4  188.58   16.10
   1   7  -4  177.08   13.00
   1   7  -4  189.28   12.80
  -1  -7   4  184.28   17.90
  -1  -7   4  173.48   11.50
  -1  -7   4  165.98   13.00
  -1  -7   4  170.08   12.50
  -1  -7   4  194.58   12.00
  -1  -7   4  165.78   12.30
  -1  -7   4  184.18   14.00
   0   7  -4   72.09    8.50
   0   7  -4   86.59    8.50
   0   7  -4  105.49   15.10
   0   7  -4   88.79    9.00
   0  -7   4   97.39   14.00
   0  -7   4   86.79    9.10
   0  -7   4   92.49    8.00
   0  -7   4   67.99   10.40
   0  -7   4   99.19    7.90
   0  -7   4   81.29    9.50
   0  -7   4   85.89    7.40
  -1   7  -4  593.84   38.30
  -1   7  -4  606.84   32.80
  -1   7  -4  528.75   32.70
   1  -7   4  570.14   35.90
   1  -7   4  561.54   32.20
   1  -7   4  599.14   32.20
   1  -7   4  569.94   35.00
   1  -7   4  579.54   32.30
   1  -7   4  618.84   31.90
   1  -7   4  581.54   32.20
  -2   7  -4  108.89   10.00
  -2   7  -4   94.99   10.00
  -2   7  -4  104.59   20.60
   2  -7   4  118.19   14.00
   2  -7   4   99.09    8.60
   2  -7   4   94.89    8.30
   2  -7   4   91.59    8.90
   2  -7   4  115.19   13.10
   2  -7   4  109.39   11.60
   2  -7   4   82.59    9.30
   2  -7   4  100.09    7.00
   2  -7   4  102.59    8.30
  -3   7  -4    0.20    5.10
  -3   7  -4   12.50   13.40
   3  -7   4    8.70    4.60
   3  -7   4   14.10    3.50
   3  -7   4   10.80    3.90
   3  -7   4    8.50    6.20
   3  -7   4   14.60    4.20
   3  -7   4   10.50    7.60
   3  -7   4    3.90   12.50
  -4   7  -4   -3.00    6.70
  -4   7  -4  -11.70   15.70
   4  -7   4    4.80    9.00
   4  -7   4   -2.40    5.30
   4  -7   4    7.90    4.20
   4  -7   4    6.40    6.00
   4  -7   4    0.00    3.70
   4  -7   4    6.20    5.10
   8   6  -4  180.88   25.90
  -8  -6   4  255.97   28.80
   7   6  -4  224.98   33.70
   7   6  -4  261.07   17.00
   7   6  -4  249.38   18.30
   7   6  -4  225.78   25.30
  -7  -6   4  258.67   30.90
  -7  -6   4  304.77   30.00
  -7  -6   4  337.97   27.30
   6   6  -4   54.19   13.00
   6   6  -4   69.99    7.60
   6   6  -4   71.59    8.40
   6   6  -4   70.79    8.90
   6   6  -4   44.30   10.30
  -6  -6   4   59.89   12.90
  -6  -6   4   71.29   11.40
  -6  -6   4   77.89   13.40
  -6  -6   4   80.29   13.50
   5   6  -4   36.50    9.60
   5   6  -4   19.70    7.40
   5   6  -4   31.00    5.10
   5   6  -4   41.00    5.70
   5   6  -4   39.50    7.00
   5   6  -4   36.10    5.60
  -5  -6   4   34.00    6.10
  -5  -6   4   40.00   10.40
  -5  -6   4   29.50    4.50
  -5  -6   4   28.20    9.60
  -5  -6   4   32.60   11.10
   4   6  -4  103.99   12.10
   4   6  -4  144.49    9.70
   4   6  -4  121.49   15.50
   4   6  -4  134.69    9.40
   4   6  -4  123.49   11.20
   4   6  -4  124.49   12.30
   4   6  -4  107.29    9.70
   4   6  -4   95.09   12.10
  -4  -6   4  120.69   11.20
  -4  -6   4  116.99    9.00
  -4  -6   4  119.89   17.30
  -4  -6   4   92.89   14.10
  -4  -6   4  112.59   15.60
  -4  -6   4  110.19    9.60
   3   6  -4  101.19    9.70
   3   6  -4  112.29   15.70
   3   6  -4  104.59   11.20
   3   6  -4   90.29    9.40
   3   6  -4   94.79    8.70
  -3  -6   4  107.09    8.50
  -3  -6   4   86.79   11.60
  -3  -6   4   96.89    9.30
  -3  -6   4   90.99    8.20
  -3  -6   4   86.59   12.60
  -3  -6   4  121.19   15.70
   2   6  -4   27.50    5.00
   2   6  -4   24.50    5.60
   2   6  -4   18.10    4.10
   2   6  -4   18.50    4.60
   2   6  -4   14.20    3.40
   2   6  -4   15.70    4.60
   2   6  -4   16.30    3.60
  -2  -6   4   18.30    3.50
  -2  -6   4   15.60    3.30
  -2  -6   4   12.60    7.00
  -2  -6   4   23.00    6.00
  -2  -6   4   23.20    5.50
  -2  -6   4   15.60    5.10
   1   6  -4  565.14   30.00
   1   6  -4  561.54   30.90
   1   6  -4  612.04   32.50
   1   6  -4  547.95   30.70
   1   6  -4  491.65   30.40
   1   6  -4  522.45   31.10
  -1  -6   4  545.45   31.80
  -1  -6   4  560.94   33.90
  -1  -6   4  559.04   31.00
  -1  -6   4  578.44   30.70
  -1  -6   4  548.95   31.50
  -1  -6   4  574.44   31.10
   0   6  -4 2715.33  143.69
   0   6  -4 2651.63  143.69
   0   6  -4 2724.73  145.59
   0  -6   4 2636.54  145.39
   0  -6   4 2579.34  145.09
   0  -6   4 2719.33  143.89
   0  -6   4 2743.33  143.49
   0  -6   4 2850.61  143.49
   0  -6   4 2827.92  143.59
   0  -6   4 2649.24  143.99
   0  -6   4 2712.83  143.49
  -1   6  -4  206.58   13.60
  -1   6  -4  220.38   13.80
  -1   6  -4  233.18   19.40
   1  -6   4  212.28   16.10
   1  -6   4  216.28   15.20
   1  -6   4  207.88   13.10
   1  -6   4  221.08   12.80
   1  -6   4  216.18   13.20
   1  -6   4  214.68   13.40
   1  -6   4  202.28   17.10
   1  -6   4  220.78   12.90
  -2   6  -4   17.20    9.20
  -2   6  -4   15.70    4.40
  -2   6  -4   16.60    4.60
   2  -6   4   16.60    3.70
   2  -6   4   14.40    5.50
   2  -6   4   10.00    3.90
   2  -6   4   13.80    2.90
   2  -6   4   18.00    8.20
   2  -6   4    9.50    3.30
   2  -6   4   14.30    2.80
   2  -6   4   14.10    2.90
   2  -6   4    9.30    5.60
  -3   6  -4    5.60   10.90
  -3   6  -4    7.00    5.00
   3  -6   4    9.70    9.70
   3  -6   4    7.80    2.40
   3  -6   4    8.60    2.60
   3  -6   4   10.40    3.70
   3  -6   4   10.00    4.00
   3  -6   4    4.40    3.80
   3  -6   4    6.20    6.10
   3  -6   4    5.00    3.50
   3  -6   4    6.50    5.40
  -4   6  -4   -3.70    5.30
  -4   6  -4    1.30   12.90
   4  -6   4   -0.80    5.10
   4  -6   4   -0.80    5.30
   4  -6   4    3.90    2.50
   4  -6   4    3.90    6.40
   4  -6   4    1.20    4.20
   4  -6   4    3.50    3.00
   4  -6   4  -10.80    7.60
   4  -6   4   -1.20    4.50
   4  -6   4   16.60   12.10
  -5   6  -4   37.20    8.10
   5  -6   4   56.79    6.80
   5  -6   4   52.09   10.00
   5  -6   4   60.69    7.70
   5  -6   4   60.19    9.50
   5  -6   4   47.90    7.50
   5  -6   4   49.20    7.00
   5  -6   4   47.40   10.50
   8   5  -4  208.48   25.70
   8   5  -4  237.28   18.90
   8   5  -4  241.48   17.50
   8   5  -4  226.48   16.80
  -8  -5   4  294.17   28.40
  -8  -5   4  200.58   23.80
  -8  -5   4  297.47   28.30
   7   5  -4  192.58   33.90
   7   5  -4  249.78   25.30
   7   5  -4  274.47   18.80
   7   5  -4  285.47   18.90
   7   5  -4  282.07   17.70
  -7  -5   4  342.67   25.40
  -7  -5   4  306.07   29.10
  -7  -5   4  252.07   20.80
  -7  -5   4  289.47   26.90
   6   5  -4  237.78   16.50
   6   5  -4  241.68   14.30
   6   5  -4  217.98   15.30
   6   5  -4  203.78   20.90
   6   5  -4  186.18   26.20
  -6  -5   4  234.88   22.60
  -6  -5   4  208.28   22.50
  -6  -5   4  238.88   21.50
  -6  -5   4  209.08   17.10
   5   5  -4   19.10    5.80
   5   5  -4   13.50    3.20
   5   5  -4   13.60    4.20
   5   5  -4    3.50    6.60
   5   5  -4   10.50    7.80
   5   5  -4   15.70    4.40
  -5  -5   4    2.10    8.20
  -5  -5   4   15.20    5.10
  -5  -5   4    9.00    8.50
  -5  -5   4   -0.10    7.30
   4   5  -4  300.07   18.90
   4   5  -4  320.67   21.00
   4   5  -4  328.27   22.70
   4   5  -4  315.57   17.50
   4   5  -4  343.57   19.80
   4   5  -4  307.47   20.00
  -4  -5   4  308.97   18.30
  -4  -5   4  314.17   19.70
  -4  -5   4  308.67   22.90
  -4  -5   4  336.67   23.50
  -4  -5   4  295.37   18.90
  -4  -5   4  329.37   22.10
   3   5  -4   39.50    3.90
   3   5  -4   32.20    5.00
   3   5  -4   33.00    6.00
   3   5  -4   39.20    5.50
   3   5  -4   30.90    4.40
   3   5  -4   25.60    4.90
   3   5  -4   33.50    5.10
  -3  -5   4   41.10    6.40
  -3  -5   4   41.90    8.50
  -3  -5   4   23.90    3.80
  -3  -5   4   30.80    7.10
  -3  -5   4   34.80    5.10
  -3  -5   4   37.70    6.80
   2   5  -4  923.61   53.09
   2   5  -4  971.80   52.59
   2   5  -4  929.41   53.29
   2   5  -4 1038.70   52.29
   2   5  -4  950.40   52.59
   2   5  -4  989.90   52.89
  -2  -5   4  904.81   53.19
  -2  -5   4 1014.30   52.99
  -2  -5   4  996.00   52.49
  -2  -5   4 1003.20   54.19
  -2  -5   4  953.10   55.19
  -2  -5   4 1009.80   52.69
   1   5  -4 2876.21  136.29
   1   5  -4 2580.34  135.59
   1   5  -4 2502.15  135.49
   1   5  -4 2617.74  135.29
   1   5  -4 2555.24  136.29
   1   5  -4 2255.27  135.59
   1   5  -4 2359.66  135.89
  -1  -5   4 2717.23  135.69
  -1  -5   4 2564.34  137.59
  -1  -5   4 2521.15  136.39
  -1  -5   4 2472.25  135.89
  -1  -5   4 2606.04  135.99
  -1  -5   4 2654.03  135.79
   0   5  -4 1570.24   84.49
   0   5  -4 1506.35   83.69
   0   5  -4 1650.63   85.29
   0   5  -4 1558.74   83.69
   0  -5   4 1601.94   84.09
   0  -5   4 1551.44   83.49
   0  -5   4 1572.44   83.69
   0  -5   4 1658.63   83.59
   0  -5   4 1486.75   85.39
   0  -5   4 1589.64   84.19
   0  -5   4 1552.54   84.19
  -1   5  -4   73.39    6.80
  -1   5  -4   88.69   11.40
   1  -5   4   72.69    6.40
   1  -5   4   74.09    4.80
   1  -5   4   77.69    5.60
   1  -5   4   79.79   10.50
   1  -5   4   78.49    7.50
   1  -5   4   76.89    6.20
   1  -5   4   86.89   10.40
   1  -5   4   56.89    7.40
   1  -5   4   76.59    5.70
   1  -5   4   77.09   10.30
  -2   5  -4   80.69    7.40
  -2   5  -4   79.99   13.90
  -2   5  -4   88.99    7.50
   2  -5   4   79.89    7.70
   2  -5   4   91.79    5.70
   2  -5   4   89.39   12.70
   2  -5   4   86.29    5.70
   2  -5   4   93.99    9.70
   2  -5   4   81.19    5.90
   2  -5   4   83.09    6.80
   2  -5   4   83.69    6.20
   2  -5   4   65.59    9.90
   2  -5   4   87.99   10.40
  -3   5  -4    7.80    9.40
  -3   5  -4    0.20    5.10
   3  -5   4    5.40    3.20
   3  -5   4    3.20    7.50
   3  -5   4   -0.10    3.60
   3  -5   4    3.20    3.30
   3  -5   4    5.30    5.30
   3  -5   4    1.60    2.80
   3  -5   4    6.90    4.50
   4  -5   4   10.20    4.10
   4  -5   4    7.50    4.50
   4  -5   4   16.80    9.50
   4  -5   4   12.20    4.80
   4  -5   4    4.70    5.70
   4  -5   4    5.00    4.30
   4  -5   4    7.70    6.50
   4  -5   4   11.30    3.70
   5  -5   4  282.87   16.00
   5  -5   4  277.57   18.00
   5  -5   4  266.37   19.40
   5  -5   4  259.77   16.90
   5  -5   4  335.37   24.30
   5  -5   4  247.48   17.80
   5  -5   4  291.57   17.50
   5  -5   4  297.97   20.40
  -6   5  -4  224.78   20.50
   6  -5   4  256.27   15.20
   6  -5   4  205.98   20.70
   6  -5   4  240.18   15.30
   6  -5   4  247.38   20.10
   8   4  -4  263.47   38.40
   8   4  -4  293.87   20.70
   8   4  -4  334.47   22.90
   8   4  -4  325.57   21.80
  -8  -4   4  395.56   31.70
  -8  -4   4  325.97   33.60
  -8  -4   4  417.96   30.70
   7   4  -4   67.49    9.20
   7   4  -4   62.29    7.50
   7   4  -4   34.40   11.10
   7   4  -4   75.59    8.10
  -7  -4   4   84.99   11.70
  -7  -4   4   56.39    9.20
  -7  -4   4   74.19   11.40
  -7  -4   4   57.39   14.20
  -7  -4   4   75.59   13.20
   6   4  -4   18.70    4.30
   6   4  -4   21.20    5.80
   6   4  -4   23.50    4.30
   6   4  -4   19.70    4.70
   6   4  -4    4.70   11.10
   6   4  -4    3.10    8.30
  -6  -4   4   10.70    8.20
  -6  -4   4   16.70    8.70
  -6  -4   4    2.30   10.10
  -6  -4   4   14.90    4.90
  -6  -4   4    9.80    5.10
   5   4  -4  706.53   37.60
   5   4  -4  748.43   36.80
   5   4  -4  672.13   37.70
   5   4  -4  685.93   38.00
   5   4  -4  618.64   40.30
   5   4  -4  622.94   43.20
  -5  -4   4  650.33   38.40
  -5  -4   4  653.63   40.00
  -5  -4   4  638.04   37.70
  -5  -4   4  697.43   40.90
  -5  -4   4  680.23   40.60
   4   4  -4   30.20    4.80
   4   4  -4   24.10    6.50
   4   4  -4   28.90    4.60
   4   4  -4   12.40    6.00
   4   4  -4   21.10    5.00
   4   4  -4   30.10    4.00
  -4  -4   4   20.70    6.40
  -4  -4   4   21.70    4.30
  -4  -4   4   17.50    6.30
  -4  -4   4   29.10    7.70
  -4  -4   4   34.10    7.90
   3   4  -4  248.48   15.50
   3   4  -4  261.07   16.20
   3   4  -4  244.48   17.10
   3   4  -4  233.38   16.30
   3   4  -4  281.67   16.10
  -3  -4   4  235.58   15.20
  -3  -4   4  246.38   17.40
  -3  -4   4  241.08   18.30
  -3  -4   4  246.88   17.90
  -3  -4   4  256.07   14.70
  -3  -4   4  266.77   15.70
   2   4  -4 2385.96  128.49
   2   4  -4 2330.07  128.59
   2   4  -4 2419.06  128.29
   2   4  -4 2392.66  127.39
   2   4  -4 2398.96  127.99
   2   4  -4 2419.56  128.69
  -2  -4   4 2535.25  128.39
  -2  -4   4 2479.55  129.39
  -2  -4   4 2419.76  130.09
  -2  -4   4 2526.35  128.29
  -2  -4   4 2298.97  128.79
  -2  -4   4 2392.66  127.99
   1   4  -4 2582.14  138.99
   1   4  -4 2588.24  139.49
   1   4  -4 2767.12  138.99
   1   4  -4 2315.87  139.09
   1   4  -4 2714.23  138.99
   1   4  -4 2649.93  138.79
  -1  -4   4 2581.54  139.89
  -1  -4   4 2760.62  139.19
  -1  -4   4 2599.84  139.49
  -1  -4   4 2689.13  139.19
  -1  -4   4 2778.92  139.09
  -1  -4   4 2502.05  140.69
   0   4  -4  504.05   27.50
   0   4  -4  510.45   26.60
   0   4  -4  420.46   26.40
   0   4  -4  517.05   27.40
   0   4  -4  481.35   26.50
   0  -4   4  473.05   27.30
   0  -4   4  492.85   26.30
   0  -4   4  443.66   28.90
   0  -4   4  496.65   27.30
   0  -4   4  463.95   26.60
   0  -4   4  519.25   26.40
   0  -4   4  468.85   28.60
   0  -4   4  505.25   26.80
  -1   4  -4    1.90    2.40
  -1   4  -4   -0.10    3.00
  -1   4  -4   -1.80    1.90
  -1   4  -4    3.10    4.40
   1  -4   4   -0.50    2.00
   1  -4   4    1.40    1.50
   1  -4   4   -5.20    2.30
   1  -4   4    2.80    2.70
   1  -4   4   -0.20    1.40
   1  -4   4    0.30    4.10
   1  -4   4    1.40    4.00
   1  -4   4   -0.50    1.80
   1  -4   4   -3.10    4.20
   1  -4   4   -0.20    2.30
  -2   4  -4    2.00    2.50
  -2   4  -4    1.00    2.80
  -2   4  -4    6.10    6.20
   2  -4   4   -4.30    4.80
   2  -4   4    3.40    1.10
   2  -4   4    0.50    2.10
   2  -4   4    3.90    2.40
   2  -4   4    5.10    3.10
   2  -4   4    4.50    1.40
   2  -4   4    3.40    3.90
   2  -4   4    5.10    4.20
   2  -4   4    2.10    2.20
  -3   4  -4    3.50    2.90
   3  -4   4    6.70    6.40
   3  -4   4   -3.70    2.70
   3  -4   4   -2.50    2.80
   3  -4   4   -2.00    2.90
   3  -4   4    4.20    4.00
   3  -4   4   -0.90    4.60
   3  -4   4   -0.90    2.40
  -4   4  -4  324.57   20.90
   4  -4   4  330.07   19.90
   4  -4   4  323.97   19.60
   4  -4   4  360.16   21.80
   4  -4   4  334.87   20.30
   4  -4   4  338.57   23.30
   4  -4   4  349.07   19.80
  -5   4  -4  614.74   35.60
   5  -4   4  608.84   34.80
   5  -4   4  536.85   33.70
   5  -4   4  614.04   33.60
   5  -4   4  542.95   32.60
   5  -4   4  641.34   35.70
   5  -4   4  606.04   34.10
   5  -4   4  718.63   38.90
  -6   4  -4  375.06   25.60
  -6   4  -4  358.96   25.10
   6  -4   4  403.46   21.50
   6  -4   4  376.26   24.50
   6  -4   4  459.55   29.60
   6  -4   4  377.16   21.40
   6  -4   4  342.27   24.20
   6  -4   4  346.27   23.50
   6  -4   4  351.36   22.70
  -7   4  -4   11.60   13.20
   7  -4   4   20.40    5.00
   7  -4   4   21.30    5.60
   7  -4   4   19.70   11.60
   7  -4   4   27.90    6.20
   7  -4   4   21.90    9.30
   7  -4   4   14.70    8.30
   8   3  -4  137.09   19.40
   8   3  -4  113.49   12.50
   8   3  -4   94.39   12.50
   8   3  -4   89.19   21.00
   8   3  -4   94.69   11.50
  -8  -3   4   92.49   13.50
  -8  -3   4  146.29   16.80
  -8  -3   4  120.29   15.90
  -8  -3   4  120.99   17.30
   7   3  -4   65.39    7.70
   7   3  -4   65.79    9.30
   7   3  -4   53.89    7.80
   7   3  -4   54.39   10.90
  -7  -3   4   80.89   10.30
  -7  -3   4   85.09   11.80
  -7  -3   4   74.79   11.50
  -7  -3   4   65.89   13.10
  -7  -3   4   82.39   12.90
  -7  -3   4   54.19   12.60
   6   3  -4  371.46   23.80
   6   3  -4  380.36   23.00
   6   3  -4  397.76   22.90
   6   3  -4  348.37   27.60
  -6  -3   4  343.37   27.70
  -6  -3   4  370.06   25.30
  -6  -3   4  429.26   28.10
  -6  -3   4  415.46   25.50
  -6  -3   4  378.66   23.70
   5   3  -4  483.25   24.20
   5   3  -4  337.97   31.30
   5   3  -4  446.66   24.70
   5   3  -4  382.96   27.90
   5   3  -4  449.86   24.60
   5   3  -4  441.16   25.40
  -5  -3   4  381.16   25.50
  -5  -3   4  444.86   26.80
  -5  -3   4  440.26   27.90
  -5  -3   4  374.76   24.50
  -5  -3   4  391.26   27.40
   4   3  -4   13.70    3.90
   4   3  -4    5.60    6.20
   4   3  -4   14.70    4.50
   4   3  -4    0.30    5.20
   4   3  -4   11.00    3.40
   4   3  -4   12.10    3.00
  -4  -3   4    7.70    5.80
  -4  -3   4    9.10    5.40
  -4  -3   4    7.70    3.80
  -4  -3   4    9.50    5.90
  -4  -3   4    8.70    3.70
   3   3  -4 1966.80  110.09
   3   3  -4 2288.97  109.39
   3   3  -4 1991.60  110.49
   3   3  -4 2028.70  109.49
   3   3  -4 2198.78  109.59
  -3  -3   4 1871.21  110.09
  -3  -3   4 2013.70  110.49
  -3  -3   4 2008.90  110.39
  -3  -3   4 2075.99  109.49
   2   3  -4 4512.85  238.38
   2   3  -4 4662.93  238.68
   2   3  -4 4674.53  237.78
   2   3  -4 4313.77  238.58
   2   3  -4 4429.16  238.48
   2   3  -4 4472.25  238.48
  -2  -3   4 4376.26  239.58
  -2  -3   4 4815.92  238.28
  -2  -3   4 4300.97  238.88
  -2  -3   4 4390.56  239.08
  -2  -3   4 4493.35  238.18
  -2  -3   4 4678.13  237.98
   1   3  -4 2347.17  126.09
   1   3  -4 2358.36  126.49
   1   3  -4 2417.06  126.99
   1   3  -4 2266.97  126.89
   1   3  -4 2407.66  126.99
   1   3  -4 2546.25  126.49
   1   3  -4 2419.46  126.59
  -1  -3   4 2308.57  127.29
  -1  -3   4 2381.46  126.69
  -1  -3   4 2391.66  127.19
  -1  -3   4 2401.86  126.69
  -1  -3   4 2469.75  126.59
   0   3  -4  171.18    9.40
   0   3  -4  175.68   11.20
   0   3  -4  171.18   10.00
   0   3  -4  183.58    9.50
   0   3  -4  190.48   10.20
   0   3  -4  167.58   10.30
   0  -3   4  169.68   10.10
   0  -3   4  179.78   10.10
   0  -3   4  162.08   11.20
   0  -3   4  172.28   12.80
   0  -3   4  173.88    9.50
   0  -3   4  149.49   10.70
  -1   3  -4    0.00    1.60
  -1   3  -4    0.70    2.40
  -1   3  -4    1.10    1.90
   1  -3   4   -4.50    1.90
   1  -3   4   -1.50    1.50
   1  -3   4    0.00    2.10
   1  -3   4    1.60    1.50
   1  -3   4    0.10    1.80
   1  -3   4   -2.30    3.30
   1  -3   4    0.30    1.10
   1  -3   4   -2.10    3.60
  -2   3  -4   22.70    2.90
  -2   3  -4   22.10    2.90
   2  -3   4   24.60    3.00
   2  -3   4   29.80    3.60
   2  -3   4   27.20    3.50
   2  -3   4   20.00    3.00
   2  -3   4   34.80    6.50
   2  -3   4   30.50    5.20
  -3   3  -4   98.49    7.00
   3  -3   4   85.19    6.70
   3  -3   4   88.29    6.70
   3  -3   4   82.29    8.20
   3  -3   4   86.19    8.30
   3  -3   4  101.59   11.60
   3  -3   4   83.49    9.10
   3  -3   4   83.19    6.40
   3  -3   4   71.89    9.60
  -4   3  -4 1095.39   61.19
  -4   3  -4 1083.79   61.49
   4  -3   4 1125.09   60.99
   4  -3   4 1118.49   61.09
   4  -3   4 1215.18   63.69
   4  -3   4 1141.09   62.29
   4  -3   4 1289.57   64.79
   4  -3   4 1030.50   60.69
   4  -3   4 1119.79   61.19
  -5   3  -4 1039.90   61.09
   5  -3   4 1216.88   64.29
   5  -3   4 1097.49   60.29
   5  -3   4 1114.89   59.79
   5  -3   4 1235.78   63.69
   5  -3   4 1006.90   60.09
   5  -3   4 1070.69   59.09
   5  -3   4 1056.79   60.49
   5  -3   4 1200.48   59.39
   5  -3   4 1118.99   61.39
  -6   3  -4  306.87   21.40
   6  -3   4  301.47   19.80
   6  -3   4  365.46   24.30
   6  -3   4  326.17   18.30
   6  -3   4  309.87   20.30
   6  -3   4  264.97   18.80
   6  -3   4  300.47   17.40
   6  -3   4  303.77   17.30
   6  -3   4  301.37   18.70
   6  -3   4  268.87   19.80
  -7   3  -4    1.60    7.60
   7  -3   4    3.70    4.20
   7  -3   4  -10.10    9.60
   7  -3   4    0.90    5.20
   7  -3   4    5.40    6.90
   7  -3   4   -8.20    5.50
   8   2  -4  169.28   15.20
   8   2  -4  147.99   15.20
   8   2  -4  183.58   31.00
   8   2  -4  219.58   21.30
   8   2  -4  136.19   14.90
  -8  -2   4  192.38   14.80
  -8  -2   4  185.18   20.70
  -8  -2   4  167.18   26.20
  -8  -2   4  235.08   23.90
   7   2  -4  486.75   32.40
   7   2  -4  387.36   27.90
   7   2  -4  438.86   28.00
   7   2  -4  483.85   40.30
   7   2  -4  516.75   29.00
  -7  -2   4  509.85   34.40
  -7  -2   4  471.55   33.60
  -7  -2   4  514.95   32.80
  -7  -2   4  416.56   31.50
  -7  -2   4  486.75   28.50
  -7  -2   4  488.85   29.80
   6   2  -4  328.67   22.70
   6   2  -4  351.26   20.60
   6   2  -4  293.37   20.10
   6   2  -4  328.47   25.00
  -6  -2   4  313.87   23.40
  -6  -2   4  326.57   24.80
  -6  -2   4  344.87   22.10
  -6  -2   4  348.27   24.90
  -6  -2   4  344.17   21.70
   5   2  -4   12.50    3.90
   5   2  -4   10.60    3.80
   5   2  -4   25.90    8.00
   5   2  -4    4.10    6.10
   5   2  -4   10.60    3.90
  -5  -2   4   13.80    6.30
  -5  -2   4    5.80    5.40
  -5  -2   4    5.50    6.60
   4   2  -4 1042.80   54.49
   4   2  -4 1005.10   54.19
   4   2  -4  949.40   55.19
   4   2  -4 1007.00   56.49
  -4  -2   4 1024.80   55.29
  -4  -2   4  989.20   54.59
  -4  -2   4  935.61   55.59
  -4  -2   4  945.51   55.29
  -4  -2   4 1082.09   56.09
   3   2  -4 5024.80  263.47
   3   2  -4 4574.24  263.87
   3   2  -4 5093.09  262.57
   3   2  -4 5495.85  262.27
  -3  -2   4 4565.64  262.77
  -3  -2   4 4719.73  262.37
  -3  -2   4 5422.56  263.27
  -3  -2   4 4784.72  262.17
   2   2  -4 3952.20  211.48
   2   2  -4 3500.15  210.98
   2   2  -4 4368.36  210.98
   2   2  -4 4044.50  211.28
   2   2  -4 4464.05  210.58
   2   2  -4 4044.50  211.08
  -2  -2   4 4057.79  210.98
  -2  -2   4 3967.50  210.88
  -2  -2   4 3497.45  211.18
  -2  -2   4 3990.70  211.38
   1   2  -4  444.26   23.00
   1   2  -4  370.16   23.40
   1   2  -4  409.96   23.40
   1   2  -4  442.46   23.70
   1   2  -4  430.86   23.40
   1   2  -4  440.56   22.70
  -1  -2   4  399.76   23.30
  -1  -2   4  373.56   23.70
  -1  -2   4  456.55   23.20
  -1  -2   4  455.05   22.90
  -1  -2   4  395.56   23.60
   0   2  -4  199.68   11.10
   0   2  -4  199.58   10.80
   0   2  -4  204.58   10.70
   0   2  -4  197.98   10.60
   0   2  -4  197.08   10.60
   0   2  -4  201.48   10.90
   0  -2   4  173.98   11.70
   0  -2   4  159.18   11.40
   0  -2   4  199.48   11.30
   0  -2   4  186.88   11.10
   0  -2   4  185.18   11.10
   0  -2   4  191.38   10.60
   0  -2   4  197.08   10.60
   0  -2   4  176.98   12.90
  -1   2  -4   57.79    4.20
  -1   2  -4   53.69    5.20
  -1   2  -4   54.09    4.10
   1  -2   4   67.39    5.00
   1  -2   4   46.00    4.10
   1  -2   4   61.39    3.80
   1  -2   4   56.29    3.80
   1  -2   4   53.39    3.90
   1  -2   4   48.30    3.80
   1  -2   4   49.50    6.90
   1  -2   4   54.79    6.50
  -2   2  -4   -0.20    1.60
  -2   2  -4    6.40    2.20
  -2   2  -4    1.00    4.60
  -2   2  -4    3.30    1.90
   2  -2   4    0.10    2.70
   2  -2   4    1.20    1.50
   2  -2   4    1.60    3.30
   2  -2   4    0.10    1.60
   2  -2   4    0.20    3.10
   2  -2   4   -0.90    2.10
   2  -2   4   -0.50    1.70
  -3   2  -4 1708.23  108.19
  -3   2  -4 2094.69  105.39
  -3   2  -4 1989.10  105.39
   3  -2   4 1942.11  105.09
   3  -2   4 1932.31  106.49
   3  -2   4 2007.60  105.49
   3  -2   4 2046.00  105.49
   3  -2   4 2160.38  107.79
   3  -2   4 1996.20  105.29
  -4   2  -4 2368.86  126.79
  -4   2  -4 2032.30  130.19
   4  -2   4 2476.65  126.39
   4  -2   4 2473.05  127.49
   4  -2   4 2004.30  128.09
   4  -2   4 2468.05  125.39
   4  -2   4 2519.65  126.49
   4  -2   4 2500.15  126.49
   4  -2   4 2354.46  126.19
   4  -2   4 2654.93  129.09
   4  -2   4 2336.67  125.49
  -5   2  -4  789.72   45.80
   5  -2   4  825.32   44.40
   5  -2   4  766.92   44.70
   5  -2   4  770.22   48.30
   5  -2   4  943.21   48.30
   5  -2   4  829.32   45.90
   5  -2   4  816.92   43.80
   5  -2   4  787.52   44.00
   5  -2   4  837.62   45.10
   5  -2   4  854.21   45.00
   5  -2   4  836.82   44.40
  -6   2  -4  120.49   20.40
  -6   2  -4  119.89   13.10
   6  -2   4   93.49   17.50
   6  -2   4  102.59    9.50
   6  -2   4  116.09   11.20
   6  -2   4  127.69   13.90
   6  -2   4  109.49    9.40
   6  -2   4  110.29    8.40
   6  -2   4   88.89    9.50
   6  -2   4  120.09    7.80
   6  -2   4  114.89    7.80
   6  -2   4  114.59   10.60
  -7   2  -4   73.99   19.40
  -7   2  -4   47.60    9.00
   7  -2   4   44.90    6.50
   7  -2   4   52.89   12.30
   7  -2   4   46.60    7.30
   7  -2   4   35.20    6.40
   7  -2   4   50.49    6.60
   7  -2   4   49.20    7.50
  -8   2  -4   32.10   10.30
  -8   2  -4  107.19   23.60
   8  -2   4   45.40    8.10
   8  -2   4   57.89    7.00
   8  -2   4   41.60    9.00
   8  -2   4   46.20   13.60
   8  -2   4   49.30    6.60
   8   1  -4   91.29   10.00
   8   1  -4   79.39   14.80
   8   1  -4   82.29   12.50
  -8  -1   4   77.29   15.00
  -8  -1   4  123.29   16.40
  -8  -1   4  131.99   20.30
   7   1  -4  300.67   22.00
   7   1  -4  339.77   23.10
   7   1  -4  433.46   32.80
  -7  -1   4  405.36   27.70
  -7  -1   4  352.96   29.70
  -7  -1   4  383.16   28.40
   6   1  -4  180.88   13.80
   6   1  -4  198.98   23.70
   6   1  -4  155.98   13.00
   6   1  -4  161.38   12.30
  -6  -1   4  199.98   17.90
  -6  -1   4  169.38   13.50
  -6  -1   4  179.68   18.40
  -6  -1   4  213.28   16.60
  -6  -1   4  188.78   18.30
   5   1  -4  549.05   34.80
   5   1  -4  516.75   27.90
   5   1  -4  433.86   27.00
   5   1  -4  415.46   27.00
  -5  -1   4  516.65   29.10
  -5  -1   4  459.65   27.50
  -5  -1   4  445.66   29.30
  -5  -1   4  445.86   29.50
   4   1  -4 3316.17  163.98
   4   1  -4 3433.46  161.78
   4   1  -4 2958.20  159.68
   4   1  -4 2951.60  159.88
  -4  -1   4 2860.81  161.48
  -4  -1   4 2887.71  161.08
  -4  -1   4 3090.29  160.78
  -4  -1   4 2751.02  161.68
  -4  -1   4 2838.62  160.68
   3   1  -4 5444.15  258.77
   3   1  -4 4663.93  259.47
   3   1  -4 4344.37  260.57
   3   1  -4 5473.45  258.37
  -3  -1   4 4916.31  258.87
  -3  -1   4 4674.33  259.37
  -3  -1   4 4740.83  258.87
  -3  -1   4 5192.98  258.97
  -3  -1   4 4535.05  259.47
   2   1  -4  597.84   36.30
   2   1  -4  689.93   37.70
   2   1  -4  681.63   37.30
   2   1  -4  720.73   36.40
   2   1  -4  658.53   38.00
  -2  -1   4  648.44   36.50
  -2  -1   4  666.23   36.70
  -2  -1   4  696.13   36.60
  -2  -1   4  635.74   36.80
  -2  -1   4  630.04   35.90
   1   1  -4    7.60    3.00
   1   1  -4   10.40    2.50
   1   1  -4    9.20    2.20
   1   1  -4   14.80    2.10
   1   1  -4    5.50    3.30
   1   1  -4   10.70    2.20
  -1  -1   4   15.40    2.50
  -1  -1   4   10.10    2.00
  -1  -1   4    9.00    2.70
  -1  -1   4    5.10    1.90
  -1  -1   4   10.60    2.50
  -1  -1   4   12.00    3.10
   0   1  -4    4.70    1.50
   0   1  -4    8.70    2.70
   0   1  -4    6.30    1.50
   0   1  -4    8.40    1.40
   0   1  -4   10.90    2.30
   0   1  -4    9.70    2.00
   0  -1   4    6.40    1.90
   0  -1   4    9.00    3.40
   0  -1   4    3.40    2.20
   0  -1   4    7.00    2.40
   0  -1   4    8.70    2.10
  -1   1  -4    0.90    2.80
  -1   1  -4    1.30    1.30
  -1   1  -4    2.40    1.10
  -1   1  -4    0.80    0.90
  -1   1  -4    4.10    2.10
   1  -1   4    5.00    1.40
   1  -1   4    5.10    1.30
   1  -1   4    1.90    1.60
   1  -1   4    2.00    2.90
   1  -1   4    1.80    1.30
   1  -1   4    0.70    1.60
   1  -1   4    1.80    0.90
   1  -1   4    2.50    1.00
  -2   1  -4  936.51   44.80
  -2   1  -4  853.01   44.90
  -2   1  -4  747.63   46.60
   2  -1   4  826.12   46.10
   2  -1   4  729.83   45.60
   2  -1   4  914.81   45.10
   2  -1   4  894.31   44.80
   2  -1   4  846.92   45.00
   2  -1   4  863.51   44.50
   2  -1   4  721.53   44.40
   2  -1   4  887.71   44.30
  -3   1  -4 3382.76  203.28
  -3   1  -4 3672.23  201.08
  -3   1  -4 3715.73  200.68
  -3   1  -4 4093.79  200.78
   3  -1   4 3818.12  200.88
   3  -1   4 3819.62  200.58
   3  -1   4 3845.82  201.98
   3  -1   4 3862.81  200.98
   3  -1   4 3869.11  202.38
   3  -1   4 3923.11  200.78
   3  -1   4 3952.70  200.28
   3  -1   4 3699.03  202.28
  -4   1  -4 3064.59  167.48
  -4   1  -4 2792.62  170.88
   4  -1   4 2980.80  169.28
   4  -1   4 3279.27  166.48
   4  -1   4 3234.08  167.18
   4  -1   4 3250.27  167.08
   4  -1   4 3382.06  169.08
   4  -1   4 3204.88  166.68
   4  -1   4 3048.50  166.88
   4  -1   4 3193.18  168.18
   4  -1   4 3315.17  167.28
  -5   1  -4  309.17   31.30
  -5   1  -4  385.36   23.50
   5  -1   4  359.16   22.00
   5  -1   4  399.66   21.50
   5  -1   4  399.06   23.70
   5  -1   4  414.26   22.60
   5  -1   4  404.26   23.00
   5  -1   4  377.16   22.30
   5  -1   4  395.46   22.20
   5  -1   4  414.86   22.40
   5  -1   4  434.96   25.20
   5  -1   4  395.86   27.40
  -6   1  -4  306.67   20.30
   6  -1   4  291.57   16.80
   6  -1   4  266.07   17.80
   6  -1   4  291.47   17.80
   6  -1   4  274.27   24.50
   6  -1   4  304.87   16.70
   6  -1   4  311.47   18.00
   6  -1   4  302.87   17.90
   6  -1   4  284.47   16.40
  -7   1  -4   12.50    6.60
  -7   1  -4   10.30   17.60
   7  -1   4   10.70    5.30
   7  -1   4    6.70    3.20
   7  -1   4   -4.40    9.40
   7  -1   4   12.90    5.30
   7  -1   4   10.10    3.80
   7  -1   4    7.80    5.10
   7  -1   4    9.80    3.30
  -8   1  -4  132.99   24.20
  -8   1  -4   62.19   14.70
   8  -1   4   66.69    8.70
   8  -1   4   54.39   13.40
   8  -1   4   80.99   10.80
   8  -1   4   74.49    9.00
   8  -1   4   73.19    9.10
   8  -1   4   71.29    8.30
   8   0  -4  200.48   19.60
   8   0  -4  307.67   23.40
   8   0  -4  258.57   34.90
  -8   0   4  182.68   30.90
  -8   0   4  293.07   25.10
  -8   0   4  240.68   31.40
   7   0  -4  174.48   15.10
   7   0  -4  177.18   15.50
   7   0  -4  237.38   24.50
   7   0  -4  162.88   13.40
  -7   0   4  241.88   21.50
  -7   0   4  183.08   24.80
  -7   0   4  219.28   20.20
   6   0  -4    6.20    3.50
   6   0  -4    7.90    5.40
   6   0  -4    5.20    4.90
   6   0  -4   -0.90    7.90
  -6   0   4    8.30    5.30
  -6   0   4    2.80    8.70
  -6   0   4    7.70    7.00
  -6   0   4    9.20    7.50
  -6   0   4    5.20    7.50
  -6   0   4    3.90    7.10
   5   0  -4 1908.21  102.59
   5   0  -4 1971.20  103.89
   5   0  -4 1769.22  102.49
  -5   0   4 1875.51  105.09
  -5   0   4 2021.50  103.79
  -5   0   4 1930.01  103.69
   4   0  -4 4826.42  259.37
   4   0  -4 4747.33  259.47
   4   0  -4 5463.05  260.27
   4   0  -4 5485.35  260.17
  -4   0   4 4430.46  259.67
  -4   0   4 4463.35  259.87
   3   0  -4  904.61   51.69
   3   0  -4 1061.69   52.29
   3   0  -4 1017.90   51.79
  -3   0   4  889.21   51.59
  -3   0   4  856.31   51.59
   2   0  -4  152.68   10.40
   2   0  -4  154.58   10.40
   2   0  -4  178.88   10.10
  -2   0   4  144.79   10.60
  -2   0   4  128.69    9.80
  -2   0   4  149.39   10.00
  -2   0   4  171.78   12.00
   1   0  -4   25.60    4.00
   1   0  -4   17.40    3.30
   1   0  -4   17.50    2.60
   1   0  -4   20.50    3.60
   1   0  -4   14.00    2.60
  -1   0   4   21.20    3.60
  -1   0   4   16.50    3.30
  -1   0   4   11.20    3.70
  -1   0   4   15.30    2.50
  -1   0   4   22.60    3.70
   0   0  -4    2.20    2.20
   0   0  -4    3.70    1.40
   0   0  -4    2.30    1.30
   0   0  -4    2.20    2.40
   0   0   4    2.40    1.90
   0   0   4    3.60    1.70
   0   0   4    2.90    1.40
   0   0   4    2.20    1.40
   0   0   4    2.40    2.60
  -1   0  -4   95.49    7.70
  -1   0  -4   71.09    6.40
  -1   0  -4   90.09    5.70
  -1   0  -4   84.79    6.30
  -1   0  -4   89.09    5.10
  -1   0  -4   84.29    5.40
  -1   0  -4   84.59    4.80
   1   0   4   89.09    7.70
   1   0   4   85.89    5.20
   1   0   4   85.09    4.70
   1   0   4   89.59    5.10
   1   0   4   82.09    5.30
   1   0   4   86.89    5.90
  -2   0  -4 3564.24  207.18
  -2   0  -4 4282.87  205.38
  -2   0  -4 3905.51  205.48
   2   0   4 3708.63  206.78
   2   0   4 4144.19  205.78
   2   0   4 3788.92  205.78
  -3   0  -4 3423.46  202.68
  -3   0  -4 3925.21  199.98
  -3   0  -4 3909.71  200.48
  -3   0  -4 3261.57  202.28
   3   0   4 3930.01  199.88
   3   0   4 3979.40  200.28
   3   0   4 3868.91  201.48
   3   0   4 3640.24  201.28
   3   0   4 3993.10  200.38
   3   0   4 3759.72  200.28
   3   0   4 4039.80  199.98
  -4   0  -4  756.22   50.29
  -4   0  -4  833.12   46.30
  -4   0  -4  751.22   49.90
  -4   0  -4  877.41   45.40
   4   0   4  856.21   46.10
   4   0   4  807.62   46.50
   4   0   4  915.91   45.70
   4   0   4  892.01   45.90
   4   0   4  885.01   47.30
   4   0   4  902.91   45.40
   4   0   4  895.91   45.40
   4   0   4  817.72   48.10
  -5   0  -4   29.00    9.00
  -5   0  -4   43.60    5.70
  -5   0  -4   31.60   11.40
   5   0   4   47.90    4.50
   5   0   4   51.19    6.90
   5   0   4   46.80    4.40
   5   0   4   37.20    4.90
   5   0   4   42.40    5.70
   5   0   4   44.50    6.00
   5   0   4   38.30    6.40
   5   0   4   35.30    7.30
   5   0   4   49.30    6.10
  -6   0  -4   63.59    9.80
  -6   0  -4   38.80   15.90
  -6   0  -4   51.09   13.20
   6   0   4   58.39    7.70
   6   0   4   62.39    7.30
   6   0   4   54.19    5.90
   6   0   4   62.19    9.10
   6   0   4   56.89    7.50
   6   0   4   52.69   10.50
   6   0   4   53.09    4.80
   6   0   4   59.79    7.40
  -7   0  -4  208.28   34.50
  -7   0  -4  189.98   16.70
   7   0   4  179.48   10.40
   7   0   4  180.78   14.30
   7   0   4  167.28   22.50
   7   0   4  155.98   15.40
   7   0   4  184.08   12.10
   7   0   4  195.58   12.00
   7   0   4  195.18   13.00
  -8   0  -4   73.39   10.50
  -8   0  -4  137.49   25.40
   8   0   4   63.39    8.90
   8   0   4   82.59    8.80
   8   0   4   77.09    8.80
   8   0   4   81.79   10.40
   8  -1  -4  247.28   21.90
   8  -1  -4  280.47   28.40
   8  -1  -4  317.87   23.50
  -8   1   4  337.07   29.40
  -8   1   4  199.78   31.30
  -8   1   4  292.67   25.60
   7  -1  -4   22.00    7.50
   7  -1  -4   11.20    6.00
   7  -1  -4   10.60    4.70
   7  -1  -4   16.30    9.60
   7  -1  -4   32.30    7.80
  -7   1   4   22.20   10.20
  -7   1   4   -3.40   11.50
  -7   1   4   32.80    9.50
  -7   1   4   11.80   13.50
   6  -1  -4  398.56   25.50
   6  -1  -4  442.36   29.80
   6  -1  -4  439.36   26.20
   6  -1  -4  397.96   26.20
   6  -1  -4  344.27   24.30
  -6   1   4  472.65   28.20
  -6   1   4  346.87   30.40
  -6   1   4  421.26   27.30
  -6   1   4  420.46   30.90
   5  -1  -4 2584.44  134.19
   5  -1  -4 2448.96  132.49
   5  -1  -4 2666.73  133.79
   5  -1  -4 2580.44  132.69
   5  -1  -4 2503.55  132.49
  -5   1   4 2570.84  133.39
  -5   1   4 2412.46  131.99
  -5   1   4 2342.07  132.99
  -5   1   4 2184.38  134.59
   4  -1  -4 1863.11  109.69
   4  -1  -4 1909.91  109.99
   4  -1  -4 2007.30  111.19
   4  -1  -4 2294.77  111.49
   4  -1  -4 2061.09  110.19
  -4   1   4 2289.77  110.79
  -4   1   4 2100.59  112.59
  -4   1   4 1911.71  110.19
   3  -1  -4   58.89    7.30
   3  -1  -4   74.19    8.80
   3  -1  -4   84.39    9.30
   3  -1  -4   67.89    7.70
   3  -1  -4   70.29    7.50
  -3   1   4   53.79    8.80
  -3   1   4   66.19    7.50
   2  -1  -4    3.30    2.80
   2  -1  -4    2.10    3.00
   2  -1  -4    1.70    3.00
   2  -1  -4    5.20    2.70
  -2   1   4    1.70    2.30
  -2   1   4   -0.60    3.90
  -2   1   4   -0.50    2.90
  -2   1   4    2.20    2.10
  -2   1   4    4.00    2.70
   1  -1  -4  909.81   49.70
   1  -1  -4  967.40   49.80
   1  -1  -4  967.80   49.60
   1  -1  -4  945.91   49.20
   1  -1  -4  984.90   49.70
  -1   1   4  820.02   50.29
  -1   1   4  919.61   49.50
  -1   1   4  890.41   49.40
  -1   1   4  850.21   50.09
  -1   1   4  962.70   49.50
   0  -1  -4  342.87   17.80
   0  -1  -4  337.57   18.20
   0   1   4  291.07   19.10
   0   1   4  307.17   18.30
   0   1   4  328.67   17.80
   0   1   4  311.07   17.60
   0   1   4  332.27   17.70
   1   1   4 5245.38  277.57
  -2  -1  -4 3367.96  174.98
  -2  -1  -4 3145.59  175.18
  -2  -1  -4 3355.96  175.28
  -2  -1  -4 3081.99  176.68
  -2  -1  -4 3451.55  175.68
  -2  -1  -4 3315.57  175.08
   2   1   4 3436.26  175.18
   2   1   4 3280.37  176.68
   2   1   4 3348.66  175.08
   2   1   4 3368.96  175.08
   2   1   4 3409.96  175.18
   2   1   4 3243.68  175.48
  -3  -1  -4 4514.35  227.98
  -3  -1  -4 4291.47  228.08
  -3  -1  -4 4158.88  229.18
  -3  -1  -4 4016.20  230.28
   3   1   4 4390.96  228.78
   3   1   4 4374.76  227.98
   3   1   4 4454.55  227.98
   3   1   4 4539.55  227.78
   3   1   4 4156.98  228.28
  -4  -1  -4  463.55   25.90
  -4  -1  -4  468.15   28.90
  -4  -1  -4  485.05   26.20
  -4  -1  -4  437.96   31.00
  -4  -1  -4  469.55   26.60
   4   1   4  491.25   25.90
   4   1   4  463.25   26.40
   4   1   4  491.15   26.30
   4   1   4  479.15   28.40
   4   1   4  476.05   26.20
   4   1   4  491.75   25.90
   4   1   4  482.05   26.30
  -5  -1  -4  213.78   23.40
  -5  -1  -4  232.38   14.90
  -5  -1  -4  260.87   15.00
  -5  -1  -4  258.27   16.00
  -5  -1  -4  235.88   19.60
   5   1   4  270.97   15.20
   5   1   4  255.77   14.50
   5   1   4  251.27   14.50
   5   1   4  244.48   19.40
   5   1   4  259.27   14.50
   5   1   4  261.47   15.30
   5   1   4  247.38   15.80
  -6  -1  -4  261.77   23.40
  -6  -1  -4  239.88   17.30
  -6  -1  -4  202.78   27.70
  -6  -1  -4  255.97   15.90
   6   1   4  246.98   14.20
   6   1   4  262.07   14.70
   6   1   4  256.37   14.70
   6   1   4  233.18   16.40
   6   1   4  251.77   16.00
   6   1   4  251.27   15.50
   6   1   4  255.07   18.10
   6   1   4  231.58   22.00
  -7  -1  -4   97.39   13.10
  -7  -1  -4   76.69   19.40
  -7  -1  -4  112.09   20.80
   7   1   4   87.09    8.10
   7   1   4   99.49    9.90
   7   1   4   79.99   10.40
   7   1   4   60.79   12.10
   7   1   4   82.69    6.10
   7   1   4   86.69    7.60
  -8  -1  -4  285.77   32.90
  -8  -1  -4  254.57   22.10
   8   1   4  260.27   16.50
   8   1   4  214.38   28.50
   8   1   4  254.97   16.30
   8   1   4  277.97   19.50
   8   1   4  239.38   19.80
  -9  -1  -4  350.16   28.40
   9   1   4  315.07   25.00
   9   1   4  354.36   21.00
   9   1   4  348.07   24.90
   9   1   4  254.07   34.10
   8  -2  -4    6.30    9.50
   8  -2  -4    8.30   10.70
  -8   2   4   21.90   10.60
  -8   2   4   -5.00   16.20
  -8   2   4  -12.40   14.00
   7  -2  -4   17.60    9.40
   7  -2  -4   19.40    8.40
   7  -2  -4   16.70    7.20
   7  -2  -4   34.30    7.60
   7  -2  -4   12.60    6.00
  -7   2   4   19.90   15.60
  -7   2   4   -0.30   11.80
  -7   2   4   27.90   13.80
  -7   2   4   30.80   10.50
  -7   2   4   30.20    9.70
   6  -2  -4  676.73   39.30
   6  -2  -4  708.93   41.40
   6  -2  -4  696.03   40.10
   6  -2  -4  663.03   39.40
   6  -2  -4  700.23   42.30
  -6   2   4  581.04   43.80
  -6   2   4  776.22   41.20
  -6   2   4  745.33   45.00
  -6   2   4  610.44   45.20
   5  -2  -4 1506.65   81.49
   5  -2  -4 1493.35   82.69
   5  -2  -4 1620.04   81.59
  -5   2   4 1298.47   82.99
  -5   2   4 1449.95   84.19
  -5   2   4 1266.07   80.19
  -5   2   4 1661.03   81.59
  -5   2   4 1667.53   81.89
   4  -2  -4  303.57   18.40
   4  -2  -4  253.07   18.60
   4  -2  -4  268.37   17.50
   4  -2  -4  283.67   19.70
  -4   2   4  274.67   20.90
  -4   2   4  318.07   18.30
   3  -2  -4  182.48   12.00
   3  -2  -4  185.38   11.80
   3  -2  -4  164.68   10.80
  -3   2   4  134.99   13.10
  -3   2   4  148.19   11.00
  -3   2   4  153.48   10.80
  -3   2   4  142.99   13.70
  -3   2   4  146.69   13.30
   2  -2  -4  178.78   11.60
   2  -2  -4  173.98   11.00
   2  -2  -4  187.58   11.70
   2  -2  -4  198.08   11.80
  -2   2   4  172.38   11.00
  -2   2   4  138.79   13.60
  -2   2   4  185.18   11.10
  -2   2   4  160.98   12.60
  -2   2   4  166.88   12.60
   1  -2  -4    9.30    2.30
   1  -2  -4   14.40    2.80
   1  -2  -4   11.10    2.00
   1  -2  -4   10.70    2.40
   1  -2  -4   11.80    2.00
  -1   2   4   14.00    2.40
  -1   2   4   17.20    3.20
  -1   2   4    9.40    4.80
  -1   2   4    4.10    2.30
   0  -2  -4  991.40   51.39
   0  -2  -4  915.11   52.09
   0  -2  -4  984.80   50.69
   0  -2  -4 1002.10   51.39
   0  -2  -4  985.30   51.19
   0   2   4  938.41   52.69
   0   2   4  944.11   51.69
   0   2   4  921.21   51.09
   0   2   4  946.71   51.29
  -1  -2  -4 3649.33  192.38
  -1  -2  -4 3623.34  192.08
  -1  -2  -4 3838.92  192.58
  -1  -2  -4 3549.94  193.08
  -1  -2  -4 3977.90  192.28
   1   2   4 3456.95  192.08
   1   2   4 3464.65  193.18
   1   2   4 3584.44  192.38
  -2  -2  -4 6674.63  357.36
   2   2   4 6841.52  356.56
  -3  -2  -4  563.64   36.10
  -3  -2  -4  614.84   33.60
  -3  -2  -4  588.94   33.30
  -3  -2  -4  635.74   34.40
  -3  -2  -4  620.84   33.20
  -3  -2  -4  651.53   33.20
   3   2   4  590.74   33.80
   3   2   4  619.44   33.20
   3   2   4  589.64   33.30
   3   2   4  623.24   34.30
   3   2   4  613.94   33.30
   3   2   4  623.04   33.30
   3   2   4  660.73   33.50
  -4  -2  -4  657.03   37.90
  -4  -2  -4  588.44   40.10
  -4  -2  -4  695.33   36.10
  -4  -2  -4  625.94   36.40
  -4  -2  -4  677.63   35.50
  -4  -2  -4  677.93   36.60
   4   2   4  684.23   36.30
   4   2   4  689.03   38.00
   4   2   4  683.33   36.10
   4   2   4  636.94   36.40
   4   2   4  702.43   36.50
   4   2   4  695.83   36.20
   4   2   4  660.93   36.40
  -5  -2  -4  374.16   21.40
  -5  -2  -4  375.26   21.60
  -5  -2  -4  362.56   23.90
  -5  -2  -4  370.86   21.00
  -5  -2  -4  290.47   27.30
  -5  -2  -4  356.76   20.70
   5   2   4  379.66   20.60
   5   2   4  382.26   21.00
   5   2   4  355.06   20.70
   5   2   4  379.66   21.30
   5   2   4  373.36   24.40
   5   2   4  373.26   21.40
   5   2   4  372.06   20.60
  -6  -2  -4   25.90    5.10
  -6  -2  -4   18.00    4.10
  -6  -2  -4   23.60    5.10
  -6  -2  -4   30.50    7.70
  -6  -2  -4   14.40   12.30
   6   2   4   24.00    3.40
   6   2   4   21.00    3.60
   6   2   4   24.60    3.30
   6   2   4   26.10    4.10
   6   2   4   19.60    7.30
   6   2   4   20.60    4.80
   6   2   4   32.30    5.80
  -7  -2  -4  327.57   19.50
  -7  -2  -4  317.37   20.30
  -7  -2  -4  334.37   20.70
  -7  -2  -4  339.97   21.90
  -7  -2  -4  277.37   33.70
  -7  -2  -4  344.37   26.60
   7   2   4  310.37   18.90
   7   2   4  306.57   18.50
   7   2   4  315.97   21.00
   7   2   4  307.07   20.70
   7   2   4  288.67   17.80
   7   2   4  295.27   27.00
   7   2   4  328.37   19.30
   7   2   4  309.07   21.30
  -8  -2  -4  344.17   24.80
  -8  -2  -4  341.77   23.00
  -8  -2  -4  336.47   31.20
  -8  -2  -4  313.07   22.20
   8   2   4  327.87   23.00
   8   2   4  308.17   31.30
   8   2   4  333.37   22.90
   8   2   4  340.47   20.30
   8   2   4  322.77   19.80
   8   2   4  316.27   18.30
  -9  -2  -4  155.98   21.40
   9   2   4  169.48   18.00
   9   2   4  148.69   18.10
   9   2   4  163.58   14.00
   7  -3  -4  269.97   23.50
   7  -3  -4  281.47   20.80
   7  -3  -4  236.48   28.50
  -7   3   4  316.97   23.00
  -7   3   4  342.77   25.80
  -7   3   4  296.87   30.90
   6  -3  -4  843.32   46.10
   6  -3  -4  782.62   46.60
   6  -3  -4  693.63   44.50
   6  -3  -4  803.42   48.20
  -6   3   4  885.11   51.79
   5  -3  -4  174.78   16.50
   5  -3  -4   91.79   13.70
   5  -3  -4  149.69   15.60
   5  -3  -4  125.09   11.40
   5  -3  -4  125.79   12.50
  -5   3   4  148.29   13.30
  -5   3   4   92.59   13.70
  -5   3   4  142.69   13.00
  -5   3   4  128.79   18.90
  -5   3   4  178.98   14.30
   4  -3  -4   77.29    8.00
   4  -3  -4   74.49   10.40
   4  -3  -4   54.29    7.30
   4  -3  -4   98.39   13.00
  -4   3   4   64.39    9.50
  -4   3   4   65.39    9.60
  -4   3   4   74.59    8.80
  -4   3   4   85.09    9.30
  -4   3   4   70.79   14.00
  -4   3   4   90.99    9.70
   3  -3  -4   -1.70    3.30
   3  -3  -4    0.80    3.40
   3  -3  -4    2.20    2.80
   3  -3  -4   -4.30    3.50
  -3   3   4    0.90    5.30
  -3   3   4   -0.10    3.20
  -3   3   4    1.30    3.10
  -3   3   4   -5.30    5.40
  -3   3   4    4.10    5.00
   2  -3  -4  326.17   19.30
   2  -3  -4  341.07   18.10
   2  -3  -4  352.46   19.90
   2  -3  -4  331.97   19.00
  -2   3   4  341.37   20.50
  -2   3   4  335.77   19.30
  -2   3   4  322.17   21.40
  -2   3   4  344.77   19.40
  -2   3   4  327.37   21.60
   1  -3  -4  128.39    8.70
   1  -3  -4  109.19    8.40
   1  -3  -4  124.39    8.90
   1  -3  -4  123.79    7.80
  -1   3   4  113.99   11.20
  -1   3   4  140.89    9.40
  -1   3   4  127.99   10.30
  -1   3   4  130.19    8.50
  -1   3   4  128.29    8.30
   0  -3  -4 2686.33  138.19
   0  -3  -4 2558.54  137.59
   0  -3  -4 2714.93  137.79
   0  -3  -4 2576.64  137.19
   0  -3  -4 2634.54  137.89
   0   3   4 2642.04  137.09
   0   3   4 2585.54  137.99
   0   3   4 2529.65  138.89
   0   3   4 2675.63  137.69
   0   3   4 2414.86  137.49
  -1  -3  -4 3712.03  202.58
  -1  -3  -4 3747.62  202.58
  -1  -3  -4 3905.61  203.18
  -1  -3  -4 3850.81  203.18
  -1  -3  -4 3943.11  202.38
   1   3   4 3755.62  202.48
   1   3   4 3860.21  202.28
   1   3   4 3812.02  202.68
   1   3   4 3939.41  203.58
  -2  -3  -4  930.41   48.80
  -2  -3  -4  882.91   49.60
  -2  -3  -4  888.41   48.50
  -2  -3  -4  909.31   48.30
  -2  -3  -4  947.01   49.30
   2   3   4  905.51   48.20
   2   3   4  844.52   47.90
   2   3   4  888.21   48.30
   2   3   4  891.61   48.70
   2   3   4  934.01   48.50
   2   3   4  948.51   48.60
   2   3   4  878.81   49.30
  -3  -3  -4   78.19    9.50
  -3  -3  -4   90.79    6.30
  -3  -3  -4   91.09    7.20
  -3  -3  -4   86.39    6.40
  -3  -3  -4   95.99    8.20
   3   3   4   89.09    6.10
   3   3   4   93.49    7.60
   3   3   4   92.39    6.90
   3   3   4   87.29    6.60
   3   3   4   92.19    8.20
   3   3   4   89.59    6.40
   3   3   4   89.79    6.60
  -4  -3  -4  126.59    9.50
  -4  -3  -4  130.59    8.60
  -4  -3  -4  125.69    8.80
  -4  -3  -4  107.59   12.10
  -4  -3  -4  142.79   11.20
   4   3   4  132.79    8.50
   4   3   4  106.89   11.20
   4   3   4  130.79    9.10
   4   3   4  132.59    9.10
   4   3   4  135.09    8.60
   4   3   4  134.49    9.30
   4   3   4  130.19   11.10
  -5  -3  -4   87.99    8.30
  -5  -3  -4   94.89   10.70
  -5  -3  -4   83.49    8.70
  -5  -3  -4   93.89    7.40
  -5  -3  -4   66.99   12.20
  -5  -3  -4   90.49    8.20
   5   3   4   93.39    8.20
   5   3   4   92.99    7.50
   5   3   4   82.29    8.50
   5   3   4   88.59    7.30
   5   3   4   97.19    7.30
   5   3   4   88.89    7.30
   5   3   4  106.59   12.20
  -6  -3  -4   55.39   13.90
  -6  -3  -4   64.89    9.00
  -6  -3  -4   62.79   12.00
  -6  -3  -4   59.49    9.30
  -6  -3  -4   55.49    7.20
  -6  -3  -4   66.69    8.70
   6   3   4   56.39    6.50
   6   3   4   61.79    7.20
   6   3   4   60.39    6.10
   6   3   4   55.59    9.40
   6   3   4   67.39    8.70
   6   3   4   54.69    6.70
   6   3   4   62.09    6.70
  -7  -3  -4  383.06   24.10
  -7  -3  -4  373.36   23.80
  -7  -3  -4  344.67   35.60
  -7  -3  -4  387.26   24.40
  -7  -3  -4  362.96   27.20
  -7  -3  -4  365.46   22.40
   7   3   4  376.06   29.60
   7   3   4  357.76   23.50
   7   3   4  382.16   22.30
   7   3   4  370.46   23.70
   7   3   4  391.56   22.00
   7   3   4  373.16   21.20
   7   3   4  372.86   21.70
  -8  -3  -4  578.44   34.10
  -8  -3  -4  529.75   33.50
  -8  -3  -4  554.44   34.20
  -8  -3  -4  544.35   31.60
   8   3   4  510.95   29.50
   8   3   4  526.25   32.90
   8   3   4  528.85   30.50
   8   3   4  542.15   31.10
   8   3   4  491.75   39.90
   8   3   4  574.84   31.10
   8   3   4  517.75   32.70
  -9  -3  -4   17.70   10.70
  -9  -3  -4   30.20   12.10
  -9  -3  -4   60.49   22.80
  -9  -3  -4   39.10    8.60
  -9  -3  -4   21.10    9.70
   9   3   4   17.30   14.80
   9   3   4   27.70    8.90
   9   3   4   36.00    7.60
   9   3   4   33.90    4.60
   9   3   4   40.60   10.10
   7  -4  -4  128.59   15.20
   7  -4  -4  170.48   21.60
  -7   4   4  198.38   28.90
   6  -4  -4  212.18   19.00
   6  -4  -4  220.18   20.80
   6  -4  -4  192.78   15.50
  -6   4   4  266.67   26.70
  -6   4   4  154.08   21.50
   5  -4  -4   16.50    4.70
   5  -4  -4    1.20    6.10
   5  -4  -4    6.50    6.50
  -5   4   4   34.70    7.10
  -5   4   4   27.20    7.80
  -5   4   4    7.00    9.30
  -5   4   4   21.90    9.40
  -5   4   4   35.60   11.80
   4  -4  -4   28.00    6.20
   4  -4  -4   10.20    5.00
   4  -4  -4    4.60    5.00
   4  -4  -4    8.00    3.70
  -4   4   4    9.10    7.10
  -4   4   4   10.10    7.60
  -4   4   4    6.20    8.20
  -4   4   4   12.30    5.00
  -4   4   4    6.10    7.40
  -4   4   4   13.30    5.20
   3  -4  -4  398.26   22.40
   3  -4  -4  443.96   23.60
   3  -4  -4  407.26   23.50
   3  -4  -4  391.96   22.60
  -3   4   4  404.86   22.70
  -3   4   4  385.66   24.50
  -3   4   4  355.46   26.10
  -3   4   4  332.77   24.80
  -3   4   4  362.66   22.30
   2  -4  -4  137.19    9.80
   2  -4  -4  150.18   10.20
   2  -4  -4  140.69   10.50
   2  -4  -4  144.99   10.20
   2  -4  -4  164.88   11.20
  -2   4   4  147.69   10.10
  -2   4   4  160.38   11.90
  -2   4   4  157.48   10.20
  -2   4   4  136.29   13.60
  -2   4   4  118.69   13.40
   1  -4  -4  832.12   44.80
   1  -4  -4  840.42   45.60
   1  -4  -4  893.41   45.30
   1  -4  -4  892.01   45.60
   1  -4  -4  839.62   45.40
  -1   4   4  799.52   47.10
  -1   4   4  831.42   45.20
  -1   4   4  803.62   45.10
  -1   4   4  834.92   45.80
  -1   4   4  789.72   47.00
   0  -4  -4 3525.15  185.08
   0  -4  -4 3675.53  185.28
   0  -4  -4 3457.35  185.38
   0  -4  -4 3525.05  185.58
   0  -4  -4 3534.75  184.68
   0   4   4 3212.58  184.98
   0   4   4 3455.05  185.08
   0   4   4 3511.25  186.58
   0   4   4 3530.55  184.58
   0   4   4 3605.74  185.58
  -1  -4  -4 1365.76   71.19
  -1  -4  -4 1376.56   72.19
  -1  -4  -4 1342.37   71.59
  -1  -4  -4 1346.47   71.59
  -1  -4  -4 1320.37   70.79
   1   4   4 1339.87   71.69
   1   4   4 1386.46   72.79
   1   4   4 1367.56   71.49
   1   4   4 1201.98   71.29
   1   4   4 1325.57   70.69
   1   4   4 1346.97   71.19
  -2  -4  -4  197.48   12.20
  -2  -4  -4  208.18   11.90
  -2  -4  -4  190.08   13.70
  -2  -4  -4  198.48   13.00
  -2  -4  -4  197.08   11.40
   2   4   4  196.98   12.10
   2   4   4  206.18   13.50
   2   4   4  179.18   11.90
   2   4   4  193.18   10.90
   2   4   4  199.68   11.60
   2   4   4  192.38   11.80
   2   4   4  186.78   11.00
  -3  -4  -4  251.47   15.70
  -3  -4  -4  265.87   17.60
  -3  -4  -4  270.87   16.70
  -3  -4  -4  262.97   14.90
  -3  -4  -4  266.77   15.20
   3   4   4  262.07   16.90
   3   4   4  262.47   15.20
   3   4   4  219.68   17.80
   3   4   4  271.47   16.30
   3   4   4  269.07   14.50
   3   4   4  254.97   15.10
   3   4   4  261.17   14.70
   3   4   4  261.77   15.50
  -4  -4  -4  121.39    9.80
  -4  -4  -4  122.39    9.30
  -4  -4  -4  121.29    9.40
  -4  -4  -4  128.39   12.60
  -4  -4  -4  123.09    8.40
  -4  -4  -4  126.59   10.80
   4   4   4  127.29    9.00
   4   4   4  130.99    8.50
   4   4   4  127.29    9.50
   4   4   4  124.29   11.50
   4   4   4  131.49    9.00
   4   4   4  122.19    8.60
   4   4   4  119.79   10.20
  -5  -4  -4   48.70    9.30
  -5  -4  -4   39.30    5.60
  -5  -4  -4   32.70    7.90
  -5  -4  -4   25.60    5.10
  -5  -4  -4   40.50    5.40
  -5  -4  -4   44.40    6.40
   5   4   4   31.20    4.10
   5   4   4   23.80    5.60
   5   4   4   32.90    4.90
   5   4   4   33.40    5.10
   5   4   4   38.30    5.50
   5   4   4   27.10    5.00
   5   4   4   29.90    6.10
  -6  -4  -4  402.06   24.30
  -6  -4  -4  339.47   25.60
  -6  -4  -4  327.37   29.80
  -6  -4  -4  345.77   22.00
  -6  -4  -4  355.96   22.60
  -6  -4  -4  368.86   20.90
  -6  -4  -4  358.06   21.60
   6   4   4  346.37   20.50
   6   4   4  358.06   20.90
   6   4   4  341.57   20.60
   6   4   4  325.57   21.90
   6   4   4  357.96   25.70
   6   4   4  355.46   21.50
   6   4   4  343.47   20.60
  -7  -4  -4  561.14   32.70
  -7  -4  -4  526.15   30.50
  -7  -4  -4  531.25   31.90
  -7  -4  -4  509.95   41.70
   7   4   4  529.15   29.80
   7   4   4  554.14   32.10
   7   4   4  545.55   30.30
   7   4   4  549.74   30.50
   7   4   4  516.35   30.10
   7   4   4  518.65   31.50
   7   4   4  514.15   36.70
  -8  -4  -4  164.38   18.30
  -8  -4  -4  153.28   16.80
  -8  -4  -4  164.68   18.20
  -8  -4  -4  241.78   34.70
  -8  -4  -4  144.99   13.90
   8   4   4  152.78   16.00
   8   4   4  154.78   15.30
   8   4   4  152.78   13.60
   8   4   4  138.89   11.10
   8   4   4  128.29   24.20
  -9  -4  -4    7.30   12.60
  -9  -4  -4   -6.00   11.40
  -9  -4  -4   -0.80    7.70
  -9  -4  -4    2.90   13.90
  -9  -4  -4   -7.80   22.70
   9   4   4    5.10    7.70
   9   4   4    2.20    8.40
   9   4   4  -19.20   13.30
   9   4   4    3.60    8.70
   9   4   4    7.60    7.50
   6  -5  -4   74.39   11.10
   6  -5  -4   70.89   11.60
  -6   5   4   27.60   14.00
  -6   5   4   51.09   15.90
  -6   5   4   68.69   11.60
  -6   5   4   72.09   10.10
   5  -5  -4   10.30    7.60
   5  -5  -4   39.10    8.30
   5  -5  -4   31.00    5.70
  -5   5   4   17.80   10.80
  -5   5   4   36.20    8.70
  -5   5   4   52.59    7.50
  -5   5   4   28.90   11.60
  -5   5   4   44.10    8.00
  -5   5   4   60.59   10.60
   4  -5  -4  208.78   15.80
   4  -5  -4  221.58   14.70
   4  -5  -4  218.68   16.40
  -4   5   4  214.58   22.40
  -4   5   4  192.78   20.00
  -4   5   4  213.58   18.20
  -4   5   4  208.08   15.20
  -4   5   4  234.38   19.40
   3  -5  -4   95.59   10.60
   3  -5  -4  101.79    8.60
   3  -5  -4   78.29    8.60
   3  -5  -4   85.19    9.40
   3  -5  -4   97.69    6.30
   3  -5  -4   96.09    8.80
  -3   5   4   97.59    9.00
  -3   5   4   82.79   12.00
  -3   5   4   82.19   15.10
  -3   5   4   96.69   13.10
  -3   5   4   75.29    9.50
  -3   5   4   93.59    8.80
   2  -5  -4  290.57   18.10
   2  -5  -4  310.17   19.00
   2  -5  -4  340.27   19.30
   2  -5  -4  335.27   18.60
   2  -5  -4  318.17   18.70
  -2   5   4  318.27   20.00
  -2   5   4  299.87   22.50
  -2   5   4  312.67   18.40
  -2   5   4  318.87   18.50
  -2   5   4  264.07   20.00
   1  -5  -4 1160.78   59.39
   1  -5  -4 1128.99   59.39
   1  -5  -4 1133.09   58.99
  -1   5   4 1121.19   59.59
  -1   5   4 1042.40   61.19
  -1   5   4 1125.19   58.79
  -1   5   4 1051.79   61.39
  -1   5   4  928.71   58.99
  -1   5   4 1146.79   58.89
   0  -5  -4 1511.45   79.39
   0  -5  -4 1518.75   78.99
   0  -5  -4 1533.85   79.79
   0  -5  -4 1553.14   79.59
   0  -5  -4 1471.95   79.99
   0   5   4 1437.86   79.59
   0   5   4 1545.75   79.49
   0   5   4 1490.85   78.89
   0   5   4 1558.04   80.09
   0   5   4 1286.57   79.19
   0   5   4 1460.15   81.39
  -1  -5  -4  278.67   17.60
  -1  -5  -4  292.37   16.50
  -1  -5  -4  276.77   16.60
  -1  -5  -4  291.27   15.60
  -1  -5  -4  277.17   15.80
   1   5   4  280.67   16.80
   1   5   4  262.97   16.00
   1   5   4  285.17   18.60
   1   5   4  268.97   15.00
   1   5   4  277.07   15.40
   1   5   4  269.27   16.20
   1   5   4  260.47   16.50
  -2  -5  -4  507.65   28.30
  -2  -5  -4  515.85   29.40
  -2  -5  -4  497.55   27.50
  -2  -5  -4  499.45   29.40
  -2  -5  -4  529.15   28.20
   2   5   4  495.75   27.20
   2   5   4  487.25   28.30
   2   5   4  485.05   27.70
   2   5   4  505.25   28.10
   2   5   4  502.45   29.60
   2   5   4  519.65   28.10
   2   5   4  508.45   27.10
  -3  -5  -4   98.79    9.70
  -3  -5  -4   97.79    8.60
  -3  -5  -4   95.29    7.50
  -3  -5  -4   95.49    6.80
  -3  -5  -4   88.99   10.90
   3   5   4  106.89    8.20
   3   5   4   87.89    8.00
   3   5   4   97.49    6.70
   3   5   4   90.79    7.30
   3   5   4   96.19    9.30
   3   5   4   99.79    6.60
   3   5   4  100.49    7.50
  -4  -5  -4   -2.60    4.00
  -4  -5  -4    3.40    2.80
  -4  -5  -4    4.00    3.80
  -4  -5  -4    0.80    5.80
  -4  -5  -4    1.80    4.00
   4   5   4    0.40    2.80
   4   5   4   -0.40    3.50
   4   5   4    1.20    3.30
   4   5   4    2.90    3.20
   4   5   4    1.80    2.50
   4   5   4    2.70    4.40
   4   5   4   -1.10    3.50
  -5  -5  -4   60.99    8.90
  -5  -5  -4   65.79    9.80
  -5  -5  -4   65.89    6.90
  -5  -5  -4   43.60    6.70
  -5  -5  -4   59.19   10.00
  -5  -5  -4   59.99    6.90
   5   5   4   68.79   12.00
   5   5   4   62.79    7.30
   5   5   4   72.59    7.90
   5   5   4   58.79    7.10
   5   5   4   65.19    7.10
   5   5   4   64.99    7.80
  -6  -5  -4  537.95   31.10
  -6  -5  -4  518.25   30.00
  -6  -5  -4  520.15   31.40
  -6  -5  -4  481.15   34.30
  -6  -5  -4  533.05   32.20
  -6  -5  -4  541.65   29.80
   6   5   4  528.25   30.20
   6   5   4  510.85   29.70
   6   5   4  534.05   34.20
   6   5   4  520.05   31.00
   6   5   4  511.65   29.70
   6   5   4  503.85   29.60
   6   5   4  550.54   29.70
  -7  -5  -4  276.07   21.00
  -7  -5  -4  272.37   19.20
  -7  -5  -4  288.17   21.30
  -7  -5  -4  243.28   25.70
  -7  -5  -4  283.17   18.40
   7   5   4  283.77   17.50
   7   5   4  276.37   17.70
   7   5   4  287.07   20.40
   7   5   4  288.27   24.90
   7   5   4  287.97   18.10
   7   5   4  295.37   19.60
  -8  -5  -4   37.30   18.60
  -8  -5  -4   16.60    6.90
  -8  -5  -4   14.80    9.40
  -8  -5  -4   15.90    6.40
  -8  -5  -4   21.90   10.30
   8   5   4   14.00    7.30
   8   5   4   16.80    5.10
   8   5   4   17.80    6.50
   8   5   4    9.00   10.00
   8   5   4   22.20    7.80
   5  -6  -4   23.30    9.70
   5  -6  -4   47.30    6.70
  -5   6   4   67.79    9.60
  -5   6   4   78.49   13.60
  -5   6   4   42.60   15.20
  -5   6   4   31.40   12.10
   4  -6  -4   26.90    5.40
   4  -6  -4   37.40    8.60
   4  -6  -4   18.50    6.60
   4  -6  -4    7.70    5.50
  -4   6   4   24.50    6.20
  -4   6   4   27.50    7.40
  -4   6   4   43.00    6.70
  -4   6   4   21.30   10.70
  -4   6   4   25.20    9.10
  -4   6   4   24.10   10.60
   3  -6  -4   11.90    4.50
   3  -6  -4   12.10    3.50
   3  -6  -4    9.50    4.70
   3  -6  -4    1.80    4.60
   3  -6  -4   18.50    5.90
   3  -6  -4    8.10    4.60
  -3   6   4    9.00    9.40
  -3   6   4   16.30    6.70
  -3   6   4   22.50    6.80
  -3   6   4   20.30   10.00
  -3   6   4    8.80    4.60
   2  -6  -4  262.67   16.30
   2  -6  -4  232.58   16.00
   2  -6  -4  238.08   15.50
   2  -6  -4  256.07   16.10
   2  -6  -4  256.47   15.80
  -2   6   4  239.28   15.40
  -2   6   4  254.67   16.70
  -2   6   4  244.28   15.40
  -2   6   4  233.78   21.20
  -2   6   4  213.68   21.70
  -2   6   4  244.88   17.50
   1  -6  -4  733.83   39.60
   1  -6  -4  736.73   39.90
   1  -6  -4  726.83   39.90
   1  -6  -4  712.53   39.10
   1  -6  -4  708.43   39.40
  -1   6   4  659.33   42.70
  -1   6   4  739.93   39.10
  -1   6   4  678.63   42.80
  -1   6   4  698.03   39.30
  -1   6   4  736.83   40.40
  -1   6   4  729.23   39.70
  -1   6   4  714.13   39.20
   0  -6  -4  213.78   13.40
   0  -6  -4  233.88   14.20
   0  -6  -4  209.88   14.40
   0  -6  -4  235.78   15.40
   0   6   4  214.78   14.00
   0   6   4  218.28   14.10
   0   6   4  224.58   13.10
   0   6   4  213.78   17.90
   0   6   4  225.98   18.50
   0   6   4  235.68   12.70
   0   6   4  227.88   13.00
   0   6   4  216.38   15.10
  -1  -6  -4  140.79    9.30
  -1  -6  -4  134.89   10.50
  -1  -6  -4  142.39   11.90
  -1  -6  -4  148.89   10.10
   1   6   4  138.19   13.80
   1   6   4  142.29   10.90
   1   6   4  126.79    9.80
   1   6   4  140.29   10.10
   1   6   4  136.89   10.00
   1   6   4  138.79    8.90
   1   6   4  147.09    8.60
  -2  -6  -4  135.49   10.80
  -2  -6  -4  150.18   10.40
  -2  -6  -4  145.49    9.20
  -2  -6  -4  154.58   12.70
  -2  -6  -4  140.09   12.20
   2   6   4  145.99    9.10
   2   6   4  146.69    9.80
   2   6   4  149.49   13.40
   2   6   4  133.09   10.40
   2   6   4  148.29   10.80
   2   6   4  138.99    9.90
  -3  -6  -4    6.40    6.30
  -3  -6  -4    7.10    3.30
  -3  -6  -4    2.00    3.80
  -3  -6  -4    4.20    4.00
   3   6   4    6.20    3.40
   3   6   4    3.40    4.50
   3   6   4    4.20    3.40
   3   6   4    7.10    2.70
   3   6   4    3.60    2.50
   3   6   4    5.80    3.20
   3   6   4    7.60    3.20
  -4  -6  -4   17.70    7.70
  -4  -6  -4   16.90    3.80
  -4  -6  -4   15.10    4.80
  -4  -6  -4    4.80    4.40
   4   6   4   12.70    3.80
   4   6   4   10.20    4.60
   4   6   4   12.20    3.90
   4   6   4   18.10    3.60
   4   6   4   15.50    4.10
   4   6   4   14.70    3.90
  -5  -6  -4  168.48   13.40
  -5  -6  -4  154.58   14.20
  -5  -6  -4  152.48   11.50
  -5  -6  -4  187.48   18.00
  -5  -6  -4  153.18   10.90
  -5  -6  -4  170.58   14.50
   5   6   4  166.18   12.10
   5   6   4  173.48   16.80
   5   6   4  158.08   12.50
   5   6   4  153.58   11.40
   5   6   4  155.48   12.30
   5   6   4  170.58   11.90
   5   6   4  168.08   13.30
  -6  -6  -4  618.84   36.70
  -6  -6  -4  604.44   32.90
  -6  -6  -4  612.84   34.60
  -6  -6  -4  593.94   39.80
  -6  -6  -4  632.74   36.30
  -6  -6  -4  604.14   34.70
   6   6   4  614.44   35.10
   6   6   4  607.34   35.00
   6   6   4  617.44   39.40
   6   6   4  620.74   36.10
   6   6   4  645.34   34.90
  -7  -6  -4   36.80    9.30
  -7  -6  -4   29.00   13.30
  -7  -6  -4   41.40    6.10
  -7  -6  -4   33.80    6.30
  -7  -6  -4   30.20    8.50
   7   6   4   36.40    7.40
   7   6   4   35.40   10.80
   7   6   4   30.60    7.40
   7   6   4   34.60    6.20
   7   6   4   31.80    6.00
  -8  -6  -4   21.10   10.30
  -8  -6  -4   34.50   14.90
  -8  -6  -4   26.70   11.50
  -8  -6  -4   22.00    7.30
   8   6   4   22.90    6.30
   8   6   4   37.30    8.80
   8   6   4   26.80    7.40
   8   6   4   20.60    9.10
   8   6   4   22.60   11.60
   4  -7  -4   86.29   10.60
   4  -7  -4   66.89   10.90
   4  -7  -4  100.09   12.50
   4  -7  -4   92.59   11.40
  -4   7   4   88.79   16.30
  -4   7   4  114.59   18.20
  -4   7   4   78.69   12.20
  -4   7   4   93.19    9.80
   3  -7  -4   46.40    7.90
   3  -7  -4   57.79    8.20
   3  -7  -4   42.60    7.60
   3  -7  -4   60.69    9.50
   3  -7  -4   73.29    9.30
   3  -7  -4   58.69    9.50
  -3   7   4   57.79   13.90
  -3   7   4   57.39    8.50
  -3   7   4   62.49    7.30
  -3   7   4   66.19   14.20
  -3   7   4   59.89    8.80
   2  -7  -4  207.88   14.90
   2  -7  -4  193.78   14.50
   2  -7  -4  205.08   14.30
   2  -7  -4  195.78   14.60
   2  -7  -4  193.18   14.20
  -2   7   4  188.68   22.30
  -2   7   4  200.48   14.20
  -2   7   4  212.18   13.60
  -2   7   4  184.48   21.70
  -2   7   4  201.08   16.80
   1  -7  -4  150.38   11.70
   1  -7  -4  136.69   10.80
   1  -7  -4  141.09   12.30
   1  -7  -4  147.49   10.60
   1  -7  -4  148.89   11.30
  -1   7   4  147.19   13.80
  -1   7   4  126.29   18.80
  -1   7   4  146.19   10.40
  -1   7   4  138.29   10.90
  -1   7   4  136.39   10.90
  -1   7   4  133.89   17.40
   0  -7  -4   22.20    4.20
   0  -7  -4   24.90    5.00
   0  -7  -4   13.90    5.20
   0  -7  -4   18.80    3.90
   0  -7  -4   19.80    4.00
   0   7   4   20.70    3.60
   0   7   4   24.10    5.70
   0   7   4   19.50    7.70
   0   7   4    9.10    8.40
   0   7   4   23.30    4.10
   0   7   4   30.20    3.80
   0   7   4   20.30    4.40
  -1  -7  -4   31.60    4.30
  -1  -7  -4   26.20    4.30
  -1  -7  -4   18.90    5.70
  -1  -7  -4   17.60    4.60
  -1  -7  -4   26.80    4.00
   1   7   4   24.20    5.40
   1   7   4   28.50    3.50
   1   7   4   21.60    4.30
   1   7   4   28.80    4.20
   1   7   4   35.10    8.70
   1   7   4   29.30    3.80
   1   7   4   23.80    4.70
  -2  -7  -4    4.50    5.60
  -2  -7  -4    5.50    2.90
  -2  -7  -4    0.30    4.90
  -2  -7  -4    5.80    3.20
  -2  -7  -4    1.80    4.00
   2   7   4   -0.70    6.20
   2   7   4   11.10    3.50
   2   7   4    7.00    3.20
   2   7   4    4.20    3.70
   2   7   4    2.30    3.50
   2   7   4    5.60    4.20
   2   7   4   -2.10    3.10
  -3  -7  -4   52.19    9.00
  -3  -7  -4   38.80    5.30
  -3  -7  -4   31.20    6.70
  -3  -7  -4   38.10    6.10
   3   7   4   44.50    5.30
   3   7   4   47.90    4.70
   3   7   4   47.40    6.60
   3   7   4   35.80    6.80
   3   7   4   52.29    8.30
   3   7   4   30.40    5.10
  -4  -7  -4   24.20    6.20
  -4  -7  -4   25.60    7.90
  -4  -7  -4   33.60    5.10
   4   7   4   35.90    4.50
   4   7   4   25.50    5.60
   4   7   4   25.40    4.80
   4   7   4   35.00    6.90
   4   7   4   22.90    4.30
   4   7   4   28.50    4.90
  -5  -7  -4  298.97   24.00
  -5  -7  -4  275.87   16.80
  -5  -7  -4  287.17   20.20
  -5  -7  -4  297.97   19.60
   5   7   4  283.67   18.10
   5   7   4  287.07   17.70
   5   7   4  263.87   19.30
   5   7   4  289.97   19.20
   5   7   4  307.47   18.30
  -6  -7  -4   64.69    8.20
  -6  -7  -4   63.89    9.10
  -6  -7  -4   75.39    9.80
  -6  -7  -4   78.09   14.10
  -6  -7  -4   60.29    6.30
   6   7   4   87.19   16.90
   6   7   4   75.49    9.00
   6   7   4   69.49    9.80
   6   7   4   78.69    8.20
   6   7   4   55.19    8.10
   6   7   4   75.99    7.60
   6   7   4   59.29    9.70
  -7  -7  -4   -1.70    8.70
  -7  -7  -4    4.30    5.50
  -7  -7  -4    4.50    4.90
  -7  -7  -4   -1.20    7.90
  -7  -7  -4    2.90   13.20
   7   7   4   -6.60    5.40
   7   7   4    6.60    9.30
   7   7   4    0.60    6.20
   7   7   4   -3.60    6.40
   7   7   4   10.00    6.80
  -8  -7  -4   43.50   11.60
  -8  -7  -4   50.49   13.20
  -8  -7  -4   39.70    8.00
  -8  -7  -4   47.20   17.50
   8   7   4   56.79   10.00
   8   7   4   44.10    9.90
   8   7   4   42.50   13.10
   8   7   4   38.20    8.20
   8   7   4   54.69    9.70
   3  -8  -4   51.59    7.30
   3  -8  -4   50.19    7.60
   3  -8  -4   54.19   10.70
   3  -8  -4   50.99    7.30
  -3   8   4   44.30   13.40
  -3   8   4   41.90    7.80
  -3   8   4   42.50    8.10
  -3   8   4   31.10    7.90
  -3   8   4   75.79   10.10
  -3   8   4   17.30   18.30
  -3   8   4   49.60    7.80
   2  -8  -4  119.39   13.00
   2  -8  -4  133.19   12.30
   2  -8  -4  137.69   13.30
   2  -8  -4  124.69   13.10
  -2   8   4  130.69   22.20
  -2   8   4  121.19   12.00
  -2   8   4  135.99   10.50
  -2   8   4  123.19   11.10
  -2   8   4  113.69   16.20
  -2   8   4  126.69   12.10
   1  -8  -4    4.40    4.30
   1  -8  -4   -7.70    4.70
   1  -8  -4    2.10    6.00
   1  -8  -4   -3.80    4.80
  -1   8   4   -0.30    7.50
  -1   8   4   -1.20    4.20
  -1   8   4    0.00    4.40
  -1   8   4   -6.70    9.50
  -1   8   4    1.30    4.40
   0  -8  -4   91.39    9.70
   0  -8  -4   98.79   10.60
   0  -8  -4   95.69    9.60
   0  -8  -4  101.29   12.00
   0  -8  -4   94.19    8.90
   0   8   4   99.09    8.50
   0   8   4   96.49    8.50
   0   8   4  103.49   18.30
   0   8   4   93.49    9.50
   0   8   4   90.99   14.00
  -1  -8  -4   13.80    7.00
  -1  -8  -4   22.90    4.80
  -1  -8  -4    7.20    3.60
  -1  -8  -4   13.60    5.00
  -1  -8  -4   10.70    3.90
   1   8   4   11.90    3.60
   1   8   4   16.90    4.00
   1   8   4   18.70    4.20
   1   8   4   15.70    6.50
   1   8   4   16.20    8.90
   1   8   4   18.40    4.70
  -2  -8  -4  144.09   12.60
  -2  -8  -4  141.19   10.00
  -2  -8  -4  151.28   11.20
  -2  -8  -4  166.98   15.40
   2   8   4  129.09   11.40
   2   8   4  150.18   10.50
   2   8   4  137.79   11.80
   2   8   4  152.48   13.90
   2   8   4  127.59   10.10
   2   8   4  159.28   11.20
  -3  -8  -4   21.80    4.20
  -3  -8  -4   26.50    9.10
  -3  -8  -4   11.90    5.70
   3   8   4   20.60    4.30
   3   8   4   20.30    5.00
   3   8   4   23.00    4.30
   3   8   4   18.10    5.40
   3   8   4   23.00    6.00
  -4  -8  -4  196.78   16.70
  -4  -8  -4  213.98   20.10
   4   8   4  209.18   14.50
   4   8   4  204.18   15.70
   4   8   4  195.68   16.50
   4   8   4  218.58   13.80
   4   8   4  209.48   14.60
  -5  -8  -4  126.49   14.30
  -5  -8  -4  106.99    9.90
  -5  -8  -4  135.09   19.10
   5   8   4  120.49   13.10
   5   8   4  131.09   11.50
   5   8   4  105.09   12.60
   5   8   4  125.19   11.40
   5   8   4  129.79   12.20
   5   8   4  135.29   10.80
  -6  -8  -4   -0.20   11.40
  -6  -8  -4   -2.10    7.70
  -6  -8  -4   -0.70    7.20
  -6  -8  -4   -0.30    3.80
   6   8   4    3.30    5.50
   6   8   4    6.30    5.30
   6   8   4   -3.90    5.90
   6   8   4    4.30    6.30
  -7  -8  -4    4.80    9.10
  -7  -8  -4   18.60    3.60
  -7  -8  -4   16.90    5.60
  -7  -8  -4   21.40   10.70
  -7  -8  -4   28.20   16.50
   7   8   4   18.50    7.50
   7   8   4   17.20    8.10
   7   8   4   20.00    7.30
   7   8   4   25.20    8.00
   2  -9  -4    6.10    6.20
   2  -9  -4    0.40    6.70
   2  -9  -4    1.20    9.00
  -2   9   4   -1.90    9.40
  -2   9   4   -1.40    7.10
  -2   9   4    5.50   12.30
   1  -9  -4   -0.20    5.70
   1  -9  -4    0.40    6.80
   1  -9  -4    0.40    6.80
  -1   9   4    4.60    5.30
  -1   9   4    6.00    5.10
  -1   9   4   12.00   10.30
  -1   9   4    2.20   15.50
   0  -9  -4   -0.60    5.40
   0  -9  -4   -5.40    5.20
   0  -9  -4   -1.00    7.10
   0  -9  -4    4.60    6.30
   0   9   4    9.50    9.40
   0   9   4    0.80    5.00
   0   9   4   -0.70    4.90
   0   9   4    7.90    4.40
   0   9   4    2.00   10.90
  -1  -9  -4   41.30    6.00
  -1  -9  -4   34.30    6.90
  -1  -9  -4   53.09    9.60
   1   9   4   50.79    5.80
   1   9   4   48.50    6.20
   1   9   4   44.50   12.40
   1   9   4   42.40    6.30
   1   9   4   43.90    9.90
  -2  -9  -4   50.29    9.30
  -2  -9  -4   49.80    7.50
  -2  -9  -4   61.69    6.40
   2   9   4   48.50    6.80
   2   9   4   48.70   11.80
   2   9   4   65.29    8.30
   2   9   4   59.49    7.70
   2   9   4   45.40    5.80
   2   9   4   50.99    9.40
  -3  -9  -4   19.60    4.90
  -3  -9  -4    9.20    6.30
  -3  -9  -4   24.80    9.40
   3   9   4   18.60    5.70
   3   9   4    9.10    6.70
   3   9   4   15.30    5.80
   3   9   4   22.20    4.90
  -4  -9  -4   75.99   10.70
  -4  -9  -4   69.39   11.60
  -4  -9  -4   81.79   13.50
   4   9   4   81.29   12.10
   4   9   4   94.39    9.70
   4   9   4   86.89   14.20
   4   9   4   97.89   10.90
  -5  -9  -4   28.80   22.70
  -5  -9  -4   27.10    6.10
  -5  -9  -4   16.20    8.30
   5   9   4   21.20   11.20
   5   9   4   37.60    6.30
   5   9   4   37.20    7.00
  -6  -9  -4   22.90    9.00
  -6  -9  -4   34.90    5.90
  -6  -9  -4   50.99   15.50
   6   9   4   22.80    7.60
   6   9   4   43.50    7.10
   6   9   4   51.19    8.40
  -1 -10  -4   85.69    8.60
  -1 -10  -4   82.19   11.10
  -1 -10  -4   68.89   10.30
   1  10   4   75.99   15.10
   1  10   4   61.19   15.60
   1  10   4   86.19   10.00
   1  10   4   85.19   12.00
  -2 -10  -4   -3.50   11.30
  -2 -10  -4   13.70    6.00
  -2 -10  -4   24.30   10.20
   2  10   4    9.30    6.30
   2  10   4    9.40   12.50
   2  10   4   25.30    5.70
  -3 -10  -4   10.60    9.20
  -3 -10  -4   10.40    7.30
  -3 -10  -4   29.90    6.30
   3  10   4   23.70    5.90
   3  10   4   13.60    6.50
   3  10   4   26.70   14.00
   3  10   4   24.30    8.20
  -4 -10  -4    1.50    7.30
  -4 -10  -4   -4.70    7.30
  -4 -10  -4   -0.80    9.80
   4  10   4    2.10    6.10
   4  10   4    1.20    7.20
   4  10   4    4.10    5.40
   4   9  -5  169.28   21.30
   4   9  -5  174.98   17.10
   4   9  -5  162.78   16.50
  -4  -9   5  148.29   18.20
  -4  -9   5  171.28   22.50
  -4  -9   5  215.28   27.30
  -4  -9   5  160.48   18.80
   3   9  -5   11.90    8.70
   3   9  -5   14.10    6.00
   3   9  -5   17.50    6.10
   3   9  -5   15.60    7.30
  -3  -9   5    8.80    9.60
  -3  -9   5   15.20   12.00
  -3  -9   5    9.20    7.50
  -3  -9   5   20.10    7.50
   2   9  -5   18.10    7.10
   2   9  -5    9.80    7.70
  -2  -9   5    3.10   11.50
  -2  -9   5    7.50    5.80
  -2  -9   5    8.30    7.30
  -2  -9   5    0.60    7.80
   1   9  -5    2.70    5.30
   1   9  -5   12.00    6.30
   1   9  -5    4.80    9.20
  -1  -9   5   -2.90    7.30
  -1  -9   5    3.80    6.80
  -1  -9   5    2.80    6.20
  -1  -9   5    0.10    5.10
  -1  -9   5    2.90    9.70
   0   9  -5   45.90   12.40
   0   9  -5   38.00    7.40
   0   9  -5   52.79    8.10
   0  -9   5   35.30    8.60
   0  -9   5   40.70    7.30
   0  -9   5   36.90   11.20
   0  -9   5   47.90    7.50
   0  -9   5   43.00    6.20
   0  -9   5   36.70    6.20
   5   8  -5  222.48   19.60
   5   8  -5  195.48   19.40
   5   8  -5  157.98   18.70
  -5  -8   5  241.08   24.70
  -5  -8   5  190.88   21.60
  -5  -8   5  217.18   18.80
  -5  -8   5  195.78   30.00
   4   8  -5   42.20    7.80
   4   8  -5   50.79   10.10
   4   8  -5   47.10    8.10
  -4  -8   5   60.49   15.40
  -4  -8   5   39.90    7.30
  -4  -8   5   49.10   11.70
  -4  -8   5   32.80    9.00
   3   8  -5   -2.90    4.90
   3   8  -5    9.20    5.90
   3   8  -5   -2.50    6.90
  -3  -8   5   -1.90    8.40
  -3  -8   5    1.90    5.10
  -3  -8   5   -4.50    6.30
  -3  -8   5    2.50    4.40
  -3  -8   5   -3.30   11.00
  -3  -8   5   -1.80    4.40
   2   8  -5   20.00    5.90
   2   8  -5   16.50    5.50
   2   8  -5   17.40    4.10
   2   8  -5   18.80    6.10
  -2  -8   5   11.00    5.80
  -2  -8   5   12.30    4.80
  -2  -8   5   18.10   11.60
  -2  -8   5   18.10    7.70
  -2  -8   5   21.70    5.30
  -2  -8   5   20.40    5.70
   1   8  -5   15.70    5.90
   1   8  -5   14.80    7.50
   1   8  -5    9.20    4.90
   1   8  -5    0.20    6.00
  -1  -8   5    9.30    6.20
  -1  -8   5    6.70    5.30
  -1  -8   5   10.90    4.80
  -1  -8   5   13.10    4.70
  -1  -8   5   14.40    9.80
  -1  -8   5    5.70    4.80
   0   8  -5  291.37   18.80
   0   8  -5  264.07   18.40
   0   8  -5  301.07   23.20
   0  -8   5  272.97   17.60
   0  -8   5  258.67   19.80
   0  -8   5  304.17   18.10
   0  -8   5  285.37   23.50
   0  -8   5  299.07   19.20
   0  -8   5  290.77   17.60
  -1   8  -5  497.45   28.30
  -1   8  -5  486.95   34.60
  -1   8  -5  448.56   28.20
   1  -8   5  472.05   27.70
   1  -8   5  460.55   27.50
   1  -8   5  484.25   27.70
   1  -8   5  450.55   29.80
   1  -8   5  511.65   26.90
   1  -8   5  481.75   31.40
  -2   8  -5  180.28   15.80
  -2   8  -5  211.48   15.20
  -2   8  -5  210.78   27.60
   2  -8   5  205.48   15.30
   2  -8   5  211.48   18.80
   2  -8   5  201.88   14.70
   2  -8   5  199.28   14.20
   6   7  -5  329.47   34.60
   6   7  -5  383.16   24.50
   6   7  -5  329.17   27.80
   6   7  -5  337.57   23.60
  -6  -7   5  343.37   31.00
  -6  -7   5  349.47   25.50
  -6  -7   5  392.26   32.10
   5   7  -5  104.99   12.50
   5   7  -5  103.89   12.20
   5   7  -5  114.69   15.50
   5   7  -5  120.19   11.30
   5   7  -5   97.29   10.10
   5   7  -5  119.29   13.80
  -5  -7   5  121.09   15.80
  -5  -7   5   98.99   13.10
  -5  -7   5  119.69   17.30
  -5  -7   5  104.89   13.90
  -5  -7   5  102.99   10.30
   4   7  -5    7.80    4.30
   4   7  -5    5.20    6.90
   4   7  -5    4.40    6.20
   4   7  -5   -6.40    5.60
   4   7  -5    2.10    6.80
  -4  -7   5   -4.20    8.70
  -4  -7   5   -4.60    7.50
  -4  -7   5   -1.10    3.80
  -4  -7   5   -1.10    3.70
  -4  -7   5   -1.10   10.20
  -4  -7   5    1.60    4.80
   3   7  -5   15.80    6.10
   3   7  -5    9.30    4.80
  -3  -7   5   11.30    6.80
  -3  -7   5   14.80    4.20
  -3  -7   5    7.80    3.60
  -3  -7   5   12.80   10.10
  -3  -7   5    9.00    8.00
  -3  -7   5    9.50    4.40
   2   7  -5   -1.80    5.00
   2   7  -5    4.30    4.20
   2   7  -5    1.90    4.50
   2   7  -5   -1.00    3.20
  -2  -7   5    0.90    3.90
  -2  -7   5    2.60    8.50
  -2  -7   5   -2.80    6.40
  -2  -7   5    2.30    3.60
  -2  -7   5   -5.70    5.00
  -2  -7   5   -0.40    3.80
   1   7  -5  161.08   12.90
   1   7  -5  182.08   12.90
   1   7  -5  171.58   12.20
   1   7  -5  186.48   14.00
  -1  -7   5  155.58   12.90
  -1  -7   5  187.68   18.40
  -1  -7   5  168.78   14.60
  -1  -7   5  180.18   12.00
  -1  -7   5  164.28   12.50
   0   7  -5  834.72   45.30
   0   7  -5  751.12   44.40
   0   7  -5  779.42   45.10
   0   7  -5  838.02   47.30
   0  -7   5  790.62   48.80
   0  -7   5  852.61   44.90
   0  -7   5  846.12   48.20
   0  -7   5  820.62   45.60
   0  -7   5  806.62   45.90
   0  -7   5  859.41   44.90
   0  -7   5  863.81   44.90
  -1   7  -5  442.46   30.10
  -1   7  -5  453.65   25.60
  -1   7  -5  409.36   25.40
   1  -7   5  418.46   24.90
   1  -7   5  451.55   28.60
   1  -7   5  448.36   24.70
   1  -7   5  428.06   29.50
   1  -7   5  438.26   25.20
   1  -7   5  418.06   24.80
   1  -7   5  455.85   24.40
  -2   7  -5   -3.40    4.40
  -2   7  -5   -2.10   10.30
  -2   7  -5    3.50    4.80
   2  -7   5    0.60    4.10
   2  -7   5   -3.50    7.00
   2  -7   5   -6.20    9.30
   2  -7   5    3.10    6.90
   2  -7   5    2.30    3.50
   2  -7   5   -4.70    3.60
  -3   7  -5    4.50    5.50
   3  -7   5    5.70   13.40
   3  -7   5   11.00    6.80
   3  -7   5    7.60    3.90
   3  -7   5    1.40    8.20
   3  -7   5    6.40    5.10
   3  -7   5   10.70    3.80
   3  -7   5    9.20    3.50
  -4   7  -5   -4.00    6.10
   4  -7   5    3.80    3.40
   4  -7   5    0.70    6.20
   4  -7   5   -1.30    9.10
   4  -7   5    0.80    5.20
   4  -7   5    5.90    6.70
   4  -7   5    6.30    4.10
   7   6  -5  314.37   32.00
   7   6  -5  278.37   39.80
   7   6  -5  329.87   25.50
   7   6  -5  407.66   22.20
  -7  -6   5  461.75   30.00
  -7  -6   5  435.86   32.00
  -7  -6   5  338.87   34.60
  -7  -6   5  405.26   33.40
   6   6  -5  178.98   17.40
   6   6  -5  166.08   21.70
   6   6  -5  208.88   18.20
   6   6  -5  226.38   15.40
   6   6  -5  186.08   27.60
  -6  -6   5  196.88   24.20
  -6  -6   5  225.68   18.00
  -6  -6   5  209.18   23.90
  -6  -6   5  227.68   24.60
   5   6  -5   26.10    6.10
   5   6  -5    6.50    7.70
   5   6  -5   14.00    4.50
   5   6  -5   17.70    9.20
   5   6  -5   16.90    5.90
   5   6  -5   16.20    7.20
  -5  -6   5    2.90   10.60
  -5  -6   5   14.50    5.60
  -5  -6   5    6.50    9.20
  -5  -6   5   11.10    9.80
   4   6  -5    2.80    6.30
   4   6  -5    3.60    5.30
   4   6  -5    6.30    6.90
   4   6  -5   -6.80    6.00
   4   6  -5   -7.10    5.50
   4   6  -5    0.50    3.80
   4   6  -5   -0.70    3.90
  -4  -6   5    3.50    3.60
  -4  -6   5   -0.20    7.50
  -4  -6   5    0.50    3.40
  -4  -6   5    6.20    8.50
  -4  -6   5   -0.30    3.80
  -4  -6   5    2.30    7.90
   3   6  -5  123.59   11.10
   3   6  -5  141.19   11.40
   3   6  -5  116.19   14.20
   3   6  -5  120.09   13.20
  -3  -6   5  122.39    9.50
  -3  -6   5  115.89   13.10
  -3  -6   5  117.29   15.30
  -3  -6   5  131.99   10.70
  -3  -6   5  146.59   17.80
  -3  -6   5  134.79   10.10
   2   6  -5    2.60    4.30
   2   6  -5   10.20    4.60
   2   6  -5    7.30    2.70
   2   6  -5    6.70    4.40
   2   6  -5    7.10    3.30
   2   6  -5   11.50    5.80
  -2  -6   5    4.60    3.30
  -2  -6   5    3.10    6.00
  -2  -6   5    6.90    3.50
  -2  -6   5    7.70    3.40
  -2  -6   5    3.50    7.30
  -2  -6   5    3.80    5.00
   1   6  -5 1082.69   56.99
   1   6  -5 1042.50   59.19
   1   6  -5 1036.40   57.19
   1   6  -5 1075.29   57.99
   1   6  -5 1085.49   58.19
   1   6  -5 1060.39   57.89
   1   6  -5 1065.49   58.29
  -1  -6   5 1069.29   61.19
  -1  -6   5 1088.99   59.29
  -1  -6   5 1112.09   57.99
  -1  -6   5 1105.59   58.39
  -1  -6   5 1047.20   58.09
  -1  -6   5 1085.09   58.29
   0   6  -5  749.82   41.90
   0   6  -5  787.22   42.10
   0   6  -5  732.83   41.60
   0   6  -5  788.52   43.50
   0  -6   5  763.82   42.40
   0  -6   5  778.42   41.80
   0  -6   5  756.32   42.60
   0  -6   5  764.22   44.90
   0  -6   5  782.52   41.90
   0  -6   5  771.12   42.50
   0  -6   5  768.82   42.40
  -1   6  -5    3.90    3.70
  -1   6  -5    2.10    3.90
  -1   6  -5   10.80    7.10
   1  -6   5    3.60    2.70
   1  -6   5    1.70    6.30
   1  -6   5    6.70    3.00
   1  -6   5    0.10    5.90
   1  -6   5    4.40    2.70
   1  -6   5    4.50    3.80
   1  -6   5    5.80    6.10
   1  -6   5    1.30    3.00
  -2   6  -5   24.70    9.40
  -2   6  -5   16.80    5.90
  -2   6  -5   30.30    5.10
   2  -6   5   24.20    3.30
   2  -6   5   24.90    3.20
   2  -6   5   20.00    7.30
   2  -6   5   22.60    3.00
   2  -6   5   21.70    3.60
   2  -6   5   20.60    6.30
   2  -6   5   25.40    4.00
   2  -6   5   23.90    4.70
   2  -6   5   23.20    4.10
   2  -6   5   20.80    8.80
   3  -6   5    5.60    4.30
   3  -6   5    4.20    3.60
   3  -6   5    8.40   10.40
   3  -6   5    7.70    2.40
   3  -6   5    9.20    5.60
   3  -6   5    7.60    3.80
   3  -6   5    4.20    3.90
   3  -6   5   12.40    7.30
   3  -6   5    9.00    2.70
  -4   6  -5    4.60    6.50
   4  -6   5    5.00    4.60
   4  -6   5   -0.20    6.60
   4  -6   5    2.30    5.80
   4  -6   5   13.90   12.20
   4  -6   5    3.40    4.70
   4  -6   5    3.50    7.80
  -5   6  -5    3.90    7.20
   5  -6   5   18.30    6.30
   5  -6   5   23.40    6.30
   5  -6   5   21.00   10.00
   5  -6   5   16.70    7.60
   5  -6   5   21.20   10.00
   8   5  -5   85.79   10.70
   8   5  -5   94.99   10.20
   8   5  -5   79.59   15.00
   8   5  -5  123.79   20.20
   8   5  -5    8.70   39.30
  -8  -5   5  153.28   22.00
  -8  -5   5   90.79   24.80
  -8  -5   5  133.59   21.50
   7   5  -5  141.49   22.80
   7   5  -5  160.48   14.80
   7   5  -5  165.78   16.30
   7   5  -5  188.88   12.90
  -7  -5   5  181.58   22.10
  -7  -5   5  125.79   17.90
  -7  -5   5  206.08   25.00
   6   5  -5   -2.40    9.20
   6   5  -5    6.00    3.60
   6   5  -5    1.40   11.50
   6   5  -5   -0.70    6.70
   6   5  -5    5.80    4.90
  -6  -5   5   -0.80   10.20
  -6  -5   5    3.50    9.10
  -6  -5   5   -5.30    9.90
  -6  -5   5    3.10    3.60
  -6  -5   5    0.00    5.30
   5   5  -5   14.50    6.60
   5   5  -5   11.70    8.60
   5   5  -5   11.60    4.30
   5   5  -5   -3.90    7.20
   5   5  -5    6.80    4.60
  -5  -5   5    4.80    8.40
  -5  -5   5    7.00    4.80
  -5  -5   5    7.60    9.30
  -5  -5   5   11.90    9.00
   4   5  -5   92.19   12.40
   4   5  -5  109.19    9.40
   4   5  -5  107.99   14.00
   4   5  -5   87.19   12.30
   4   5  -5  115.69    9.30
   4   5  -5  115.19   10.70
  -4  -5   5   97.19   12.00
  -4  -5   5   93.09    8.30
  -4  -5   5   82.09    8.70
  -4  -5   5   97.69   10.10
  -4  -5   5   95.59   14.20
  -4  -5   5   98.69   12.90
   3   5  -5   21.80    6.30
   3   5  -5   14.30    5.60
   3   5  -5   12.10    4.10
   3   5  -5    7.00    4.50
   3   5  -5    4.90    4.50
   3   5  -5   10.90    3.10
  -3  -5   5   12.70    6.00
  -3  -5   5   16.20    8.50
  -3  -5   5   11.20    3.30
  -3  -5   5   13.80    3.80
  -3  -5   5    9.80    3.30
  -3  -5   5    9.40    6.60
   2   5  -5  198.28   14.70
   2   5  -5  216.48   15.60
   2   5  -5  218.88   14.80
   2   5  -5  217.08   14.10
   2   5  -5  228.98   13.90
  -2  -5   5  220.68   15.70
  -2  -5   5  227.38   13.80
  -2  -5   5  231.08   17.00
  -2  -5   5  228.38   13.70
  -2  -5   5  207.58   18.60
  -2  -5   5  232.18   14.00
   1   5  -5  750.32   42.60
   1   5  -5  817.32   41.70
   1   5  -5  776.32   42.30
   1   5  -5  796.52   43.40
   1   5  -5  779.02   42.70
   1   5  -5  732.73   42.00
  -1  -5   5  804.12   42.50
  -1  -5   5  812.52   43.90
  -1  -5   5  830.62   42.60
  -1  -5   5  763.32   42.80
  -1  -5   5  699.93   43.60
  -1  -5   5  772.22   45.30
   0   5  -5  624.84   34.70
   0   5  -5  590.94   33.30
   0   5  -5  610.74   33.60
   0   5  -5  595.04   33.50
   0  -5   5  624.24   34.50
   0  -5   5  591.64   36.50
   0  -5   5  641.74   34.10
   0  -5   5  594.54   33.60
   0  -5   5  654.13   33.40
   0  -5   5  612.64   36.40
   0  -5   5  590.64   33.70
  -1   5  -5   73.99    7.10
  -1   5  -5   83.69    9.00
  -1   5  -5   69.99    7.00
   1  -5   5   63.19    7.60
   1  -5   5   62.39   10.80
   1  -5   5   68.19   11.10
   1  -5   5   81.29    5.80
   1  -5   5   78.79    7.80
   1  -5   5   74.59    6.10
   1  -5   5   71.69   10.60
   1  -5   5   74.39    4.90
   1  -5   5   66.59    8.60
   1  -5   5   79.39    6.20
  -2   5  -5  180.38   11.50
  -2   5  -5  165.48   11.60
   2  -5   5  160.98   11.90
   2  -5   5  169.08   14.00
   2  -5   5  163.58   14.40
   2  -5   5  180.68    9.80
   2  -5   5  169.28   11.20
   2  -5   5  171.68   10.80
   2  -5   5  158.58   16.40
   2  -5   5  174.18    9.90
   2  -5   5  156.18   10.50
   2  -5   5  175.28   10.20
   3  -5   5    2.00    3.20
   3  -5   5   -7.00    5.30
   3  -5   5    2.40    4.00
   3  -5   5    4.20    3.40
   3  -5   5    3.30    8.40
   3  -5   5    2.50    5.30
   3  -5   5    4.70    3.20
   4  -5   5    9.10    4.40
   4  -5   5    7.30    6.70
   4  -5   5    9.40    6.10
   4  -5   5    5.90    4.70
   4  -5   5    4.50    4.00
   4  -5   5   15.50    5.20
   4  -5   5   27.30   10.60
   4  -5   5    9.50    3.80
  -5   5  -5   78.29    9.80
   5  -5   5   85.59   10.40
   5  -5   5   79.59    9.70
   5  -5   5   79.99   13.50
   5  -5   5   92.49   10.30
   5  -5   5  111.19   18.30
   5  -5   5   86.49   10.00
   5  -5   5   90.59   10.30
  -6   5  -5  145.29   16.90
   6  -5   5  172.28   12.90
   6  -5   5  167.38   14.90
   6  -5   5  202.38   23.40
   6  -5   5  164.88   19.20
   8   4  -5  126.19   15.40
   8   4  -5  129.89   15.00
   8   4  -5  168.98   14.40
   8   4  -5  114.69   16.60
  -8  -4   5  204.08   20.90
  -8  -4   5  181.48   32.00
  -8  -4   5  161.48   20.40
   7   4  -5   23.20    5.70
   7   4  -5   25.30    5.60
   7   4  -5   21.90    7.10
   7   4  -5   15.60   10.70
   7   4  -5  -13.00   14.80
  -7  -4   5   21.00   12.90
  -7  -4   5   34.60   11.60
  -7  -4   5   26.30   10.10
  -7  -4   5   12.30    7.10
  -7  -4   5   37.50    9.70
  -7  -4   5   17.50    6.30
   6   4  -5   14.50    6.60
   6   4  -5    1.80    9.10
   6   4  -5   14.80    4.40
   6   4  -5   15.90    5.10
   6   4  -5   -0.30   12.10
  -6  -4   5   17.80    8.90
  -6  -4   5   -3.40    9.60
  -6  -4   5    4.20    5.60
  -6  -4   5   12.60    9.00
   5   4  -5  106.49    9.90
   5   4  -5   82.29   13.60
   5   4  -5   96.19   12.80
   5   4  -5  121.79    9.90
   5   4  -5  106.19   12.60
  -5  -4   5  119.09   16.20
  -5  -4   5  112.39   15.80
  -5  -4   5   92.19   11.10
  -5  -4   5   88.39   12.20
  -5  -4   5   82.59    9.50
   4   4  -5   91.59    8.80
   4   4  -5   92.29   13.50
   4   4  -5   92.19   11.30
   4   4  -5  115.79    9.20
   4   4  -5   71.89    9.70
   4   4  -5   97.99    9.50
  -4  -4   5   60.69   10.10
  -4  -4   5   86.29   13.70
  -4  -4   5   75.49    8.80
   3   4  -5    6.20    4.20
   3   4  -5    4.20    4.40
   3   4  -5    7.70    3.70
   3   4  -5    4.10    3.40
   3   4  -5   11.10    4.90
   3   4  -5    2.50    4.40
  -3  -4   5    8.80    3.30
  -3  -4   5   -1.50    5.50
  -3  -4   5   17.40    6.60
  -3  -4   5    2.80    3.00
  -3  -4   5    6.00    3.00
  -3  -4   5   10.10    7.50
   2   4  -5 2002.00   95.39
   2   4  -5 1758.42   94.69
   2   4  -5 1730.73   93.99
   2   4  -5 1710.23   95.49
   2   4  -5 1624.74   95.29
   2   4  -5 1770.52   94.99
  -2  -4   5 1745.63   96.29
  -2  -4   5 1857.81   94.79
  -2  -4   5 1764.72   97.19
  -2  -4   5 1748.53   95.89
  -2  -4   5 1912.71   94.99
  -2  -4   5 1720.93   94.89
   1   4  -5  684.13   35.30
   1   4  -5  661.13   35.30
   1   4  -5  635.04   36.30
   1   4  -5  659.93   34.40
   1   4  -5  591.34   35.60
   1   4  -5  620.44   35.40
   1   4  -5  659.73   35.00
  -1  -4   5  596.54   36.10
  -1  -4   5  671.53   35.40
  -1  -4   5  691.43   35.30
  -1  -4   5  671.33   35.50
  -1  -4   5  654.43   38.40
  -1  -4   5  624.74   36.70
   0   4  -5   25.60    3.20
   0   4  -5   18.80    2.90
   0   4  -5   33.70    4.90
   0   4  -5   31.10    4.50
   0  -4   5   22.00    4.00
   0  -4   5   27.40    2.80
   0  -4   5   22.50    4.00
   0  -4   5   29.40    6.80
   0  -4   5   28.30    4.30
   0  -4   5   26.00    7.40
   0  -4   5   16.80    4.30
   0  -4   5   30.70    4.20
   0  -4   5   21.30    3.60
  -1   4  -5  129.69    8.90
  -1   4  -5  140.39   10.40
  -1   4  -5  129.49    8.80
   1  -4   5  134.49    7.80
   1  -4   5  139.89    9.50
   1  -4   5  133.89    8.40
   1  -4   5  145.59    9.10
   1  -4   5  120.09   12.00
   1  -4   5  118.19   12.50
   1  -4   5  124.39    8.50
   1  -4   5  125.49   12.10
   1  -4   5  136.79    8.10
  -2   4  -5   15.80    4.10
  -2   4  -5    7.90    2.90
  -2   4  -5   16.10    3.40
   2  -4   5    8.20    5.30
   2  -4   5    7.80    3.20
   2  -4   5   12.50    1.70
   2  -4   5   11.10    3.00
   2  -4   5    6.00    5.00
   2  -4   5   16.70    2.70
   2  -4   5    8.90    2.70
   2  -4   5    5.00    5.90
   2  -4   5   13.10    2.30
   2  -4   5   12.60    1.90
  -3   4  -5   -1.40    3.50
   3  -4   5    5.40    4.90
   3  -4   5    7.60    7.20
   3  -4   5    2.00    2.70
   3  -4   5    2.00    3.00
   3  -4   5    4.20    3.30
   3  -4   5    0.60    5.00
   3  -4   5    3.00    4.60
   3  -4   5    2.60    2.80
  -4   4  -5   41.10    6.00
   4  -4   5   36.00    6.80
   4  -4   5   42.30    5.50
   4  -4   5   36.00    4.40
   4  -4   5   34.70    7.60
   4  -4   5   53.69    9.90
   4  -4   5   45.40    5.30
   4  -4   5   34.50    5.50
   4  -4   5   36.60    4.60
   5  -4   5  151.28   11.90
   5  -4   5  124.39   12.70
   5  -4   5  155.78   11.20
   5  -4   5  138.69   11.00
   5  -4   5  162.38   17.70
   5  -4   5  147.69   14.10
   5  -4   5  142.09   11.30
  -6   4  -5   87.09   10.40
   6  -4   5  112.39    9.50
   6  -4   5   98.19    8.90
   6  -4   5  105.79   14.00
   6  -4   5  115.19   12.30
   6  -4   5   99.39   14.40
   8   3  -5   93.39   12.30
   8   3  -5   67.09    9.40
   8   3  -5   87.29    9.90
   8   3  -5  105.49   15.20
   8   3  -5   58.99   18.70
  -8  -3   5   99.69   15.70
  -8  -3   5   99.29   26.40
  -8  -3   5  100.19   17.40
  -8  -3   5  117.49   16.60
   7   3  -5    6.20    5.50
   7   3  -5    5.00   10.20
   7   3  -5   -1.60    6.90
   7   3  -5  -25.30   13.70
  -7  -3   5   13.90   10.70
  -7  -3   5   10.00   11.30
  -7  -3   5    9.30    8.70
  -7  -3   5   12.60    6.70
   6   3  -5   16.60    7.40
   6   3  -5   32.70    5.20
   6   3  -5   30.70   10.30
   6   3  -5   22.90    5.20
   6   3  -5   46.50    7.60
  -6  -3   5   39.60    8.90
  -6  -3   5   36.00    9.20
  -6  -3   5   33.30    6.90
  -6  -3   5   34.70    9.90
  -6  -3   5   38.60    6.50
   5   3  -5  124.29   10.20
   5   3  -5  121.99   10.30
   5   3  -5  102.19   13.30
   5   3  -5   98.69   15.90
  -5  -3   5  119.59   11.00
  -5  -3   5  135.99   14.30
  -5  -3   5  102.49   15.50
  -5  -3   5  107.19   12.20
  -5  -3   5  142.79   15.40
   4   3  -5  423.16   22.20
   4   3  -5  313.57   25.90
   4   3  -5  420.26   21.70
   4   3  -5  320.07   24.60
   4   3  -5  360.26   23.20
  -4  -3   5  347.97   24.30
  -4  -3   5  406.36   24.50
  -4  -3   5  328.87   21.60
  -4  -3   5  331.97   22.00
   3   3  -5  592.84   31.30
   3   3  -5  640.04   30.60
   3   3  -5  526.95   32.20
   3   3  -5  538.65   31.80
   3   3  -5  621.04   31.00
   3   3  -5  508.65   32.20
  -3  -3   5  502.95   32.90
  -3  -3   5  512.45   30.70
  -3  -3   5  482.15   32.10
  -3  -3   5  521.35   30.70
   2   3  -5  879.91   46.40
   2   3  -5  886.81   47.80
   2   3  -5  849.12   47.20
   2   3  -5  841.72   47.60
   2   3  -5  829.52   47.50
   2   3  -5  940.31   48.10
  -2  -3   5  875.11   46.80
  -2  -3   5  814.42   48.10
  -2  -3   5  833.42   47.10
  -2  -3   5  883.81   46.90
  -2  -3   5  898.31   48.30
   1   3  -5   12.40    3.50
   1   3  -5   18.20    2.70
   1   3  -5   14.60    2.90
   1   3  -5   15.50    3.80
   1   3  -5   12.00    2.70
   1   3  -5   15.70    2.10
   1   3  -5   15.40    2.90
  -1  -3   5   13.60    2.90
  -1  -3   5   23.00    3.20
  -1  -3   5   17.50    3.40
  -1  -3   5    7.70    4.20
   0   3  -5  380.96   21.90
   0   3  -5  404.46   20.40
   0   3  -5  400.86   20.60
   0   3  -5  388.66   20.90
   0   3  -5  413.86   20.40
   0   3  -5  403.16   21.10
   0   3  -5  390.76   21.10
   0  -3   5  341.97   21.70
   0  -3   5  388.56   21.10
   0  -3   5  392.36   20.80
   0  -3   5  356.76   21.50
   0  -3   5  316.77   21.80
   0  -3   5  393.46   21.50
   0  -3   5  355.56   20.70
   0  -3   5  362.16   23.50
  -1   3  -5    3.60    3.20
  -1   3  -5    7.40    2.40
  -1   3  -5    5.20    2.20
   1  -3   5    3.00    2.60
   1  -3   5    7.10    3.40
   1  -3   5    3.40    4.20
   1  -3   5   10.10    2.20
   1  -3   5   10.80    1.90
   1  -3   5    5.80    1.80
  -2   3  -5   23.50    3.90
  -2   3  -5   35.80    4.40
  -2   3  -5   31.20    3.40
   2  -3   5   25.50    6.00
   2  -3   5   32.70    5.90
   2  -3   5   22.50    3.50
   2  -3   5   19.00    4.20
   2  -3   5   29.00    3.70
   2  -3   5   29.30    2.60
   2  -3   5   30.80    4.00
   2  -3   5   19.70    2.80
  -3   3  -5   35.70    4.40
  -3   3  -5   30.70    4.30
   3  -3   5   31.00    5.80
   3  -3   5   50.19    8.20
   3  -3   5   44.80    5.10
   3  -3   5   37.20    5.20
   3  -3   5   33.30    4.50
   3  -3   5   32.20    5.90
   3  -3   5   38.10    4.50
  -4   3  -5  115.79    9.70
   4  -3   5  124.99    9.50
   4  -3   5  124.09    8.80
   4  -3   5  112.49   13.30
   4  -3   5  136.49   12.00
   4  -3   5  126.29   10.60
   4  -3   5  120.49    9.70
   4  -3   5  149.59   14.90
   4  -3   5  137.19   10.30
  -5   3  -5  209.68   15.00
   5  -3   5  259.97   19.80
   5  -3   5  229.18   14.20
   5  -3   5  227.18   15.30
   5  -3   5  213.48   14.60
   5  -3   5  201.98   13.70
   5  -3   5  208.58   14.20
   5  -3   5  224.38   16.60
   5  -3   5  201.18   19.70
  -6   3  -5   -1.90    5.30
  -6   3  -5    6.50    5.90
   6  -3   5    4.70    2.60
   6  -3   5    6.80    3.70
   6  -3   5   13.20    7.90
   6  -3   5    3.10    3.70
   6  -3   5   -4.70    8.30
   6  -3   5    5.80    5.90
   6  -3   5    4.30    5.70
   6  -3   5    5.60    4.40
   6  -3   5   -0.50    5.40
   6  -3   5    5.60    3.70
  -7   3  -5   -4.30    7.20
  -7   3  -5   12.90   10.10
   7  -3   5    8.50    3.50
   7  -3   5    6.60    5.20
   7  -3   5    6.30    7.10
   7  -3   5    2.30   10.40
   7  -3   5   12.30    4.90
   7  -3   5    9.70    5.20
   7  -3   5   14.20    8.20
   7  -3   5    5.20    7.50
   8   2  -5   50.59    8.50
   8   2  -5   73.09   13.40
   8   2  -5   42.90    8.40
   8   2  -5   36.30   15.70
   8   2  -5   60.99    9.10
  -8  -2   5   78.19   13.80
  -8  -2   5   52.69   11.80
  -8  -2   5   76.09   15.80
  -8  -2   5   69.49   16.40
  -8  -2   5   67.69    9.30
   7   2  -5   -8.40    7.60
   7   2  -5   14.30    9.00
   7   2  -5    4.40    5.20
   7   2  -5   -2.30    5.30
  -7  -2   5   -6.80    7.30
  -7  -2   5   15.20   10.70
  -7  -2   5   12.10    9.10
  -7  -2   5    0.60    6.20
  -7  -2   5   11.90   10.10
   6   2  -5  314.17   21.60
   6   2  -5  428.06   27.70
   6   2  -5  392.06   25.40
   6   2  -5  360.96   21.90
   6   2  -5  276.77   33.10
  -6  -2   5  342.97   25.20
  -6  -2   5  380.06   26.90
  -6  -2   5  337.57   23.40
  -6  -2   5  370.66   26.40
  -6  -2   5  369.46   23.60
   5   2  -5  446.76   33.00
   5   2  -5  524.15   29.60
  -5  -2   5  474.55   30.30
  -5  -2   5  558.64   31.20
  -5  -2   5  545.75   32.60
  -5  -2   5  457.65   31.40
  -5  -2   5  574.44   32.70
   4   2  -5   45.10    5.80
   4   2  -5   39.20    5.00
   4   2  -5   27.80    7.70
   4   2  -5   52.99    6.80
   4   2  -5   35.00    8.10
  -4  -2   5   36.10    5.70
  -4  -2   5   32.30    5.80
  -4  -2   5   37.90    6.90
  -4  -2   5   40.20    7.10
   3   2  -5  569.04   40.00
   3   2  -5  646.64   39.80
   3   2  -5  741.23   38.30
   3   2  -5  745.33   37.80
   3   2  -5  775.62   37.80
   3   2  -5  623.44   39.00
  -3  -2   5  709.43   38.90
  -3  -2   5  735.93   39.20
  -3  -2   5  637.04   38.20
  -3  -2   5  632.54   38.30
   2   2  -5   19.80    4.10
   2   2  -5   32.60    4.50
   2   2  -5   20.80    4.40
   2   2  -5   26.30    3.50
   2   2  -5   12.10    4.80
  -2  -2   5   20.60    4.00
  -2  -2   5   29.40    4.40
  -2  -2   5   20.80    3.30
   1   2  -5   15.20    4.00
   1   2  -5    6.30    3.20
   1   2  -5   10.50    2.10
   1   2  -5   11.50    3.20
   1   2  -5   17.20    3.10
   1   2  -5   11.20    2.70
  -1  -2   5    9.80    3.90
  -1  -2   5   10.30    2.80
  -1  -2   5   12.00    2.30
  -1  -2   5   17.10    3.80
  -1  -2   5    9.20    3.00
  -1  -2   5   13.90    3.00
   0   2  -5  100.29    7.60
   0   2  -5   91.99    5.70
   0   2  -5   77.49    6.10
   0   2  -5   87.39    5.60
   0   2  -5   82.19    5.40
   0   2  -5   89.79    6.00
   0   2  -5   89.09    5.50
   0  -2   5   84.29    5.50
   0  -2   5   88.49    6.40
   0  -2   5   68.39    6.40
   0  -2   5   88.79    6.60
   0  -2   5   70.39    6.60
   0  -2   5   75.29    6.90
   0  -2   5   96.39    9.00
  -1   2  -5   19.00    2.20
  -1   2  -5   13.50    3.20
  -1   2  -5   15.10    2.30
   1  -2   5   14.30    4.50
   1  -2   5   20.30    2.00
   1  -2   5   13.40    2.50
   1  -2   5    9.80    2.20
   1  -2   5   16.70    2.50
   1  -2   5   10.50    2.40
   1  -2   5   16.00    3.90
   1  -2   5   17.40    2.10
  -2   2  -5  457.55   24.20
  -2   2  -5  446.96   24.80
  -2   2  -5  405.06   27.70
  -2   2  -5  455.15   24.30
   2  -2   5  463.75   24.20
   2  -2   5  477.25   24.80
   2  -2   5  467.05   23.70
   2  -2   5  459.35   24.00
   2  -2   5  437.26   26.40
   2  -2   5  453.45   24.80
   2  -2   5  434.66   24.00
   2  -2   5  446.16   26.60
   2  -2   5  371.36   23.90
  -3   2  -5  113.59    7.80
  -3   2  -5  117.69   14.80
  -3   2  -5  113.19    8.50
   3  -2   5  114.49    7.90
   3  -2   5  111.29   10.90
   3  -2   5  117.39    8.30
   3  -2   5  116.29   11.50
   3  -2   5  117.09    8.60
   3  -2   5  110.49    7.40
   3  -2   5  112.29   10.60
  -4   2  -5  190.28   20.60
   4  -2   5  159.68   11.00
   4  -2   5  203.48   14.20
   4  -2   5  177.38   10.20
   4  -2   5  171.48   10.10
   4  -2   5  167.88   11.70
   4  -2   5  165.18   10.00
   4  -2   5  206.38   15.90
   4  -2   5  208.58   15.70
   4  -2   5  204.78   12.00
   4  -2   5  180.08   13.10
  -5   2  -5   24.40   13.00
  -5   2  -5   26.40    4.80
  -5   2  -5   29.10    5.10
   5  -2   5   37.80    3.50
   5  -2   5   33.30    5.10
   5  -2   5   35.70    4.50
   5  -2   5   30.90    4.00
   5  -2   5   31.30    4.60
   5  -2   5   29.80    5.30
   5  -2   5   19.70    7.20
   5  -2   5   26.10    6.40
   5  -2   5   30.30    5.60
   5  -2   5   33.60    4.50
  -6   2  -5   17.10    6.30
  -6   2  -5   26.20   17.30
   6  -2   5   14.10    4.30
   6  -2   5   21.90    4.20
   6  -2   5   25.40    7.80
   6  -2   5   20.50    4.20
   6  -2   5   13.60    8.70
   6  -2   5   23.40    3.00
   6  -2   5   21.60    6.00
   6  -2   5   24.40    5.80
   6  -2   5   26.50    6.40
   6  -2   5   20.40    3.40
   6  -2   5   23.60    4.00
  -7   2  -5    1.80    7.00
  -7   2  -5   -1.10   19.10
   7  -2   5   -1.50    3.80
   7  -2   5   -1.80    3.10
   7  -2   5    8.40    6.70
   7  -2   5   -2.80    4.70
   7  -2   5  -10.50    6.00
   7  -2   5    4.50    3.50
   7  -2   5   -5.30    5.00
   7  -2   5  -16.90    9.30
   7  -2   5    1.80    2.90
  -8   2  -5    2.70   22.90
  -8   2  -5   13.50    8.80
   8  -2   5    4.00    5.30
   8  -2   5   -4.90    7.50
   8  -2   5    0.10    6.40
   8  -2   5    4.00    8.60
   8  -2   5  -17.00   11.10
   8  -2   5    2.30    5.40
   8   1  -5   -2.50    7.80
   8   1  -5   -7.10   12.40
   8   1  -5    3.80    6.70
   8   1  -5    5.50    7.50
  -8  -1   5   -5.70   12.40
  -8  -1   5    0.50   13.60
  -8  -1   5   -2.20    8.60
  -8  -1   5  -10.60    8.50
  -8  -1   5   13.80   11.30
   7   1  -5   49.00    7.80
   7   1  -5   43.70   13.20
   7   1  -5   50.09    8.00
  -7  -1   5   55.19    7.80
  -7  -1   5   51.29   11.50
  -7  -1   5   56.79   12.30
  -7  -1   5   59.89   11.50
  -7  -1   5   63.69   10.80
   6   1  -5  528.55   33.00
   6   1  -5  641.74   40.70
   6   1  -5  480.35   32.50
  -6  -1   5  621.64   35.10
  -6  -1   5  549.85   33.10
  -6  -1   5  608.64   36.20
  -6  -1   5  583.54   36.40
   5   1  -5   62.89    8.60
   5   1  -5   67.79    9.10
   5   1  -5   73.69    9.30
   5   1  -5   65.89   12.00
  -5  -1   5   55.29    8.70
  -5  -1   5   58.99    8.00
  -5  -1   5   89.19   13.10
   4   1  -5  136.79   10.80
   4   1  -5  134.79   10.90
   4   1  -5  104.79   18.30
   4   1  -5  115.19   10.60
  -4  -1   5  135.49   12.60
  -4  -1   5  129.39   12.50
  -4  -1   5  132.99   12.40
  -4  -1   5  109.29   12.00
   3   1  -5  724.33   38.30
   3   1  -5  672.03   36.20
  -3  -1   5  627.44   37.10
  -3  -1   5  656.63   36.60
  -3  -1   5  610.54   36.40
  -3  -1   5  587.84   36.20
   2   1  -5   51.79    5.80
   2   1  -5   48.30    6.10
   2   1  -5   30.50    6.30
   2   1  -5   43.90    6.80
   2   1  -5   46.60    5.40
   2   1  -5   45.00    6.50
  -2  -1   5   37.30    4.70
  -2  -1   5   40.30    6.70
  -2  -1   5   48.60    6.00
  -2  -1   5   44.20    5.90
  -2  -1   5   52.09    6.60
   1   1  -5  806.62   42.20
   1   1  -5  747.23   43.00
   1   1  -5  812.82   42.10
   1   1  -5  763.02   42.00
   1   1  -5  823.12   41.70
   1   1  -5  778.82   43.40
  -1  -1   5  762.22   41.50
  -1  -1   5  778.22   42.00
  -1  -1   5  746.13   42.10
  -1  -1   5  759.12   42.70
  -1  -1   5  729.03   42.90
   0   1  -5   10.00    2.90
   0   1  -5   12.80    1.90
   0   1  -5   11.30    1.80
   0   1  -5    2.60    3.20
   0   1  -5   11.40    2.00
   0  -1   5    6.40    2.90
   0  -1   5   13.30    2.20
   0  -1   5   11.20    2.40
   0  -1   5   16.00    4.10
   0  -1   5   15.50    2.10
  -1   1  -5  668.23   34.80
  -1   1  -5  674.43   35.90
  -1   1  -5  645.44   35.20
  -1   1  -5  632.14   37.00
  -1   1  -5  649.83   34.90
  -1   1  -5  700.93   35.20
   1  -1   5  663.93   35.30
   1  -1   5  702.13   35.20
   1  -1   5  634.64   35.10
   1  -1   5  656.43   34.90
   1  -1   5  660.33   35.70
   1  -1   5  593.94   37.00
  -2   1  -5  252.27   14.00
  -2   1  -5  250.07   14.60
  -2   1  -5  243.68   17.30
  -2   1  -5  244.98   14.10
   2  -1   5  244.78   16.40
   2  -1   5  246.28   14.60
   2  -1   5  261.67   14.60
   2  -1   5  230.28   14.00
   2  -1   5  255.27   13.70
   2  -1   5  260.87   14.70
   2  -1   5  250.67   13.70
   2  -1   5  255.17   14.10
  -3   1  -5   40.80    5.10
  -3   1  -5   41.90    8.20
  -3   1  -5   35.70    4.10
   3  -1   5   43.20    3.50
   3  -1   5   42.50    5.30
   3  -1   5   38.30    4.90
   3  -1   5   46.60    7.20
   3  -1   5   40.80    3.70
   3  -1   5   40.70    3.40
   3  -1   5   42.70    7.50
   3  -1   5   41.50    3.40
   3  -1   5   45.00    7.60
  -4   1  -5  223.68   21.40
  -4   1  -5  231.38   13.60
  -4   1  -5  230.48   13.70
   4  -1   5  232.98   12.90
   4  -1   5  237.98   14.20
   4  -1   5  222.18   13.30
   4  -1   5  219.28   14.10
   4  -1   5  240.38   16.70
   4  -1   5  228.58   13.00
   4  -1   5  234.78   14.10
   4  -1   5  238.48   12.90
   4  -1   5  233.38   15.90
   4  -1   5  224.68   17.00
  -5   1  -5   -0.40   11.90
  -5   1  -5   -0.10    3.90
   5  -1   5    0.70    2.80
   5  -1   5    1.10    1.80
   5  -1   5    2.50    3.60
   5  -1   5    1.90    2.20
   5  -1   5   -0.20    2.60
   5  -1   5   -1.60    4.10
   5  -1   5    0.00    5.90
   5  -1   5   -5.10    5.30
   5  -1   5   -0.50    2.60
   5  -1   5    1.70    4.20
  -6   1  -5   89.89   10.90
  -6   1  -5   45.60   17.30
   6  -1   5   92.89    7.60
   6  -1   5   89.99   11.60
   6  -1   5   86.09    9.90
   6  -1   5   93.59    7.00
   6  -1   5   87.79    8.00
   6  -1   5   90.39    9.70
   6  -1   5   81.59    8.10
   6  -1   5   89.79    6.70
   6  -1   5   82.49   16.20
  -7   1  -5    5.80    5.90
  -7   1  -5   -7.20   19.10
   7  -1   5    2.60    2.80
   7  -1   5    0.80    3.00
   7  -1   5    3.70    3.80
   7  -1   5    0.80    4.60
   7  -1   5    3.80    5.90
   7  -1   5    1.70    3.40
   7  -1   5   -0.60    4.40
   7  -1   5   -5.40    8.90
   7  -1   5   -7.00    6.00
  -8   1  -5   20.20    8.40
  -8   1  -5   11.50   21.60
   8  -1   5   16.90    6.60
   8  -1   5   14.90    5.10
   8  -1   5    6.20   14.50
   8  -1   5   22.10    5.10
   8  -1   5   -4.40   11.00
   8  -1   5   15.60    7.40
   8   0  -5    5.30   11.20
   8   0  -5  -13.90   17.00
   8   0  -5   24.20    9.40
  -8   0   5    8.70   13.70
  -8   0   5   17.60   11.40
  -8   0   5   -0.40   12.90
  -8   0   5   26.30   13.90
   7   0  -5  169.48   17.50
   7   0  -5  229.68   25.70
   7   0  -5  166.78   16.70
  -7   0   5  203.28   25.10
  -7   0   5  226.18   22.00
  -7   0   5  232.68   22.90
  -7   0   5  233.78   14.80
   6   0  -5  379.26   26.50
   6   0  -5  379.56   26.40
   6   0  -5  476.35   31.80
  -6   0   5  441.26   29.10
  -6   0   5  425.86   28.80
  -6   0   5  418.46   29.70
  -6   0   5  450.75   25.30
  -6   0   5  436.16   31.30
   5   0  -5   18.00    4.40
   5   0  -5    8.80    6.00
   5   0  -5    9.40    8.30
   5   0  -5    9.20    5.60
  -5   0   5   13.70    7.50
  -5   0   5   13.40    6.90
  -5   0   5    6.80    7.20
  -5   0   5   11.20    6.60
   4   0  -5  397.46   22.20
   4   0  -5  333.57   21.00
   4   0  -5  308.67   20.80
   4   0  -5  359.46   21.60
  -4   0   5  291.97   21.90
  -4   0   5  324.37   21.20
  -4   0   5  347.57   19.70
  -4   0   5  305.57   21.30
   3   0  -5  160.08   12.90
   3   0  -5  181.48   12.90
   3   0  -5  190.68   12.50
  -3   0   5  200.48   12.20
  -3   0   5  156.88   12.40
  -3   0   5  187.68   12.90
  -3   0   5  155.48   12.60
   2   0  -5  222.88   14.60
   2   0  -5  252.27   14.30
   2   0  -5  236.68   14.70
  -2   0   5  233.08   14.10
  -2   0   5  266.37   16.70
  -2   0   5  228.58   14.10
  -2   0   5  194.58   14.60
  -2   0   5  214.98   14.10
   1   0  -5  146.89    9.60
   1   0  -5  150.18    9.60
   1   0  -5  155.48    9.30
  -1   0   5  136.29    8.90
  -1   0   5  145.29    9.50
  -1   0   5  154.38    9.50
  -1   0   5  136.59   11.00
   0   0  -5 1180.58   70.09
   0   0  -5 1318.27   68.99
   0   0  -5 1301.47   69.79
   0   0  -5 1347.67   70.09
   0   0  -5 1349.66   69.19
   0   0   5 1212.48   70.39
   0   0   5 1326.07   69.09
   0   0   5 1321.67   68.89
   0   0   5 1327.77   69.09
  -1   0  -5  334.27   20.10
  -1   0  -5  315.77   18.30
  -1   0  -5  357.36   18.00
  -1   0  -5  353.66   17.70
  -1   0  -5  278.57   19.20
  -1   0  -5  344.77   18.10
  -1   0  -5  352.56   18.30
  -1   0  -5  331.97   19.20
   1   0   5  363.26   18.30
   1   0   5  313.57   18.80
   1   0   5  315.97   18.20
   1   0   5  313.27   20.30
  -2   0  -5   14.90    1.80
  -2   0  -5    9.90    4.90
  -2   0  -5   10.70    1.90
  -2   0  -5   10.90    3.70
  -2   0  -5   14.20    2.80
  -2   0  -5   14.30    2.40
   2   0   5   15.80    3.30
   2   0   5    7.70    2.30
   2   0   5   12.50    2.10
   2   0   5    9.40    4.30
   2   0   5   12.10    1.40
   2   0   5   11.20    2.20
  -3   0  -5   80.79    6.10
  -3   0  -5   82.89    5.50
  -3   0  -5   79.49   11.50
  -3   0  -5   72.89   11.80
   3   0   5   76.99    6.40
   3   0   5   85.29    8.90
   3   0   5   73.79    6.50
   3   0   5   76.59    5.30
   3   0   5   79.99    5.10
   3   0   5   87.29    7.60
   3   0   5   85.49    5.60
  -4   0  -5   23.50    2.90
  -4   0  -5   21.50    9.20
  -4   0  -5   22.30    7.60
  -4   0  -5   19.10    3.30
   4   0   5   19.00    3.30
   4   0   5   24.10    3.30
   4   0   5   19.30    2.80
   4   0   5   16.80    5.10
   4   0   5   21.30    4.00
   4   0   5   21.80    2.80
   4   0   5   21.70    3.20
   4   0   5   22.40    5.00
   4   0   5   23.50    4.00
  -5   0  -5  184.08   13.00
  -5   0  -5  162.58   23.40
  -5   0  -5  165.78   21.30
   5   0   5  185.68   12.70
   5   0   5  198.68   11.10
   5   0   5  185.58   11.60
   5   0   5  186.38   12.80
   5   0   5  186.28   12.30
   5   0   5  180.58   16.80
   5   0   5  191.58   11.00
   5   0   5  183.58   11.90
   5   0   5  190.48   14.80
  -6   0  -5   -3.90   14.80
  -6   0  -5    4.30    4.20
   6   0   5   -1.80    4.70
   6   0   5   -4.40    7.10
   6   0   5    2.30    4.60
   6   0   5    1.60    2.70
   6   0   5   -0.60    2.80
   6   0   5    2.10    3.00
   6   0   5   -1.20    3.40
  -7   0  -5   19.00   19.40
  -7   0  -5   20.60    6.30
   7   0   5   23.10   10.50
   7   0   5   29.50    4.40
   7   0   5   28.90    4.10
   7   0   5   27.80    3.50
   7   0   5   23.80    6.80
   7   0   5   32.50    5.70
  -8   0  -5   84.39   18.60
   8   0   5   88.29    9.40
   8   0   5   90.69   10.60
   8   0   5   79.69   15.20
   8   0   5   91.99    9.40
   8   0   5   92.79   12.50
   8  -1  -5   80.59   11.40
   8  -1  -5   57.19   11.30
   8  -1  -5   70.09   13.60
  -8   1   5   93.09   14.10
  -8   1   5   38.10   15.00
  -8   1   5   80.19   24.50
  -8   1   5  110.39   20.20
   7  -1  -5  311.07   25.20
   7  -1  -5  426.16   27.10
   7  -1  -5  351.56   29.90
  -7   1   5  422.06   29.10
  -7   1   5  343.67   32.30
  -7   1   5  400.06   32.70
  -7   1   5  395.56   28.90
   6  -1  -5  181.08   15.00
   6  -1  -5  191.38   17.40
   6  -1  -5  188.28   17.00
   6  -1  -5  222.08   17.80
   6  -1  -5  217.38   21.40
  -6   1   5  240.28   19.50
  -6   1   5  196.98   21.90
  -6   1   5  223.48   22.20
  -6   1   5  215.08   16.10
  -6   1   5  236.88   19.30
   5  -1  -5   22.10    6.00
   5  -1  -5   16.70    6.10
   5  -1  -5   14.60    6.20
   5  -1  -5   16.30    6.50
   5  -1  -5   13.60    4.50
  -5   1   5   21.90    6.20
  -5   1   5    8.60    7.50
  -5   1   5    7.60    9.90
  -5   1   5   18.60    6.70
  -5   1   5   28.20    7.50
   4  -1  -5   14.70    6.10
   4  -1  -5   35.40    6.00
   4  -1  -5   16.00    5.00
   4  -1  -5   19.90    6.30
   4  -1  -5   14.40    4.90
   4  -1  -5   17.10    5.90
  -4   1   5   32.20    8.00
  -4   1   5   17.00    4.80
  -4   1   5   12.20    9.00
  -4   1   5   14.80    6.30
  -4   1   5   15.20    4.90
   3  -1  -5  287.17   18.90
   3  -1  -5  264.37   18.80
   3  -1  -5  337.27   19.90
   3  -1  -5  322.07   19.50
   3  -1  -5  319.37   18.60
  -3   1   5  305.27   18.30
  -3   1   5  272.97   19.10
  -3   1   5  295.87   18.20
   2  -1  -5 1035.70   52.99
   2  -1  -5  968.50   52.99
   2  -1  -5 1077.39   52.89
  -2   1   5  959.10   52.29
  -2   1   5  942.01   52.79
  -2   1   5  960.50   52.39
  -2   1   5  837.82   54.09
   1  -1  -5  201.08   11.70
   1  -1  -5  194.88   12.10
   1  -1  -5  201.08   11.90
  -1   1   5  176.78   13.40
  -1   1   5  199.38   11.70
  -1   1   5  173.88   11.20
  -1   1   5  193.98   11.60
  -1   1   5  179.08   13.30
   0  -1  -5 3732.13  178.38
   0  -1  -5 3199.68  178.48
   0  -1  -5 3568.64  178.18
   0  -1  -5 3364.76  178.58
   0   1   5 3154.38  179.58
   0   1   5 3310.27  177.98
   0   1   5 3509.75  178.18
   0   1   5 3055.09  178.78
   0   1   5 3469.15  178.08
  -1  -1  -5 1111.79   57.49
  -1  -1  -5 1081.49   58.59
  -1  -1  -5 1125.19   57.49
  -1  -1  -5 1036.40   57.89
  -1  -1  -5 1155.28   57.59
   1   1   5 1076.69   57.39
   1   1   5  985.90   59.19
   1   1   5  998.80   57.79
   1   1   5 1110.29   57.49
  -2  -1  -5  157.78    9.50
  -2  -1  -5  169.58   10.40
  -2  -1  -5  162.28   10.30
  -2  -1  -5  153.98   12.70
  -2  -1  -5  162.18    9.30
  -2  -1  -5  145.99   10.50
   2   1   5  160.78    9.60
   2   1   5  164.68    8.60
   2   1   5  162.48    9.80
   2   1   5  158.88    9.80
   2   1   5  160.48    9.70
   2   1   5  156.28   12.70
   2   1   5  159.08    9.50
  -3  -1  -5   14.60    2.50
  -3  -1  -5   14.90    1.80
  -3  -1  -5   16.50    5.90
  -3  -1  -5   11.20    2.50
  -3  -1  -5   13.10    1.90
  -3  -1  -5   13.90    4.00
  -3  -1  -5   20.90    3.10
   3   1   5   11.70    2.20
   3   1   5   14.40    2.30
   3   1   5    9.80    2.00
   3   1   5    9.10    2.20
   3   1   5    9.80    3.00
   3   1   5   13.10    3.00
   3   1   5    9.70    3.90
   3   1   5   12.20    4.90
  -4  -1  -5  639.84   35.20
  -4  -1  -5  683.83   35.20
  -4  -1  -5  608.34   40.70
  -4  -1  -5  636.84   35.80
  -4  -1  -5  605.24   38.30
  -4  -1  -5  628.94   36.00
   4   1   5  654.53   36.10
   4   1   5  678.13   35.50
   4   1   5  673.63   35.60
   4   1   5  674.83   35.90
   4   1   5  675.23   35.90
   4   1   5  664.73   37.40
   4   1   5  693.33   35.40
  -5  -1  -5   -0.10    6.00
  -5  -1  -5   -3.40    2.70
  -5  -1  -5   -4.80    9.40
  -5  -1  -5    3.30    3.10
   5   1   5    2.70    2.20
   5   1   5    0.30    3.80
   5   1   5    5.00    5.40
   5   1   5    3.40    2.90
   5   1   5    0.30    2.50
   5   1   5    2.60    2.10
   5   1   5   -0.70    2.90
  -6  -1  -5  259.57   32.10
  -6  -1  -5  333.47   21.30
  -6  -1  -5  336.07   28.20
   6   1   5  332.67   20.30
   6   1   5  345.87   20.20
   6   1   5  322.67   25.30
   6   1   5  347.47   21.00
   6   1   5  360.16   19.30
   6   1   5  358.46   19.40
   6   1   5  338.27   19.30
  -7  -1  -5  222.78   26.20
  -7  -1  -5  167.78   26.10
  -7  -1  -5  206.28   16.80
   7   1   5  196.78   14.70
   7   1   5  192.48   12.60
   7   1   5  187.68   22.40
   7   1   5  212.08   15.80
   7   1   5  189.88   11.90
   7   1   5  193.38   12.90
  -8  -1  -5   29.70    8.40
  -8  -1  -5   46.70   23.40
  -8  -1  -5   34.90   16.10
   8   1   5   28.20    7.20
   8   1   5   35.00    5.70
   8   1   5   31.50   12.90
   8   1   5   32.70    3.80
   8   1   5   38.00    5.40
   8   1   5   38.60    8.90
   7  -2  -5  246.18   24.20
   7  -2  -5  222.98   21.00
   7  -2  -5  241.18   19.80
   7  -2  -5  209.98   20.90
  -7   2   5  277.07   23.50
  -7   2   5  291.57   34.20
  -7   2   5  251.57   27.90
  -7   2   5  216.38   29.10
  -7   2   5  309.17   25.80
   6  -2  -5    6.30    5.20
   6  -2  -5    8.60    7.20
   6  -2  -5    2.90    7.40
   6  -2  -5   12.80    7.60
   6  -2  -5   12.30    6.10
  -6   2   5   21.20    7.90
  -6   2   5   10.40   10.30
  -6   2   5   -0.80   13.90
  -6   2   5   21.40    8.60
  -6   2   5    6.40    6.30
  -6   2   5   11.20   10.70
   5  -2  -5  113.49   14.70
   5  -2  -5   96.39   11.00
   5  -2  -5  106.69   11.40
   5  -2  -5  101.99   13.30
   5  -2  -5  130.09   14.30
  -5   2   5  152.58   14.20
  -5   2   5   79.19   15.30
  -5   2   5  149.79   16.90
  -5   2   5  120.19   13.90
  -5   2   5  113.49   17.00
   4  -2  -5  119.69   13.00
   4  -2  -5  142.29   13.80
   4  -2  -5  132.99   12.00
   4  -2  -5  137.79   11.50
  -4   2   5  145.09   12.00
  -4   2   5  168.78   15.40
  -4   2   5  138.59   15.10
  -4   2   5  162.08   12.30
   3  -2  -5  216.98   13.80
   3  -2  -5  208.58   14.60
   3  -2  -5  223.48   15.10
  -3   2   5  188.58   17.90
  -3   2   5  233.88   13.90
  -3   2   5  205.38   15.80
  -3   2   5  191.08   17.60
  -3   2   5  224.48   14.00
   2  -2  -5   28.20    4.40
   2  -2  -5   38.40    5.70
   2  -2  -5   40.40    5.20
  -2   2   5   26.90    7.60
  -2   2   5   37.10    6.10
  -2   2   5   28.40    5.10
  -2   2   5   42.20    5.50
  -2   2   5   41.40    5.70
   1  -2  -5 2397.96  127.09
   1  -2  -5 2338.87  126.69
   1  -2  -5 2574.34  127.19
   1  -2  -5 2478.05  127.39
  -1   2   5 2374.36  126.89
  -1   2   5 2366.06  126.99
  -1   2   5 2251.67  129.19
  -1   2   5 2441.06  127.99
  -1   2   5 2330.37  126.79
   0  -2  -5 1519.15   85.29
   0  -2  -5 1633.24   84.39
   0  -2  -5 1683.13   85.19
   0  -2  -5 1681.43   85.49
   0  -2  -5 1699.83   85.39
   0   2   5 1513.45   84.89
   0   2   5 1472.85   87.09
   0   2   5 1686.63   85.19
   0   2   5 1510.75   85.69
  -1  -2  -5   93.29    8.20
  -1  -2  -5   82.59    6.20
  -1  -2  -5   90.69    6.90
  -1  -2  -5   88.79    6.20
  -1  -2  -5   86.99    6.70
   1   2   5   81.29    6.00
   1   2   5   83.29    6.20
   1   2   5   94.29    6.90
  -2  -2  -5   41.20    5.00
  -2  -2  -5   32.20    5.50
  -2  -2  -5   32.90    3.90
  -2  -2  -5   49.30    5.40
  -2  -2  -5   38.90    3.80
   2   2   5   33.30    5.10
   2   2   5   30.70    4.20
   2   2   5   42.60    4.30
   2   2   5   31.60    4.00
   2   2   5   35.50    2.30
   2   2   5   37.80    3.90
  -3  -2  -5  235.28   14.30
  -3  -2  -5  215.18   12.80
  -3  -2  -5  204.28   16.80
  -3  -2  -5  229.68   13.50
  -3  -2  -5  215.28   12.70
   3   2   5  214.58   12.70
   3   2   5  225.38   12.90
   3   2   5  213.58   12.80
   3   2   5  215.68   14.10
   3   2   5  218.38   12.90
   3   2   5  219.98   13.80
   3   2   5  217.08   12.90
  -4  -2  -5   15.90    4.40
  -4  -2  -5   11.20    3.10
  -4  -2  -5   14.40    2.60
  -4  -2  -5    9.20    7.10
  -4  -2  -5   11.50    3.40
  -4  -2  -5   14.10    2.40
   4   2   5   15.80    3.60
   4   2   5   12.00    4.00
   4   2   5   12.80    3.00
   4   2   5   10.50    3.00
   4   2   5   18.10    2.70
   4   2   5   18.30    3.60
   4   2   5   12.70    2.40
  -5  -2  -5   17.10   10.30
  -5  -2  -5   28.40    3.50
  -5  -2  -5   31.40    6.50
  -5  -2  -5   26.90    4.60
  -5  -2  -5   22.20    4.00
  -5  -2  -5   19.40    3.40
   5   2   5   23.80    4.10
   5   2   5   22.40    5.60
   5   2   5   26.60    3.30
   5   2   5   21.90    4.10
   5   2   5   23.30    3.70
   5   2   5   25.50    3.40
  -6  -2  -5  322.87   20.30
  -6  -2  -5  368.66   21.40
  -6  -2  -5  339.17   21.50
  -6  -2  -5  356.16   25.70
  -6  -2  -5  272.87   30.50
   6   2   5  362.76   20.70
   6   2   5  354.96   21.30
   6   2   5  360.26   25.50
   6   2   5  359.36   20.10
   6   2   5  350.46   21.20
   6   2   5  352.86   20.10
   6   2   5  354.26   19.90
  -7  -2  -5  232.08   23.50
  -7  -2  -5  212.48   15.70
  -7  -2  -5  212.18   14.40
  -7  -2  -5  214.68   16.90
  -7  -2  -5  145.49   23.70
   7   2   5  215.78   15.40
   7   2   5  203.08   12.80
   7   2   5  220.58   13.70
   7   2   5  209.28   13.50
   7   2   5  195.38   22.30
   7   2   5  216.88   16.00
  -8  -2  -5   22.40    7.50
  -8  -2  -5   17.90   13.60
  -8  -2  -5   23.10   20.60
   8   2   5   20.50    3.90
   8   2   5   17.00    7.20
   8   2   5   20.60    5.50
   8   2   5    4.00   10.90
   8   2   5   16.10    6.50
   8   2   5   19.30    4.60
  -9  -2  -5   -6.30   23.10
  -9  -2  -5   -0.30    8.80
   9   2   5    1.30    3.10
   9   2   5    1.10    7.50
   9   2   5    7.00    6.40
   9   2   5    1.30    8.00
   9   2   5  -12.90   12.40
   7  -3  -5   56.29    8.50
   7  -3  -5   38.40    9.60
   7  -3  -5   46.10   11.30
  -7   3   5   32.20   15.30
  -7   3   5   55.49   14.80
  -7   3   5   78.89   11.70
  -7   3   5   79.69   13.50
   6  -3  -5   18.50    5.90
   6  -3  -5   17.90    8.50
   6  -3  -5   11.60    8.70
   6  -3  -5    6.50    6.50
  -6   3   5   24.50    8.90
  -6   3   5   32.50    8.60
  -6   3   5   15.00   11.40
  -6   3   5   14.40   10.60
  -6   3   5   17.10    6.80
  -6   3   5   -6.80   14.80
   5  -3  -5   12.80    5.00
   5  -3  -5    8.70    7.80
   5  -3  -5    4.40    5.40
   5  -3  -5   11.40    6.20
  -5   3   5    8.60    8.70
  -5   3   5   14.00    8.90
  -5   3   5   22.00    8.10
  -5   3   5   17.50    6.50
  -5   3   5    0.10   15.50
  -5   3   5   27.50    7.10
   4  -3  -5  304.07   21.20
   4  -3  -5  306.17   19.00
   4  -3  -5  298.07   20.40
  -4   3   5  339.67   19.90
  -4   3   5  316.37   23.30
  -4   3   5  290.57   26.50
  -4   3   5  303.97   22.00
   3  -3  -5   23.70    4.00
   3  -3  -5   32.00    5.80
   3  -3  -5   23.80    4.80
   3  -3  -5   20.20    4.40
  -3   3   5   17.80    7.70
  -3   3   5   12.50    5.80
  -3   3   5   19.50    4.10
  -3   3   5   18.00    6.90
   2  -3  -5 1796.02   89.09
   2  -3  -5 1739.53   88.19
   2  -3  -5 1665.13   88.49
   2  -3  -5 1633.44   89.19
   2  -3  -5 1777.32   87.49
  -2   3   5 1685.13   88.59
  -2   3   5 1578.94   89.89
  -2   3   5 1457.05   90.59
  -2   3   5 1605.04   89.89
  -2   3   5 1626.24   88.39
   1  -3  -5 1629.94   87.19
   1  -3  -5 1643.34   86.49
   1  -3  -5 1673.33   87.09
   1  -3  -5 1676.93   87.49
  -1   3   5 1653.63   87.99
  -1   3   5 1508.45   86.89
  -1   3   5 1525.05   89.19
  -1   3   5 1710.33   86.99
  -1   3   5 1663.73   86.99
   0  -3  -5  217.78   13.20
   0  -3  -5  217.98   12.90
   0  -3  -5  221.68   13.20
   0  -3  -5  216.58   12.00
   0  -3  -5  223.68   13.50
   0   3   5  193.68   12.70
   0   3   5  202.78   16.20
   0   3   5  224.68   13.80
   0   3   5  221.58   13.00
  -1  -3  -5    2.90    2.20
  -1  -3  -5   -0.10    2.40
  -1  -3  -5   -3.00    3.50
  -1  -3  -5    1.40    1.80
  -1  -3  -5    3.80    2.60
   1   3   5    2.50    1.10
   1   3   5    0.60    1.80
   1   3   5    5.80    4.40
   1   3   5    1.60    2.50
   1   3   5    0.20    2.30
  -2  -3  -5   59.09    5.20
  -2  -3  -5   63.19    9.00
  -2  -3  -5   61.59    5.00
  -2  -3  -5   65.59    6.50
  -2  -3  -5   76.39    6.90
   2   3   5   58.79    5.30
   2   3   5   58.39    3.70
   2   3   5   53.39    5.40
   2   3   5   67.89    7.90
   2   3   5   63.79    5.90
   2   3   5   55.49    5.20
   2   3   5   57.09    4.70
  -3  -3  -5  493.55   27.20
  -3  -3  -5  484.85   26.00
  -3  -3  -5  434.66   29.20
  -3  -3  -5  461.55   26.50
  -3  -3  -5  474.25   25.80
   3   3   5  469.45   27.00
   3   3   5  482.85   25.80
   3   3   5  460.25   27.00
   3   3   5  458.85   25.90
   3   3   5  464.75   26.20
   3   3   5  474.35   26.10
   3   3   5  479.35   26.00
  -4  -3  -5    2.40    3.50
  -4  -3  -5   -0.10    2.00
  -4  -3  -5    0.40    3.50
   4   3   5    3.10    2.50
   4   3   5   -2.00    2.20
   4   3   5    1.10    2.30
   4   3   5    0.10    3.00
   4   3   5   -1.10    2.50
   4   3   5    4.00    3.70
   4   3   5    3.80    3.30
  -5  -3  -5  623.34   35.00
  -5  -3  -5  618.44   36.50
  -5  -3  -5  635.44   34.10
  -5  -3  -5  628.64   33.10
  -5  -3  -5  545.25   40.10
  -5  -3  -5  584.54   34.40
   5   3   5  650.63   34.10
   5   3   5  615.74   34.50
   5   3   5  632.14   34.20
   5   3   5  637.94   34.70
   5   3   5  627.14   34.20
   5   3   5  631.34   36.70
   5   3   5  619.54   34.30
  -6  -3  -5  725.33   40.90
  -6  -3  -5  718.73   43.50
  -6  -3  -5  747.73   40.20
  -6  -3  -5  592.14   48.00
  -6  -3  -5  771.92   41.30
   6   3   5  696.53   40.50
   6   3   5  763.12   41.00
   6   3   5  752.32   44.20
   6   3   5  746.73   40.10
   6   3   5  717.13   40.80
   6   3   5  732.73   40.10
   6   3   5  773.42   40.40
  -7  -3  -5  182.88   20.70
  -7  -3  -5  215.48   16.70
  -7  -3  -5  148.89   23.40
  -7  -3  -5  186.28   14.00
  -7  -3  -5  209.58   16.20
   7   3   5  196.28   15.50
   7   3   5  204.18   21.70
   7   3   5  199.68   15.40
   7   3   5  203.38   13.10
   7   3   5  195.48   13.90
   7   3   5  212.48   13.50
  -8  -3  -5    0.10    8.10
  -8  -3  -5   -4.10    5.80
  -8  -3  -5  -12.10   18.80
  -8  -3  -5   -4.60    6.50
   8   3   5    1.80    5.30
   8   3   5    2.00    3.70
   8   3   5    2.10    4.10
   8   3   5    4.60    6.70
   8   3   5    3.70    6.40
   8   3   5   -7.50    9.70
  -9  -3  -5    6.60    9.00
  -9  -3  -5  -14.60   31.20
  -9  -3  -5   -0.50    7.30
  -9  -3  -5   -7.30    9.50
   9   3   5   -1.40    4.30
   9   3   5   -2.50    7.90
   9   3   5   -2.80    7.80
   9   3   5   -2.90    6.50
   9   3   5  -15.50   11.30
   6  -4  -5   40.50    6.90
   6  -4  -5   48.90    9.30
  -6   4   5   40.60   16.90
  -6   4   5   59.19   13.40
  -6   4   5   45.00   14.50
   5  -4  -5   65.19    9.70
   5  -4  -5   92.89   10.50
   5  -4  -5   89.69   15.00
  -5   4   5   73.79   15.10
  -5   4   5   97.29   18.70
  -5   4   5  116.99   15.90
  -5   4   5  125.99   13.00
  -5   4   5  119.09   14.80
   4  -4  -5   51.99    7.50
   4  -4  -5   59.99    8.10
   4  -4  -5   47.40    7.00
   4  -4  -5   91.59   10.20
  -4   4   5   62.99    9.20
  -4   4   5   70.89   10.70
  -4   4   5   49.99    9.80
  -4   4   5   46.20    9.90
  -4   4   5   64.59   11.10
   3  -4  -5  182.78   13.30
   3  -4  -5  168.68   11.80
   3  -4  -5  162.58   12.80
   3  -4  -5  163.08   12.00
  -3   4   5  170.98   11.90
  -3   4   5  132.19   16.60
  -3   4   5  149.99   15.90
  -3   4   5  166.58   11.90
  -3   4   5  154.98   16.10
   2  -4  -5 1195.18   58.99
   2  -4  -5 1167.98   60.69
   2  -4  -5 1211.38   60.59
   2  -4  -5 1173.88   59.99
   2  -4  -5 1125.49   60.09
  -2   4   5  922.91   61.69
  -2   4   5  976.00   62.29
  -2   4   5 1069.49   61.79
  -2   4   5 1108.59   61.39
  -2   4   5 1117.29   59.89
   1  -4  -5 2078.29  107.89
   1  -4  -5 2097.79  108.49
   1  -4  -5 2070.19  108.89
   1  -4  -5 2201.58  108.79
   1  -4  -5 1918.31  109.09
  -1   4   5 1999.90  108.39
  -1   4   5 2132.09  108.29
  -1   4   5 1855.21  110.49
  -1   4   5 1954.10  109.89
  -1   4   5 2054.59  109.29
   0  -4  -5   48.10    4.40
   0  -4  -5   50.99    6.80
   0  -4  -5   52.79    6.30
   0  -4  -5   53.29    7.60
   0  -4  -5   64.59    5.80
   0   4   5   57.79    6.90
   0   4   5   56.19    5.90
   0   4   5   57.59    8.40
   0   4   5   52.09    5.90
  -1  -4  -5   14.30    3.60
  -1  -4  -5   15.30    4.90
  -1  -4  -5    9.60    2.50
  -1  -4  -5   15.60    2.10
  -1  -4  -5   14.90    3.20
   1   4   5   20.40    3.60
   1   4   5    9.90    2.70
   1   4   5    9.60    2.70
   1   4   5   17.70    6.00
   1   4   5   14.90    1.90
  -2  -4  -5  447.56   24.80
  -2  -4  -5  426.66   25.40
  -2  -4  -5  424.86   23.30
  -2  -4  -5  429.46   24.10
  -2  -4  -5  449.56   23.80
   2   4   5  369.46   28.30
   2   4   5  403.96   25.20
   2   4   5  405.26   23.40
   2   4   5  433.76   22.70
   2   4   5  425.86   23.00
   2   4   5  407.86   23.60
   2   4   5  420.96   23.70
  -3  -4  -5   11.80    6.30
  -3  -4  -5   16.60    3.40
  -3  -4  -5   21.10    4.90
  -3  -4  -5   24.00    4.20
  -3  -4  -5   21.40    4.00
   3   4   5   19.00    3.50
   3   4   5   24.60    2.50
   3   4   5   23.30    3.40
   3   4   5   23.70    3.70
   3   4   5   17.40    4.20
   3   4   5   17.10    3.30
   3   4   5   20.60    2.70
  -4  -4  -5  792.12   41.20
  -4  -4  -5  676.13   41.80
  -4  -4  -5  701.03   43.70
  -4  -4  -5  796.82   43.00
  -4  -4  -5  743.23   41.90
   4   4   5  767.32   41.10
   4   4   5  773.72   42.10
   4   4   5  770.22   41.50
   4   4   5  798.12   41.40
   4   4   5  735.93   41.40
   4   4   5  800.52   41.80
   4   4   5  750.92   43.00
  -5  -4  -5 1498.45   81.09
  -5  -4  -5 1579.94   81.09
  -5  -4  -5 1486.15   81.79
  -5  -4  -5 1655.83   83.29
  -5  -4  -5 1332.97   85.79
  -5  -4  -5 1326.47   83.59
   5   4   5 1524.15   83.29
   5   4   5 1539.25   81.09
   5   4   5 1506.55   81.59
   5   4   5 1541.75   81.29
   5   4   5 1557.54   80.99
   5   4   5 1565.34   81.49
   5   4   5 1556.14   81.19
  -6  -4  -5  417.76   36.50
  -6  -4  -5  462.45   28.10
  -6  -4  -5  482.45   30.90
  -6  -4  -5  499.95   27.70
  -6  -4  -5  488.75   29.10
   6   4   5  485.75   27.60
   6   4   5  488.75   27.60
   6   4   5  496.95   28.50
   6   4   5  490.55   27.60
   6   4   5  494.25   27.70
   6   4   5  495.25   31.60
   6   4   5  506.05   28.80
  -7  -4  -5   26.20   16.50
  -7  -4  -5   21.10    7.40
  -7  -4  -5   17.40    5.60
  -7  -4  -5   34.40    5.60
   7   4   5   27.30    9.50
   7   4   5   27.80    4.30
   7   4   5   27.50    4.80
   7   4   5   24.10    5.00
   7   4   5   24.90    5.00
   7   4   5   31.00    6.60
   7   4   5   20.70    6.00
  -8  -4  -5   -4.70    5.80
  -8  -4  -5   -1.70    6.50
  -8  -4  -5   -3.70   17.90
  -8  -4  -5   -3.10    8.70
   8   4   5   -2.30    6.30
   8   4   5    0.90    4.80
   8   4   5    3.80    7.50
   8   4   5   -6.70    9.60
   8   4   5    3.60    5.50
   8   4   5    4.30    5.30
   6  -5  -5   43.50    9.90
   6  -5  -5   56.99    7.80
  -6   5   5   86.89   16.50
  -6   5   5   22.10   14.90
  -6   5   5   45.60   13.70
   5  -5  -5   60.09   10.10
  -5   5   5   76.49   13.90
  -5   5   5   69.89   14.40
  -5   5   5   90.39   12.70
  -5   5   5  108.89   14.20
   4  -5  -5   19.90    7.10
   4  -5  -5    8.70    5.70
   4  -5  -5   14.80    6.40
   4  -5  -5    9.40    4.50
  -4   5   5   -0.60    8.40
  -4   5   5   15.60    5.70
  -4   5   5    4.30    9.10
  -4   5   5   12.60    9.90
  -4   5   5   14.00    5.70
  -4   5   5    7.40   10.70
   3  -5  -5 1265.07   65.69
   3  -5  -5 1187.78   64.79
   3  -5  -5 1141.09   65.69
   3  -5  -5 1223.58   64.69
  -3   5   5 1123.09   64.49
  -3   5   5 1277.47   64.69
  -3   5   5 1143.39   66.69
  -3   5   5 1180.88   68.19
   2  -5  -5 1750.22   95.79
   2  -5  -5 1728.33   94.79
   2  -5  -5 1887.21   95.69
   2  -5  -5 1824.92   95.09
   2  -5  -5 1880.81   95.09
  -2   5   5 1816.52   94.99
  -2   5   5 1664.43   97.39
  -2   5   5 1770.52   96.49
  -2   5   5 1910.71   94.99
  -2   5   5 1523.15   97.49
   1  -5  -5  117.09    9.40
   1  -5  -5  116.99    9.40
   1  -5  -5  110.39    8.80
   1  -5  -5  115.09   10.30
   1  -5  -5  111.59    9.10
  -1   5   5  121.79   14.80
  -1   5   5  117.49    9.20
  -1   5   5  122.79    9.10
  -1   5   5  104.09   12.80
  -1   5   5   88.89   14.50
   0  -5  -5   -1.20    3.40
   0  -5  -5    2.80    2.50
   0  -5  -5   -4.30    2.90
   0  -5  -5    0.80    2.20
   0  -5  -5   -2.20    4.10
   0   5   5    0.30    3.70
   0   5   5    0.70    2.20
   0   5   5    2.10    3.30
   0   5   5   -1.40    5.80
   0   5   5    1.90    3.00
  -1  -5  -5  234.98   13.00
  -1  -5  -5  233.78   14.20
  -1  -5  -5  234.38   15.60
  -1  -5  -5  217.08   14.40
  -1  -5  -5  223.18   14.40
   1   5   5  208.38   13.90
   1   5   5  230.68   17.20
   1   5   5  213.88   14.90
   1   5   5  230.18   12.80
   1   5   5  214.28   13.70
   1   5   5  239.88   14.60
  -2  -5  -5  192.68   13.60
  -2  -5  -5  215.78   14.70
  -2  -5  -5  221.88   13.20
  -2  -5  -5  211.38   15.30
   2   5   5  212.98   12.90
   2   5   5  195.38   13.10
   2   5   5  200.08   15.60
   2   5   5  199.58   11.80
   2   5   5  207.88   13.40
   2   5   5  207.88   13.00
   2   5   5  211.68   11.80
  -3  -5  -5  657.13   38.70
  -3  -5  -5  663.63   36.30
  -3  -5  -5  671.13   36.80
  -3  -5  -5  660.23   37.20
  -3  -5  -5  706.83   38.40
   3   5   5  658.13   36.50
   3   5   5  692.53   36.80
   3   5   5  672.23   37.10
   3   5   5  680.23   38.10
   3   5   5  657.13   35.80
   3   5   5  657.03   37.00
   3   5   5  650.03   36.00
  -4  -5  -5 1284.17   73.89
  -4  -5  -5 1329.87   72.29
  -4  -5  -5 1341.87   71.29
  -4  -5  -5 1382.26   73.29
  -4  -5  -5 1353.56   71.79
   4   5   5 1296.27   71.89
   4   5   5 1384.46   71.79
   4   5   5 1301.57   72.39
   4   5   5 1341.07   70.89
   4   5   5 1344.07   71.19
   4   5   5 1308.87   71.49
   4   5   5 1342.97   72.09
  -5  -5  -5 1182.18   62.19
  -5  -5  -5 1154.08   63.09
  -5  -5  -5 1069.49   65.09
  -5  -5  -5 1172.68   64.09
   5   5   5 1129.79   62.79
   5   5   5 1172.98   62.69
   5   5   5 1129.29   62.39
   5   5   5 1151.38   62.29
   5   5   5 1190.78   62.19
   5   5   5 1141.59   64.59
  -6  -5  -5   54.99    8.10
  -6  -5  -5   62.79    7.80
  -6  -5  -5   47.20    7.50
  -6  -5  -5   48.40   11.50
  -6  -5  -5   54.89    7.70
   6   5   5   56.99    7.00
   6   5   5   35.10    6.30
   6   5   5   58.99    8.20
   6   5   5   58.99    9.50
   6   5   5   49.20    6.80
   6   5   5   50.49    7.70
   6   5   5   61.29    8.00
  -7  -5  -5   -3.90    7.00
  -7  -5  -5   -4.90    7.60
  -7  -5  -5    9.30    4.90
  -7  -5  -5   13.70   15.40
  -7  -5  -5    4.10    4.90
   7   5   5    7.60    6.20
   7   5   5    4.50    8.20
   7   5   5   -1.10    4.60
   7   5   5    4.90    4.80
   7   5   5    5.20    5.20
   7   5   5    0.70    3.40
   7   5   5   -0.80    5.60
  -8  -5  -5   -2.20    6.20
  -8  -5  -5   -3.50    9.00
  -8  -5  -5   14.30   18.70
  -8  -5  -5    2.60    6.60
   8   5   5   -0.30    6.40
   8   5   5    0.40    5.40
   8   5   5   -3.30    6.80
   8   5   5   -0.50    7.70
   8   5   5    3.90   10.20
   5  -6  -5   -3.10    5.10
  -5   6   5    5.60   10.70
  -5   6   5   13.40   12.80
  -5   6   5   10.60    7.60
  -5   6   5    3.30    8.10
  -5   6   5   -7.90   12.60
  -5   6   5  -13.80   12.50
   4  -6  -5  347.67   25.60
   4  -6  -5  431.86   25.90
   4  -6  -5  408.46   23.50
   4  -6  -5  335.37   24.40
  -4   6   5  363.56   28.80
  -4   6   5  299.77   29.00
  -4   6   5  406.46   31.50
  -4   6   5  455.35   31.10
   3  -6  -5  737.23   39.30
   3  -6  -5  747.93   40.70
   3  -6  -5  729.43   39.40
   3  -6  -5  660.33   40.40
   3  -6  -5  760.22   37.80
   3  -6  -5  707.73   39.60
  -3   6   5  697.13   42.30
  -3   6   5  602.14   42.10
  -3   6   5  764.02   39.40
  -3   6   5  587.84   44.60
  -3   6   5  705.83   39.40
  -3   6   5  680.83   44.30
   2  -6  -5  199.68   13.70
   2  -6  -5  200.58   13.40
   2  -6  -5  203.28   14.10
   2  -6  -5  199.28   14.00
   2  -6  -5  200.88   14.00
  -2   6   5  165.68   18.50
  -2   6   5  185.88   13.30
  -2   6   5  188.68   13.50
  -2   6   5  162.58   21.80
  -2   6   5  173.98   16.40
   1  -6  -5   32.70    5.10
   1  -6  -5   24.50    4.70
   1  -6  -5   30.80    4.40
   1  -6  -5   28.00    5.60
   1  -6  -5   31.60    5.00
  -1   6   5   38.70    6.70
  -1   6   5   21.90    7.20
  -1   6   5   21.20    5.70
  -1   6   5   25.30   10.20
  -1   6   5   27.00    7.80
  -1   6   5   37.20    5.40
  -1   6   5   28.20    4.60
   0  -6  -5   83.99    9.20
   0  -6  -5   97.99    8.20
   0  -6  -5   92.69   10.30
   0  -6  -5   85.29    7.60
   0  -6  -5   86.39    7.20
   0   6   5   72.09    8.60
   0   6   5   98.29   10.10
   0   6   5   89.29    6.60
   0   6   5   77.39    8.10
   0   6   5   90.79    6.80
   0   6   5   90.59    8.40
   0   6   5   90.79   11.70
  -1  -6  -5   96.79    8.50
  -1  -6  -5  100.89    9.30
  -1  -6  -5   89.39    7.60
  -1  -6  -5  100.89    7.20
  -1  -6  -5  105.99   11.10
   1   6   5   90.49    6.00
   1   6   5   98.19   13.00
   1   6   5   93.29    8.30
   1   6   5   92.89    6.90
   1   6   5   96.79    9.50
   1   6   5   95.69    8.20
   1   6   5   97.49    8.50
  -2  -6  -5   20.20    4.90
  -2  -6  -5   19.50    3.50
  -2  -6  -5   24.50    4.40
  -2  -6  -5   21.00    4.80
  -2  -6  -5   27.20    7.20
   2   6   5   15.60    3.60
   2   6   5   23.50    4.20
   2   6   5   26.70    3.10
   2   6   5   22.90    4.00
   2   6   5   19.70    4.20
   2   6   5   22.80    7.20
   2   6   5   24.10    3.50
  -3  -6  -5  670.43   38.80
  -3  -6  -5  668.73   38.30
  -3  -6  -5  661.13   37.00
  -3  -6  -5  643.34   36.60
  -3  -6  -5  655.83   35.90
   3   6   5  658.53   35.50
   3   6   5  676.73   37.00
   3   6   5  675.93   35.60
   3   6   5  625.24   36.10
   3   6   5  653.33   38.00
   3   6   5  632.44   36.70
   3   6   5  668.53   36.50
  -4  -6  -5 1699.23   91.79
  -4  -6  -5 1653.33   93.39
  -4  -6  -5 1703.83   90.69
  -4  -6  -5 1748.82   92.99
  -4  -6  -5 1725.53   91.29
   4   6   5 1734.23   91.69
   4   6   5 1648.44   90.89
   4   6   5 1657.03   90.39
   4   6   5 1684.93   91.49
   4   6   5 1740.13   91.29
   4   6   5 1737.53   90.69
   4   6   5 1696.53   92.19
  -5  -6  -5  533.45   32.40
  -5  -6  -5  529.35   30.10
  -5  -6  -5  527.05   34.60
  -5  -6  -5  522.25   31.50
   5   6   5  541.05   30.20
   5   6   5  553.24   29.90
   5   6   5  526.75   30.30
   5   6   5  521.65   30.80
   5   6   5  515.95   29.40
   5   6   5  519.65   31.00
  -6  -6  -5   17.60    2.70
  -6  -6  -5   11.20    6.50
  -6  -6  -5   22.40   11.30
  -6  -6  -5   18.20    4.50
   6   6   5   13.00    5.60
   6   6   5   23.10    6.10
   6   6   5   20.70    8.20
   6   6   5   20.10    4.90
   6   6   5   17.60    5.20
   6   6   5   20.40    5.40
  -7  -6  -5   22.80    6.00
  -7  -6  -5   19.60    8.30
  -7  -6  -5   26.10    5.60
  -7  -6  -5   23.90   13.30
   7   6   5   19.80    6.90
   7   6   5   33.70    6.90
   7   6   5   27.40    6.10
   7   6   5   28.50    9.90
   7   6   5   28.80    7.30
  -8  -6  -5    7.00    6.10
  -8  -6  -5    6.40   18.90
  -8  -6  -5   -4.60    9.60
   8   6   5    5.90    9.60
   8   6   5    1.70    6.70
   8   6   5    8.00    7.90
   8   6   5    4.80    6.50
   4  -7  -5  296.27   20.40
  -4   7   5  323.47   21.70
  -4   7   5  348.57   31.90
  -4   7   5  285.17   28.00
  -4   7   5  260.77   24.90
  -4   7   5  334.87   30.80
   3  -7  -5  306.27   19.80
   3  -7  -5  274.37   21.20
   3  -7  -5  320.67   18.00
   3  -7  -5  318.37   22.00
   3  -7  -5  320.47   19.70
   3  -7  -5  248.38   20.60
  -3   7   5  292.17   27.00
  -3   7   5  293.47   23.60
  -3   7   5  339.67   19.70
  -3   7   5  279.57   24.60
  -3   7   5  276.67   30.20
   2  -7  -5  106.29   11.00
   2  -7  -5  108.49   10.70
   2  -7  -5  108.79   11.40
   2  -7  -5   83.79   10.40
   2  -7  -5   93.79   10.70
  -2   7   5   79.79   10.50
  -2   7   5   97.69   14.10
  -2   7   5   98.39   10.00
  -2   7   5   96.09   16.30
  -2   7   5  117.89   12.70
   1  -7  -5    7.70    4.10
   1  -7  -5    8.70    4.80
   1  -7  -5    5.90    4.60
   1  -7  -5    9.30    4.30
   1  -7  -5    7.60    5.50
  -1   7   5   10.60    4.20
  -1   7   5    4.60    6.90
  -1   7   5    1.30    4.30
  -1   7   5   10.60    4.10
  -1   7   5   -1.60    7.80
  -1   7   5    1.60   10.40
   0  -7  -5  330.77   20.00
   0  -7  -5  330.57   18.90
   0  -7  -5  315.27   21.10
   0  -7  -5  325.07   19.10
   0  -7  -5  319.27   19.80
   0   7   5  307.07   19.60
   0   7   5  324.97   19.60
   0   7   5  302.67   24.50
   0   7   5  299.87   26.00
   0   7   5  326.37   18.50
   0   7   5  316.27   18.50
   0   7   5  329.17   21.60
  -1  -7  -5    5.30    3.50
  -1  -7  -5    1.80    5.60
  -1  -7  -5    0.70    3.40
  -1  -7  -5    1.70    4.40
  -1  -7  -5   -2.30    5.00
  -1  -7  -5    4.80    3.50
   1   7   5   -1.70    3.70
   1   7   5    2.80    3.60
   1   7   5    5.20    3.00
   1   7   5    8.00    5.00
   1   7   5   -0.60    4.10
   1   7   5   -1.00    7.80
   1   7   5    4.10    3.00
  -2  -7  -5  552.94   31.40
  -2  -7  -5  588.34   34.10
  -2  -7  -5  563.94   32.80
  -2  -7  -5  569.14   34.40
   2   7   5  586.14   32.30
   2   7   5  544.55   31.80
   2   7   5  610.44   33.10
   2   7   5  555.84   32.20
   2   7   5  559.54   31.10
  -3  -7  -5 1473.75   82.59
  -3  -7  -5 1470.55   81.19
  -3  -7  -5 1537.75   80.09
  -3  -7  -5 1564.54   82.89
   3   7   5 1485.25   80.99
   3   7   5 1444.36   80.29
   3   7   5 1440.86   81.29
   3   7   5 1525.75   79.79
   3   7   5 1553.44   80.89
  -4  -7  -5  766.52   44.30
  -4  -7  -5  706.43   41.50
  -4  -7  -5  708.93   40.70
  -4  -7  -5  733.33   39.90
  -4  -7  -5  755.82   43.00
   4   7   5  707.23   41.20
   4   7   5  711.93   40.30
   4   7   5  722.83   39.70
   4   7   5  750.42   41.20
   4   7   5  755.92   42.20
   4   7   5  716.73   40.60
  -5  -7  -5   45.70   11.30
  -5  -7  -5   30.20    7.00
   5   7   5   41.00    5.70
   5   7   5   46.60    6.30
   5   7   5   27.00    6.00
   5   7   5   49.50    5.40
   5   7   5   33.30    6.70
  -6  -7  -5    0.70    7.00
  -6  -7  -5    8.10   11.60
  -6  -7  -5    4.10    3.10
   6   7   5   -3.70    5.90
   6   7   5    7.60    5.60
   6   7   5    5.60    6.00
   6   7   5    2.90    4.90
   6   7   5    1.10    4.80
  -7  -7  -5    6.30   14.20
  -7  -7  -5    3.20    5.70
  -7  -7  -5   -2.50    8.10
   7   7   5    0.50    9.70
   7   7   5    5.90    6.80
   7   7   5    2.30    6.90
   7   7   5    3.50   10.80
   7   7   5    5.30    6.20
   3  -8  -5   98.19   13.10
   3  -8  -5  112.39   12.90
   3  -8  -5  136.29   13.30
   3  -8  -5  124.09   11.40
  -3   8   5  108.69   13.80
  -3   8   5  106.99   17.10
  -3   8   5   97.59   14.00
  -3   8   5  121.09   17.50
   2  -8  -5   14.90    6.80
   2  -8  -5    7.00    7.30
   2  -8  -5   11.60    5.60
   2  -8  -5   12.80   10.50
  -2   8   5    8.40    5.20
  -2   8   5   15.90    5.60
  -2   8   5   -0.50   12.00
  -2   8   5    7.50    5.60
  -2   8   5   16.20   12.70
  -2   8   5    8.70    6.00
   1  -8  -5   48.40    6.80
   1  -8  -5   49.20    6.70
   1  -8  -5   41.50    7.10
   1  -8  -5   65.49    8.50
  -1   8   5   53.29   12.70
  -1   8   5   51.79   10.40
  -1   8   5   49.70    6.50
  -1   8   5   44.60    6.60
   0  -8  -5   19.50    5.50
   0  -8  -5   14.80    5.10
   0  -8  -5   16.80    5.30
   0  -8  -5   21.70    4.70
   0  -8  -5   19.80    7.30
   0   8   5   23.40    4.50
   0   8   5   18.90    4.60
   0   8   5   15.50    4.50
   0   8   5   23.00    9.40
   0   8   5   22.20    5.00
   0   8   5   24.00    8.20
  -1  -8  -5   22.20    4.60
  -1  -8  -5   11.80    5.50
  -1  -8  -5   15.30    4.80
  -1  -8  -5   22.70    7.60
  -1  -8  -5   31.10    5.30
   1   8   5   23.00    7.40
   1   8   5   22.70    5.20
   1   8   5   10.00    5.70
   1   8   5   26.20   10.00
   1   8   5   21.10    4.30
   1   8   5   27.40    4.90
   1   8   5   26.00    4.80
  -2  -8  -5 1075.09   58.89
  -2  -8  -5  990.20   56.29
  -2  -8  -5 1080.19   57.69
   2   8   5 1068.69   56.09
   2   8   5  995.70   56.69
   2   8   5  958.50   56.99
   2   8   5 1049.09   57.19
   2   8   5 1128.29   58.59
  -3  -8  -5 1111.79   63.39
  -3  -8  -5 1098.89   61.79
  -3  -8  -5 1119.69   60.29
   3   8   5 1134.89   60.09
   3   8   5 1134.99   61.39
   3   8   5 1079.19   60.69
   3   8   5 1108.19   61.19
   3   8   5 1164.78   62.29
  -4  -8  -5  144.49   15.70
  -4  -8  -5  155.68   12.60
  -4  -8  -5  182.78   19.30
  -4  -8  -5  171.28   15.00
  -4  -8  -5  167.98   11.90
   4   8   5  174.48   13.10
   4   8   5  163.98   15.40
   4   8   5  181.08   11.80
   4   8   5  176.58   12.90
   4   8   5  170.88   14.40
  -5  -8  -5    6.90   11.50
  -5  -8  -5   -2.40    6.50
   5   8   5    8.40    5.50
   5   8   5    2.40    5.10
   5   8   5    8.30    4.50
   5   8   5   -3.40    5.70
  -6  -8  -5   -2.50    5.90
  -6  -8  -5    3.70   12.60
  -6  -8  -5   -2.30   12.50
   6   8   5   -2.50    5.80
   6   8   5  -16.20   12.10
   6   8   5    5.20    6.30
   6   8   5   -2.20    5.20
  -7  -8  -5    2.70    3.40
  -7  -8  -5   -4.90    9.00
  -7  -8  -5   10.20   16.20
   7   8   5   10.60    8.60
   7   8   5    4.80    6.60
   7   8   5   -3.10    7.50
   7   8   5    7.90    7.80
   1  -9  -5   72.69    9.60
   1  -9  -5   43.60    9.00
   1  -9  -5   59.19    8.10
  -1   9   5   39.70   12.90
  -1   9   5   50.39    7.30
  -1   9   5   49.60    7.80
  -1   9   5   44.30   13.10
  -1   9   5   45.70    7.10
   0  -9  -5   14.10    8.10
   0  -9  -5    2.50    6.20
   0  -9  -5    6.50    5.70
   0  -9  -5   19.10    7.20
   0   9   5   14.00    5.00
   0   9   5   -0.40   12.20
   0   9   5   15.10   11.20
   0   9   5    7.90    4.70
   0   9   5   10.20    5.50
  -1  -9  -5  414.16   25.30
  -1  -9  -5  376.36   23.80
  -1  -9  -5  412.66   26.90
   1   9   5  411.36   24.60
   1   9   5  369.36   31.60
   1   9   5  399.46   23.70
   1   9   5  413.16   23.40
   1   9   5  386.36   29.50
  -2  -9  -5  727.23   41.30
  -2  -9  -5  748.53   42.90
  -2  -9  -5  791.52   44.50
   2   9   5  788.82   41.10
   2   9   5  766.42   42.30
   2   9   5  674.33   42.00
   2   9   5  730.33   44.80
  -3  -9  -5  275.97   22.50
  -3  -9  -5  270.77   19.40
  -3  -9  -5  242.48   16.70
   3   9   5  277.17   16.60
   3   9   5  242.48   17.70
   3   9   5  253.77   18.30
  -4  -9  -5    0.60   10.10
  -4  -9  -5    4.90   17.40
   4   9   5    9.50    4.70
   4   9   5    3.10    5.80
   4   9   5   12.20    6.10
  -5  -9  -5   19.60   12.00
  -5  -9  -5   12.30    5.90
  -5  -9  -5    7.50    7.20
   5   9   5   22.10    6.80
   5   9   5    5.40    6.40
   5   9   5   19.60    5.50
  -6  -9  -5   -0.10   14.50
  -6  -9  -5   -8.60    8.10
   6   9   5   -2.10    6.80
   6   9   5    4.30    5.80
  -2 -10  -5  252.37   19.00
  -2 -10  -5  313.17   23.70
  -2 -10  -5  270.17   20.70
   2  10   5  294.57   18.00
   2  10   5  250.67   30.30
   2  10   5  271.27   19.90
  -3 -10  -5    9.10   10.00
  -3 -10  -5    4.00    7.20
   3  10   5   13.00    5.40
   3  10   5    6.30   10.00
   5   8  -6    7.60    9.10
   5   8  -6   34.20    9.90
  -5  -8   6   17.80    6.90
  -5  -8   6   22.10   11.60
  -5  -8   6   16.60   15.20
  -5  -8   6   35.30   13.30
  -5  -8   6   22.50    8.30
   4   8  -6   34.70    9.10
   4   8  -6   29.30    7.80
   4   8  -6   37.50   10.20
  -4  -8   6   38.70   12.50
  -4  -8   6   27.00   11.20
  -4  -8   6   31.60    7.90
  -4  -8   6   38.70   15.00
   3   8  -6   -3.90    5.30
   3   8  -6   -1.90    8.20
   3   8  -6    4.30    6.70
  -3  -8   6    3.80   10.70
  -3  -8   6   -1.60    9.50
  -3  -8   6    6.70   22.80
  -3  -8   6    0.30    5.80
   2   8  -6  163.38   13.80
   2   8  -6  136.89   10.70
   2   8  -6  141.99   10.00
  -2  -8   6  149.09   18.20
  -2  -8   6  140.19   13.50
  -2  -8   6  141.99   12.90
  -2  -8   6  142.49   14.10
  -2  -8   6  160.68   22.90
   1   8  -6  423.36   25.60
   1   8  -6  461.25   26.50
  -1  -8   6  416.96   26.80
  -1  -8   6  411.46   26.00
  -1  -8   6  427.16   25.60
  -1  -8   6  452.25   28.20
  -1  -8   6  418.26   25.70
  -1  -8   6  457.95   32.60
   0   8  -6  108.19   11.90
   0   8  -6   82.29   11.20
   0  -8   6   88.99   12.80
   0  -8   6  106.59   14.40
   0  -8   6   91.59   11.00
   0  -8   6  103.79    9.60
   0  -8   6  121.09   11.20
   0  -8   6  106.19   12.90
  -1   8  -6   -4.40    5.80
   1  -8   6    3.00    5.30
   1  -8   6    1.00    6.50
   1  -8   6   -0.80    5.30
   1  -8   6   -0.90    5.20
   1  -8   6    1.20    3.90
   1  -8   6   -1.10    8.20
  -2   8  -6    4.10    5.90
  -2   8  -6   -1.60    5.60
   2  -8   6    2.80    8.20
   2  -8   6    2.80    4.80
   2  -8   6    8.60    5.60
   2  -8   6    0.80    6.20
   6   7  -6   21.50   10.20
   6   7  -6   21.50   13.70
   6   7  -6   18.70   10.00
   6   7  -6    9.30   12.70
  -6  -7   6   12.60    8.40
  -6  -7   6    6.40   13.40
  -6  -7   6   17.10   13.60
  -6  -7   6   -8.00   12.60
   5   7  -6   91.59   12.10
   5   7  -6   70.19   11.50
   5   7  -6   85.59    8.40
   5   7  -6   94.49   14.90
   5   7  -6   69.79   10.30
   5   7  -6   73.69   11.90
  -5  -7   6   81.29   13.90
  -5  -7   6   80.89   16.10
  -5  -7   6   80.29   14.10
  -5  -7   6   88.09   14.50
   4   7  -6   49.30    8.40
   4   7  -6   54.29   10.10
   4   7  -6   57.69    8.80
   4   7  -6   65.59    9.30
  -4  -7   6   50.29   11.70
  -4  -7   6   59.89   11.00
  -4  -7   6   59.89   11.10
  -4  -7   6   51.49   12.60
   3   7  -6  220.98   22.30
   3   7  -6  276.87   18.70
   3   7  -6  278.37   18.10
   3   7  -6  284.07   21.80
  -3  -7   6  276.67   18.40
  -3  -7   6  269.27   17.50
  -3  -7   6  247.38   20.50
  -3  -7   6  290.27   26.00
  -3  -7   6  277.77   23.70
   2   7  -6  549.35   30.60
   2   7  -6  568.64   34.10
   2   7  -6  566.14   31.90
   2   7  -6  498.85   31.40
  -2  -7   6  606.84   35.10
  -2  -7   6  558.04   32.00
  -2  -7   6  529.35   31.40
  -2  -7   6  585.04   37.50
  -2  -7   6  528.55   32.60
   1   7  -6  357.66   22.80
   1   7  -6  409.26   23.50
  -1  -7   6  373.86   23.40
  -1  -7   6  383.96   23.50
  -1  -7   6  402.46   23.00
  -1  -7   6  390.46   28.40
  -1  -7   6  392.66   25.50
   0   7  -6    5.40    5.20
   0   7  -6    4.60    4.40
   0  -7   6    5.70    8.30
   0  -7   6    1.90    4.30
   0  -7   6    2.90    5.50
   0  -7   6   11.20    8.10
   0  -7   6    3.50    4.00
   0  -7   6    9.60    4.30
   0  -7   6    3.30    4.20
  -1   7  -6   -0.20    4.20
  -1   7  -6    1.90    5.10
   1  -7   6   -0.90    4.60
   1  -7   6    0.20    4.60
   1  -7   6   10.80    8.10
   1  -7   6    1.50    8.10
   1  -7   6   -0.20    3.90
   1  -7   6   -0.60    3.30
   1  -7   6    1.90    3.60
   1  -7   6    0.90    4.20
  -2   7  -6    3.50    5.20
  -2   7  -6   -7.20    5.00
   2  -7   6  -12.40   10.50
   2  -7   6    3.70    4.00
   2  -7   6   -4.40    4.60
   2  -7   6    0.20    2.90
   2  -7   6    3.00    3.80
   2  -7   6    5.30    7.00
  -3   7  -6   -6.90    6.10
   3  -7   6   -0.60    7.30
   3  -7   6    3.70    4.00
   3  -7   6    1.10    5.70
   3  -7   6    4.90   14.90
   3  -7   6   -0.50    3.50
   3  -7   6    8.10    4.10
   7   6  -6   47.90   10.20
   7   6  -6   65.99   10.50
   7   6  -6   21.90   13.20
   7   6  -6   15.90   18.10
  -7  -6   6   42.30   14.80
  -7  -6   6   36.50   17.10
  -7  -6   6   46.70   14.10
   6   6  -6   54.59   15.30
   6   6  -6   54.39    8.70
   6   6  -6   63.19   10.70
   6   6  -6   54.59   13.10
  -6  -6   6   78.89   14.10
  -6  -6   6   64.99   14.90
  -6  -6   6   81.29   15.00
  -6  -6   6   50.79    8.80
   5   6  -6   48.60    8.10
   5   6  -6   54.79    7.80
   5   6  -6   28.00    9.60
   5   6  -6   40.00    9.30
   5   6  -6   42.20    6.00
   5   6  -6   42.20   11.20
  -5  -6   6   41.40    7.10
  -5  -6   6   46.30   12.10
  -5  -6   6   34.90   11.10
  -5  -6   6   23.30   10.50
   4   6  -6   21.90    7.60
   4   6  -6    7.90    6.50
   4   6  -6   13.50    4.50
   4   6  -6    6.30    6.60
   4   6  -6   19.10    6.70
   4   6  -6   17.50    4.50
  -4  -6   6   15.90    5.10
  -4  -6   6   13.70    4.40
  -4  -6   6    6.20    8.40
  -4  -6   6   23.30   11.50
  -4  -6   6    9.00    9.10
  -4  -6   6   11.20    4.30
   3   6  -6  466.05   28.90
   3   6  -6  464.95   27.10
   3   6  -6  392.36   29.80
   3   6  -6  456.85   27.00
  -3  -6   6  471.05   33.10
  -3  -6   6  441.66   25.90
  -3  -6   6  443.86   26.30
  -3  -6   6  466.25   26.80
  -3  -6   6  453.95   29.10
  -3  -6   6  475.05   30.70
   2   6  -6 1148.39   62.09
   2   6  -6 1151.48   61.69
   2   6  -6 1129.29   63.69
   2   6  -6 1072.59   62.29
  -2  -6   6 1183.98   64.49
  -2  -6   6 1179.48   66.49
  -2  -6   6 1190.28   62.19
  -2  -6   6 1166.28   62.19
  -2  -6   6 1097.69   63.09
  -2  -6   6 1134.39   61.89
   1   6  -6  273.07   18.80
   1   6  -6  278.07   16.50
   1   6  -6  236.88   16.60
   1   6  -6  257.17   15.90
  -1  -6   6  238.48   16.80
  -1  -6   6  256.27   16.40
  -1  -6   6  259.47   16.40
  -1  -6   6  260.47   16.10
  -1  -6   6  272.67   22.80
  -1  -6   6  263.17   19.00
   0   6  -6    6.20    3.20
   0   6  -6   13.90    4.20
   0   6  -6   16.90    6.20
   0   6  -6   16.40    4.50
   0  -6   6    9.50    4.10
   0  -6   6    3.30    5.40
   0  -6   6   13.00    8.00
   0  -6   6   10.00    3.90
   0  -6   6   11.00    3.60
   0  -6   6    7.30    6.90
   0  -6   6    9.50    3.50
  -1   6  -6   12.40    4.20
   1  -6   6    2.90    3.10
   1  -6   6    4.00    3.70
   1  -6   6   -0.20    6.20
   1  -6   6    4.40    3.20
   1  -6   6    7.10    7.80
   1  -6   6    2.10    7.20
   1  -6   6    9.50    3.10
   1  -6   6    1.70    4.40
  -2   6  -6  180.48   12.40
   2  -6   6  166.98   12.10
   2  -6   6  176.68   10.00
   2  -6   6  145.79   11.00
   2  -6   6  168.08   16.60
   2  -6   6  177.08   16.00
   2  -6   6  163.98   10.10
   2  -6   6  143.79   18.70
   2  -6   6  163.28   11.30
   2  -6   6  157.38   12.60
   2  -6   6  163.68   10.60
   3  -6   6    3.60    2.70
   3  -6   6    4.00    4.00
   3  -6   6   18.20   11.30
   3  -6   6    6.60    6.20
   3  -6   6   10.30    2.90
   3  -6   6    0.10    5.40
   3  -6   6    6.00    8.20
   3  -6   6    5.60    4.40
   3  -6   6    8.30    3.80
  -4   6  -6  487.05   30.30
   4  -6   6  486.85   34.00
   4  -6   6  534.35   30.30
   4  -6   6  479.85   39.90
   4  -6   6  499.35   29.70
   4  -6   6  513.95   28.50
   7   5  -6   62.19    8.80
   7   5  -6   85.39    9.50
   7   5  -6   32.60   14.60
   7   5  -6   61.79   10.70
  -7  -5   6   85.99   14.90
  -7  -5   6   83.39   14.50
  -7  -5   6   51.99   10.30
  -7  -5   6   60.49   15.90
   6   5  -6  271.97   16.90
   6   5  -6  273.27   21.20
   6   5  -6  214.58   24.80
   6   5  -6  238.28   18.90
   6   5  -6  232.18   30.50
  -6  -5   6  245.98   26.00
  -6  -5   6  209.68   18.70
   5   5  -6   11.60    4.50
   5   5  -6   19.90    8.20
   5   5  -6    1.50    8.20
   5   5  -6    7.10    5.70
   5   5  -6   15.70    9.50
  -5  -5   6    7.30    9.20
  -5  -5   6   14.10    9.00
  -5  -5   6   12.90   10.60
  -5  -5   6    9.80    5.40
   4   5  -6  343.07   19.90
   4   5  -6  326.67   23.80
   4   5  -6  275.67   22.50
   4   5  -6  329.17   23.00
   4   5  -6  336.47   19.30
  -4  -5   6  291.57   24.20
  -4  -5   6  316.37   20.30
  -4  -5   6  316.77   26.30
  -4  -5   6  332.67   24.60
  -4  -5   6  292.17   19.60
   3   5  -6 1275.37   70.89
   3   5  -6 1322.47   71.79
   3   5  -6 1222.78   70.19
   3   5  -6 1456.65   72.19
   3   5  -6 1238.38   69.19
  -3  -5   6 1299.57   73.89
  -3  -5   6 1296.27   72.69
  -3  -5   6 1333.77   72.29
  -3  -5   6 1316.37   69.79
  -3  -5   6 1303.57   70.29
  -3  -5   6 1234.98   70.19
   2   5  -6  986.70   48.90
   2   5  -6  794.92   48.60
   2   5  -6  872.21   46.90
   2   5  -6  887.71   49.80
   2   5  -6  912.81   48.30
   2   5  -6  858.21   48.10
  -2  -5   6  839.62   49.60
  -2  -5   6  903.01   48.20
  -2  -5   6  911.81   49.00
  -2  -5   6  859.81   50.49
  -2  -5   6  879.31   48.30
  -2  -5   6  901.81   52.39
   1   5  -6   33.30    4.50
   1   5  -6   34.70    4.30
   1   5  -6   37.10    4.50
   1   5  -6   40.10    5.60
   1   5  -6   38.90    5.20
   1   5  -6   44.20    6.60
  -1  -5   6   38.10    6.00
  -1  -5   6   44.20    6.20
  -1  -5   6   35.80    9.10
  -1  -5   6   36.10    7.10
  -1  -5   6   35.80    6.10
  -1  -5   6   45.60    5.80
   0   5  -6   50.59    6.40
   0   5  -6   50.29    5.60
   0   5  -6   61.69    6.80
   0   5  -6   57.59    6.30
   0  -5   6   48.10    6.90
   0  -5   6   57.19    7.50
   0  -5   6   46.50    4.10
   0  -5   6   69.19   10.30
   0  -5   6   58.89    6.00
   0  -5   6   55.79    9.90
   0  -5   6   48.00    7.30
   0  -5   6   56.19    6.10
   0  -5   6   60.49    7.60
  -1   5  -6  125.19   11.30
  -1   5  -6  110.29    8.70
  -1   5  -6  114.39    8.80
   1  -5   6   89.49   10.00
   1  -5   6  112.09    9.50
   1  -5   6  111.79    8.00
   1  -5   6  101.09   13.60
   1  -5   6  101.19    7.90
   1  -5   6  111.99    7.10
   1  -5   6  109.89    7.70
   1  -5   6  115.69   12.10
   1  -5   6  113.89    8.80
   1  -5   6   94.39   13.00
  -2   5  -6   20.70    4.30
   2  -5   6   25.90    2.90
   2  -5   6   17.70    4.00
   2  -5   6   27.50    8.60
   2  -5   6   32.20    4.50
   2  -5   6   27.80    7.30
   2  -5   6   30.40    4.00
   2  -5   6   33.20    4.50
   2  -5   6   22.60    4.20
   2  -5   6   26.60    4.30
   2  -5   6   19.40    6.30
   3  -5   6  776.12   40.90
   3  -5   6  650.13   42.70
   3  -5   6  774.32   40.00
   3  -5   6  670.23   45.90
   3  -5   6  761.72   41.40
   3  -5   6  767.82   43.80
   3  -5   6  709.33   39.50
   3  -5   6  748.93   40.30
   3  -5   6  755.82   42.20
   3  -5   6  746.73   39.30
   4  -5   6  526.45   33.20
   4  -5   6  593.64   38.30
   4  -5   6  529.75   34.50
   4  -5   6  536.15   31.40
   4  -5   6  506.95   30.00
   4  -5   6  506.75   31.40
   4  -5   6  520.95   29.90
   4  -5   6  547.35   30.60
  -5   5  -6  230.18   18.10
   5  -5   6  235.48   20.90
   5  -5   6  227.28   19.60
   5  -5   6  231.68   16.50
   5  -5   6  248.98   23.10
   5  -5   6  256.97   16.80
   5  -5   6  240.68   17.80
   8   4  -6   22.90   23.10
   8   4  -6   68.49   14.20
   8   4  -6   58.79   10.10
  -8  -4   6   80.29   18.30
  -8  -4   6   91.69   15.90
   7   4  -6  142.79   23.30
   7   4  -6  149.79   14.80
   7   4  -6  198.18   14.00
  -7  -4   6  201.78   21.50
  -7  -4   6  215.38   26.80
  -7  -4   6  161.18   18.70
   6   4  -6   25.60   14.80
   6   4  -6   56.09   13.00
   6   4  -6   51.89    6.80
   6   4  -6   48.00    9.40
  -6  -4   6   77.09   14.40
  -6  -4   6   51.99    8.30
  -6  -4   6   58.69    9.30
  -6  -4   6   69.49   11.70
  -6  -4   6   84.89   12.90
   5   4  -6  107.79   10.60
   5   4  -6   62.59   13.10
   5   4  -6   57.49   11.60
   5   4  -6  101.89    9.90
   5   4  -6   80.49   10.50
  -5  -4   6   95.89   13.30
  -5  -4   6   68.89   11.20
  -5  -4   6   97.19   12.50
  -5  -4   6  124.29   16.60
   4   4  -6 2031.60  121.49
   4   4  -6 2118.19  120.69
   4   4  -6 2539.85  119.59
   4   4  -6 2537.15  119.89
   4   4  -6 1960.90  121.69
  -4  -4   6 2550.54  122.29
  -4  -4   6 1978.20  121.39
  -4  -4   6 2461.65  122.49
  -4  -4   6 1963.00  119.39
   3   4  -6 1443.46   81.89
   3   4  -6 1430.76   82.09
   3   4  -6 1643.94   82.19
   3   4  -6 1524.95   80.49
   3   4  -6 1495.55   82.29
  -3  -4   6 1442.16   83.79
  -3  -4   6 1483.35   80.99
  -3  -4   6 1393.36   82.59
  -3  -4   6 1439.76   81.09
  -3  -4   6 1769.92   83.49
   2   4  -6   86.39    6.40
   2   4  -6   78.19    9.10
   2   4  -6   75.29    7.90
   2   4  -6  105.49    9.30
   2   4  -6  114.79   11.00
   2   4  -6   92.79    8.90
  -2  -4   6   68.69    8.80
  -2  -4   6   94.89    7.50
  -2  -4   6   96.59    7.80
  -2  -4   6   80.59    7.90
  -2  -4   6   97.59   11.70
  -2  -4   6   86.69   11.40
   1   4  -6   44.00    4.00
   1   4  -6   49.70    5.60
   1   4  -6   41.70    5.90
   1   4  -6   48.80    5.80
   1   4  -6   46.20    5.10
   1   4  -6   51.19    5.60
   1   4  -6   48.20    5.60
  -1  -4   6   44.20    7.40
  -1  -4   6   50.19    5.10
  -1  -4   6   48.10    6.10
  -1  -4   6   41.20    6.40
  -1  -4   6   35.80    6.30
  -1  -4   6   36.80    7.30
   0   4  -6   56.29    5.70
   0   4  -6   50.19    6.20
   0   4  -6   50.49    5.20
   0  -4   6   54.39    8.80
   0  -4   6   41.50    5.70
   0  -4   6   50.69    6.80
   0  -4   6   50.29    4.80
   0  -4   6   45.90    5.60
  -1   4  -6    1.80    2.60
  -1   4  -6    7.60    3.80
  -1   4  -6    4.20    2.90
   1  -4   6    5.00    2.50
   1  -4   6    0.30    3.20
   1  -4   6    2.70    5.20
   1  -4   6    3.60    3.20
   1  -4   6    3.40    3.00
   1  -4   6   -0.80    5.10
   1  -4   6    3.70    2.20
   1  -4   6    5.40    2.00
   1  -4   6    4.20    3.50
  -2   4  -6  458.85   25.00
  -2   4  -6  423.36   25.10
  -2   4  -6  467.25   26.10
   2  -4   6  406.96   24.60
   2  -4   6  442.16   24.30
   2  -4   6  449.56   24.50
   2  -4   6  447.86   24.30
   2  -4   6  429.56   28.00
   2  -4   6  466.55   24.70
   2  -4   6  464.15   25.80
   2  -4   6  488.95   25.60
   2  -4   6  423.76   27.60
   3  -4   6 1420.76   76.29
   3  -4   6 1509.45   76.19
   3  -4   6 1295.37   79.69
   3  -4   6 1394.06   78.09
   3  -4   6 1467.55   75.49
   3  -4   6 1381.66   77.09
   3  -4   6 1431.56   75.49
   4  -4   6  691.03   37.30
   4  -4   6  586.54   40.10
   4  -4   6  691.43   38.30
   4  -4   6  650.63   37.00
   4  -4   6  688.43   40.00
   4  -4   6  723.03   43.30
   4  -4   6  703.03   37.70
   4  -4   6  676.43   38.10
  -5   4  -6   15.30    5.60
   5  -4   6   11.50    8.00
   5  -4   6   26.50    7.60
   5  -4   6   27.60   10.40
   5  -4   6   18.20    6.00
   5  -4   6   18.10    5.20
   5  -4   6   15.10    4.60
   5  -4   6   24.60    5.60
   5  -4   6   14.60    4.50
  -6   4  -6   -7.90    6.40
   6  -4   6    6.30    4.70
   6  -4   6   -5.60    7.60
   6  -4   6    7.20    8.40
   6  -4   6   -9.10    9.50
   6  -4   6    5.00    6.00
   8   3  -6  132.69   14.50
   8   3  -6  101.69   15.30
   8   3  -6  126.09   16.50
   8   3  -6   97.69   21.20
  -8  -3   6  148.69   18.70
  -8  -3   6  189.48   24.90
   7   3  -6   88.19   14.40
   7   3  -6   83.39   11.70
   7   3  -6   82.69   11.30
   7   3  -6   93.29   11.40
  -7  -3   6   88.29   17.00
  -7  -3   6  137.19   17.60
  -7  -3   6   85.59   12.50
  -7  -3   6  120.89   16.20
  -7  -3   6  144.29   21.40
   6   3  -6  167.78   12.20
   6   3  -6  118.59   16.20
   6   3  -6  104.29   13.40
   6   3  -6  123.39   12.10
  -6  -3   6  165.38   20.70
  -6  -3   6  201.28   19.70
  -6  -3   6  134.39   15.80
  -6  -3   6  159.88   17.50
   5   3  -6  741.53   39.20
   5   3  -6  819.42   40.00
   5   3  -6  640.64   41.70
   5   3  -6  628.04   43.50
  -5  -3   6  817.12   43.30
  -5  -3   6  612.54   39.30
  -5  -3   6  617.34   40.50
   4   3  -6 1287.17   66.99
   4   3  -6 1051.19   68.39
   4   3  -6 1333.27   67.09
   4   3  -6 1413.96   67.89
   4   3  -6 1020.40   69.49
  -4  -3   6 1056.59   67.39
  -4  -3   6 1070.69   67.09
  -4  -3   6 1410.36   69.39
  -4  -3   6 1400.16   69.59
  -4  -3   6 1298.97   69.29
   3   3  -6  958.10   52.19
   3   3  -6 1056.69   50.99
   3   3  -6  851.61   52.49
   3   3  -6  886.11   52.69
   3   3  -6  829.32   52.99
  -3  -3   6  869.61   51.19
  -3  -3   6  937.71   51.39
  -3  -3   6 1000.60   53.09
  -3  -3   6 1048.20   53.09
   2   3  -6  205.68   15.50
   2   3  -6  207.28   14.80
   2   3  -6  224.58   13.30
   2   3  -6  249.48   14.90
   2   3  -6  235.18   14.30
   2   3  -6  226.68   16.20
  -2  -3   6  214.58   16.40
  -2  -3   6  215.38   14.20
  -2  -3   6  227.38   13.80
  -2  -3   6  238.48   15.80
   1   3  -6   16.20    3.10
   1   3  -6   17.20    4.10
   1   3  -6   15.80    3.20
   1   3  -6   16.00    2.50
   1   3  -6   16.20    3.40
   1   3  -6   22.90    5.00
  -1  -3   6   11.40    3.40
  -1  -3   6   10.90    4.00
  -1  -3   6   16.20    3.30
  -1  -3   6    8.30    4.50
  -1  -3   6   14.90    2.80
  -1  -3   6    8.60    4.90
   0   3  -6  337.27   18.90
   0   3  -6  359.36   19.60
   0   3  -6  360.96   18.90
   0   3  -6  365.66   21.10
   0   3  -6  364.86   19.60
   0   3  -6  345.67   19.40
   0   3  -6  347.47   19.20
   0  -3   6  362.46   20.30
   0  -3   6  355.26   20.20
   0  -3   6  360.26   19.00
   0  -3   6  349.67   20.20
   0  -3   6  338.47   22.70
   0  -3   6  306.47   20.70
   0  -3   6  350.36   19.10
  -1   3  -6   44.30    4.80
  -1   3  -6   58.29    7.60
  -1   3  -6   49.30    4.80
   1  -3   6   37.80    5.20
   1  -3   6   32.10    6.40
   1  -3   6   52.39    4.20
   1  -3   6   54.69    5.60
   1  -3   6   31.80    4.70
   1  -3   6   37.50    6.40
   1  -3   6   47.70    5.60
   1  -3   6   48.40    4.10
  -2   3  -6 2369.06  125.99
  -2   3  -6 2470.95  125.39
  -2   3  -6 2220.08  125.49
   2  -3   6 2377.06  127.79
   2  -3   6 2253.47  127.99
   2  -3   6 2029.10  126.09
   2  -3   6 2463.45  125.99
   2  -3   6 2395.96  125.19
   2  -3   6 2480.35  125.29
   2  -3   6 2399.76  125.09
   2  -3   6 2382.86  125.19
   2  -3   6 2585.34  125.99
  -3   3  -6 1701.83   94.39
  -3   3  -6 1748.33   94.69
   3  -3   6 1713.43   96.29
   3  -3   6 1769.82   94.79
   3  -3   6 1806.62   93.99
   3  -3   6 1775.62   97.49
   3  -3   6 1863.61   94.69
   3  -3   6 1792.22   94.09
  -4   3  -6  351.96   21.30
   4  -3   6  360.06   21.30
   4  -3   6  358.06   20.50
   4  -3   6  373.96   21.90
   4  -3   6  367.56   23.50
   4  -3   6  358.56   21.00
   4  -3   6  398.96   26.00
   4  -3   6  327.57   24.20
  -5   3  -6   -0.20    2.50
   5  -3   6   -3.30    3.60
   5  -3   6    3.50    7.70
   5  -3   6   -2.00    5.50
   5  -3   6    1.10    7.20
   5  -3   6   -1.70    4.40
   5  -3   6    1.70    5.10
   5  -3   6   -2.30    3.50
   5  -3   6   -1.10    4.80
  -6   3  -6   14.00    6.50
   6  -3   6   17.10    3.50
   6  -3   6   17.10    6.80
   6  -3   6   16.90    6.00
   6  -3   6   12.50    4.70
   6  -3   6   22.80    5.20
   6  -3   6   20.90    2.90
   6  -3   6   18.20    7.00
   6  -3   6    7.80    9.20
  -7   3  -6   24.60    8.70
   7  -3   6    8.20   11.10
   7  -3   6   28.50   11.70
   7  -3   6   32.70    7.60
   7  -3   6   31.60    4.90
   7  -3   6   21.70    8.10
   7  -3   6   23.80    5.20
   7  -3   6   27.10    9.50
   8   2  -6  135.99   15.80
   8   2  -6  153.68   17.90
   8   2  -6  143.49   23.60
   8   2  -6  114.49   17.50
  -8  -2   6  155.68   19.50
  -8  -2   6  165.28   28.10
  -8  -2   6  150.28   16.80
  -8  -2   6  190.08   26.40
   7   2  -6    5.60    6.40
   7   2  -6    9.10    6.20
   7   2  -6    9.30    8.70
   7   2  -6   19.30   10.20
   7   2  -6  -15.10   13.10
  -7  -2   6    6.60   11.50
  -7  -2   6    3.30    7.90
  -7  -2   6   21.60   10.60
   6   2  -6  156.08   20.10
   6   2  -6  160.98   13.60
   6   2  -6  134.89   13.20
   6   2  -6  143.99   20.50
  -6  -2   6  203.28   20.50
  -6  -2   6  152.18   15.60
  -6  -2   6  188.38   16.60
  -6  -2   6  213.08   19.80
   5   2  -6 1380.06   77.89
   5   2  -6 1415.26   78.29
   5   2  -6 1592.04   81.59
   5   2  -6 1311.37   80.19
  -5  -2   6 1624.44   80.49
  -5  -2   6 1291.57   78.59
  -5  -2   6 1475.95   80.09
   4   2  -6 2250.47  114.29
   4   2  -6 2296.37  114.69
   4   2  -6 2327.97  114.19
   4   2  -6 1882.21  116.39
  -4  -2   6 2383.36  115.69
  -4  -2   6 1856.51  114.89
  -4  -2   6 1761.62  114.19
  -4  -2   6 2291.17  115.59
   3   2  -6  240.08   20.50
   3   2  -6  317.97   18.10
   3   2  -6  248.58   21.00
   3   2  -6  263.07   18.00
   3   2  -6  253.87   20.50
   3   2  -6  310.97   17.40
  -3  -2   6  285.17   18.70
  -3  -2   6  261.17   18.10
  -3  -2   6  264.47   18.00
  -3  -2   6  324.67   19.30
   2   2  -6   25.10    6.30
   2   2  -6   13.70    7.20
   2   2  -6   10.00    5.40
   2   2  -6   35.00    6.50
   2   2  -6   20.60    3.70
   2   2  -6   15.10    3.90
  -2  -2   6   29.70    5.90
  -2  -2   6   24.20    4.90
  -2  -2   6   23.00    7.10
  -2  -2   6   20.30    3.70
  -2  -2   6   21.70    4.80
   1   2  -6  637.24   35.40
   1   2  -6  658.03   36.40
   1   2  -6  620.94   35.90
   1   2  -6  663.33   34.50
   1   2  -6  655.13   34.60
   1   2  -6  688.23   34.30
   1   2  -6  646.54   35.10
  -1  -2   6  646.14   35.60
  -1  -2   6  599.04   36.80
  -1  -2   6  652.23   35.40
  -1  -2   6  618.04   34.40
  -1  -2   6  580.64   35.60
   0   2  -6    6.90    2.40
   0   2  -6    1.70    1.80
   0   2  -6    4.80    2.40
   0   2  -6    3.10    3.30
   0   2  -6    7.80    1.80
   0  -2   6    1.30    3.20
   0  -2   6    2.80    2.80
   0  -2   6    2.60    3.10
   0  -2   6    1.10    2.40
   0  -2   6    0.90    4.60
   0  -2   6    9.90    2.10
  -1   2  -6 2428.46  124.89
  -1   2  -6 2402.36  124.09
  -1   2  -6 2387.06  123.99
  -1   2  -6 2452.75  124.19
   1  -2   6 2070.09  124.29
   1  -2   6 2374.86  123.79
   1  -2   6 2320.77  123.99
   1  -2   6 2416.26  124.19
   1  -2   6 2420.56  124.69
   1  -2   6 2208.38  125.49
  -2   2  -6 4413.96  230.08
  -2   2  -6 4532.35  230.48
  -2   2  -6 4051.09  232.68
  -2   2  -6 4653.73  229.88
   2  -2   6 4874.21  230.58
   2  -2   6 4299.27  230.38
   2  -2   6 4088.19  229.88
   2  -2   6 4258.57  231.88
   2  -2   6 4593.44  229.68
   2  -2   6 4541.05  229.98
   2  -2   6 3981.00  231.88
   2  -2   6 4040.80  231.78
  -3   2  -6 1039.90   63.09
  -3   2  -6 1063.49   58.89
  -3   2  -6 1106.59   58.69
   3  -2   6 1079.29   59.89
   3  -2   6  979.90   58.09
   3  -2   6 1115.19   59.09
   3  -2   6 1102.89   61.49
   3  -2   6 1070.29   60.69
   3  -2   6 1140.59   58.29
   3  -2   6 1188.18   59.09
   3  -2   6 1124.19   57.99
   3  -2   6 1117.09   58.59
  -4   2  -6   14.20    3.30
  -4   2  -6   24.20   11.20
  -4   2  -6   19.50    3.90
   4  -2   6   27.50    5.70
   4  -2   6   21.80    4.40
   4  -2   6   20.20    6.10
   4  -2   6   20.70    3.90
   4  -2   6   16.00    6.20
   4  -2   6   23.40    3.10
   4  -2   6   15.80    3.90
   4  -2   6   21.20    3.10
   4  -2   6   22.60    3.00
   4  -2   6   17.90    3.10
  -5   2  -6   75.19    8.40
  -5   2  -6   79.69   16.70
   5  -2   6   89.19   14.60
   5  -2   6   92.29    9.60
   5  -2   6   83.89   10.90
   5  -2   6   83.59    9.00
   5  -2   6   79.59    8.10
   5  -2   6   81.89    7.20
   5  -2   6   86.69    5.80
   5  -2   6   79.79   13.30
   5  -2   6   90.79    6.00
   5  -2   6   86.59    6.30
  -6   2  -6    2.10   16.30
   6  -2   6   -1.80    3.10
   6  -2   6    3.00    2.50
   6  -2   6    3.00    5.70
   6  -2   6    2.90    3.20
   6  -2   6    5.30    5.10
   6  -2   6    1.70    2.80
   6  -2   6   -1.50    4.10
   6  -2   6    1.20    7.90
   6  -2   6   -2.50    5.10
   6  -2   6    0.50    6.70
  -7   2  -6   40.20    8.00
  -7   2  -6   51.99   22.60
   7  -2   6   53.19    8.50
   7  -2   6   46.80    6.80
   7  -2   6   53.39    8.90
   7  -2   6   58.79    8.30
   7  -2   6   53.99    8.20
   7  -2   6   32.60    6.80
   7  -2   6   49.50    7.50
   7  -2   6   50.89    7.20
   7  -2   6   36.60   11.20
   8   1  -6   47.80   10.00
   8   1  -6   76.39   10.50
   8   1  -6   80.69   12.90
   8   1  -6   50.39   11.10
   8   1  -6   35.00   16.00
  -8  -1   6   50.09   13.60
  -8  -1   6   85.39    9.30
  -8  -1   6   73.49   10.00
  -8  -1   6   72.89   14.30
  -8  -1   6   58.49    8.50
  -8  -1   6   74.09   15.40
  -8  -1   6   73.99   14.60
   7   1  -6   32.40    8.30
   7   1  -6    5.30   11.70
   7   1  -6   26.60    9.50
   7   1  -6    1.20    7.80
   7   1  -6    6.30    6.70
  -7  -1   6   11.30   11.80
  -7  -1   6    9.20    7.50
  -7  -1   6   25.80   10.20
  -7  -1   6   27.10   10.30
   6   1  -6 1431.76   89.09
   6   1  -6 1842.22   91.59
   6   1  -6 1799.22   94.59
  -6  -1   6 1525.05   90.79
  -6  -1   6 1675.23   91.19
  -6  -1   6 1612.64   89.09
  -6  -1   6 1624.94   90.49
   5   1  -6 1932.51  110.09
   5   1  -6 1787.82  109.89
   5   1  -6 2241.28  109.99
   5   1  -6 2073.09  110.29
  -5  -1   6 1982.10  111.09
  -5  -1   6 2138.59  111.29
  -5  -1   6 2125.99  111.69
  -5  -1   6 2079.39  111.09
   4   1  -6  402.56   26.20
   4   1  -6  505.95   26.10
   4   1  -6  433.16   26.40
   4   1  -6  505.85   32.60
  -4  -1   6  422.36   27.00
  -4  -1   6  385.36   26.70
  -4  -1   6  460.95   27.40
  -4  -1   6  386.06   26.50
   3   1  -6  224.68   14.80
   3   1  -6  163.38   19.10
   3   1  -6  164.48   14.20
   3   1  -6  222.28   14.30
  -3  -1   6  243.68   16.30
  -3  -1   6  190.38   13.60
  -3  -1   6  235.08   15.20
  -3  -1   6  223.28   14.90
   2   1  -6  218.38   16.80
   2   1  -6  176.48   15.80
   2   1  -6  196.98   13.60
   2   1  -6  217.98   12.90
   2   1  -6  210.68   13.60
   2   1  -6  182.68   16.70
  -2  -1   6  184.08   14.50
  -2  -1   6  219.58   15.20
  -2  -1   6  209.28   13.80
  -2  -1   6  199.38   13.20
  -2  -1   6  203.88   12.30
   1   1  -6   13.70    3.00
   1   1  -6    6.60    2.70
   1   1  -6    2.40    2.80
   1   1  -6    1.30    4.80
   1   1  -6    6.20    2.50
   1   1  -6    2.90    5.00
  -1  -1   6    0.80    2.20
  -1  -1   6    4.00    4.40
  -1  -1   6    6.10    2.80
  -1  -1   6    6.00    2.80
  -1  -1   6    3.30    3.60
   0   1  -6 1292.17   64.99
   0   1  -6 1346.07   65.49
   0   1  -6 1268.07   65.39
   0   1  -6 1220.58   66.59
   0   1  -6 1291.57   65.19
   0   1  -6 1155.78   66.59
   0  -1   6 1260.97   65.19
   0  -1   6 1268.77   65.59
   0  -1   6 1153.28   67.29
   0  -1   6 1179.38   65.69
   0  -1   6 1058.69   66.19
  -1   1  -6 4046.30  218.88
  -1   1  -6 4000.70  216.78
  -1   1  -6 4171.38  217.88
  -1   1  -6 4082.89  217.08
  -1   1  -6 4373.66  217.08
   1  -1   6 4400.16  217.18
   1  -1   6 3923.51  217.18
   1  -1   6 4153.38  217.08
   1  -1   6 3909.61  218.98
  -2   1  -6 2550.84  144.79
  -2   1  -6 2769.42  142.39
  -2   1  -6 2737.13  142.89
  -2   1  -6 2749.82  142.49
   2  -1   6 2823.82  142.39
   2  -1   6 2440.66  142.49
   2  -1   6 2886.21  143.09
   2  -1   6 2728.63  141.99
   2  -1   6 2711.53  142.39
   2  -1   6 2839.12  143.09
   2  -1   6 2405.06  145.39
  -3   1  -6  365.66   26.20
  -3   1  -6  392.36   22.00
  -3   1  -6  396.46   21.60
   3  -1   6  387.76   21.80
   3  -1   6  409.86   22.30
   3  -1   6  391.16   22.50
   3  -1   6  377.46   21.20
   3  -1   6  394.46   21.20
   3  -1   6  381.26   24.20
   3  -1   6  388.66   21.40
   3  -1   6  401.46   22.80
  -4   1  -6   77.29    6.70
  -4   1  -6   57.29   11.80
  -4   1  -6   73.79    6.30
   4  -1   6   77.59    7.20
   4  -1   6   73.59    5.80
   4  -1   6   70.59    8.20
   4  -1   6   76.89   10.10
   4  -1   6   79.09    5.40
   4  -1   6   76.99    5.40
   4  -1   6   72.99   10.70
   4  -1   6   85.59   10.00
   4  -1   6   70.79    7.00
   4  -1   6   69.89    5.60
  -5   1  -6    8.50    3.60
  -5   1  -6    5.60   12.00
   5  -1   6   12.30    2.30
   5  -1   6    9.40    2.90
   5  -1   6    3.20    5.70
   5  -1   6   10.30    5.50
   5  -1   6   13.90    2.70
   5  -1   6   14.90    4.40
   5  -1   6   11.10    6.20
   5  -1   6    6.70    3.00
   5  -1   6   10.20    3.30
   5  -1   6   10.20    4.60
  -6   1  -6  123.69   12.80
  -6   1  -6   61.89   18.90
  -6   1  -6  106.69   10.10
   6  -1   6  107.29    7.50
   6  -1   6   95.99   16.70
   6  -1   6  107.79   13.90
   6  -1   6   99.59    8.80
   6  -1   6  100.19    9.20
   6  -1   6   94.29   13.00
   6  -1   6  105.99   12.00
   6  -1   6   92.79   10.80
   6  -1   6   99.19    8.50
   6  -1   6  104.19    7.80
  -7   1  -6  110.49   25.00
  -7   1  -6  144.59   15.80
   7  -1   6  137.59    9.70
   7  -1   6  107.19   20.80
   7  -1   6  121.09   11.00
   7  -1   6  126.99    9.50
   7  -1   6  131.79   13.80
   7  -1   6  111.59   11.30
   7  -1   6  128.19    9.60
   7  -1   6  124.69   13.20
  -8   1  -6  378.16   27.50
   8  -1   6  342.57   21.70
   8  -1   6  318.17   33.10
   8  -1   6  335.07   22.90
   8  -1   6  368.46   24.50
   8  -1   6  393.26   20.60
   8  -1   6  337.57   19.80
   8  -1   6  367.06   21.20
   8  -1   6  357.56   24.80
   8   0  -6    2.50    9.40
   8   0  -6   -6.70   10.60
   8   0  -6   22.70    9.70
   8   0  -6    7.40   10.30
  -8   0   6   17.40   12.10
  -8   0   6   18.00   13.70
  -8   0   6    9.80   13.40
   7   0  -6  517.45   37.20
   7   0  -6  414.46   31.00
   7   0  -6  552.74   33.50
  -7   0   6  461.35   35.20
  -7   0   6  515.15   34.20
  -7   0   6  462.35   29.00
  -7   0   6  540.65   35.50
   6   0  -6 1091.29   59.89
   6   0  -6  850.11   60.49
   6   0  -6 1125.99   57.49
   6   0  -6  943.61   56.39
  -6   0   6  944.51   58.79
  -6   0   6 1023.90   57.69
  -6   0   6  941.51   57.39
  -6   0   6 1043.70   54.09
   5   0  -6  967.30   49.30
   5   0  -6  914.81   47.20
   5   0  -6  792.52   47.60
   5   0  -6  955.80   51.29
  -5   0   6  753.32   48.30
  -5   0   6  890.31   46.40
  -5   0   6  766.52   48.00
  -5   0   6  701.83   48.70
   4   0  -6  140.19   13.40
   4   0  -6  154.68   13.60
   4   0  -6  191.58   13.00
  -4   0   6  185.68   12.60
  -4   0   6  151.78   13.40
  -4   0   6  131.09   13.80
  -4   0   6  175.48   13.90
   3   0  -6  123.59    9.70
   3   0  -6   91.29   10.10
   3   0  -6   70.79    9.40
  -3   0   6   90.39    9.30
  -3   0   6   95.39    9.20
  -3   0   6  100.09    9.60
   2   0  -6  189.18   12.30
   2   0  -6  187.38   12.90
   2   0  -6  177.38   12.60
  -2   0   6  188.08   12.20
  -2   0   6  176.68   11.90
  -2   0   6  216.08   15.50
  -2   0   6  161.18   13.70
  -2   0   6  178.18   12.10
   1   0  -6   14.00    3.10
   1   0  -6   17.50    3.20
   1   0  -6   30.70    5.30
   1   0  -6   21.40    3.40
   1   0  -6   22.30    3.70
  -1   0   6   19.80    3.30
  -1   0   6   20.50    3.50
  -1   0   6    9.90    4.60
  -1   0   6   20.60    5.10
   0   0  -6 5583.34  278.17
   0   0  -6 5325.67  278.77
   0   0  -6 4830.12  279.17
   0   0  -6 5671.73  278.07
   0   0   6 5008.30  279.67
   0   0   6 5220.28  278.07
  -1   0  -6 3612.14  198.18
  -1   0  -6 3398.06  197.18
  -1   0  -6 3924.11  197.28
  -1   0  -6 4163.58  196.98
  -1   0  -6 3659.13  198.58
  -1   0  -6 3622.84  198.08
   1   0   6 3592.24  197.78
   1   0   6 3890.31  197.28
   1   0   6 3713.03  197.08
   1   0   6 3798.62  199.28
  -2   0  -6  626.74   35.00
  -2   0  -6  626.84   34.50
  -2   0  -6  631.94   34.00
  -2   0  -6  666.83   34.30
  -2   0  -6  614.24   37.10
   2   0   6  699.53   35.10
   2   0   6  620.74   34.50
   2   0   6  615.54   34.70
   2   0   6  647.24   34.40
   2   0   6  609.74   36.90
   2   0   6  637.34   33.80
   2   0   6  665.83   34.40
  -3   0  -6   13.60    2.20
  -3   0  -6   14.90    5.90
  -3   0  -6   15.30    3.00
  -3   0  -6   10.50    6.60
   3   0   6   16.60    2.40
   3   0   6   10.40    2.70
   3   0   6   15.70    3.20
   3   0   6   16.10    2.40
   3   0   6   10.00    2.90
   3   0   6    8.50    4.60
   3   0   6   14.90    1.90
  -4   0  -6   27.10    8.50
  -4   0  -6   38.90    5.00
  -4   0  -6   38.50    4.40
  -4   0  -6   37.90   10.30
   4   0   6   35.60    3.90
   4   0   6   32.20    3.90
   4   0   6   27.60    5.50
   4   0   6   42.20    8.10
   4   0   6   35.90    4.50
   4   0   6   37.80    4.20
   4   0   6   27.40    4.00
   4   0   6   27.60    4.30
  -5   0  -6   11.10   11.40
  -5   0  -6   17.90   12.60
  -5   0  -6   19.80    3.60
  -5   0  -6   16.10    3.10
   5   0   6   20.00    4.50
   5   0   6   19.10    2.90
   5   0   6   17.40    3.20
   5   0   6   20.70    3.40
   5   0   6   20.60    4.60
   5   0   6   28.40    4.00
   5   0   6   13.70    3.70
   5   0   6   22.50    6.30
   5   0   6   15.40    5.40
   5   0   6   17.20    6.10
  -6   0  -6  176.48   31.00
  -6   0  -6  228.18   16.30
   6   0   6  226.98   15.50
   6   0   6  223.08   20.50
   6   0   6  218.58   14.10
   6   0   6  223.28   13.40
   6   0   6  202.58   13.70
   6   0   6  216.78   13.20
   6   0   6  249.38   17.90
   6   0   6  215.08   14.00
  -7   0  -6  467.85   29.00
  -7   0  -6  384.56   46.90
   7   0   6  476.45   33.80
   7   0   6  415.16   26.50
   7   0   6  457.55   25.80
   7   0   6  479.15   28.00
   7   0   6  481.75   26.80
   7   0   6  459.75   25.70
  -8   0  -6  348.57   48.70
  -8   0  -6  266.17   22.00
   8   0   6  273.97   17.30
   8   0   6  225.08   28.40
   8   0   6  254.57   15.20
   8   0   6  236.08   23.90
   8   0   6  293.47   17.10
   8   0   6  265.57   18.70
   8   0   6  207.98   18.50
   7  -1  -6  353.56   30.30
   7  -1  -6  404.66   27.60
   7  -1  -6  316.17   26.60
  -7   1   6  339.37   32.60
  -7   1   6  381.96   23.90
  -7   1   6  382.06   22.60
  -7   1   6  426.76   29.30
  -7   1   6  432.56   31.20
  -7   1   6  381.76   32.00
   6  -1  -6  692.53   41.70
   6  -1  -6  613.44   39.40
   6  -1  -6  597.34   37.90
   6  -1  -6  683.53   39.10
   6  -1  -6  635.94   38.90
  -6   1   6  698.73   40.30
  -6   1   6  619.84   41.80
  -6   1   6  698.83   40.20
   5  -1  -6  326.87   19.10
   5  -1  -6  261.27   18.70
   5  -1  -6  267.37   19.40
   5  -1  -6  271.57   20.00
   5  -1  -6  278.77   21.60
  -5   1   6  232.68   21.70
  -5   1   6  303.37   20.80
  -5   1   6  271.77   19.80
   4  -1  -6   88.59   10.50
   4  -1  -6   75.19   11.30
   4  -1  -6   65.69    8.30
   4  -1  -6   95.29   12.90
  -4   1   6   89.39   10.40
  -4   1   6   59.49   11.50
  -4   1   6  114.79   17.30
   3  -1  -6  210.68   16.50
   3  -1  -6  230.88   16.70
   3  -1  -6  265.27   17.00
   3  -1  -6  257.57   16.30
   3  -1  -6  295.87   16.70
  -3   1   6  265.97   20.60
  -3   1   6  239.98   15.70
  -3   1   6  210.58   16.30
  -3   1   6  226.68   15.50
   2  -1  -6   -0.20    3.30
   2  -1  -6    2.90    3.70
   2  -1  -6    3.50    3.20
   2  -1  -6    3.10    3.50
  -2   1   6    2.40    2.90
  -2   1   6    1.40    3.60
  -2   1   6   -5.90    5.00
  -2   1   6   11.50    3.40
  -2   1   6    5.00    4.70
   1  -1  -6 1900.61   97.39
   1  -1  -6 1879.61   97.09
   1  -1  -6 1888.91   97.59
   1  -1  -6 1903.51   96.89
  -1   1   6 1650.93   98.49
  -1   1   6 1874.41   96.99
  -1   1   6 1870.41   96.99
  -1   1   6 1634.74   98.39
  -1   1   6 1784.12   96.69
   0  -1  -6 2198.78  115.19
   0  -1  -6 2303.07  114.79
   0  -1  -6 2232.68  114.89
   0  -1  -6 2122.19  115.19
   0   1   6 2022.30  116.69
   0   1   6 2110.79  114.49
   0   1   6 2142.89  115.69
   0   1   6 2110.19  114.59
   0   1   6 2217.38  114.79
  -1  -1  -6 3657.03  183.38
  -1  -1  -6 3716.53  183.38
  -1  -1  -6 3661.73  183.38
  -1  -1  -6 3539.95  184.48
  -1  -1  -6 3235.18  183.78
   1   1   6 3491.15  183.18
   1   1   6 3005.60  183.68
   1   1   6 3238.08  185.28
   1   1   6 3693.53  183.38
  -2  -1  -6    0.80    3.40
  -2  -1  -6    5.60    2.20
  -2  -1  -6    5.80    1.80
  -2  -1  -6    6.10    1.50
  -2  -1  -6    6.70    4.60
  -2  -1  -6    9.20    3.10
  -2  -1  -6   11.90    2.90
   2   1   6    3.50    4.50
   2   1   6    7.30    2.60
   2   1   6    7.70    2.30
   2   1   6    5.70    2.30
   2   1   6    3.60    2.00
  -3  -1  -6  173.18    9.80
  -3  -1  -6  175.88   10.00
  -3  -1  -6  182.38   13.40
  -3  -1  -6  161.18   15.50
  -3  -1  -6  173.68   11.50
  -3  -1  -6  171.88   11.00
   3   1   6  168.78    9.50
   3   1   6  163.08   10.40
   3   1   6  174.78   10.50
   3   1   6  170.88   10.90
   3   1   6  164.88   15.60
   3   1   6  175.28   11.20
   3   1   6  172.78   10.30
   3   1   6  165.58   10.70
  -4  -1  -6    6.40    7.70
  -4  -1  -6    7.40    2.50
  -4  -1  -6    8.90    2.20
  -4  -1  -6   13.20    3.60
  -4  -1  -6   10.40    5.50
  -4  -1  -6    4.30    2.00
   4   1   6    6.70    2.60
   4   1   6    7.10    3.20
   4   1   6    8.40    4.10
   4   1   6    7.50    2.40
   4   1   6    7.30    3.60
   4   1   6    6.30    2.80
   4   1   6    7.40    2.30
  -5  -1  -6    5.40    6.90
  -5  -1  -6    1.90    2.40
  -5  -1  -6    3.00   10.60
   5   1   6    6.30    2.60
   5   1   6    1.40    3.00
   5   1   6    3.60    3.10
   5   1   6    6.30    3.70
   5   1   6    3.60    4.90
   5   1   6    4.10    3.60
  -6  -1  -6  368.66   37.80
  -6  -1  -6  454.05   27.30
  -6  -1  -6  458.65   35.10
   6   1   6  467.25   30.40
   6   1   6  460.05   26.30
   6   1   6  461.95   26.80
   6   1   6  459.25   25.70
   6   1   6  467.05   25.50
   6   1   6  449.66   26.20
   6   1   6  464.15   25.40
  -7  -1  -6  835.32   67.19
  -7  -1  -6 1018.00   55.89
  -7  -1  -6 1063.79   63.19
   7   1   6 1019.00   54.69
   7   1   6  847.72   54.29
   7   1   6 1017.80   59.69
   7   1   6  990.20   53.49
   7   1   6 1072.49   53.89
   7   1   6  996.60   53.79
   7   1   6 1051.09   55.29
  -8  -1  -6  233.88   42.60
  -8  -1  -6  189.18   25.60
  -8  -1  -6  125.59   20.20
   8   1   6  176.28   25.30
   8   1   6  184.88   15.60
   8   1   6  182.28   11.80
   8   1   6  199.48   13.80
   8   1   6  173.08   24.00
   8   1   6  185.18   13.30
   7  -2  -6  396.26   30.60
   7  -2  -6  412.46   29.00
   7  -2  -6  370.26   44.00
  -7   2   6  409.36   45.10
  -7   2   6  522.85   32.80
  -7   2   6  426.66   35.30
  -7   2   6  494.45   31.70
   6  -2  -6   61.69   10.70
   6  -2  -6   53.29    9.60
   6  -2  -6   65.09    8.50
  -6   2   6   72.19   12.40
  -6   2   6   72.49   10.80
  -6   2   6   62.69   12.20
  -6   2   6  106.39   16.00
  -6   2   6   74.69   18.20
  -6   2   6   84.29   10.40
   5  -2  -6  244.28   19.90
   5  -2  -6  251.47   20.60
   5  -2  -6  241.78   17.60
   5  -2  -6  231.78   18.00
  -5   2   6  208.08   21.20
  -5   2   6  260.67   18.60
  -5   2   6  289.97   28.80
  -5   2   6  290.37   19.70
   4  -2  -6  127.09   12.30
   4  -2  -6  131.69   11.80
   4  -2  -6  143.89   13.70
   4  -2  -6  122.19   13.80
  -4   2   6  168.58   12.60
  -4   2   6  143.99   14.80
   3  -2  -6   60.09    7.50
   3  -2  -6   58.09    7.70
   3  -2  -6   62.59    7.50
   3  -2  -6   53.59    7.90
  -3   2   6   61.99    7.80
  -3   2   6  102.79   16.10
  -3   2   6   57.99    8.00
   2  -2  -6  309.77   19.00
   2  -2  -6  290.97   18.20
   2  -2  -6  326.37   19.00
  -2   2   6  307.07   18.20
  -2   2   6  286.67   23.70
  -2   2   6  292.17   19.30
  -2   2   6  308.67   18.10
   1  -2  -6 2426.16  122.59
   1  -2  -6 2459.25  122.09
   1  -2  -6 2378.96  122.79
   1  -2  -6 2214.58  122.49
  -1   2   6 2263.97  123.69
  -1   2   6 2153.68  122.09
  -1   2   6 2054.99  125.19
  -1   2   6 2358.56  122.29
  -1   2   6 2408.96  122.39
   0  -2  -6 2712.73  143.49
   0  -2  -6 2750.32  143.69
   0  -2  -6 2795.82  143.79
   0  -2  -6 2718.43  143.79
   0  -2  -6 2629.64  142.59
   0   2   6 2660.93  143.39
   0   2   6 2573.84  143.19
   0   2   6 2811.72  143.39
   0   2   6 2467.55  144.09
   0   2   6 2974.30  146.59
  -1  -2  -6  480.15   25.80
  -1  -2  -6  476.45   26.10
  -1  -2  -6  461.05   26.20
  -1  -2  -6  488.15   27.10
  -1  -2  -6  461.85   25.70
   1   2   6  444.56   28.70
   1   2   6  467.75   26.30
   1   2   6  472.35   25.80
   1   2   6  439.96   25.50
  -2  -2  -6   30.60    5.40
  -2  -2  -6   26.30    5.90
  -2  -2  -6   18.50    2.90
  -2  -2  -6   30.00    4.00
  -2  -2  -6   27.70    3.90
   2   2   6   29.00    4.60
   2   2   6   29.40    3.50
   2   2   6   21.70    5.20
   2   2   6   22.50    3.10
   2   2   6   26.60    4.20
  -3  -2  -6   19.40    3.90
  -3  -2  -6   19.50    2.70
  -3  -2  -6   18.70    3.80
  -3  -2  -6   10.50    3.70
  -3  -2  -6   18.80    7.20
  -3  -2  -6   22.50    3.50
   3   2   6   22.80    3.10
   3   2   6   15.80    4.50
   3   2   6   17.30    3.40
   3   2   6   27.40    4.20
   3   2   6   19.20    2.90
   3   2   6   21.10    3.50
   3   2   6   19.10    3.00
  -4  -2  -6   15.10    4.00
  -4  -2  -6   11.90    4.60
  -4  -2  -6   18.50    2.80
  -4  -2  -6   10.80    7.30
  -4  -2  -6   15.90    3.00
  -4  -2  -6   18.20    2.30
   4   2   6   12.90    4.30
   4   2   6   14.70    2.90
   4   2   6   15.30    3.40
   4   2   6   16.00    4.10
   4   2   6   16.60    3.20
   4   2   6   14.60    3.60
   4   2   6   12.90    3.20
  -5  -2  -6  363.06   21.10
  -5  -2  -6  368.76   21.60
  -5  -2  -6  377.46   30.70
  -5  -2  -6  408.36   23.00
  -5  -2  -6  442.66   26.30
   5   2   6  381.36   21.70
   5   2   6  363.16   22.10
   5   2   6  367.76   21.80
   5   2   6  353.86   22.20
   5   2   6  407.26   24.80
   5   2   6  390.36   22.60
   5   2   6  411.36   22.60
  -6  -2  -6 1340.27   78.29
  -6  -2  -6 1431.36   79.09
  -6  -2  -6 1391.96   82.49
  -6  -2  -6 1499.75   77.49
  -6  -2  -6 1271.77   86.49
  -6  -2  -6 1507.95   79.49
   6   2   6 1499.35   78.89
   6   2   6 1487.45   81.69
   6   2   6 1489.85   78.49
   6   2   6 1588.24   78.49
   6   2   6 1525.85   79.29
   6   2   6 1538.15   79.09
  -7  -2  -6  468.65   35.70
  -7  -2  -6  390.36   27.30
  -7  -2  -6  482.25   28.90
  -7  -2  -6  487.75   26.60
  -7  -2  -6  373.66   41.90
   7   2   6  505.95   28.00
   7   2   6  484.55   33.20
   7   2   6  470.95   26.60
   7   2   6  487.35   28.60
   7   2   6  496.15   26.80
  -8  -2  -6   -3.00   16.40
  -8  -2  -6   -9.90   20.70
  -8  -2  -6    6.60    6.40
   8   2   6    2.80   10.10
   8   2   6    7.40    7.70
   8   2   6    5.40    4.30
   8   2   6    2.30    3.90
   8   2   6    4.50    5.20
   8   2   6    1.20    6.00
   7  -3  -6  146.29   20.30
   7  -3  -6  118.89   16.10
   7  -3  -6  130.39   16.10
  -7   3   6  161.38   26.40
  -7   3   6  127.89   18.90
  -7   3   6  116.09   20.60
  -7   3   6  201.28   24.40
  -7   3   6  187.98   21.50
   6  -3  -6   77.19   12.80
   6  -3  -6   78.69   12.60
   6  -3  -6  102.49   17.50
  -6   3   6  109.19   15.60
  -6   3   6  129.89   17.00
  -6   3   6  114.69   21.80
  -6   3   6  144.09   17.50
  -6   3   6  104.09   20.60
  -6   3   6  133.79   16.90
   5  -3  -6   -1.90    8.50
   5  -3  -6   -1.00    6.00
   5  -3  -6   -5.00    5.50
   5  -3  -6   -0.60    4.90
  -5   3   6    1.50    8.80
  -5   3   6    6.10    9.00
  -5   3   6   15.10    6.70
  -5   3   6    3.80    6.40
  -5   3   6  -18.00   14.30
   4  -3  -6  384.36   25.40
   4  -3  -6  409.06   24.20
  -4   3   6  495.35   29.40
  -4   3   6  308.27   31.50
  -4   3   6  395.76   27.60
  -4   3   6  421.36   24.60
   3  -3  -6   40.60    6.20
   3  -3  -6   45.30    6.70
   3  -3  -6   32.40    5.00
   3  -3  -6   33.60    5.20
  -3   3   6   26.20    8.80
  -3   3   6   31.00    4.80
  -3   3   6   39.10    5.30
  -3   3   6   24.90    7.00
  -3   3   6   29.90   10.10
   2  -3  -6 1372.56   69.09
   2  -3  -6 1296.07   68.39
   2  -3  -6 1301.57   69.49
   2  -3  -6 1388.46   70.09
   2  -3  -6 1272.17   70.29
  -2   3   6 1323.17   69.39
  -2   3   6 1113.09   72.69
  -2   3   6 1261.97   70.79
  -2   3   6 1268.07   71.59
  -2   3   6 1289.87   69.49
   1  -3  -6 2314.17  122.89
   1  -3  -6 2348.47  123.29
   1  -3  -6 2501.15  122.49
   1  -3  -6 2335.47  122.09
   1  -3  -6 2386.76  122.99
  -1   3   6 2062.59  125.49
  -1   3   6 2289.27  122.79
  -1   3   6 2217.38  122.59
  -1   3   6 2320.07  122.69
   0  -3  -6  727.73   38.80
   0  -3  -6  753.02   38.90
   0  -3  -6  701.13   38.60
   0  -3  -6  736.03   38.80
   0  -3  -6  716.53   37.50
   0   3   6  701.83   39.50
   0   3   6  666.23   41.80
   0   3   6  637.84   38.20
   0   3   6  699.63   38.50
  -1  -3  -6   82.49    6.70
  -1  -3  -6   86.49    7.80
  -1  -3  -6   84.59    8.80
  -1  -3  -6   86.59    7.50
   1   3   6   81.69    6.80
   1   3   6   81.49    7.70
   1   3   6   68.99   11.50
   1   3   6   80.59    6.70
  -2  -3  -6  163.78   11.10
  -2  -3  -6  167.78   11.50
  -2  -3  -6  160.18   10.20
  -2  -3  -6  165.18   13.40
   2   3   6  159.98    8.70
   2   3   6  158.68   10.30
   2   3   6  149.19   10.00
   2   3   6  164.68   10.00
   2   3   6  144.29   13.60
   2   3   6  138.39   18.70
  -3  -3  -6    0.30    3.20
  -3  -3  -6   10.60    6.10
  -3  -3  -6    1.70    3.30
  -3  -3  -6    0.00    2.20
  -3  -3  -6    2.80    2.20
   3   3   6    0.30    2.70
   3   3   6   -0.10    2.30
   3   3   6    1.60    2.20
   3   3   6    3.00    2.80
   3   3   6    3.10    2.70
   3   3   6    2.00    1.30
   3   3   6    5.80    4.60
  -4  -3  -6   85.09    7.20
  -4  -3  -6   88.99    9.10
  -4  -3  -6   84.99   15.70
  -4  -3  -6   85.79    7.30
  -4  -3  -6   87.59   15.20
   4   3   6   94.09    9.00
   4   3   6   91.19    7.90
   4   3   6   87.39    7.40
   4   3   6   88.19    8.00
   4   3   6   99.79    9.70
   4   3   6   99.29    7.50
   4   3   6   86.89    7.30
  -5  -3  -6 1292.37   67.59
  -5  -3  -6 1228.68   68.89
  -5  -3  -6 1274.27   66.59
  -5  -3  -6 1264.47   65.99
  -5  -3  -6 1113.69   72.09
   5   3   6 1256.17   66.79
   5   3   6 1254.77   67.09
   5   3   6 1238.38   68.59
   5   3   6 1198.48   66.99
   5   3   6 1236.88   67.09
   5   3   6 1277.47   66.69
   5   3   6 1246.78   66.79
  -6  -3  -6  645.24   37.00
  -6  -3  -6  572.94   45.40
  -6  -3  -6  666.33   36.10
  -6  -3  -6  706.13   37.70
  -6  -3  -6  651.53   40.30
  -6  -3  -6  624.24   34.70
   6   3   6  652.83   36.40
   6   3   6  663.83   36.30
   6   3   6  636.94   36.10
   6   3   6  656.53   36.10
   6   3   6  677.73   37.00
   6   3   6  653.73   36.90
   6   3   6  667.53   39.70
  -7  -3  -6   46.10    8.30
  -7  -3  -6   36.10   10.10
  -7  -3  -6   38.30   18.10
  -7  -3  -6   51.89    7.40
  -7  -3  -6   42.70    5.90
   7   3   6   52.69    7.80
   7   3   6   52.49    7.20
   7   3   6   59.29    6.80
   7   3   6   69.19    8.10
   7   3   6   47.80   10.40
   7   3   6   43.10    6.90
  -8  -3  -6   34.20    9.10
  -8  -3  -6   16.90   20.80
  -8  -3  -6   30.60    6.50
  -8  -3  -6   27.40    7.10
   8   3   6   26.50   11.70
   8   3   6   30.40    5.30
   8   3   6   36.80    6.30
   8   3   6   27.90    7.20
   8   3   6   30.00    9.10
   8   3   6   32.30    5.40
   6  -4  -6   52.39    7.80
   6  -4  -6   48.50   11.40
  -6   4   6   68.89   14.10
  -6   4   6   47.30   14.90
  -6   4   6   54.19   21.60
  -6   4   6   79.99   11.60
  -6   4   6   64.19   10.40
   5  -4  -6   89.69   11.00
   5  -4  -6   95.39   15.70
   5  -4  -6   88.19   11.20
  -5   4   6   81.49   18.20
  -5   4   6   97.79   18.70
  -5   4   6  112.79   14.00
  -5   4   6  127.69   18.60
  -5   4   6  104.49   14.10
   4  -4  -6    4.60    6.10
   4  -4  -6   -9.10    4.80
   4  -4  -6    1.60    6.00
   4  -4  -6    4.10    4.30
  -4   4   6    2.40   11.20
  -4   4   6    6.20   18.10
  -4   4   6    1.50    8.10
   3  -4  -6  171.18   12.50
   3  -4  -6  188.88   13.10
   3  -4  -6  173.58   13.80
   3  -4  -6  195.38   13.80
  -3   4   6  181.48   12.80
  -3   4   6  161.18   18.60
  -3   4   6  164.88   16.90
  -3   4   6  130.79   19.30
  -3   4   6  180.98   12.80
   2  -4  -6  757.02   40.40
   2  -4  -6  773.32   39.10
   2  -4  -6  736.83   41.10
   2  -4  -6  636.74   41.90
   2  -4  -6  788.62   41.00
  -2   4   6  785.02   40.40
  -2   4   6  678.83   42.40
  -2   4   6  626.54   44.40
  -2   4   6  703.33   42.30
  -2   4   6  761.92   40.30
   1  -4  -6  872.51   45.30
   1  -4  -6  864.81   45.90
   1  -4  -6  874.81   46.00
   1  -4  -6  789.22   46.20
   1  -4  -6  805.52   45.00
  -1   4   6  889.31   45.70
  -1   4   6  803.92   45.70
  -1   4   6  865.61   45.80
  -1   4   6  843.62   47.40
  -1   4   6  786.02   49.50
  -1   4   6  810.52   47.10
   0  -4  -6    4.50    3.60
   0  -4  -6    3.70    3.20
   0  -4  -6    1.80    2.90
   0  -4  -6    5.60    3.30
   0  -4  -6    1.50    2.00
   0   4   6    1.00    2.80
   0   4   6    4.80    3.10
   0   4   6   13.50    7.30
   0   4   6    6.70    3.80
  -1  -4  -6   79.99    5.40
  -1  -4  -6   80.39    9.30
  -1  -4  -6   80.69    6.70
  -1  -4  -6   82.29    7.10
  -1  -4  -6   86.69    8.00
   1   4   6   86.19    5.30
   1   4   6   85.39    7.90
   1   4   6   73.89    7.10
   1   4   6   76.09    6.90
   1   4   6   79.09   12.00
  -2  -4  -6   53.49    7.70
  -2  -4  -6   55.99    7.10
  -2  -4  -6   58.69    5.90
  -2  -4  -6   49.20    5.40
  -2  -4  -6   53.39   10.00
   2   4   6   63.59    6.90
   2   4   6   50.99    5.80
   2   4   6   56.69    5.90
   2   4   6   46.70    4.80
   2   4   6   55.89    3.80
   2   4   6   55.09    6.10
   2   4   6   55.39    8.00
  -3  -4  -6    5.20    6.60
  -3  -4  -6    3.10    4.40
  -3  -4  -6    5.40    2.80
  -3  -4  -6    3.10    2.50
  -3  -4  -6    2.20    3.60
   3   4   6    4.90    4.80
   3   4   6    4.40    3.30
   3   4   6    3.70    1.70
   3   4   6    5.40    3.00
   3   4   6    3.00    2.30
   3   4   6    5.30    3.00
   3   4   6    5.40    2.80
  -4  -4  -6  523.95   29.80
  -4  -4  -6  545.55   29.70
  -4  -4  -6  591.24   31.90
  -4  -4  -6  522.35   35.00
  -4  -4  -6  517.35   30.70
   4   4   6  511.55   30.20
   4   4   6  525.85   30.00
   4   4   6  538.45   31.60
   4   4   6  526.65   29.90
   4   4   6  545.65   31.00
   4   4   6  506.95   29.50
   4   4   6  577.84   30.20
  -5  -4  -6 1010.20   54.89
  -5  -4  -6 1002.00   55.89
  -5  -4  -6 1006.90   54.39
  -5  -4  -6  946.01   60.59
  -5  -4  -6 1102.79   57.59
   5   4   6 1041.10   55.59
   5   4   6 1008.60   54.99
   5   4   6 1017.40   57.19
   5   4   6 1022.90   54.89
   5   4   6 1015.70   55.59
   5   4   6 1013.90   55.29
   5   4   6  987.60   55.09
  -6  -4  -6  241.88   27.70
  -6  -4  -6  253.37   20.80
  -6  -4  -6  251.97   16.90
  -6  -4  -6  260.77   16.10
  -6  -4  -6  245.98   14.00
  -6  -4  -6  248.78   18.40
   6   4   6  255.17   20.50
   6   4   6  252.27   16.30
   6   4   6  265.67   16.10
   6   4   6  266.17   17.30
   6   4   6  260.07   17.30
   6   4   6  247.78   15.90
   6   4   6  255.77   16.30
  -7  -4  -6    6.50    7.20
  -7  -4  -6    3.80   15.20
  -7  -4  -6    7.50    5.00
  -7  -4  -6    6.30    5.30
   7   4   6   13.30    4.60
   7   4   6    9.80    3.60
   7   4   6    2.20    4.10
   7   4   6   14.20    6.70
   7   4   6   13.20    5.00
   7   4   6    5.80    7.40
   7   4   6    4.90    5.60
  -8  -4  -6   46.80    8.10
  -8  -4  -6   22.80   20.80
  -8  -4  -6   44.40   10.40
  -8  -4  -6   39.70    7.50
   8   4   6   33.50    8.00
   8   4   6   34.20   10.80
   8   4   6   57.19   12.50
   8   4   6   49.99    6.60
   8   4   6   40.20    6.90
   5  -5  -6   86.09   11.10
  -5   5   6  111.89   14.50
  -5   5   6   74.39   15.30
  -5   5   6   70.99   18.90
  -5   5   6   89.79   14.20
   4  -5  -6   10.70    4.80
   4  -5  -6   -2.10    5.30
   4  -5  -6   18.20    6.30
   4  -5  -6    2.60    7.00
  -4   5   6   10.70    9.70
  -4   5   6    8.80   13.20
  -4   5   6    0.50   12.10
  -4   5   6    6.80   10.40
  -4   5   6    9.00    5.90
   3  -5  -6  282.77   17.90
   3  -5  -6  266.27   18.10
   3  -5  -6  312.07   19.10
   3  -5  -6  271.87   18.80
  -3   5   6  278.67   24.60
  -3   5   6  206.68   25.10
  -3   5   6  306.37   22.80
  -3   5   6  261.37   22.50
  -3   5   6  273.67   17.70
   2  -5  -6  340.77   21.30
   2  -5  -6  344.17   20.10
   2  -5  -6  348.37   20.80
   2  -5  -6  361.46   19.40
   2  -5  -6  351.76   21.20
  -2   5   6  354.16   24.30
  -2   5   6  350.66   20.70
  -2   5   6  267.97   26.70
  -2   5   6  311.87   23.70
  -2   5   6  343.27   20.60
   1  -5  -6   83.49    7.60
   1  -5  -6   78.49    6.90
   1  -5  -6   74.29    8.00
   1  -5  -6   74.89    8.10
   1  -5  -6   69.29    8.50
  -1   5   6   55.69   10.90
  -1   5   6   80.59    8.10
  -1   5   6   76.49   12.20
  -1   5   6   76.99    8.20
  -1   5   6   76.29   10.90
   0  -5  -6   12.70    4.90
   0  -5  -6    7.20    3.40
   0  -5  -6    6.20    3.30
   0  -5  -6    6.70    2.60
   0  -5  -6    9.10    4.10
   0   5   6    5.30    8.20
   0   5   6   12.80    4.60
   0   5   6    8.10    3.40
  -1  -5  -6   10.90    5.00
  -1  -5  -6   12.60    3.90
  -1  -5  -6   20.90    2.70
  -1  -5  -6   13.10    3.10
  -1  -5  -6   18.80    4.10
   1   5   6    9.70    3.20
   1   5   6   15.40    3.80
   1   5   6   19.60    2.50
   1   5   6   12.00    3.20
   1   5   6   22.20    4.60
   1   5   6   10.80    6.90
  -2  -5  -6   10.70    4.20
  -2  -5  -6   15.70    4.40
  -2  -5  -6   10.60    3.10
  -2  -5  -6   10.90    5.60
  -2  -5  -6   21.30    3.80
   2   5   6   19.80    4.10
   2   5   6    7.70    5.90
   2   5   6   14.20    2.60
   2   5   6   11.40    3.40
   2   5   6   16.20    2.30
   2   5   6   22.30    4.10
   2   5   6   17.10    3.90
  -3  -5  -6    9.30    6.50
  -3  -5  -6   11.80    4.90
  -3  -5  -6   19.00    3.80
  -3  -5  -6   19.80    3.70
  -3  -5  -6   16.50    4.90
   3   5   6   14.50    3.70
   3   5   6   13.70    2.40
   3   5   6   13.60    3.70
   3   5   6    7.40    3.60
   3   5   6   12.40    3.70
   3   5   6    8.40    4.70
   3   5   6   10.40    2.70
  -4  -5  -6  950.40   52.99
  -4  -5  -6  956.70   51.89
  -4  -5  -6  920.91   54.79
  -4  -5  -6  983.90   52.29
  -4  -5  -6 1002.10   54.09
   4   5   6  976.30   51.19
   4   5   6  995.10   53.29
   4   5   6  975.80   52.19
   4   5   6  959.20   51.69
   4   5   6  941.21   52.19
   4   5   6  930.11   52.49
   4   5   6  921.31   52.49
  -5  -5  -6  830.32   44.30
  -5  -5  -6  808.22   45.40
  -5  -5  -6  787.32   50.59
  -5  -5  -6  838.22   46.50
  -5  -5  -6  758.92   48.30
   5   5   6  812.52   44.00
   5   5   6  813.92   44.40
   5   5   6  804.42   46.70
   5   5   6  793.92   44.20
   5   5   6  760.92   44.30
   5   5   6  804.72   45.00
   5   5   6  831.02   44.90
  -6  -5  -6   16.60    6.70
  -6  -5  -6   17.30    7.10
  -6  -5  -6    8.40   13.80
  -6  -5  -6   15.70    3.00
  -6  -5  -6   15.00    4.40
   6   5   6   13.20    5.10
   6   5   6   15.40    6.70
   6   5   6   14.00    5.60
   6   5   6    7.10    4.30
   6   5   6   22.50    5.80
   6   5   6   15.60    4.90
   6   5   6   16.10    3.90
  -7  -5  -6  159.08   13.10
  -7  -5  -6  158.98   13.60
  -7  -5  -6  113.39   19.70
  -7  -5  -6  162.08   28.90
  -7  -5  -6  131.59   16.90
   7   5   6  135.59   14.20
   7   5   6  163.68   19.20
   7   5   6  147.19   13.00
   7   5   6  134.59   12.60
   7   5   6  163.28   14.40
   7   5   6  145.39   12.10
  -8  -5  -6   22.90    7.20
  -8  -5  -6    7.80   20.70
  -8  -5  -6   18.20   10.20
  -8  -5  -6   15.10    6.60
   8   5   6   25.30    9.70
   8   5   6   32.40    7.40
   8   5   6   14.50    7.50
   8   5   6   25.20   11.40
   8   5   6   22.80   12.90
   8   5   6   22.40    6.50
   5  -6  -6   18.80    6.10
  -5   6   6   22.40    9.00
  -5   6   6   22.80   15.10
  -5   6   6   26.30   13.00
  -5   6   6  -24.20   14.00
  -5   6   6   29.70   16.80
   4  -6  -6   51.19    6.90
   4  -6  -6   62.29   10.20
  -4   6   6   65.29    8.40
  -4   6   6   28.10   13.20
  -4   6   6   61.49   16.40
  -4   6   6   98.09   17.20
  -4   6   6   71.99   13.50
   3  -6  -6  187.38   15.60
   3  -6  -6  174.98   14.60
   3  -6  -6  174.48   15.10
   3  -6  -6  197.58   14.10
  -3   6   6  172.68   14.50
  -3   6   6  169.78   20.30
  -3   6   6  175.18   20.60
  -3   6   6  203.28   14.20
  -3   6   6  149.88   23.60
   2  -6  -6  193.48   14.10
   2  -6  -6  184.98   14.20
   2  -6  -6  202.58   12.00
   2  -6  -6  192.78   13.90
   2  -6  -6  186.88   13.50
  -2   6   6  183.28   18.90
  -2   6   6  196.38   13.60
  -2   6   6  142.69   19.00
  -2   6   6  134.39   17.60
  -2   6   6  187.78   19.80
  -2   6   6  190.68   14.10
   1  -6  -6    5.30    3.50
   1  -6  -6    0.40    3.70
   1  -6  -6    4.60    5.30
   1  -6  -6    2.60    4.10
   1  -6  -6    1.80    3.90
  -1   6   6    1.30    3.90
  -1   6   6    0.40   10.20
  -1   6   6    3.00    6.50
  -1   6   6    4.80    6.50
  -1   6   6    5.30    4.00
   0  -6  -6   42.50    6.80
   0  -6  -6   48.80    6.00
   0  -6  -6   59.39    7.10
   0  -6  -6   54.29    6.70
   0  -6  -6   42.10    5.70
   0   6   6   48.90    6.30
   0   6   6   48.40    7.20
   0   6   6   51.79    7.70
   0   6   6   48.00   10.90
   0   6   6   65.19   10.00
  -1  -6  -6   43.70    5.30
  -1  -6  -6   29.10    6.30
  -1  -6  -6   40.20    5.60
  -1  -6  -6   49.20    5.40
  -1  -6  -6   40.70    5.70
   1   6   6   45.30    6.10
   1   6   6   33.70    5.30
   1   6   6   39.20    5.30
   1   6   6   40.30    4.80
   1   6   6   56.39   10.30
   1   6   6   52.19    6.00
  -2  -6  -6    5.30    4.50
  -2  -6  -6    2.70    4.50
  -2  -6  -6    7.90    6.30
  -2  -6  -6    3.30    3.60
  -2  -6  -6    5.30    3.40
   2   6   6    6.80    3.50
   2   6   6    4.70    7.90
   2   6   6    4.90    2.40
   2   6   6    4.90    3.90
   2   6   6   12.40    4.20
   2   6   6    7.40    4.40
   2   6   6   12.00    2.60
  -3  -6  -6  426.76   27.30
  -3  -6  -6  426.96   25.90
  -3  -6  -6  437.86   25.10
  -3  -6  -6  460.85   28.10
  -3  -6  -6  437.46   24.50
   3   6   6  404.06   23.90
   3   6   6  426.66   27.10
   3   6   6  442.26   24.90
   3   6   6  431.76   25.40
   3   6   6  423.46   23.60
   3   6   6  422.16   25.30
   3   6   6  436.86   25.10
  -4  -6  -6  492.15   27.60
  -4  -6  -6  467.85   26.90
  -4  -6  -6  498.95   30.00
  -4  -6  -6  471.75   28.60
  -4  -6  -6  491.75   31.60
   4   6   6  485.05   28.40
   4   6   6  481.45   26.80
   4   6   6  465.05   27.50
   4   6   6  480.55   26.30
   4   6   6  483.05   29.10
   4   6   6  453.25   28.10
   4   6   6  488.55   27.50
  -5  -6  -6    3.30    3.60
  -5  -6  -6   -3.90    5.80
  -5  -6  -6   -1.00    5.70
  -5  -6  -6   -8.80    9.60
   5   6   6   -0.40    3.60
   5   6   6   -2.70    4.10
   5   6   6    6.50    3.50
   5   6   6   -1.90    4.90
   5   6   6    4.80    4.90
   5   6   6    0.30    5.00
  -6  -6  -6   12.50    7.10
  -6  -6  -6   13.50   11.20
  -6  -6  -6   26.00   14.40
  -6  -6  -6   15.10    4.60
   6   6   6   15.10    5.20
   6   6   6   15.10    5.20
   6   6   6   17.80    5.30
   6   6   6   20.00    8.00
   6   6   6   20.50    6.30
   6   6   6   25.20    6.40
  -7  -6  -6   92.69   11.80
  -7  -6  -6  103.59   12.10
  -7  -6  -6  104.39   21.40
   7   6   6   93.69   12.20
   7   6   6  103.19   12.50
   7   6   6   94.89   11.30
   7   6   6  108.29   13.00
   7   6   6  104.19   19.00
   7   6   6   85.69   13.30
  -8  -6  -6   12.50   20.70
  -8  -6  -6  -13.80   10.00
  -8  -6  -6   10.90    6.70
   8   6   6   -1.30    7.50
   8   6   6    7.00   10.80
   8   6   6    6.30    8.40
   8   6   6   -8.20    6.90
   8   6   6    0.00    7.10
   4  -7  -6   34.60    6.80
  -4   7   6   41.10   15.40
  -4   7   6   49.90    8.50
  -4   7   6   24.20   14.20
  -4   7   6   30.10   11.70
  -4   7   6   39.60   18.60
   3  -7  -6   53.59    7.60
   3  -7  -6   62.49    5.80
   3  -7  -6   67.59   10.20
   3  -7  -6   56.29    9.30
  -3   7   6   74.39   10.50
  -3   7   6   69.49    8.40
  -3   7   6   49.10   11.70
  -3   7   6   59.39   16.00
  -3   7   6   63.09   14.80
  -3   7   6   52.29   18.20
   2  -7  -6    8.10    6.00
   2  -7  -6   10.90    6.00
   2  -7  -6   10.40    5.10
   2  -7  -6   11.60    5.20
   2  -7  -6    1.60    5.70
  -2   7   6   17.00    8.60
  -2   7   6    4.60    8.50
  -2   7   6    5.50    5.00
  -2   7   6    7.60   15.00
  -2   7   6   15.80   10.70
  -2   7   6    6.40    5.60
   1  -7  -6   31.50    6.80
   1  -7  -6   35.70    6.30
   1  -7  -6   38.90    6.00
   1  -7  -6   36.00    5.60
   1  -7  -6   45.40    6.70
  -1   7   6   31.10   15.00
  -1   7   6   26.90    9.10
  -1   7   6   43.00    6.10
  -1   7   6   36.50    5.70
  -1   7   6   37.30    6.30
  -1   7   6   43.70    7.40
  -1   7   6   44.90    9.80
   0  -7  -6   87.69    9.00
   0  -7  -6  104.59    9.00
   0  -7  -6  102.49    9.50
   0  -7  -6  105.99   12.30
   0  -7  -6  100.89   10.70
   0   7   6   86.89   14.60
   0   7   6   70.89   10.30
   0   7   6  104.09   10.10
   0   7   6  105.89   13.90
   0   7   6   95.19   15.50
   0   7   6  102.19    8.10
   0   7   6   93.79    9.70
  -1  -7  -6   56.69    7.40
  -1  -7  -6   51.09    8.30
  -1  -7  -6   76.49   12.00
  -1  -7  -6   63.19    9.60
  -1  -7  -6   81.09    7.40
   1   7   6   61.29    5.00
   1   7   6   55.89    6.50
   1   7   6   64.69    8.20
   1   7   6   68.39    6.40
   1   7   6   75.09   11.30
   1   7   6   64.59    8.80
   1   7   6   75.19    6.50
   1   7   6   56.29   11.30
  -2  -7  -6   33.60    7.40
  -2  -7  -6   32.40    6.40
  -2  -7  -6   32.50    7.20
  -2  -7  -6   36.40    4.90
   2   7   6   41.30    5.70
   2   7   6   45.00    7.00
   2   7   6   42.90    4.30
   2   7   6   40.50    4.60
   2   7   6   26.00    5.20
   2   7   6   50.89    7.60
  -3  -7  -6  340.37   23.40
  -3  -7  -6  302.77   18.40
  -3  -7  -6  301.87   19.40
  -3  -7  -6  308.07   20.50
  -3  -7  -6  303.57   22.00
   3   7   6  312.27   19.00
   3   7   6  302.87   19.60
   3   7   6  329.87   20.10
   3   7   6  318.77   17.80
   3   7   6  301.67   17.70
   3   7   6  284.77   19.10
  -4  -7  -6   64.49   11.00
  -4  -7  -6   76.29    7.60
  -4  -7  -6   68.19   11.20
   4   7   6   69.39   10.00
   4   7   6   76.79    8.40
   4   7   6   84.89    9.30
   4   7   6   75.59    8.50
   4   7   6   68.19   11.10
   4   7   6   65.09    7.00
  -5  -7  -6   46.10   11.70
  -5  -7  -6   41.30    8.10
   5   7   6   51.89    8.40
   5   7   6   39.50    6.10
   5   7   6   56.79    8.40
   5   7   6   53.79    6.30
   5   7   6   54.49    5.50
   5   7   6   49.40    7.60
   5   7   6   51.89    7.00
  -6  -7  -6   64.19    9.60
  -6  -7  -6   64.49    9.70
  -6  -7  -6   68.99   14.30
   6   7   6   87.49   11.40
   6   7   6   98.09   11.60
   6   7   6   67.59   10.60
   6   7   6   62.19    8.40
   6   7   6   79.69   11.40
   6   7   6   84.19    9.00
  -7  -7  -6    4.70    8.20
  -7  -7  -6   11.30   14.80
  -7  -7  -6   -7.10    8.40
   7   7   6   22.50   18.10
   7   7   6   -1.60    5.80
   7   7   6    2.90    6.90
   7   7   6    0.40    6.70
   7   7   6   13.10    7.30
   2  -8  -6    4.50    6.50
   2  -8  -6   -2.40    5.20
   2  -8  -6   -2.90    8.40
  -2   8   6    2.00    5.50
  -2   8   6   -0.80   19.00
  -2   8   6   -5.00   10.30
  -2   8   6   -3.70    6.50
  -2   8   6    9.80    7.20
  -2   8   6   12.20   13.00
   1  -8  -6   16.60    6.80
   1  -8  -6   16.30    5.90
   1  -8  -6   26.70    7.30
  -1   8   6   22.60    7.00
  -1   8   6   10.60   17.30
  -1   8   6   25.40    5.50
  -1   8   6   26.20    5.10
  -1   8   6   10.20   10.40
  -1   8   6   19.90    5.60
  -1   8   6   25.70   11.20
   0  -8  -6   17.90    7.20
   0  -8  -6   13.70    5.50
   0  -8  -6   17.70    5.90
   0  -8  -6   19.40    6.10
   0   8   6   14.40    5.20
   0   8   6   18.50    4.80
   0   8   6   23.40    9.40
   0   8   6   14.20   10.00
   0   8   6    2.10   15.00
  -1  -8  -6   91.09   14.40
  -1  -8  -6   75.99    9.40
  -1  -8  -6   92.79   11.50
  -1  -8  -6  108.09   14.00
  -1  -8  -6  100.39   10.80
   1   8   6   57.49   13.30
   1   8   6   84.99    9.10
   1   8   6   94.59    8.20
   1   8   6   94.69    9.50
   1   8   6  116.99   15.20
   1   8   6   88.69   10.50
   1   8   6   92.59   10.00
  -2  -8  -6  103.79    9.50
  -2  -8  -6  106.99   12.50
  -2  -8  -6   90.89   14.10
  -2  -8  -6  124.59   15.10
   2   8   6  109.69   14.00
   2   8   6  108.69   10.80
   2   8   6  103.99   10.10
   2   8   6  110.29    8.80
   2   8   6   96.99   11.10
  -3  -8  -6   83.19    9.70
  -3  -8  -6   92.29   13.60
  -3  -8  -6   99.39   16.00
  -3  -8  -6   92.99    9.20
   3   8   6   98.49    8.20
   3   8   6   85.19    9.40
   3   8   6   82.49   10.60
   3   8   6   94.79   10.20
  -4  -8  -6    6.90    4.60
  -4  -8  -6    6.80   10.10
  -4  -8  -6   -1.90    5.80
   4   8   6    8.00    5.40
   4   8   6    6.90    5.70
   4   8   6   12.40    3.90
   4   8   6    8.20    5.10
   4   8   6    0.10    5.10
  -5  -8  -6   47.00    8.40
  -5  -8  -6   66.09   13.10
   5   8   6   58.19    7.50
   5   8   6   50.69    7.60
   5   8   6   70.09    8.00
   5   8   6   70.59    8.20
  -6  -8  -6    0.50    8.10
  -6  -8  -6    3.90    4.60
  -6  -8  -6    5.50   13.80
   6   8   6   11.10    7.50
   6   8   6   -6.60    6.00
   6   8   6    3.00    5.10
   6   8   6    4.00    6.70
   1  -9  -6   56.09    9.40
   1  -9  -6   50.49    9.50
   1  -9  -6   49.60   10.40
  -1   9   6   59.09   14.00
  -1   9   6   51.39    7.50
  -1   9   6   56.69    7.70
  -1   9   6   48.60    8.50
  -1   9   6   72.59   16.70
   0  -9  -6   62.79    9.10
   0  -9  -6   49.80    7.80
   0  -9  -6   50.79    8.80
   0  -9  -6   63.49   10.30
   0   9   6   50.39    7.80
   0   9   6   66.69   14.40
   0   9   6   58.99    7.60
   0   9   6   60.69    7.00
   0   9   6   42.10   12.20
  -1  -9  -6    9.50    6.30
  -1  -9  -6   17.80    8.00
  -1  -9  -6   12.90    6.50
   1   9   6   12.00    4.50
   1   9   6   11.60    5.70
   1   9   6   13.20   18.90
   1   9   6    9.60   11.00
  -2  -9  -6   34.40   14.30
  -2  -9  -6   26.90    6.10
  -2  -9  -6   23.20    7.00
   2   9   6   31.90    5.00
   2   9   6   38.50    7.30
   2   9   6   25.90    6.20
  -3  -9  -6   -5.30   12.30
  -3  -9  -6    4.50   11.90
  -3  -9  -6    3.50    5.40
   3   9   6    3.80    5.90
   3   9   6   -2.00    5.40
   3   9   6    5.80    9.60
   3   9   6    5.30    4.40
  -4  -9  -6   15.00    6.20
  -4  -9  -6   26.50   11.50
  -4  -9  -6    0.20    6.90
   4   9   6   14.20    5.00
   4   9   6    4.80    7.50
   4   9   6   16.30    6.70
  -5  -9  -6   -1.40    7.70
  -5  -9  -6   10.40   12.10
   5   9   6   11.50    5.20
   5   9   6    8.30    6.90
   5   9   6    7.60    6.80
   4   8  -7   74.09   13.60
   4   8  -7   70.79   10.10
   4   8  -7   92.29   11.40
  -4  -8   7   61.59   12.20
  -4  -8   7   75.79   15.00
  -4  -8   7   58.49   16.50
  -4  -8   7   69.39   14.70
   3   8  -7    3.20    7.10
   3   8  -7   -6.00    8.30
   3   8  -7   -4.60    5.70
  -3  -8   7   20.90   14.10
  -3  -8   7   -6.00    7.80
  -3  -8   7   -4.10   10.50
  -3  -8   7    0.50    7.00
   2   8  -7  126.09   18.20
  -2  -8   7  186.78   20.60
  -2  -8   7  201.48   24.50
  -2  -8   7  157.68   15.40
  -2  -8   7  173.28   15.80
   1   8  -7  460.05   30.30
   1   8  -7  402.26   24.80
  -1  -8   7  414.36   26.20
  -1  -8   7  395.06   25.80
  -1  -8   7  441.06   32.20
  -1  -8   7  393.86   25.70
  -1  -8   7  383.26   24.90
  -1  -8   7  414.96   28.10
   0   8  -7  159.98   13.80
   0   8  -7  152.28   17.70
   0  -8   7  190.78   21.60
   0  -8   7  162.38   14.70
   0  -8   7  159.48   16.30
   0  -8   7  146.39   15.70
   0  -8   7  153.48   15.00
   0  -8   7  165.28   12.60
  -1   8  -7    1.60    5.40
  -1   8  -7   10.40    6.60
   1  -8   7   10.60    6.60
   1  -8   7    0.80    6.60
   1  -8   7    1.60    6.70
   1  -8   7    1.60    9.90
   1  -8   7    4.20    6.60
   1  -8   7    6.60    4.10
   5   7  -7   14.30   10.80
   5   7  -7   11.90    9.50
   5   7  -7   -0.40    7.30
   5   7  -7   22.50   10.10
   5   7  -7   18.90    6.80
  -5  -7   7   18.70   14.70
  -5  -7   7   19.90   15.50
  -5  -7   7   18.80    7.80
  -5  -7   7   33.80   16.70
   4   7  -7   33.00   10.30
   4   7  -7   35.50    8.90
   4   7  -7   28.30    8.30
   4   7  -7   37.90   11.00
  -4  -7   7   35.50    6.20
  -4  -7   7   35.90   13.60
  -4  -7   7   30.10   11.90
  -4  -7   7   32.50    7.10
  -4  -7   7   30.00   10.80
   3   7  -7   39.30    6.60
   3   7  -7   40.70    9.60
   3   7  -7   31.60    8.90
   3   7  -7   38.20    7.40
  -3  -7   7   31.00    8.90
  -3  -7   7   28.50   12.10
  -3  -7   7   36.90    5.70
  -3  -7   7   35.20   11.20
  -3  -7   7   38.40    6.60
  -3  -7   7   30.40    6.10
   2   7  -7  587.24   32.90
   2   7  -7  615.24   34.60
   2   7  -7  579.44   33.50
   2   7  -7  623.04   37.50
  -2  -7   7  595.74   34.40
  -2  -7   7  629.44   38.20
  -2  -7   7  607.04   34.40
  -2  -7   7  616.24   41.20
  -2  -7   7  567.24   34.10
  -2  -7   7  573.24   35.50
   1   7  -7  563.74   34.60
   1   7  -7  565.74   32.00
   1   7  -7  530.85   31.50
  -1  -7   7  538.75   31.90
  -1  -7   7  559.44   34.50
  -1  -7   7  510.15   32.10
  -1  -7   7  574.14   32.20
  -1  -7   7  600.64   38.90
   0   7  -7    4.70    5.60
   0   7  -7   -2.10    4.30
   0  -7   7    3.60    4.80
   0  -7   7   -4.90    4.30
   0  -7   7   -4.20    4.60
   0  -7   7   -0.20    6.50
   0  -7   7    5.70    9.80
   0  -7   7   -2.90    4.70
  -1   7  -7    1.40    5.30
  -1   7  -7    0.20    4.50
   1  -7   7    7.10    8.40
   1  -7   7   -0.60    4.70
   1  -7   7    1.60    5.50
   1  -7   7    4.20    4.80
   1  -7   7   -0.50    5.00
   1  -7   7   -2.10    3.70
  -2   7  -7   -7.20    5.10
  -2   7  -7    2.40    5.40
   2  -7   7    0.20    4.90
   2  -7   7   -2.40    5.60
   2  -7   7   -9.10   12.20
   2  -7   7    5.40    4.70
   2  -7   7    2.50    8.10
   2  -7   7    0.70    3.10
  -3   7  -7    1.90    6.30
   3  -7   7   13.80    7.50
   3  -7   7    5.10   16.70
   3  -7   7   11.50    9.00
   3  -7   7   12.60    6.20
   3  -7   7   12.10    4.30
   3  -7   7    4.80    7.00
   3  -7   7   12.60    4.30
   6   6  -7   25.40   13.00
   6   6  -7   35.00   15.50
   6   6  -7   35.30   11.20
  -6  -6   7   55.89   13.60
  -6  -6   7   42.60   14.60
  -6  -6   7   25.20    8.50
  -6  -6   7   55.59   14.30
   5   6  -7   98.99   14.30
   5   6  -7  124.99   14.40
   5   6  -7  124.39   14.00
   5   6  -7  139.29   15.40
   5   6  -7  130.39   22.40
  -5  -6   7  169.38   22.70
  -5  -6   7  120.49   16.40
  -5  -6   7  118.29   14.80
  -5  -6   7  106.49   15.80
   4   6  -7   -3.60    5.00
   4   6  -7   -7.70    7.00
   4   6  -7   -1.20    7.20
   4   6  -7   -3.80    8.60
   4   6  -7   -6.30    7.20
   4   6  -7    0.10    4.80
  -4  -6   7    5.50    4.50
  -4  -6   7   -2.40    9.30
  -4  -6   7    4.90    9.30
  -4  -6   7   -1.70   11.70
  -4  -6   7    3.10    5.20
   3   6  -7  615.14   37.00
   3   6  -7  633.04   38.00
   3   6  -7  632.74   35.50
   3   6  -7  640.94   35.40
  -3  -6   7  594.94   34.80
  -3  -6   7  583.84   36.00
  -3  -6   7  629.74   39.30
  -3  -6   7  604.54   37.80
  -3  -6   7  613.44   41.80
  -3  -6   7  579.54   34.30
   2   6  -7  555.44   29.90
   2   6  -7  541.35   30.60
   2   6  -7  555.24   33.30
   2   6  -7  508.85   30.60
  -2  -6   7  519.75   30.50
  -2  -6   7  532.15   32.30
  -2  -6   7  529.65   37.40
  -2  -6   7  544.35   34.20
  -2  -6   7  449.16   30.80
  -2  -6   7  569.04   30.50
   1   6  -7   36.00    8.20
   1   6  -7   23.70    5.10
   1   6  -7   16.00    5.20
  -1  -6   7   23.70    4.70
  -1  -6   7   21.60    4.20
  -1  -6   7   18.10    7.70
  -1  -6   7   25.70   11.60
  -1  -6   7   22.10    5.90
   0   6  -7   10.90    4.70
   0   6  -7   11.90    6.10
   0  -6   7    8.00    9.90
   0  -6   7    2.90    4.30
   0  -6   7   -2.80    6.20
   0  -6   7    3.90    3.40
   0  -6   7    4.40    4.00
  -1   6  -7  135.89   10.60
  -1   6  -7  138.19   13.50
   1  -6   7  105.19   15.00
   1  -6   7  112.79   10.00
   1  -6   7   99.89   16.80
   1  -6   7  117.59    9.70
   1  -6   7  114.99    8.90
   1  -6   7  120.09   10.70
   1  -6   7  102.69   12.10
  -2   6  -7    0.30    4.60
   2  -6   7   -3.50    3.30
   2  -6   7    1.50    9.50
   2  -6   7   -5.40    4.50
   2  -6   7   -1.60    7.90
   2  -6   7    0.60    3.80
   2  -6   7   -0.80    2.70
   2  -6   7   -2.70    4.30
   2  -6   7    4.20    7.40
   2  -6   7    2.10    2.90
  -3   6  -7   -0.20    5.00
   3  -6   7   13.00    4.10
   3  -6   7    4.00    4.30
   3  -6   7    5.30    5.20
   3  -6   7    6.40    7.30
   3  -6   7    4.50    3.80
   3  -6   7   13.60    7.90
   3  -6   7   14.80   12.80
   3  -6   7    2.60    3.40
  -4   6  -7   46.60    8.20
   4  -6   7   60.89    6.80
   4  -6   7   57.89    8.60
   4  -6   7   45.00   10.70
   4  -6   7   52.39   17.80
   7   5  -7   23.20    9.10
   7   5  -7   20.00   14.60
   7   5  -7   22.30   10.70
   7   5  -7  -15.90   18.10
  -7  -5   7   29.20   10.20
  -7  -5   7   46.70   13.90
  -7  -5   7   67.49   15.10
  -7  -5   7   54.49   16.40
   6   5  -7  211.98   17.10
   6   5  -7  194.98   21.20
   6   5  -7  141.59   21.80
   6   5  -7  245.98   20.50
   6   5  -7  172.98   25.50
  -6  -5   7  168.08   19.00
  -6  -5   7  248.78   24.10
  -6  -5   7  247.78   26.60
   5   5  -7   14.90   10.10
   5   5  -7   13.10    7.30
   5   5  -7   -2.10    9.20
   5   5  -7   10.30    9.20
   5   5  -7    3.90    6.30
   5   5  -7    9.90    5.20
  -5  -5   7    5.30    5.70
  -5  -5   7   -1.30   10.50
  -5  -5   7   11.00    9.10
  -5  -5   7    6.70   11.60
   4   5  -7  182.38   13.80
   4   5  -7  206.78   19.10
   4   5  -7  143.99   18.10
   4   5  -7  184.58   19.00
   4   5  -7  221.28   14.20
   4   5  -7  228.78   16.50
  -4  -5   7  171.08   20.20
  -4  -5   7  236.78   20.90
  -4  -5   7  164.38   13.30
  -4  -5   7  165.88   14.60
  -4  -5   7  197.28   22.80
   3   5  -7  464.75   29.30
   3   5  -7  419.56   26.20
   3   5  -7  452.25   27.50
   3   5  -7  424.76   24.70
   3   5  -7  404.26   27.50
  -3  -5   7  448.36   25.70
  -3  -5   7  454.15   26.00
  -3  -5   7  417.66   26.10
  -3  -5   7  524.65   30.60
  -3  -5   7  434.96   32.30
  -3  -5   7  446.06   29.70
   2   5  -7  142.89   10.80
   2   5  -7  125.19   10.60
   2   5  -7  153.98   15.30
   2   5  -7  121.29   11.50
   2   5  -7  135.99    8.40
  -2  -5   7  130.99   15.50
  -2  -5   7  112.09   10.30
  -2  -5   7  113.39   14.40
  -2  -5   7  135.89    9.90
  -2  -5   7  130.89   18.20
  -2  -5   7  133.59   10.20
   1   5  -7   18.60    6.50
   1   5  -7   12.70    4.00
   1   5  -7   10.50    2.60
   1   5  -7   13.10    2.80
   1   5  -7   11.10    4.60
  -1  -5   7    7.80    5.80
  -1  -5   7   14.00    4.20
  -1  -5   7    5.80    7.10
  -1  -5   7    8.20    3.80
  -1  -5   7   11.30    3.10
  -1  -5   7    1.10    9.40
  -1  -5   7   10.70    6.60
   0   5  -7   30.20    3.70
   0   5  -7   34.50    6.60
   0   5  -7   31.50    4.60
   0  -5   7   12.70    8.80
   0  -5   7   25.80    3.50
   0  -5   7   19.00    5.30
   0  -5   7   22.70    4.40
   0  -5   7   23.20    6.40
   0  -5   7   28.20    5.00
   0  -5   7   24.80    3.30
  -1   5  -7   21.30    4.20
  -1   5  -7   18.80    5.90
   1  -5   7   12.10    3.10
   1  -5   7   20.80    6.70
   1  -5   7    6.00    5.40
   1  -5   7    3.80    7.30
   1  -5   7   11.80    6.40
   1  -5   7   21.40    2.90
   1  -5   7   23.30    4.40
   1  -5   7   11.20    3.90
   1  -5   7   12.80    3.70
  -2   5  -7    5.10    5.10
  -2   5  -7   10.50    4.40
   2  -5   7    7.40    2.90
   2  -5   7    9.50    8.60
   2  -5   7   -0.10    6.70
   2  -5   7    3.00    5.10
   2  -5   7    2.70    6.10
   2  -5   7    2.80    3.30
   2  -5   7    2.00    3.00
   2  -5   7    6.40    2.70
   2  -5   7    4.60    4.20
   2  -5   7    2.10    3.80
   3  -5   7   15.10    4.10
   3  -5   7   37.40   11.60
   3  -5   7   16.60    4.00
   3  -5   7   11.90    6.60
   3  -5   7    6.10    4.10
   3  -5   7    4.00    6.40
   3  -5   7   11.60    3.50
   3  -5   7   11.60    7.10
   3  -5   7   12.70    5.40
  -4   5  -7  176.88   14.40
   4  -5   7  179.08   16.00
   4  -5   7  143.49   18.50
   4  -5   7  180.58   15.60
   4  -5   7  167.28   12.60
   4  -5   7  225.38   25.50
   4  -5   7  177.48   18.10
   4  -5   7  206.58   12.90
   4  -5   7  172.48   14.00
  -5   5  -7  122.89   14.20
   5  -5   7  161.78   14.00
   5  -5   7  149.99   12.60
   5  -5   7  129.49   20.40
   7   4  -7   79.99    9.80
   7   4  -7   67.09   11.70
   7   4  -7   66.09   14.70
  -7  -4   7   72.29   11.90
  -7  -4   7  103.39   14.20
  -7  -4   7  111.89   17.50
   6   4  -7   87.59   12.30
   6   4  -7   72.39   12.30
   6   4  -7   47.80   17.20
   6   4  -7   98.29   11.20
   6   4  -7   76.79   14.20
   6   4  -7  140.09   13.60
  -6  -4   7  103.59   14.70
  -6  -4   7  100.29   14.60
  -6  -4   7  128.19   19.60
   5   4  -7   23.90    9.70
   5   4  -7   23.20   11.70
   5   4  -7   45.30    6.50
   5   4  -7   20.70   10.70
   5   4  -7   39.10    6.80
  -5  -4   7   57.89   12.60
  -5  -4   7   28.50    6.80
  -5  -4   7   49.30   12.10
  -5  -4   7   61.59   11.40
   4   4  -7  767.12   48.20
   4   4  -7  693.33   48.60
   4   4  -7  860.71   45.60
  -4  -4   7  892.71   49.10
  -4  -4   7  966.00   50.19
  -4  -4   7  744.33   45.90
   3   4  -7  198.68   16.40
   3   4  -7  223.08   14.00
   3   4  -7  231.98   16.60
   3   4  -7  197.48   17.40
  -3  -4   7  278.67   19.40
  -3  -4   7  210.48   19.00
  -3  -4   7  208.68   14.70
  -3  -4   7  212.38   14.70
   2   4  -7   12.00    6.50
   2   4  -7    8.20    4.00
   2   4  -7    9.70    4.50
   2   4  -7    6.90    5.30
   2   4  -7    2.00    4.30
  -2  -4   7    8.60    6.20
  -2  -4   7   17.30    6.10
  -2  -4   7    9.70    3.80
  -2  -4   7    0.30    6.10
  -2  -4   7    8.90    3.80
   1   4  -7   68.49    6.70
   1   4  -7   65.09    6.40
   1   4  -7   71.29    6.90
   1   4  -7   64.59    5.50
   1   4  -7   69.79    6.60
   1   4  -7   50.49    7.80
   1   4  -7   81.99   10.60
  -1  -4   7   54.59    7.40
  -1  -4   7   45.50    7.60
  -1  -4   7   63.89    7.80
  -1  -4   7   69.89    7.40
  -1  -4   7   69.09    9.90
  -1  -4   7   76.79    5.80
   0   4  -7    9.90    2.60
   0   4  -7    8.40    5.60
   0   4  -7    5.40    3.30
   0   4  -7    4.40    2.90
   0   4  -7    6.10    3.20
   0  -4   7   -2.80    4.10
   0  -4   7    5.20    7.10
   0  -4   7    2.80    2.50
   0  -4   7    6.10    2.00
   0  -4   7    4.90    4.10
   0  -4   7    5.30    3.90
   0  -4   7   16.00    3.90
   0  -4   7   -0.40    4.50
  -1   4  -7  156.48    9.80
  -1   4  -7  141.39    9.90
  -1   4  -7  159.18   12.50
   1  -4   7  138.69   10.60
   1  -4   7  138.39   10.10
   1  -4   7  150.18    8.90
   1  -4   7  121.49   13.70
   1  -4   7  146.19    9.00
   1  -4   7  116.89   10.60
   1  -4   7  141.89   10.50
   1  -4   7  141.59   15.20
  -2   4  -7   12.20    5.00
  -2   4  -7    6.70    3.80
  -2   4  -7   12.90    3.80
   2  -4   7    6.10    4.40
   2  -4   7   10.00    4.00
   2  -4   7    6.30    3.40
   2  -4   7    9.60    2.90
   2  -4   7   13.70    6.30
   2  -4   7   10.70    3.00
   2  -4   7    6.90    3.80
   2  -4   7    4.80    3.30
   2  -4   7   10.70    8.70
  -3   4  -7  469.65   26.00
  -3   4  -7  437.46   25.10
   3  -4   7  407.16   30.60
   3  -4   7  445.86   23.90
   3  -4   7  394.86   23.90
   3  -4   7  444.96   25.30
   3  -4   7  435.36   24.30
   3  -4   7  445.86   25.80
   3  -4   7  416.46   26.80
   3  -4   7  439.56   27.60
   3  -4   7  441.76   24.40
   4  -4   7  213.48   17.30
   4  -4   7  257.17   23.70
   4  -4   7  237.98   15.40
   4  -4   7  222.98   14.50
   4  -4   7  225.68   16.60
   4  -4   7  243.58   18.80
   4  -4   7  239.88   14.80
   4  -4   7  198.88   19.20
  -5   4  -7   -6.60    5.60
   5  -4   7   -2.30    8.10
   5  -4   7    1.40    5.10
   5  -4   7    3.80    5.90
   5  -4   7   -0.80    5.10
   5  -4   7    2.70    4.60
   5  -4   7   -1.20    7.40
   5  -4   7    5.70    7.00
   5  -4   7   30.30   11.80
  -6   4  -7    4.90    7.40
   6  -4   7   10.80    6.00
   6  -4   7    4.70    6.30
   6  -4   7    6.50   10.40
   6  -4   7    8.30    9.70
   7   3  -7  219.08   17.50
   7   3  -7  171.58   17.40
   7   3  -7  135.99   23.80
   7   3  -7  166.48   20.80
  -7  -3   7  264.67   26.60
  -7  -3   7  259.77   39.40
  -7  -3   7  220.48   21.50
   6   3  -7   35.80    7.60
   6   3  -7   17.50    6.30
   6   3  -7   16.80   10.80
   6   3  -7    4.60    9.90
   6   3  -7   10.80    5.30
  -6  -3   7   23.40   10.50
  -6  -3   7   27.30   10.20
  -6  -3   7   22.90    7.10
  -6  -3   7   34.60   10.90
   5   3  -7  413.26   23.10
   5   3  -7  318.47   22.60
   5   3  -7  342.57   22.30
  -5  -3   7  279.87   23.80
  -5  -3   7  379.16   26.70
  -5  -3   7  389.96   26.50
  -5  -3   7  382.16   27.30
   4   3  -7  358.96   21.70
   4   3  -7  377.16   21.80
   4   3  -7  267.57   26.00
   4   3  -7  268.47   25.30
  -4  -3   7  342.97   25.40
  -4  -3   7  307.57   21.90
  -4  -3   7  403.46   25.30
  -4  -3   7  375.06   24.50
   3   3  -7   17.10    5.50
   3   3  -7    4.80    7.10
   3   3  -7   17.50    5.30
   3   3  -7   21.40    5.10
   3   3  -7   15.00    7.10
   3   3  -7   14.00    5.30
  -3  -3   7   12.60    4.30
  -3  -3   7   26.60    7.60
  -3  -3   7   20.50    6.00
  -3  -3   7   13.30    4.40
   2   3  -7  186.38   16.00
   2   3  -7  232.68   17.60
   2   3  -7  210.98   15.00
   2   3  -7  229.08   14.00
   2   3  -7  212.28   13.40
   2   3  -7  217.58   15.30
  -2  -3   7  217.18   13.90
  -2  -3   7  218.68   14.80
  -2  -3   7  231.98   17.90
  -2  -3   7  223.78   16.60
   1   3  -7   26.70    3.80
   1   3  -7   21.50    3.50
   1   3  -7   24.40    3.30
   1   3  -7   17.00    4.40
   1   3  -7   24.00    4.30
   1   3  -7   23.90    5.70
  -1  -3   7   22.00    5.50
  -1  -3   7   20.30    4.30
  -1  -3   7   24.90    4.20
  -1  -3   7   17.50    4.60
  -1  -3   7   26.30    4.50
  -1  -3   7   23.10    3.40
  -1  -3   7   12.40    5.80
   0   3  -7  173.78   10.90
   0   3  -7  181.98   10.20
   0   3  -7  185.98   10.70
   0   3  -7  183.88    9.90
   0   3  -7  185.78   13.60
   0   3  -7  173.68   10.40
   0  -3   7  138.79   12.50
   0  -3   7  157.28   14.90
   0  -3   7  167.58   11.80
   0  -3   7  162.58   11.80
   0  -3   7  184.88   12.00
   0  -3   7  170.38   10.40
  -1   3  -7   43.00    5.10
  -1   3  -7   54.19    4.90
  -1   3  -7   49.50    6.20
  -1   3  -7   36.60    5.00
   1  -3   7   40.70    8.20
   1  -3   7   34.80    7.20
   1  -3   7   41.60    4.50
   1  -3   7   27.70    5.00
   1  -3   7   48.90    5.90
   1  -3   7   34.30    4.60
   1  -3   7   45.20    5.20
  -2   3  -7  144.39    9.20
  -2   3  -7  150.78   11.50
  -2   3  -7  124.19    9.40
   2  -3   7  123.69   14.60
   2  -3   7  132.19   13.50
   2  -3   7  137.39   10.20
   2  -3   7  139.99    9.00
   2  -3   7  139.19   10.30
   2  -3   7  131.49    8.60
  -3   3  -7  150.48   11.40
  -3   3  -7  128.09    9.90
   3  -3   7  110.49    8.90
   3  -3   7  154.48   16.50
   3  -3   7  147.39    8.50
   3  -3   7  145.09   10.50
   3  -3   7  144.39    9.70
   3  -3   7  136.89    8.90
   3  -3   7  135.99   12.30
   3  -3   7  134.29   13.90
   3  -3   7  140.09   10.90
  -4   3  -7   11.70    3.90
  -4   3  -7   17.50    4.50
   4  -3   7   11.60    6.20
   4  -3   7   23.10    8.50
   4  -3   7   13.30    2.30
   4  -3   7   13.60    3.50
   4  -3   7   15.30    4.30
   4  -3   7   13.60    2.40
   4  -3   7   15.90    4.80
   4  -3   7   16.50    4.00
   4  -3   7    6.10    5.40
   5  -3   7   36.80    8.90
   5  -3   7   38.60    4.50
   5  -3   7   44.30    5.20
   5  -3   7   41.50   10.50
   5  -3   7   41.50    6.00
   5  -3   7   42.40    8.20
   5  -3   7   28.70    5.00
   5  -3   7   37.70    6.80
   5  -3   7   40.50    4.20
  -6   3  -7    9.50    6.30
   6  -3   7    7.90    3.20
   6  -3   7   11.90    9.10
   6  -3   7    8.60    5.50
   6  -3   7   10.10    5.50
   6  -3   7   15.00    6.10
   6  -3   7    9.80    7.80
   6  -3   7    4.90    7.50
   6  -3   7   12.70    2.90
   7   2  -7  148.99   18.10
   7   2  -7  210.98   22.00
   7   2  -7  183.78   31.10
   7   2  -7  257.87   24.00
  -7  -2   7  188.58   19.40
  -7  -2   7  215.38   25.50
  -7  -2   7  249.58   24.50
   6   2  -7   31.10   15.40
   6   2  -7   69.49    9.30
   6   2  -7   79.49   12.70
   6   2  -7   99.09   11.70
  -6  -2   7   66.59   12.10
  -6  -2   7   61.39   10.60
  -6  -2   7   73.49   11.70
   5   2  -7  345.47   29.50
   5   2  -7  370.56   23.90
   5   2  -7  338.87   23.70
   5   2  -7  411.36   23.70
  -5  -2   7  435.96   27.50
  -5  -2   7  345.17   24.50
  -5  -2   7  371.36   26.60
   4   2  -7   45.20   11.20
   4   2  -7   78.29    8.50
   4   2  -7   71.79   11.30
   4   2  -7   75.59   10.60
   4   2  -7   98.99   11.00
  -4  -2   7   94.89   12.70
  -4  -2   7  110.99   13.80
  -4  -2   7   60.79    8.30
   3   2  -7  320.37   25.00
   3   2  -7  275.57   21.30
   3   2  -7  274.17   23.80
   3   2  -7  339.37   20.80
   3   2  -7  297.07   25.00
   3   2  -7  395.46   21.90
  -3  -2   7  353.56   22.20
  -3  -2   7  406.76   22.70
  -3  -2   7  397.86   23.10
  -3  -2   7  332.37   21.70
   2   2  -7    1.20    5.90
   2   2  -7    6.80    3.60
   2   2  -7   -5.90    4.10
   2   2  -7    1.20    3.60
   2   2  -7   -4.00    6.00
   2   2  -7    1.20    3.30
  -2  -2   7    0.20    4.20
  -2  -2   7    4.50    5.70
  -2  -2   7    3.20    4.40
  -2  -2   7    1.80    3.60
   1   2  -7  392.46   21.00
   1   2  -7  389.16   21.80
   1   2  -7  370.76   23.40
   1   2  -7  362.56   24.00
   1   2  -7  407.06   21.20
   1   2  -7  369.96   22.10
  -1  -2   7  383.36   22.10
  -1  -2   7  361.16   22.50
  -1  -2   7  352.96   20.90
   0   2  -7  176.78   10.50
   0   2  -7  190.08   10.60
   0   2  -7  184.98   10.80
   0   2  -7  177.58   10.90
   0   2  -7  189.98   13.80
   0   2  -7  177.38   11.50
   0  -2   7  175.68   10.70
   0  -2   7  179.58   15.00
   0  -2   7  151.28   12.40
   0  -2   7  185.78   11.70
   0  -2   7  171.68   11.90
  -1   2  -7   68.59    5.30
  -1   2  -7   72.99    8.40
  -1   2  -7   67.89    5.70
  -1   2  -7   66.99    5.50
   1  -2   7   68.39   10.90
   1  -2   7   77.79    7.40
   1  -2   7   74.29    6.50
   1  -2   7   65.39    5.60
   1  -2   7   78.29    6.30
   1  -2   7   50.79    7.20
   1  -2   7   63.99    9.30
  -2   2  -7  177.38   12.30
  -2   2  -7  188.38   12.00
  -2   2  -7  219.08   13.80
   2  -2   7  226.48   12.60
   2  -2   7  226.98   12.00
   2  -2   7  237.78   16.80
   2  -2   7  217.08   12.20
   2  -2   7  172.88   11.60
   2  -2   7  207.28   12.30
   2  -2   7  196.98   12.60
   2  -2   7  198.98   15.90
  -3   2  -7  263.37   15.60
  -3   2  -7  271.07   16.50
  -3   2  -7  242.78   22.60
   3  -2   7  286.67   16.30
   3  -2   7  242.68   15.10
   3  -2   7  264.77   14.80
   3  -2   7  260.27   15.10
   3  -2   7  265.77   14.80
   3  -2   7  270.07   16.70
   3  -2   7  265.37   15.60
   3  -2   7  270.07   16.60
   3  -2   7  258.77   18.80
   3  -2   7  249.97   19.70
  -4   2  -7   60.79    7.00
  -4   2  -7   67.89   14.50
  -4   2  -7   75.29    8.10
   4  -2   7   70.29    5.10
   4  -2   7   64.49    5.30
   4  -2   7   57.89    5.90
   4  -2   7   61.99    7.20
   4  -2   7   73.69    9.20
   4  -2   7   64.89   12.60
   4  -2   7   71.09    5.30
   4  -2   7   70.79   11.20
   4  -2   7   70.69    7.60
   4  -2   7   67.29   10.50
  -5   2  -7   80.39    8.90
  -5   2  -7   78.59   17.50
   5  -2   7   86.09    6.30
   5  -2   7   85.09   11.20
   5  -2   7   90.89   14.00
   5  -2   7   77.59    6.60
   5  -2   7   80.59    7.30
   5  -2   7   88.79    9.20
   5  -2   7   87.59   14.60
   5  -2   7   83.49    8.40
   5  -2   7   81.79   11.80
   5  -2   7   96.59    6.10
  -6   2  -7   19.50   18.60
   6  -2   7   11.90    3.10
   6  -2   7   12.50    5.90
   6  -2   7   13.30    3.00
   6  -2   7   16.40    7.30
   6  -2   7   12.40    8.30
   6  -2   7    9.60    6.40
   6  -2   7   14.20    3.60
   6  -2   7    4.30    8.00
   6  -2   7   10.10    4.40
  -7   2  -7   24.90    7.50
  -7   2  -7   23.50   24.80
   7  -2   7   27.30    4.30
   7  -2   7   30.00    5.90
   7  -2   7   25.70    5.20
   7  -2   7   21.00   10.70
   7  -2   7   32.90    6.70
   7  -2   7   36.20    7.50
   7  -2   7   27.90    9.50
   7  -2   7   26.60    4.60
   7  -2   7   21.60    6.60
   7   1  -7   52.29   10.40
   7   1  -7   60.69   11.80
   7   1  -7   26.80    9.40
   7   1  -7   27.60   12.30
  -7  -1   7   43.10   11.30
  -7  -1   7   39.40    9.20
  -7  -1   7   35.40    7.70
  -7  -1   7   39.00   12.00
  -7  -1   7   33.30   11.50
   6   1  -7   47.90    9.90
   6   1  -7   13.50    7.80
   6   1  -7    7.30   10.80
  -6  -1   7   27.30   10.80
  -6  -1   7   15.70    6.60
  -6  -1   7   29.20    9.20
   5   1  -7   35.60    7.60
   5   1  -7   19.50    5.50
   5   1  -7   10.80   10.50
  -5  -1   7   35.20    8.40
  -5  -1   7   21.90    8.10
  -5  -1   7   26.90    6.80
  -5  -1   7   34.90    7.90
  -5  -1   7   35.90    9.10
   4   1  -7  114.59   12.10
   4   1  -7  125.29   12.80
   4   1  -7  134.89   20.30
   4   1  -7  139.29   12.50
  -4  -1   7  131.99   14.40
  -4  -1   7  119.79   13.10
  -4  -1   7  112.99   12.40
  -4  -1   7  151.58   13.00
  -4  -1   7  134.49   13.40
   3   1  -7   13.00    4.80
   3   1  -7    1.30    7.80
   3   1  -7    5.20    4.70
   3   1  -7    0.50    7.90
   3   1  -7    5.20    4.70
  -3  -1   7   21.10    6.00
  -3  -1   7    6.70    4.10
  -3  -1   7    7.60    5.60
  -3  -1   7    9.20    4.90
  -3  -1   7    5.10    4.30
   2   1  -7   55.49    7.60
   2   1  -7   94.69   13.20
   2   1  -7   52.29    9.70
   2   1  -7   54.19    6.90
   2   1  -7   52.69    8.10
   2   1  -7   34.90    7.20
  -2  -1   7   55.29   10.20
  -2  -1   7   52.09    7.10
  -2  -1   7   59.29    9.30
  -2  -1   7   55.89    8.00
   1   1  -7  772.12   43.90
   1   1  -7  750.02   41.80
   1   1  -7  811.52   41.10
   1   1  -7  724.93   43.70
   1   1  -7  802.92   41.60
   1   1  -7  744.33   40.90
  -1  -1   7  741.63   47.00
  -1  -1   7  689.03   41.30
  -1  -1   7  736.93   43.40
  -1  -1   7  751.52   40.70
  -1  -1   7  776.62   41.50
   0   1  -7  388.16   20.60
   0   1  -7  324.27   22.80
   0   1  -7  385.66   20.50
   0   1  -7  371.16   22.90
   0   1  -7  393.76   19.90
   0  -1   7  369.26   20.30
   0  -1   7  376.26   20.90
   0  -1   7  356.46   23.50
   0  -1   7  315.37   21.70
   0  -1   7  362.06   21.00
  -1   1  -7  288.97   15.50
  -1   1  -7  283.67   15.70
  -1   1  -7  278.77   15.20
  -1   1  -7  286.37   15.10
  -1   1  -7  232.78   16.10
  -1   1  -7  280.07   17.50
  -1   1  -7  287.97   18.80
   1  -1   7  279.47   16.00
   1  -1   7  276.27   15.60
   1  -1   7  241.68   16.60
   1  -1   7  301.17   15.90
   1  -1   7  249.68   19.40
  -2   1  -7  214.58   17.30
  -2   1  -7  231.68   14.20
  -2   1  -7  214.48   12.50
  -2   1  -7  218.88   12.90
   2  -1   7  194.08   13.10
   2  -1   7  221.18   12.70
   2  -1   7  208.78   12.80
   2  -1   7  209.48   12.80
   2  -1   7  213.68   12.10
   2  -1   7  233.78   14.00
   2  -1   7  211.98   11.90
   2  -1   7  232.18   17.00
  -3   1  -7   90.49   14.10
  -3   1  -7   85.69    8.00
  -3   1  -7   85.09    6.60
   3  -1   7   84.89    7.20
   3  -1   7   90.39    6.40
   3  -1   7   84.69    9.20
   3  -1   7   84.89    6.50
   3  -1   7   89.99    8.00
   3  -1   7   95.79   11.60
   3  -1   7   93.39    7.70
   3  -1   7   85.49    5.80
  -4   1  -7  129.29    9.90
  -4   1  -7  125.69   19.50
  -4   1  -7  137.09    9.40
   4  -1   7  140.59   12.00
   4  -1   7  135.39   10.30
   4  -1   7  132.49   13.90
   4  -1   7  130.59    8.50
   4  -1   7  135.09   11.50
   4  -1   7  140.59    8.60
   4  -1   7  136.29   10.10
   4  -1   7  138.29   13.10
   4  -1   7  139.09    8.70
   4  -1   7  135.29    8.70
  -5   1  -7   20.70    4.00
  -5   1  -7   13.70    3.90
  -5   1  -7   15.10   13.10
   5  -1   7   19.90    3.30
   5  -1   7   21.60    3.00
   5  -1   7   18.60    5.90
   5  -1   7   18.70    7.20
   5  -1   7   20.30    6.50
   5  -1   7   19.20    3.40
   5  -1   7   17.80    4.90
   5  -1   7   22.70    3.10
   5  -1   7   21.80    6.60
  -6   1  -7   11.60   18.10
  -6   1  -7   16.40    4.80
   6  -1   7   20.40    5.70
   6  -1   7   19.50    6.90
   6  -1   7   20.30    3.60
   6  -1   7   13.70    7.50
   6  -1   7   18.70    8.40
   6  -1   7   19.80    4.00
   6  -1   7   14.00    6.90
   6  -1   7   19.60    4.40
  -7   1  -7   69.39   25.30
  -7   1  -7  106.79   14.10
   7  -1   7  118.39   20.80
   7  -1   7  101.89   11.30
   7  -1   7  125.29   13.10
   7  -1   7  115.19    9.30
   7  -1   7  112.69   10.50
   7  -1   7  116.69    9.20
   7   0  -7   31.80    9.70
   7   0  -7   13.90    9.70
   7   0  -7    5.80   10.50
  -7   0   7   41.10   21.60
  -7   0   7   15.50    9.30
  -7   0   7    7.20    7.40
  -7   0   7   19.10   12.10
  -7   0   7   22.40   10.30
   6   0  -7   -0.60    8.00
   6   0  -7    1.70    7.60
   6   0  -7   -5.90    9.00
  -6   0   7    6.40    8.30
  -6   0   7    4.40    9.20
  -6   0   7   11.50    8.30
  -6   0   7    1.70   10.00
   5   0  -7   45.70    6.80
   5   0  -7   33.20    7.30
   5   0  -7   39.40   10.00
  -5   0   7   32.80    7.90
  -5   0   7   46.90    8.80
  -5   0   7   28.90    8.40
  -5   0   7   55.09   11.00
   4   0  -7  173.68   14.40
   4   0  -7  140.59   13.70
   4   0  -7  187.98   14.00
  -4   0   7  163.38   13.70
  -4   0   7  134.89   13.60
  -4   0   7  157.08   14.00
   3   0  -7   31.00    6.80
   3   0  -7   30.50    5.30
   3   0  -7    9.30    9.80
   3   0  -7   19.50    6.40
   3   0  -7    8.40    5.10
  -3   0   7    6.10    4.00
  -3   0   7   20.60    6.30
  -3   0   7   14.20    4.90
  -3   0   7   31.20    8.00
   2   0  -7 1420.86   74.89
   2   0  -7 1390.56   75.09
  -2   0   7 1418.26   75.89
  -2   0   7 1372.76   74.29
  -2   0   7 1317.97   74.19
  -2   0   7 1356.36   74.09
   1   0  -7  646.24   33.80
   1   0  -7  618.84   34.20
  -1   0   7  596.44   36.10
  -1   0   7  575.24   33.30
  -1   0   7  593.64   33.90
  -1   0   7  644.14   34.00
   0   0  -7   58.69    7.50
   0   0  -7   48.40    8.30
   0   0  -7   51.29    5.50
   0   0  -7   56.29    3.90
   0   0  -7   56.29    4.40
   0   0  -7   56.19    5.50
   0   0   7   63.39    6.20
   0   0   7   57.09    6.00
   0   0   7   57.29    5.30
   0   0   7   57.39   10.20
  -1   0  -7   75.69    6.20
  -1   0  -7   74.99    4.70
  -1   0  -7   75.19    9.00
  -1   0  -7   97.99    9.80
  -1   0  -7   82.49    9.90
  -1   0  -7   76.99    5.50
  -1   0  -7   78.69    5.80
   1   0   7   96.09   11.20
   1   0   7   75.49    6.10
   1   0   7   76.09    7.50
   1   0   7   84.19    6.50
   1   0   7   77.49    6.50
  -2   0  -7   62.19    7.60
  -2   0  -7   53.79    4.20
  -2   0  -7   54.29    4.40
  -2   0  -7   49.80    5.20
  -2   0  -7   57.39   10.30
   2   0   7   56.39    3.50
   2   0   7   52.69    5.70
   2   0   7   56.59    5.10
   2   0   7   54.29    5.40
   2   0   7   60.69   10.40
  -3   0  -7  332.17   23.90
  -3   0  -7  324.97   18.70
  -3   0  -7  322.67   19.20
  -3   0  -7  324.77   18.20
   3   0   7  319.27   18.40
   3   0   7  319.07   17.70
   3   0   7  315.47   22.10
   3   0   7  340.57   19.30
   3   0   7  324.37   18.80
   3   0   7  337.37   18.60
   3   0   7  336.57   18.90
  -4   0  -7    7.90    8.10
  -4   0  -7   26.60    3.30
  -4   0  -7   16.90    9.70
  -4   0  -7   19.60    3.60
   4   0   7   20.30    3.20
   4   0   7   19.40    4.20
   4   0   7   29.30    4.40
   4   0   7   22.30    4.50
   4   0   7   19.30    6.40
   4   0   7   22.00    2.60
   4   0   7   20.10    3.10
   4   0   7   17.00    3.70
  -5   0  -7  242.98   14.80
  -5   0  -7  234.78   27.70
  -5   0  -7  241.38   14.70
   5   0   7  255.87   18.20
   5   0   7  255.57   14.50
   5   0   7  245.08   15.80
   5   0   7  241.08   18.50
   5   0   7  246.08   18.40
   5   0   7  243.18   14.80
   5   0   7  228.68   14.10
   5   0   7  249.38   14.40
  -6   0  -7  254.97   35.20
  -6   0  -7  263.47   17.10
   6   0   7  290.17   18.20
   6   0   7  269.87   16.10
   6   0   7  281.97   22.00
   6   0   7  272.37   20.90
   6   0   7  261.97   16.30
   6   0   7  278.97   16.80
   6   0   7  279.87   17.60
  -7   0  -7    0.40    4.70
  -7   0  -7  -27.40   20.50
   7   0   7   -2.20    8.80
   7   0   7    6.40    3.80
   7   0   7   -1.00    4.70
   7   0   7    2.00    4.70
   7   0   7    5.80    4.10
   7   0   7    4.40    6.00
   7   0   7    6.40    7.20
  -8   0  -7  -12.00   26.20
  -8   0  -7   -3.90    6.70
   8   0   7   -2.00    5.80
   8   0   7   -5.60    7.40
   8   0   7    5.20    5.00
   8   0   7   -5.00   10.50
   8   0   7   -1.00    4.30
   8   0   7  -12.70    6.80
   8   0   7    8.50    5.20
   7  -1  -7   -6.10    8.90
   7  -1  -7   -3.40   10.10
   7  -1  -7   26.10   10.20
  -7   1   7    9.80   10.90
  -7   1   7   -2.80   11.60
  -7   1   7   12.80   10.60
  -7   1   7    6.30    9.90
  -7   1   7    7.40    9.20
   6  -1  -7   62.69    9.30
   6  -1  -7   62.09   11.10
   6  -1  -7   59.09   10.60
  -6   1   7   67.69   10.80
  -6   1   7   94.39   17.30
  -6   1   7   49.60    9.90
  -6   1   7   97.39   12.30
  -6   1   7   58.59   11.70
   5  -1  -7  249.97   30.00
   5  -1  -7  311.17   23.20
   5  -1  -7  295.17   21.20
   5  -1  -7  358.96   20.90
  -5   1   7  298.67   21.80
  -5   1   7  258.27   22.90
  -5   1   7  312.87   21.60
   4  -1  -7   13.10    6.00
   4  -1  -7   -4.40    5.20
   4  -1  -7    7.00    6.20
   4  -1  -7    5.20    5.00
   4  -1  -7   -9.20    6.00
  -4   1   7    2.60    5.80
  -4   1   7    7.10    5.20
  -4   1   7    2.10    9.90
  -4   1   7    2.00    5.70
   3  -1  -7  612.64   32.80
   3  -1  -7  582.74   32.20
   3  -1  -7  527.55   32.50
   3  -1  -7  643.04   32.40
   3  -1  -7  510.35   32.40
  -3   1   7  519.05   31.50
  -3   1   7  519.15   31.50
  -3   1   7  507.25   32.10
   2  -1  -7  751.22   42.10
   2  -1  -7  713.03   42.00
   2  -1  -7  768.62   41.80
   2  -1  -7  768.92   42.20
  -2   1   7  738.73   41.30
  -2   1   7  732.63   41.40
  -2   1   7  701.03   41.60
  -2   1   7  842.62   43.90
   1  -1  -7  227.38   14.70
   1  -1  -7  213.68   13.20
   1  -1  -7  206.68   13.50
  -1   1   7  218.28   13.30
  -1   1   7  221.58   13.30
  -1   1   7  207.38   16.40
  -1   1   7  177.68   12.60
  -1   1   7  191.58   16.90
   0  -1  -7    8.80    4.10
   0  -1  -7    6.20    3.50
   0  -1  -7    9.10    2.60
   0  -1  -7   11.70    2.90
   0   1   7    9.20    2.90
   0   1   7    7.00    2.90
   0   1   7    6.50    6.00
   0   1   7   11.70    3.30
   0   1   7    8.90    3.80
  -1  -1  -7  249.48   14.80
  -1  -1  -7  294.57   16.40
  -1  -1  -7  278.47   17.10
  -1  -1  -7  262.97   14.90
  -1  -1  -7  250.87   14.80
   1   1   7  248.28   19.10
   1   1   7  224.08   14.70
   1   1   7  240.68   15.70
   1   1   7  243.28   14.90
  -2  -1  -7  903.91   51.09
  -2  -1  -7  950.80   49.50
  -2  -1  -7  863.91   49.60
  -2  -1  -7  825.92   49.60
  -2  -1  -7  938.11   48.20
  -2  -1  -7  924.11   48.50
   2   1   7  942.01   48.80
   2   1   7  919.11   49.20
   2   1   7  902.01   48.70
   2   1   7  877.11   56.89
  -3  -1  -7  156.48   13.60
  -3  -1  -7  154.18    9.40
  -3  -1  -7  153.58    9.10
  -3  -1  -7  153.58   10.10
  -3  -1  -7  147.49   11.80
  -3  -1  -7  154.88   15.70
  -3  -1  -7  157.58   11.10
   3   1   7  160.58   14.80
   3   1   7  161.08   10.10
   3   1   7  153.28    8.50
   3   1   7  159.68   10.00
   3   1   7  160.38   10.60
   3   1   7  146.89   10.40
   3   1   7  150.48   10.40
  -4  -1  -7  295.77   16.40
  -4  -1  -7  263.97   21.70
  -4  -1  -7  296.27   16.60
  -4  -1  -7  297.17   17.20
  -4  -1  -7  286.17   24.10
   4   1   7  309.67   17.70
   4   1   7  271.77   17.50
   4   1   7  305.27   17.60
   4   1   7  303.97   17.20
   4   1   7  304.07   18.50
   4   1   7  293.87   16.10
   4   1   7  295.47   16.90
   4   1   7  294.77   19.00
  -5  -1  -7  533.05   29.50
  -5  -1  -7  501.05   39.10
  -5  -1  -7  534.65   29.50
  -5  -1  -7  486.45   36.10
   5   1   7  558.84   30.60
   5   1   7  527.15   29.20
   5   1   7  537.75   30.00
   5   1   7  549.05   30.40
   5   1   7  549.35   30.90
   5   1   7  544.15   29.70
   5   1   7  546.65   29.60
   5   1   7  565.54   32.20
  -6  -1  -7  127.29   20.90
  -6  -1  -7  177.18   10.90
  -6  -1  -7  152.08   26.00
  -6  -1  -7  175.28   12.00
   6   1   7  162.98   11.40
   6   1   7  143.79   14.40
   6   1   7  186.98   11.40
   6   1   7  175.68   12.60
   6   1   7  182.08   14.00
   6   1   7  179.98   12.50
   6   1   7  193.68   17.50
   6   1   7  185.78   11.60
  -7  -1  -7    1.50   18.90
  -7  -1  -7    8.80   13.60
  -7  -1  -7    7.60    4.90
   7   1   7   10.20    4.10
   7   1   7    9.90    5.00
   7   1   7    5.70    4.80
   7   1   7   12.50    6.50
   7   1   7    7.30    4.40
   7   1   7    3.50    8.30
   7   1   7   11.20    3.80
  -8  -1  -7    7.10   23.80
  -8  -1  -7   -9.10   22.60
  -8  -1  -7    7.60    7.60
   8   1   7    0.70    4.80
   8   1   7   -7.80   10.00
   8   1   7    5.40    7.30
   8   1   7    1.00    6.00
   8   1   7   -1.00    6.70
   8   1   7    3.80    5.20
   7  -2  -7   54.39   11.00
   7  -2  -7   52.99   13.20
   7  -2  -7   83.29   14.10
  -7   2   7   87.19   12.80
  -7   2   7   98.69   14.40
  -7   2   7  100.39   23.30
  -7   2   7   79.89   11.10
  -7   2   7   73.99   15.10
  -7   2   7   59.69   14.20
   6  -2  -7  188.58   19.70
   6  -2  -7  171.28   26.40
   6  -2  -7  169.58   17.00
  -6   2   7  229.48   20.20
  -6   2   7  171.28   22.00
  -6   2   7  212.18   19.30
   5  -2  -7   16.30    5.90
   5  -2  -7   16.70    8.70
   5  -2  -7   27.50    6.60
   5  -2  -7   23.80    7.80
  -5   2   7   34.50    9.20
  -5   2   7   18.10   15.10
  -5   2   7   30.10    7.20
  -5   2   7   45.60   11.40
  -5   2   7   34.30    7.60
   4  -2  -7  119.19   15.10
   4  -2  -7  142.79   12.70
   4  -2  -7  143.79   14.20
   4  -2  -7  128.69   15.10
  -4   2   7  145.59   12.90
  -4   2   7  163.48   13.20
  -4   2   7  139.49   15.20
  -4   2   7  151.28   22.30
   3  -2  -7  937.01   52.29
   3  -2  -7  911.61   53.29
   3  -2  -7 1085.59   53.19
  -3   2   7  889.01   51.79
  -3   2   7  944.41   52.09
  -3   2   7  939.21   53.29
   2  -2  -7  601.94   32.40
   2  -2  -7  553.74   31.90
   2  -2  -7  597.24   32.80
  -2   2   7  469.05   34.50
  -2   2   7  637.74   49.80
  -2   2   7  552.54   32.50
  -2   2   7  545.45   31.70
  -2   2   7  579.54   31.70
   1  -2  -7   18.70    4.00
   1  -2  -7   12.70    3.30
   1  -2  -7   12.80    3.70
   1  -2  -7   11.40    3.50
  -1   2   7   10.60    5.10
  -1   2   7   10.00    3.20
  -1   2   7    8.50    3.10
  -1   2   7   14.60    3.70
   0  -2  -7   16.40    4.00
   0  -2  -7   17.80    3.40
   0  -2  -7   22.30    4.10
   0  -2  -7   16.30    3.60
   0  -2  -7   19.30    1.90
   0   2   7    9.90   10.00
   0   2   7   16.10    4.70
   0   2   7   20.40    3.50
   0   2   7   21.60    3.60
   0   2   7   16.10    3.20
  -1  -2  -7 1413.46   75.39
  -1  -2  -7 1323.57   74.79
  -1  -2  -7 1483.95   74.49
  -1  -2  -7 1417.76   74.69
   1   2   7 1404.46   74.29
   1   2   7 1340.67   77.79
   1   2   7 1346.27   74.09
  -2  -2  -7   10.60    2.50
  -2  -2  -7   16.50    4.00
  -2  -2  -7   12.40    5.50
  -2  -2  -7   10.20    2.70
  -2  -2  -7   10.50    3.20
   2   2   7   11.20    2.80
   2   2   7    6.00    2.40
   2   2   7    7.80    5.30
  -3  -2  -7  228.08   13.20
  -3  -2  -7  240.68   16.10
  -3  -2  -7  257.97   14.00
  -3  -2  -7  240.08   14.30
  -3  -2  -7  241.88   19.00
  -3  -2  -7  212.28   15.50
  -3  -2  -7  225.38   15.30
   3   2   7  240.08   14.40
   3   2   7  238.18   14.40
   3   2   7  237.28   16.80
   3   2   7  240.78   14.90
   3   2   7  243.78   14.20
   3   2   7  238.68   14.50
   3   2   7  231.78   14.30
  -4  -2  -7  862.51   47.20
  -4  -2  -7  848.52   49.40
  -4  -2  -7  882.41   47.40
  -4  -2  -7  854.61   52.29
  -4  -2  -7  880.31   46.90
  -4  -2  -7  852.01   48.00
  -4  -2  -7  883.41   46.50
   4   2   7  860.31   47.40
   4   2   7  885.81   48.30
   4   2   7  894.01   47.30
   4   2   7  879.21   47.50
   4   2   7  838.42   48.40
   4   2   7  906.71   47.20
   4   2   7  881.11   47.40
  -5  -2  -7  673.53   37.00
  -5  -2  -7  660.03   38.40
  -5  -2  -7  642.34   41.30
  -5  -2  -7  697.33   36.90
  -5  -2  -7  652.63   45.20
  -5  -2  -7  681.33   36.90
   5   2   7  686.03   38.00
   5   2   7  700.13   37.30
   5   2   7  669.83   38.20
   5   2   7  708.43   37.80
   5   2   7  676.63   37.40
   5   2   7  709.63   39.50
   5   2   7  694.63   37.80
  -6  -2  -7  124.19    9.10
  -6  -2  -7  115.49    7.70
  -6  -2  -7  113.79   19.50
  -6  -2  -7   96.89    9.00
  -6  -2  -7   89.79   17.60
  -6  -2  -7  104.79   12.10
   6   2   7  121.39    9.00
   6   2   7  123.89    9.20
   6   2   7  117.19   10.40
   6   2   7  119.59   11.40
   6   2   7  119.49   14.80
   6   2   7  112.69   10.10
   6   2   7  107.19    9.80
  -7  -2  -7   28.50   12.60
  -7  -2  -7    4.20   17.90
   7   2   7   23.60    7.10
   7   2   7   28.60    4.50
   7   2   7   21.20    5.10
   7   2   7   14.00    8.50
   7   2   7   22.70    4.80
   7   2   7   19.40    5.70
   7   2   7   23.40    4.90
  -8  -2  -7    4.50   27.80
  -8  -2  -7    9.40   13.30
  -8  -2  -7   -2.90   21.30
   8   2   7    3.60    6.20
   8   2   7   -7.20    9.70
   8   2   7    2.40    4.80
   8   2   7    3.50    5.20
   8   2   7    8.00    7.50
   8   2   7    7.60    4.90
   6  -3  -7   19.30   12.10
   6  -3  -7   12.80    8.20
   6  -3  -7   13.80    6.40
  -6   3   7   22.70   11.80
  -6   3   7   23.90    9.10
  -6   3   7   36.10   12.60
  -6   3   7   31.20   21.80
  -6   3   7   25.00    9.40
  -6   3   7   32.70   11.50
   5  -3  -7    0.20    5.20
   5  -3  -7   -8.50    5.40
   5  -3  -7    3.20    6.20
  -5   3   7   14.50   14.70
  -5   3   7  -12.30   17.00
  -5   3   7    2.30    8.70
  -5   3   7    4.50    6.80
  -5   3   7    3.10    6.90
   4  -3  -7  623.94   37.30
   4  -3  -7  606.84   38.70
   4  -3  -7  647.24   39.00
  -4   3   7  711.33   38.00
  -4   3   7  665.23   40.40
  -4   3   7  702.43   37.80
   3  -3  -7  754.52   40.70
   3  -3  -7  691.13   42.00
   3  -3  -7  865.41   42.20
   3  -3  -7  716.13   40.70
  -3   3   7  731.63   40.70
  -3   3   7  743.23   40.90
  -3   3   7  606.04   45.60
  -3   3   7  729.63   42.80
   2  -3  -7  182.48   13.00
   2  -3  -7  191.58   14.10
   2  -3  -7  188.68   13.70
   2  -3  -7  199.58   12.10
  -2   3   7  167.08   17.90
  -2   3   7  198.38   13.10
  -2   3   7  179.58   12.90
  -2   3   7  177.08   14.90
  -2   3   7  149.88   22.10
   1  -3  -7    1.80    3.30
   1  -3  -7    6.20    2.60
   1  -3  -7   -1.90    3.50
   1  -3  -7   -1.50    2.80
   1  -3  -7    2.50    2.90
  -1   3   7    2.70    4.90
  -1   3   7   -0.40    3.40
  -1   3   7    2.10    3.00
  -1   3   7    2.70    3.30
  -1   3   7    2.90    9.00
   0  -3  -7  172.98   11.50
   0  -3  -7  163.98   11.30
   0  -3  -7  170.28    9.60
   0  -3  -7  174.08   11.90
   0  -3  -7  173.08   11.80
   0   3   7  174.68   11.30
   0   3   7  152.38   17.90
   0   3   7  171.28   13.10
   0   3   7  166.58   11.30
   0   3   7  150.78   11.00
  -1  -3  -7  320.87   19.20
  -1  -3  -7  323.27   20.10
  -1  -3  -7  333.07   18.70
  -1  -3  -7  334.67   19.60
   1   3   7  314.37   18.50
   1   3   7  314.67   18.60
   1   3   7  304.97   23.40
   1   3   7  308.77   19.50
  -2  -3  -7   12.00    3.80
  -2  -3  -7   13.10    5.50
  -2  -3  -7   14.60    3.90
  -2  -3  -7    9.20    3.00
  -2  -3  -7   19.20    3.30
   2   3   7   16.10    3.50
   2   3   7   11.20    3.10
   2   3   7   18.20    6.90
   2   3   7    9.20    2.70
  -3  -3  -7 1099.79   59.69
  -3  -3  -7 1095.69   59.09
  -3  -3  -7 1106.89   62.19
  -3  -3  -7 1150.78   59.19
  -3  -3  -7 1143.09   60.39
   3   3   7 1122.29   60.89
   3   3   7  948.01   60.59
   3   3   7 1104.99   57.89
   3   3   7 1069.49   59.19
   3   3   7 1093.49   59.09
   3   3   7 1094.09   59.39
   3   3   7 1149.78   59.39
  -4  -3  -7 1345.37   82.59
  -4  -3  -7 1430.66   83.39
  -4  -3  -7 1536.55   79.19
  -4  -3  -7 1514.45   79.29
  -4  -3  -7 1540.35   80.09
  -4  -3  -7 1421.26   79.39
   4   3   7 1520.75   79.29
   4   3   7 1477.45   79.49
   4   3   7 1543.65   80.39
   4   3   7 1443.06   80.39
   4   3   7 1489.15   79.29
   4   3   7 1516.15   79.49
   4   3   7 1478.15   79.49
  -5  -3  -7  135.29   20.60
  -5  -3  -7  139.69    9.70
  -5  -3  -7  161.58   15.40
  -5  -3  -7  143.49   10.00
  -5  -3  -7  145.19   12.70
  -5  -3  -7  138.79    9.10
   5   3   7  127.09   10.90
   5   3   7  129.99   11.50
   5   3   7  158.08   11.30
   5   3   7  141.89    9.90
   5   3   7  132.29   10.10
   5   3   7  129.39   10.30
   5   3   7  142.89   13.30
  -6  -3  -7    8.50    7.80
  -6  -3  -7    5.50   13.10
  -6  -3  -7    4.90    2.40
  -6  -3  -7    8.40    6.10
  -6  -3  -7    6.60    3.70
  -6  -3  -7    6.20    3.40
   6   3   7    5.20    4.10
   6   3   7    1.80    3.40
   6   3   7    4.90    3.90
   6   3   7    5.20    3.20
   6   3   7    2.30    4.40
   6   3   7    3.00    6.00
   6   3   7    4.10    5.10
  -7  -3  -7   -1.00    8.90
  -7  -3  -7   -3.30    4.50
  -7  -3  -7   -6.70   17.20
  -7  -3  -7   -2.30    7.20
   7   3   7    2.20    4.60
   7   3   7    0.60    4.30
   7   3   7    7.00    5.90
   7   3   7   10.30    3.80
   7   3   7   -0.70    5.30
   7   3   7    0.50    5.10
   7   3   7    3.30    7.70
  -8  -3  -7   -3.90    5.40
  -8  -3  -7   12.70    6.90
  -8  -3  -7  -21.80   31.00
  -8  -3  -7    9.50    8.60
   8   3   7   -0.80    4.90
   8   3   7   -4.20    9.00
   8   3   7    0.20    7.00
   8   3   7   -4.90    6.30
   8   3   7    2.50    5.60
   6  -4  -7   -8.10    5.40
   6  -4  -7   -2.50    7.70
  -6   4   7    3.00    9.10
  -6   4   7    3.50   14.40
  -6   4   7    5.70   15.90
  -6   4   7   -0.30   25.00
  -6   4   7   -6.60   12.30
   5  -4  -7  225.48   20.60
   5  -4  -7  199.68   16.90
  -5   4   7  268.97   19.50
  -5   4   7  237.28   23.40
   4  -4  -7  277.27   19.00
   4  -4  -7  354.26   20.60
   4  -4  -7  272.37   20.80
   4  -4  -7  245.88   20.00
  -4   4   7  227.48   31.70
  -4   4   7  313.97   19.70
  -4   4   7  319.07   19.80
  -4   4   7  296.77   24.10
   3  -4  -7  322.67   19.60
   3  -4  -7  337.17   20.40
   3  -4  -7  282.17   19.20
   3  -4  -7  297.57   20.40
  -3   4   7  325.07   28.50
  -3   4   7  302.67   22.80
  -3   4   7  265.67   26.80
  -3   4   7  302.97   19.40
  -3   4   7  319.57   19.60
   2  -4  -7   13.00    4.70
   2  -4  -7   10.10    4.10
   2  -4  -7    8.60    4.40
  -2   4   7   11.50    7.10
  -2   4   7   10.40    4.60
  -2   4   7    8.80   11.70
  -2   4   7   11.20    6.30
  -2   4   7   15.80    4.50
   1  -4  -7  107.19    7.60
   1  -4  -7  101.19    9.30
   1  -4  -7  108.69    9.70
   1  -4  -7   99.59    9.90
   1  -4  -7  110.69    8.40
  -1   4   7  115.49    9.30
  -1   4   7  105.49    9.20
  -1   4   7   83.49    9.30
  -1   4   7  111.79   12.40
  -1   4   7   91.39   14.30
   0  -4  -7  322.37   19.10
   0  -4  -7  311.87   19.50
   0  -4  -7  352.76   19.80
   0  -4  -7  322.87   17.80
   0  -4  -7  335.07   19.60
   0   4   7  313.87   25.20
   0   4   7  322.77   20.70
   0   4   7  326.47   19.10
   0   4   7  289.47   18.90
   0   4   7  326.37   19.20
  -1  -4  -7   89.09    8.70
  -1  -4  -7   92.19    7.80
  -1  -4  -7   92.29   10.10
  -1  -4  -7   88.19   10.50
   1   4   7   90.39   14.40
   1   4   7   90.39    9.40
   1   4   7   88.19    7.90
   1   4   7   83.29    7.70
  -2  -4  -7  852.91   44.10
  -2  -4  -7  684.43   48.20
  -2  -4  -7  804.12   43.60
  -2  -4  -7  828.82   44.30
  -2  -4  -7  818.82   45.70
   2   4   7  806.92   42.50
   2   4   7  793.42   43.70
   2   4   7  818.72   46.80
   2   4   7  808.42   44.40
   2   4   7  782.22   44.00
   2   4   7  809.62   43.90
   2   4   7  810.82   43.50
  -3  -4  -7 1794.52   91.89
  -3  -4  -7 1718.43   90.59
  -3  -4  -7 1636.44   93.09
  -3  -4  -7 1731.53   90.99
  -3  -4  -7 1759.72   90.39
   3   4   7 1703.43   90.79
   3   4   7 1710.43   90.69
   3   4   7 1563.74   89.39
   3   4   7 1717.73   90.59
   3   4   7 1626.44   90.29
   3   4   7 1708.93   90.19
   3   4   7 1650.43   92.09
  -4  -4  -7  658.03   37.40
  -4  -4  -7  630.84   36.30
  -4  -4  -7  633.94   35.20
  -4  -4  -7  623.64   40.40
  -4  -4  -7  672.83   35.40
   4   4   7  653.33   35.50
   4   4   7  632.04   35.80
   4   4   7  650.83   34.10
   4   4   7  625.54   35.60
   4   4   7  641.24   36.80
   4   4   7  617.44   35.20
   4   4   7  626.14   35.60
  -5  -4  -7   38.70    7.40
  -5  -4  -7   40.00    5.00
  -5  -4  -7   36.10    6.50
  -5  -4  -7   36.60   11.30
  -5  -4  -7   50.19    6.60
   5   4   7   40.90    6.30
   5   4   7   40.10    5.10
   5   4   7   50.69    6.30
   5   4   7   37.70    5.90
   5   4   7   40.10    6.70
   5   4   7   42.00    5.00
   5   4   7   45.90    6.00
  -6  -4  -7   -2.60    2.50
  -6  -4  -7   -6.10   12.40
  -6  -4  -7    2.50    3.30
  -6  -4  -7    0.50    3.90
  -6  -4  -7   -2.40    6.00
  -6  -4  -7    4.80    7.40
   6   4   7   -1.90    3.50
   6   4   7   -0.50    4.60
   6   4   7    4.20    5.40
   6   4   7   -0.50    4.30
   6   4   7    3.70    4.20
   6   4   7    1.40    3.10
   6   4   7   -1.40    5.80
  -7  -4  -7    2.80    7.60
  -7  -4  -7    0.80   16.20
  -7  -4  -7   12.60    5.60
   7   4   7   14.70    6.70
   7   4   7    7.90    5.00
   7   4   7    9.20    7.80
   7   4   7    7.40    3.90
   7   4   7    8.80    5.20
   7   4   7    0.70    5.50
  -8  -4  -7   10.70    9.90
  -8  -4  -7    0.00    6.80
  -8  -4  -7   -1.50   20.40
   8   4   7   -2.30    6.50
   8   4   7   10.90    7.60
   8   4   7    2.10    9.00
   8   4   7    5.00    6.40
   8   4   7    1.80    5.70
   5  -5  -7  206.08   24.60
   5  -5  -7  234.88   17.90
  -5   5   7  256.27   28.00
  -5   5   7  186.08   29.40
  -5   5   7  283.57   20.80
  -5   5   7  321.97   33.30
   4  -5  -7  325.07   22.70
  -4   5   7  380.06   23.80
  -4   5   7  438.76   33.70
  -4   5   7  308.47   39.50
  -4   5   7  347.47   28.60
  -4   5   7  412.76   23.90
   3  -5  -7   42.30    7.20
   3  -5  -7   54.09    7.60
   3  -5  -7   45.50    6.10
   3  -5  -7   57.29    7.70
  -3   5   7   53.39   14.80
  -3   5   7   47.30    6.80
  -3   5   7   37.10    9.40
  -3   5   7   47.90   14.30
  -3   5   7   42.10    6.20
   2  -5  -7   30.50    5.80
   2  -5  -7   37.00    6.10
   2  -5  -7   36.60    5.30
   2  -5  -7   36.30    5.90
   2  -5  -7   36.20    5.00
  -2   5   7   30.80    5.60
  -2   5   7   30.70    5.30
  -2   5   7   32.20    8.60
  -2   5   7   36.90   13.20
  -2   5   7   44.60   10.80
   1  -5  -7  612.94   34.80
   1  -5  -7  604.74   34.70
   1  -5  -7  653.93   34.00
   1  -5  -7  621.54   35.40
   1  -5  -7  628.34   33.80
  -1   5   7  547.05   40.90
  -1   5   7  609.64   34.50
  -1   5   7  623.84   37.30
  -1   5   7  613.34   34.40
  -1   5   7  604.44   37.00
   0  -5  -7  175.38   12.70
   0  -5  -7  171.08   12.50
   0  -5  -7  168.68   10.30
   0  -5  -7  161.08   11.70
   0  -5  -7  177.28   12.70
   0   5   7  172.88   12.10
   0   5   7  179.38   20.20
   0   5   7  168.08   14.00
   0   5   7  137.89   11.60
  -1  -5  -7  627.54   36.30
  -1  -5  -7  617.34   33.20
  -1  -5  -7  618.94   34.20
  -1  -5  -7  637.14   35.60
  -1  -5  -7  623.74   34.80
  -1  -5  -7  616.84   34.80
   1   5   7  605.64   34.40
   1   5   7  605.34   38.60
   1   5   7  578.14   34.00
   1   5   7  629.74   35.50
  -2  -5  -7 1682.93   86.09
  -2  -5  -7 1612.24   85.49
  -2  -5  -7 1630.44   85.99
  -2  -5  -7 1692.93   87.29
  -2  -5  -7 1655.93   87.49
   2   5   7 1629.04   84.49
   2   5   7 1592.34   88.39
   2   5   7 1443.66   86.89
   2   5   7 1568.64   86.29
   2   5   7 1569.84   84.99
   2   5   7 1555.04   85.39
   2   5   7 1540.15   85.69
  -3  -5  -7 1460.15   77.69
  -3  -5  -7 1408.96   75.79
  -3  -5  -7 1430.06   78.89
  -3  -5  -7 1433.16   76.19
  -3  -5  -7 1442.76   76.69
   3   5   7 1419.86   76.19
   3   5   7 1400.56   74.79
   3   5   7 1383.46   75.49
   3   5   7 1375.36   76.49
   3   5   7 1357.36   75.79
   3   5   7 1460.55   78.09
   3   5   7 1400.26   76.29
  -4  -5  -7  128.99   12.40
  -4  -5  -7  141.99   13.70
  -4  -5  -7  132.39    9.80
  -4  -5  -7  143.99   18.60
  -4  -5  -7  144.29   10.40
   4   5   7  140.69   10.80
   4   5   7  118.79   10.90
   4   5   7  146.09   11.30
   4   5   7  141.29    8.40
   4   5   7  135.39   11.40
   4   5   7  131.69   10.90
   4   5   7  128.99   12.40
  -5  -5  -7   -4.10    5.20
  -5  -5  -7    2.30   10.20
  -5  -5  -7   -0.70    5.50
  -5  -5  -7    5.50    3.80
   5   5   7   -2.20    4.10
   5   5   7    0.10    3.30
   5   5   7    2.10    3.40
   5   5   7    0.80    4.50
   5   5   7    1.90    4.10
   5   5   7    3.50    4.60
   5   5   7   -3.60    2.80
  -6  -5  -7    6.20    3.50
  -6  -5  -7    6.40    6.50
  -6  -5  -7    8.80    4.40
  -6  -5  -7    2.90    6.50
  -6  -5  -7    6.40   13.70
   6   5   7   -0.10    5.00
   6   5   7    6.70    3.60
   6   5   7    8.30    5.20
   6   5   7    8.00    6.90
   6   5   7    2.50    4.40
   6   5   7    4.70    4.90
   6   5   7    9.50    5.60
  -7  -5  -7    1.50    5.30
  -7  -5  -7   -2.50   16.60
  -7  -5  -7    4.40    5.80
  -7  -5  -7   -3.30    8.00
  -7  -5  -7   -2.90   10.30
   7   5   7    9.20    8.30
   7   5   7   -1.20    5.30
   7   5   7   -0.60    5.80
   7   5   7   -5.90    5.80
   7   5   7    5.60    6.80
  -8  -5  -7   63.89   23.20
  -8  -5  -7   71.09   13.00
  -8  -5  -7   65.99    9.40
   8   5   7   62.29   17.80
   8   5   7   79.89    9.70
   8   5   7   78.19    9.30
   8   5   7   59.19    9.50
   8   5   7   84.99   10.80
   4  -6  -7  112.59   17.50
   4  -6  -7   88.69   11.80
  -4   6   7  130.69   21.00
  -4   6   7   89.99   10.40
  -4   6   7   91.69   16.30
  -4   6   7   89.89   22.50
   3  -6  -7   57.39    7.40
   3  -6  -7   68.59    9.00
   3  -6  -7   55.69    8.70
  -3   6   7   69.09    8.20
  -3   6   7   68.99   12.50
  -3   6   7   72.09   16.10
  -3   6   7   80.09   12.40
  -3   6   7   59.29   17.70
  -3   6   7   60.79   10.00
   2  -6  -7  202.48   15.40
   2  -6  -7  216.38   12.90
   2  -6  -7  219.38   15.40
   2  -6  -7  201.48   14.90
   2  -6  -7  206.98   15.80
  -2   6   7  211.38   23.10
  -2   6   7  220.78   15.00
  -2   6   7  204.58   15.10
  -2   6   7  196.38   19.80
  -2   6   7  146.29   21.30
   1  -6  -7   95.49   10.00
   1  -6  -7   82.29    8.30
   1  -6  -7   84.59    8.70
   1  -6  -7   75.89    9.40
   1  -6  -7   69.69    9.00
  -1   6   7   73.49   10.90
  -1   6   7   73.49   14.30
  -1   6   7   90.19    9.40
  -1   6   7   63.79   15.00
  -1   6   7   85.29    9.50
   0  -6  -7  154.48   11.70
   0  -6  -7  179.48   13.10
   0  -6  -7  141.09   11.50
   0  -6  -7  165.28   14.50
   0  -6  -7  161.18   12.80
   0   6   7  169.08   15.50
   0   6   7  150.28   21.40
   0   6   7  164.58   12.20
   0   6   7  151.38   12.80
   0   6   7  140.29   12.30
  -1  -6  -7 1028.30   54.79
  -1  -6  -7  988.00   56.59
  -1  -6  -7 1012.40   53.29
  -1  -6  -7 1026.60   55.79
  -1  -6  -7  978.10   54.19
   1   6   7  977.70   54.39
   1   6   7  937.71   53.99
   1   6   7 1016.50   53.09
   1   6   7 1001.00   55.59
   1   6   7 1007.00   54.79
   1   6   7  970.10   58.69
  -2  -6  -7 1083.99   58.89
  -2  -6  -7 1121.59   61.29
  -2  -6  -7 1107.69   60.99
  -2  -6  -7 1090.09   59.59
  -2  -6  -7 1113.39   59.69
   2   6   7 1045.00   59.29
   2   6   7 1059.29   58.19
   2   6   7 1086.59   59.99
   2   6   7 1126.89   57.89
   2   6   7 1061.09   59.39
   2   6   7 1072.79   58.89
  -3  -6  -7  280.77   20.90
  -3  -6  -7  297.67   18.20
  -3  -6  -7  314.17   19.40
  -3  -6  -7  299.77   22.00
  -3  -6  -7  277.17   17.40
   3   6   7  295.77   16.30
   3   6   7  286.27   18.30
   3   6   7  280.37   18.60
   3   6   7  298.17   18.10
   3   6   7  288.17   21.20
   3   6   7  280.27   18.30
   3   6   7  279.27   16.90
  -4  -6  -7   11.30    9.50
  -4  -6  -7   12.10    3.90
  -4  -6  -7   14.30    4.00
  -4  -6  -7    8.60    5.90
  -4  -6  -7   17.30   10.10
  -4  -6  -7   13.60    5.80
   4   6   7   15.80    6.80
   4   6   7   14.60    3.70
   4   6   7   15.40    3.00
   4   6   7   17.40    4.90
   4   6   7   11.20    4.70
   4   6   7   12.70    4.20
  -5  -6  -7    9.60   12.00
  -5  -6  -7   -2.40    5.60
  -5  -6  -7   -0.80    4.00
  -5  -6  -7    1.50    6.00
   5   6   7   -3.70    4.60
   5   6   7   -0.20    3.10
   5   6   7    4.70    5.00
   5   6   7    1.50    4.10
   5   6   7    2.30    4.20
   5   6   7   -9.10    4.90
  -6  -6  -7   -2.00   14.00
  -6  -6  -7    0.70    7.10
  -6  -6  -7    4.80    4.80
  -6  -6  -7   -3.00    7.40
   6   6   7   -2.40    5.40
   6   6   7    3.20    5.20
   6   6   7   -1.90    3.90
   6   6   7   -0.20    5.20
   6   6   7   -2.60    4.90
   6   6   7    6.20    6.10
  -7  -6  -7   32.60   20.70
  -7  -6  -7   13.60    6.20
  -7  -6  -7    8.40    8.90
   7   6   7   23.50    9.40
   7   6   7   11.80    7.20
   7   6   7   13.00    6.90
   7   6   7   13.40    6.80
   7   6   7   18.50    7.30
   7   6   7   15.90    6.70
   3  -7  -7   12.00    6.10
   3  -7  -7    7.80    9.40
  -3   7   7   16.10    6.00
  -3   7   7   17.00   10.10
  -3   7   7   19.50   17.70
  -3   7   7   14.10    8.40
  -3   7   7   -7.40   12.50
   2  -7  -7  118.29   12.20
   2  -7  -7  116.39    9.40
   2  -7  -7   99.09   12.90
   2  -7  -7  104.89   12.60
  -2   7   7  118.49   12.50
  -2   7   7   78.29   13.20
  -2   7   7   96.79   18.30
  -2   7   7  112.99   11.60
  -2   7   7  128.49   17.30
   1  -7  -7    3.90    5.50
   1  -7  -7    3.80    4.90
   1  -7  -7   -0.80    6.30
   1  -7  -7    8.30    5.10
   1  -7  -7   -6.50    4.90
   1  -7  -7    8.90    4.70
  -1   7   7    2.30    5.40
  -1   7   7    6.00    4.80
  -1   7   7   -4.10    4.90
  -1   7   7    7.40   10.10
  -1   7   7   -2.70    7.90
  -1   7   7    1.30    8.30
   0  -7  -7  290.27   17.70
   0  -7  -7  266.87   18.20
   0  -7  -7  325.07   20.60
   0  -7  -7  294.07   19.30
   0   7   7  279.67   17.20
   0   7   7  292.87   23.10
   0   7   7  300.27   23.40
   0   7   7  258.97   18.80
   0   7   7  301.07   18.60
   0   7   7  267.37   19.10
  -1  -7  -7 1040.60   57.29
  -1  -7  -7 1067.69   58.99
  -1  -7  -7 1081.39   57.99
   1   7   7 1109.69   56.29
   1   7   7 1064.59   59.19
   1   7   7 1053.99   57.59
   1   7   7 1056.39   57.99
   1   7   7  974.00   57.19
   1   7   7 1006.80   56.09
  -2  -7  -7  520.85   31.70
  -2  -7  -7  527.25   30.00
  -2  -7  -7  483.55   28.40
  -2  -7  -7  470.15   31.60
   2   7   7  475.65   27.30
   2   7   7  493.55   28.70
   2   7   7  489.65   29.30
   2   7   7  513.55   27.40
   2   7   7  514.65   30.40
   2   7   7  504.35   29.20
  -3  -7  -7   17.90    6.20
  -3  -7  -7   19.00    8.90
  -3  -7  -7   18.50    4.50
   3   7   7   32.80    5.80
   3   7   7   26.30    5.60
   3   7   7   22.80    3.60
   3   7   7   15.90    5.00
   3   7   7   19.90    3.70
  -4  -7  -7   -2.40    3.70
  -4  -7  -7   -0.40    6.00
  -4  -7  -7   -3.90    9.00
   4   7   7    0.20    4.60
   4   7   7    3.90    5.20
   4   7   7   -1.40    4.00
   4   7   7    4.10    4.20
   4   7   7    1.10    3.20
   4   7   7   -1.80    6.30
   4   7   7    0.40    4.30
  -5  -7  -7   16.50    7.20
  -5  -7  -7   21.90    7.90
  -5  -7  -7   44.20   12.20
   5   7   7   27.00    6.10
   5   7   7   27.00    4.30
   5   7   7   23.60    6.90
   5   7   7   25.90    5.90
   5   7   7   16.40    5.70
   5   7   7   13.40    6.60
  -6  -7  -7   -4.00   16.40
  -6  -7  -7    0.00    7.80
  -6  -7  -7    6.30   13.00
  -6  -7  -7    2.90    5.20
   6   7   7   -1.80    5.90
   6   7   7   -2.00    6.30
   6   7   7   -2.30    4.30
   6   7   7   15.50    6.60
   6   7   7    2.40    5.70
  -7  -7  -7  365.06   20.50
  -7  -7  -7  397.16   41.10
  -7  -7  -7  332.37   19.80
   7   7   7  366.16   21.90
   7   7   7  329.57   24.70
   7   7   7  352.26   24.60
   7   7   7  368.36   30.40
   7   7   7  354.06   24.80
   2  -8  -7   12.90    6.30
   2  -8  -7   16.20    5.30
  -2   8   7   20.80   10.30
  -2   8   7   11.00    7.80
  -2   8   7   18.40   12.30
  -2   8   7   14.10    6.00
  -2   8   7   24.10   16.60
   1  -8  -7   76.29    9.80
   1  -8  -7   90.59   12.10
   1  -8  -7  102.79   13.60
  -1   8   7   83.49   11.20
  -1   8   7   57.59   14.70
  -1   8   7   74.99   15.10
  -1   8   7   72.39    8.80
  -1   8   7   82.09    9.40
  -1   8   7   92.89   10.50
   0  -8  -7  460.75   28.10
   0  -8  -7  484.45   29.80
   0  -8  -7  503.45   28.90
   0  -8  -7  446.56   28.30
   0   8   7  478.75   33.80
   0   8   7  481.55   28.30
   0   8   7  472.05   33.80
   0   8   7  460.35   28.30
   0   8   7  461.95   27.10
  -1  -8  -7  578.14   32.70
  -1  -8  -7  525.95   31.60
  -1  -8  -7  577.24   34.30
   1   8   7  520.25   32.90
   1   8   7  570.34   30.40
   1   8   7  504.55   32.00
   1   8   7  552.04   32.00
  -2  -8  -7   99.39    9.80
  -2  -8  -7   94.79   12.70
  -2  -8  -7  107.89   15.90
   2   8   7   95.19   10.90
   2   8   7   93.59   11.00
   2   8   7   95.99   11.30
   2   8   7  104.19    8.60
  -3  -8  -7    3.70    8.50
  -3  -8  -7    3.40    5.10
  -3  -8  -7    4.50    6.20
   3   8   7    6.30    5.50
   3   8   7    1.50    5.40
   3   8   7    7.70    6.50
   3   8   7    8.30    5.30
   3   8   7    9.50    3.80
  -4  -8  -7    4.00    9.90
  -4  -8  -7    6.60    5.10
  -4  -8  -7   -2.20    6.60
   4   8   7    5.40    5.50
   4   8   7    6.10    5.80
   4   8   7    8.30    4.00
   4   8   7    3.00    5.30
   4   8   7    2.40    5.30
  -5  -8  -7   -7.50   11.80
  -5  -8  -7   -0.40   13.00
   5   8   7    3.70    6.10
   5   8   7    3.20    4.20
   5   8   7   -1.40    8.10
   5   8   7    3.40    6.10
  -6  -8  -7  103.09   19.20
   6   8   7  112.19   13.90
   6   8   7  109.89   10.60
   6   8   7   88.69   14.60
   6   8   7  114.59   12.30
   0  -9  -7  352.86   23.40
   0  -9  -7  369.56   24.40
   0  -9  -7  299.37   23.70
   0  -9  -7  347.97   25.00
   0   9   7  334.47   23.10
   0   9   7  344.47   30.10
   0   9   7  348.97   22.50
   0   9   7  331.87   21.10
  -1  -9  -7   41.30    8.20
  -1  -9  -7   47.70    8.40
  -1  -9  -7   64.19   11.10
   1   9   7   48.10    5.90
   1   9   7   46.50   12.40
   1   9   7   52.09   16.20
   1   9   7   44.80    7.40
  -2  -9  -7   26.70   10.40
  -2  -9  -7   14.90    6.80
  -2  -9  -7   13.50    6.90
   2   9   7   20.60    4.80
   2   9   7   17.50    6.90
   2   9   7   14.90    6.20
  -3  -9  -7   10.30    6.90
  -3  -9  -7    6.10    9.20
  -3  -9  -7   12.60    7.10
   3   9   7   10.70    4.60
   3   9   7    4.80    6.30
   3   9   7   15.50    6.60
  -4  -9  -7   15.90    7.90
  -4  -9  -7   16.20   11.70
  -4  -9  -7   19.30    7.20
   4   9   7   19.40    5.20
   4   9   7   14.90    6.70
   4   9   7   24.70    7.30
   2   8  -8  129.69   15.00
  -2  -8   8  130.99   16.00
  -2  -8   8  103.89   14.80
  -2  -8   8  157.48   24.80
   1   8  -8   15.80    7.50
  -1  -8   8    1.80    9.70
  -1  -8   8   -1.30    6.00
  -1  -8   8    3.80    7.80
  -1  -8   8   12.50   11.30
  -1  -8   8    6.20   10.60
  -1  -8   8    1.80    6.30
   4   7  -8  381.66   31.10
   4   7  -8  376.56   28.50
   4   7  -8  332.27   26.00
  -4  -7   8  344.67   24.80
  -4  -7   8  367.16   29.20
  -4  -7   8  368.16   32.10
  -4  -7   8  376.86   33.80
   3   7  -8  291.97   19.90
   3   7  -8  291.17   26.10
   3   7  -8  275.67   22.00
   3   7  -8  280.77   20.50
  -3  -7   8  254.87   41.60
  -3  -7   8  283.67   20.10
  -3  -7   8  309.27   27.30
   2   7  -8    7.90    9.00
   2   7  -8    6.90    4.10
   2   7  -8    0.50    3.70
   2   7  -8    3.20    6.20
  -2  -7   8   11.50   16.40
  -2  -7   8   -5.30    7.60
  -2  -7   8    2.50    5.80
  -2  -7   8   -0.20    9.70
   1   7  -8   11.70    6.00
   1   7  -8   11.10    4.70
   1   7  -8   15.20    8.40
  -1  -7   8    9.00   12.40
  -1  -7   8    3.50    5.90
  -1  -7   8   11.10    5.00
  -1  -7   8    8.00    6.20
  -1  -7   8    7.20    9.10
   0   7  -8   17.90    5.90
   0   7  -8   26.30    6.30
   0   7  -8   15.30   14.50
   0  -7   8   20.30    6.50
   0  -7   8   38.30   13.20
   0  -7   8   19.60    5.40
   0  -7   8   16.50    6.50
   0  -7   8   19.60    5.40
   0  -7   8   16.40    8.30
  -1   7  -8    4.40    5.80
  -1   7  -8    0.00    5.10
   1  -7   8   -2.50    6.10
   1  -7   8    6.20   10.80
   1  -7   8   -3.70    7.00
   1  -7   8   -0.40    5.90
   1  -7   8   -4.00    3.90
  -2   7  -8  120.49   12.40
  -2   7  -8   95.49   12.30
   2  -7   8   91.49   17.50
   2  -7   8  103.19   12.00
   2  -7   8  120.29   18.80
   2  -7   8   95.49   16.50
   2  -7   8   91.49   13.30
   2  -7   8   91.19   12.50
   2  -7   8  110.69    8.00
   2  -7   8   93.19   10.40
   5   6  -8  308.87   30.20
   5   6  -8  217.08   23.90
   5   6  -8  290.17   27.40
   5   6  -8  324.37   28.20
  -5  -6   8  308.47   28.70
  -5  -6   8  282.17   22.20
   4   6  -8  404.66   27.70
   4   6  -8  377.76   25.00
   4   6  -8  378.06   29.10
   4   6  -8  498.75   30.10
   4   6  -8  437.16   32.10
  -4  -6   8  398.46   27.00
  -4  -6   8  512.65   33.30
  -4  -6   8  429.96   32.20
  -4  -6   8  469.45   35.60
   3   6  -8  147.29   10.10
   3   6  -8  175.48   19.90
   3   6  -8  152.78   14.40
   3   6  -8  146.09   14.00
   3   6  -8  140.69   15.60
  -3  -6   8  124.19   17.60
  -3  -6   8  193.08   21.10
  -3  -6   8  116.09   13.20
  -3  -6   8  151.18   13.10
  -3  -6   8  136.79   18.70
  -3  -6   8  149.79   12.80
   2   6  -8   19.30    4.70
   2   6  -8   21.60    5.50
   2   6  -8   19.70    8.20
   2   6  -8    9.80    7.00
   2   6  -8   28.30    6.30
  -2  -6   8   18.50    5.50
  -2  -6   8   13.30    9.20
  -2  -6   8   24.60   12.50
  -2  -6   8   15.00   10.00
  -2  -6   8   11.70    8.20
  -2  -6   8   24.70    4.80
  -2  -6   8   17.60    5.00
   1   6  -8    6.10    7.40
   1   6  -8    2.20    4.90
  -1  -6   8    4.60    3.80
  -1  -6   8   -4.20   11.40
  -1  -6   8   -1.30    6.10
  -1  -6   8   -5.70    7.70
  -1  -6   8    2.30    4.10
  -1  -6   8   -2.10    4.50
   0   6  -8    6.70    5.00
   0   6  -8    9.80    7.10
   0  -6   8    2.40    4.80
   0  -6   8    6.70    3.60
   0  -6   8    2.30    5.00
   0  -6   8   -5.90    7.10
   0  -6   8    8.50   10.70
  -1   6  -8    9.80    5.00
  -1   6  -8    9.60    6.60
   1  -6   8    4.90    5.20
   1  -6   8   13.70   10.80
   1  -6   8   -2.80    6.80
   1  -6   8    2.30    3.70
   1  -6   8    5.30    4.00
   1  -6   8   -0.20    5.10
  -2   6  -8  571.84   30.40
  -2   6  -8  510.95   30.40
   2  -6   8  532.25   31.00
   2  -6   8  492.35   35.50
   2  -6   8  510.25   29.90
   2  -6   8  491.75   30.70
   2  -6   8  548.55   28.70
   2  -6   8  527.35   28.70
   2  -6   8  527.85   29.60
   2  -6   8  521.25   30.20
   2  -6   8  521.35   34.70
  -3   6  -8  227.78   16.80
   3  -6   8  236.28   28.80
   3  -6   8  250.47   14.30
   3  -6   8  247.78   20.10
   3  -6   8  233.18   17.50
   3  -6   8  201.98   16.50
   3  -6   8  201.28   20.90
   3  -6   8  195.58   15.80
   6   5  -8  176.38   25.00
   6   5  -8  292.67   23.20
  -6  -5   8  203.98   22.40
  -6  -5   8  311.57   29.30
  -6  -5   8  345.07   28.70
  -6  -5   8  279.97   30.00
   5   5  -8  585.14   43.60
   5   5  -8  713.53   38.30
   5   5  -8  682.33   41.80
   5   5  -8  591.44   43.00
  -5  -5   8  623.34   38.50
   4   5  -8  252.77   23.00
   4   5  -8  284.97   23.00
   4   5  -8  255.47   18.00
   4   5  -8  294.07   24.40
   4   5  -8  335.37   22.00
  -4  -5   8  258.37   18.20
  -4  -5   8  265.47   24.90
  -4  -5   8  242.68   18.90
   3   5  -8    0.30    6.40
   3   5  -8    3.00    4.40
   3   5  -8    7.70    8.50
   3   5  -8   -2.30    6.60
   3   5  -8    1.20    5.50
  -3  -5   8    5.00    4.40
  -3  -5   8    1.40    4.30
  -3  -5   8    4.10    8.60
  -3  -5   8   -6.70    8.00
  -3  -5   8   11.00   11.60
   2   5  -8   23.90    5.60
   2   5  -8   33.20    4.20
   2   5  -8   25.00    5.30
   2   5  -8   22.70    5.30
   2   5  -8   33.50    9.00
  -2  -5   8   32.80    8.70
  -2  -5   8   26.80    4.30
  -2  -5   8   24.20    5.10
  -2  -5   8   17.40   12.10
  -2  -5   8   26.90    5.10
  -2  -5   8   16.80    8.20
  -2  -5   8   21.60    8.90
   1   5  -8  276.17   16.80
   1   5  -8  268.27   15.20
   1   5  -8  267.97   15.30
   1   5  -8  277.07   15.40
   1   5  -8  274.97   20.80
   1   5  -8  258.37   17.10
  -1  -5   8  273.17   17.20
  -1  -5   8  276.27   20.80
  -1  -5   8  265.37   17.60
  -1  -5   8  243.78   24.50
  -1  -5   8  276.37   15.80
  -1  -5   8  240.38   19.30
  -1  -5   8  253.57   23.00
   0   5  -8   -0.10    4.10
   0   5  -8    8.90    6.80
   0  -5   8    1.70    4.50
   0  -5   8   -7.70    5.90
   0  -5   8    1.90    4.20
   0  -5   8   -3.60    5.20
   0  -5   8   -9.10   10.10
   0  -5   8    0.30    2.90
   0  -5   8    4.40    2.60
  -1   5  -8  939.51   49.50
  -1   5  -8  940.91   51.39
   1  -5   8  849.81   51.39
   1  -5   8  878.61   53.59
   1  -5   8 1010.00   50.49
   1  -5   8  896.41   49.80
   1  -5   8  919.01   48.90
   1  -5   8  905.51   48.60
   1  -5   8  837.42   49.50
  -2   5  -8  369.66   22.70
  -2   5  -8  301.17   22.00
  -2   5  -8  384.36   20.50
   2  -5   8  377.76   21.30
   2  -5   8  316.87   20.30
   2  -5   8  326.47   26.30
   2  -5   8  340.97   25.10
   2  -5   8  334.97   20.90
   2  -5   8  360.96   19.10
   2  -5   8  308.77   21.90
   2  -5   8  274.27   21.00
   2  -5   8  336.07   19.20
   2  -5   8  348.87   19.50
   2  -5   8  330.57   25.40
  -3   5  -8  200.58   15.00
   3  -5   8  196.38   17.60
   3  -5   8  196.18   24.80
   3  -5   8  171.58   13.70
   3  -5   8  229.78   13.50
   3  -5   8  217.78   17.30
   3  -5   8  218.08   13.60
   3  -5   8  226.18   15.50
   3  -5   8  221.88   18.60
  -4   5  -8   41.70    7.20
   4  -5   8   53.79    6.50
   4  -5   8   52.19    9.30
   4  -5   8   53.09    6.90
   4  -5   8   54.19   16.10
   4  -5   8   43.00    9.50
   7   4  -8   52.89   14.30
   7   4  -8   34.10   11.90
   7   4  -8   58.59   11.90
  -7  -4   8   45.10   15.50
  -7  -4   8   57.59   13.70
  -7  -4   8   59.89   13.50
   6   4  -8  582.54   34.10
   6   4  -8  500.95   32.50
  -6  -4   8  602.14   37.50
  -6  -4   8  564.44   41.50
  -6  -4   8  420.26   34.30
   5   4  -8  594.94   44.80
   5   4  -8  653.43   43.40
   5   4  -8  738.83   39.70
  -5  -4   8  683.53   40.40
   4   4  -8   92.89   13.50
   4   4  -8  112.49   11.90
   4   4  -8   61.39   12.30
   4   4  -8   69.89   12.30
   4   4  -8   84.29    9.40
   4   4  -8   83.69   15.70
  -4  -4   8   81.79   14.30
  -4  -4   8  123.99   19.20
  -4  -4   8   84.29    9.90
  -4  -4   8  114.89   14.10
   3   4  -8   66.29    8.80
   3   4  -8   73.59   10.80
   3   4  -8   49.50    9.80
   3   4  -8   49.50    9.40
   3   4  -8   54.99    6.70
   3   4  -8   84.59   10.90
  -3  -4   8   62.59    8.90
  -3  -4   8   90.69   14.30
  -3  -4   8   77.69   11.60
  -3  -4   8   63.79    9.40
  -3  -4   8   67.79   10.40
   2   4  -8  115.59    9.10
   2   4  -8  118.49   11.50
   2   4  -8  138.19   15.80
   2   4  -8  128.89   10.50
   2   4  -8  123.39   12.00
  -2  -4   8  127.09   11.20
  -2  -4   8  137.99   17.10
  -2  -4   8  122.49    9.80
  -2  -4   8  115.19   14.60
  -2  -4   8  140.69   14.10
   1   4  -8   60.29    6.60
   1   4  -8   49.60    5.90
   1   4  -8   61.09    6.50
   1   4  -8   66.19    7.10
   1   4  -8   54.79    8.10
   1   4  -8   56.09    6.60
  -1  -4   8   36.80    7.60
  -1  -4   8   71.39    8.20
  -1  -4   8   58.09   10.50
  -1  -4   8   48.60    8.00
  -1  -4   8   53.79    5.30
   0   4  -8  363.56   19.20
   0   4  -8  339.47   19.80
   0   4  -8  381.96   22.80
   0   4  -8  376.16   19.80
   0  -4   8  311.17   21.20
   0  -4   8  291.87   21.70
   0  -4   8  342.47   24.60
   0  -4   8  322.67   19.00
   0  -4   8  332.57   20.50
   0  -4   8  331.77   20.40
  -1   4  -8 1491.95   77.59
  -1   4  -8 1414.26   75.99
  -1   4  -8 1526.65   75.99
   1  -4   8 1328.07   76.69
   1  -4   8 1353.16   76.49
   1  -4   8 1468.15   75.49
   1  -4   8 1310.47   76.39
   1  -4   8 1470.65   76.69
  -2   4  -8 1062.49   55.99
  -2   4  -8  997.50   54.79
  -2   4  -8 1068.79   54.59
   2  -4   8  875.71   54.59
   2  -4   8 1068.29   55.59
   2  -4   8  967.30   54.99
   2  -4   8 1123.09   55.69
   2  -4   8  936.11   54.59
   2  -4   8 1038.40   54.19
   2  -4   8 1032.30   58.89
   2  -4   8 1039.80   54.19
   2  -4   8  941.21   54.69
  -3   4  -8   92.69   10.90
   3  -4   8   74.99   13.00
   3  -4   8   56.49    7.80
   3  -4   8   86.49    7.90
   3  -4   8   76.89   11.20
   3  -4   8   74.79    9.80
   3  -4   8   63.59    6.40
   3  -4   8  100.59    7.90
   3  -4   8   76.59   12.70
   3  -4   8   81.69    9.00
   3  -4   8   75.49    7.20
  -4   4  -8   -4.30    5.00
   4  -4   8    5.00    4.50
   4  -4   8   -0.20    6.50
   4  -4   8    1.40    6.80
   4  -4   8    1.70    3.10
   4  -4   8    2.00    5.70
   4  -4   8    6.40    3.20
   4  -4   8    6.60   11.00
   4  -4   8   -2.90    3.80
   4  -4   8   -3.90    3.80
   4  -4   8   -4.60    6.70
  -5   4  -8   -1.20    5.30
   5  -4   8    6.00    7.90
   5  -4   8    2.00    5.30
   5  -4   8    0.50    6.60
   5  -4   8    8.80    8.60
   5  -4   8    0.90    5.20
   7   3  -8  360.66   29.80
   7   3  -8  502.85   35.60
   7   3  -8  423.96   32.60
   7   3  -8  342.97   44.60
  -7  -3   8  560.54   37.80
  -7  -3   8  464.95   32.40
  -7  -3   8  513.15   35.40
   6   3  -8  621.74   45.60
   6   3  -8  650.03   41.80
   6   3  -8  740.63   47.80
   6   3  -8  659.03   41.80
  -6  -3   8  771.52   44.70
  -6  -3   8  759.82   45.70
  -6  -3   8  827.12   47.20
   5   3  -8  254.07   20.10
   5   3  -8  273.87   21.20
  -5  -3   8  296.47   24.40
  -5  -3   8  337.67   25.60
  -5  -3   8  291.17   24.30
   4   3  -8  272.87   18.40
   4   3  -8  218.08   17.60
   4   3  -8  172.88   23.60
   4   3  -8  214.68   18.50
  -4  -3   8  251.87   20.50
  -4  -3   8  265.67   20.70
  -4  -3   8  281.57   21.90
   3   3  -8   29.70    9.90
   3   3  -8   23.40    6.50
   3   3  -8   42.30    6.80
   3   3  -8   34.40    9.80
   3   3  -8   20.30    8.90
   3   3  -8   38.00    6.70
  -3  -3   8   36.40    7.10
  -3  -3   8   47.40    8.80
  -3  -3   8   38.70    6.00
  -3  -3   8   48.80    8.40
   2   3  -8  117.89   13.90
   2   3  -8  129.89   10.30
   2   3  -8  133.59   11.90
   2   3  -8  128.19   11.50
   2   3  -8  142.19   16.20
   2   3  -8  126.59    9.70
  -2  -3   8  156.58   15.80
  -2  -3   8  134.69   11.40
   1   3  -8  189.18   13.20
   1   3  -8  195.18   11.80
   1   3  -8  170.68   13.10
   1   3  -8  190.58   16.50
   1   3  -8  194.78   12.20
   1   3  -8  182.08   11.60
  -1  -3   8  159.88   11.50
  -1  -3   8  209.08   14.90
  -1  -3   8  171.08   17.00
  -1  -3   8  189.08   13.50
  -1  -3   8  176.48   13.40
   0   3  -8 1518.45   77.39
   0   3  -8 1461.65   77.59
   0   3  -8 1537.95   76.99
   0   3  -8 1508.85   79.39
   0   3  -8 1488.25   77.39
   0   3  -8 1520.05   77.09
   0  -3   8 1408.06   77.19
   0  -3   8 1288.37   78.69
   0  -3   8 1431.56   78.29
   0  -3   8 1336.17   78.69
   0  -3   8 1406.96   80.79
   0  -3   8 1615.44   78.49
   0  -3   8 1372.26   78.39
  -1   3  -8 1716.43   86.89
  -1   3  -8 1603.74   87.09
  -1   3  -8 1667.63   88.39
  -1   3  -8 1734.03   86.99
   1  -3   8 1336.87   87.49
   1  -3   8 1699.73   87.79
   1  -3   8 1683.23   86.79
   1  -3   8 1647.94   90.69
   1  -3   8 1621.94   87.39
  -2   3  -8  232.28   13.90
  -2   3  -8  201.08   14.00
  -2   3  -8  245.58   16.30
   2  -3   8  245.28   13.30
   2  -3   8  216.88   18.70
   2  -3   8  180.68   21.60
   2  -3   8  236.98   15.40
   2  -3   8  228.88   13.70
   2  -3   8  247.08   15.10
   2  -3   8  236.18   14.10
  -3   3  -8    1.70    3.40
  -3   3  -8    3.30    4.40
   3  -3   8    2.90    3.40
   3  -3   8    0.00    3.50
   3  -3   8    2.80    8.00
   3  -3   8   -0.10    6.20
   3  -3   8   -1.10    3.60
   3  -3   8    0.90    4.30
   3  -3   8    0.20    3.10
   3  -3   8   -1.30    2.60
   3  -3   8    5.60    3.90
   3  -3   8    5.70    3.70
  -4   3  -8   -1.60    2.40
  -4   3  -8    0.10    4.60
   4  -3   8   -2.20    3.00
   4  -3   8    0.00    5.60
   4  -3   8    1.10    2.70
   4  -3   8    1.00    3.20
   4  -3   8    1.20    2.00
   4  -3   8    0.80    2.60
   4  -3   8    2.10    5.20
   4  -3   8   -1.70    4.10
   4  -3   8   -1.50    6.30
   4  -3   8   -0.20    3.80
   4  -3   8    0.90    9.60
  -5   3  -8   16.90    5.10
   5  -3   8   20.40    8.40
   5  -3   8   17.10    7.40
   5  -3   8   21.50   11.60
   5  -3   8   22.90    3.20
   5  -3   8   22.90    7.70
   5  -3   8   13.10    4.50
   5  -3   8   18.10    5.60
   5  -3   8   17.50    3.30
  -6   3  -8   52.39    8.10
   6  -3   8   69.19    8.10
   6  -3   8   76.99   12.00
   6  -3   8   72.19    7.30
   6  -3   8   73.79    6.90
   6  -3   8   87.19   10.80
   6  -3   8   69.29   11.50
   6  -3   8   86.19   11.70
   7   2  -8  490.75   37.30
   7   2  -8  589.04   47.40
   7   2  -8  656.33   41.10
   7   2  -8  664.53   39.90
  -7  -2   8  667.23   42.70
  -7  -2   8  584.44   38.20
  -7  -2   8  652.83   41.20
  -7  -2   8  539.25   37.40
   6   2  -8  704.83   41.00
   6   2  -8  538.35   45.60
   6   2  -8  483.75   35.30
   6   2  -8  640.54   40.50
  -6  -2   8  571.04   38.40
  -6  -2   8  649.74   39.70
  -6  -2   8  541.05   36.00
  -6  -2   8  582.04   36.90
   5   2  -8   51.89   13.50
   5   2  -8   48.10    8.30
   5   2  -8   68.69   12.40
   5   2  -8   59.19    9.10
  -5  -2   8   60.89   10.70
  -5  -2   8   60.59    9.70
  -5  -2   8   40.20    9.30
   4   2  -8    5.50    6.00
   4   2  -8   -1.50    5.40
   4   2  -8   13.40    9.40
   4   2  -8  -19.30   10.20
   4   2  -8    8.20    6.10
  -4  -2   8   10.30    6.50
  -4  -2   8    2.60    7.00
  -4  -2   8    9.90    7.20
   3   2  -8  309.27   28.50
   3   2  -8  318.57   23.60
   3   2  -8  406.96   23.80
   3   2  -8  361.96   22.60
   3   2  -8  322.07   28.00
  -3  -2   8  442.26   25.00
  -3  -2   8  420.76   24.30
   2   2  -8  125.49   16.70
   2   2  -8  132.39   12.10
   2   2  -8  133.49   10.60
   2   2  -8  141.09   17.60
   2   2  -8  146.39   12.30
  -2  -2   8  142.89   12.10
  -2  -2   8  167.48   13.50
  -2  -2   8  176.18   13.30
  -2  -2   8  154.98   15.40
   1   2  -8 1257.87   65.99
   1   2  -8 1248.98   66.79
   1   2  -8 1265.87   67.09
   1   2  -8 1298.97   66.39
   1   2  -8 1191.38   68.89
   1   2  -8 1140.69   68.19
  -1  -2   8 1381.16   68.09
  -1  -2   8 1279.07   67.09
  -1  -2   8 1169.78   65.99
  -1  -2   8 1213.48   69.29
  -1  -2   8 1149.39   67.29
   0   2  -8 2783.62  149.49
   0   2  -8 2794.92  147.69
   0   2  -8 2842.42  148.19
   0   2  -8 2894.31  147.49
   0   2  -8 2920.71  147.79
   0   2  -8 3004.60  147.69
   0  -2   8 2466.25  148.29
   0  -2   8 2781.22  148.29
   0  -2   8 2763.92  150.78
   0  -2   8 2634.64  148.99
   0  -2   8 2820.12  147.59
  -1   2  -8  725.53   37.80
  -1   2  -8  707.33   38.10
  -1   2  -8  719.33   38.20
  -1   2  -8  745.53   39.90
   1  -2   8  726.03   38.40
   1  -2   8  725.13   38.00
   1  -2   8  654.93   38.50
   1  -2   8  622.04   40.20
   1  -2   8  699.33   41.80
  -2   2  -8   96.59    6.90
  -2   2  -8   98.79   10.00
  -2   2  -8   81.39    7.00
  -2   2  -8  102.09   14.80
   2  -2   8   83.59    7.20
   2  -2   8   95.09    7.90
   2  -2   8  104.99    8.80
   2  -2   8   86.59   13.40
   2  -2   8   95.09    6.00
   2  -2   8   95.99    9.50
   2  -2   8   76.19    8.10
   2  -2   8   90.29    7.40
   2  -2   8   88.59   12.40
  -3   2  -8    3.10    4.50
  -3   2  -8    6.90    9.50
  -3   2  -8    0.50    2.60
   3  -2   8    0.40    2.20
   3  -2   8    4.40    3.10
   3  -2   8    1.30    2.50
   3  -2   8    3.60    3.50
   3  -2   8    2.90    3.00
   3  -2   8    0.50    5.30
   3  -2   8   -1.10    6.70
   3  -2   8    5.80    3.20
   3  -2   8    1.60    4.50
   3  -2   8   -3.50    3.40
  -4   2  -8   -1.10    3.50
  -4   2  -8   -2.80   11.00
  -4   2  -8    2.70    4.00
   4  -2   8    2.40    2.60
   4  -2   8    5.00    2.60
   4  -2   8    2.20    2.90
   4  -2   8    6.00    6.70
   4  -2   8   -0.40    5.00
   4  -2   8    8.60    3.10
   4  -2   8    1.80    2.50
   4  -2   8    0.20    3.50
   4  -2   8    5.50    4.80
   4  -2   8    3.20    4.10
   4  -2   8    0.00    7.70
  -5   2  -8   96.19    9.90
  -5   2  -8   83.99    8.80
  -5   2  -8   84.79   20.20
   5  -2   8  110.19   13.10
   5  -2   8  108.29    9.80
   5  -2   8  107.09    7.10
   5  -2   8  112.39   14.30
   5  -2   8  102.59    7.70
   5  -2   8   96.69    7.90
   5  -2   8  104.99   17.10
   5  -2   8   90.29   13.40
   5  -2   8  103.39   10.30
   5  -2   8   90.59    8.20
  -6   2  -8  352.56   21.80
  -6   2  -8  316.27   43.90
   6  -2   8  346.87   19.20
   6  -2   8  358.76   24.60
   6  -2   8  329.17   19.60
   6  -2   8  357.76   21.80
   6  -2   8  312.67   20.50
   6  -2   8  356.86   26.90
   6  -2   8  341.37   19.90
  -7   2  -8  162.58   50.69
  -7   2  -8  294.07   20.90
   7  -2   8  298.57   25.20
   7  -2   8  310.57   20.80
   7  -2   8  299.07   17.70
   7  -2   8  251.57   19.70
   7  -2   8  286.47   18.20
   7  -2   8  298.97   27.90
   7  -2   8  286.27   16.80
   7  -2   8  289.07   20.60
   7   1  -8  286.17   31.40
   7   1  -8  364.36   28.40
   7   1  -8  339.87   27.00
   7   1  -8  232.48   24.40
  -7  -1   8  305.67   22.50
  -7  -1   8  344.47   30.70
  -7  -1   8  297.77   23.70
  -7  -1   8  297.27   27.80
   6   1  -8  222.88   20.40
   6   1  -8  236.78   27.90
   6   1  -8  258.97   19.00
  -6  -1   8  250.77   19.80
  -6  -1   8  241.38   23.10
  -6  -1   8  269.47   23.30
  -6  -1   8  268.27   24.00
   5   1  -8   93.29   12.80
   5   1  -8   30.90   11.70
   5   1  -8   85.09   12.40
   5   1  -8   70.49    9.10
   5   1  -8   49.30    8.70
  -5  -1   8   50.49    9.60
  -5  -1   8   64.59    9.10
  -5  -1   8   59.89   10.20
  -5  -1   8   40.30    8.80
   4   1  -8  539.05   36.00
   4   1  -8  548.95   35.40
   4   1  -8  664.63   36.50
  -4  -1   8  643.54   36.70
  -4  -1   8  548.05   35.80
  -4  -1   8  579.44   35.40
  -4  -1   8  750.92   37.30
   3   1  -8  288.27   19.50
   3   1  -8  262.97   18.90
   3   1  -8  284.97   24.10
   3   1  -8  203.08   25.10
   3   1  -8  313.57   18.80
  -3  -1   8  316.57   19.60
  -3  -1   8  261.67   17.40
  -3  -1   8  274.07   18.60
   2   1  -8  609.34   39.20
   2   1  -8  678.13   37.10
   2   1  -8  650.73   41.50
   2   1  -8  682.93   37.90
   2   1  -8  657.13   37.80
  -2  -1   8  657.13   36.30
  -2  -1   8  692.93   37.40
  -2  -1   8  681.63   37.60
   1   1  -8 3101.99  155.28
   1   1  -8 2896.81  157.78
   1   1  -8 2977.10  155.58
   1   1  -8 2929.91  157.78
  -1  -1   8 2903.61  154.78
  -1  -1   8 2658.73  155.28
  -1  -1   8 3016.50  155.48
   0   1  -8 1787.42   98.99
   0   1  -8 1933.51   97.09
   0   1  -8 1780.52   98.99
   0   1  -8 1930.51   96.39
   0   1  -8 1980.70   97.09
   0  -1   8 1549.45   98.09
   0  -1   8 1834.22   96.69
   0  -1   8 1883.81   97.29
   0  -1   8 1786.22   97.29
   0  -1   8 1750.02   99.69
  -1   1  -8  222.38   15.40
  -1   1  -8  199.58   12.00
  -1   1  -8  212.28   11.80
  -1   1  -8  203.58   16.10
  -1   1  -8  163.38   13.40
  -1   1  -8  198.98   12.40
  -1   1  -8  203.88   11.40
   1  -1   8  217.88   12.70
   1  -1   8  212.88   17.40
   1  -1   8  211.48   13.00
   1  -1   8  186.18   13.70
   1  -1   8  202.28   12.40
  -2   1  -8    8.70    4.50
  -2   1  -8    2.80    2.90
  -2   1  -8    4.40    2.30
  -2   1  -8    3.20    6.20
   2  -1   8    6.50    2.80
   2  -1   8    4.20    6.40
   2  -1   8    3.10    2.90
   2  -1   8    8.30    3.10
   2  -1   8    5.40    3.30
  -3   1  -8    4.70    4.10
  -3   1  -8    0.60    2.40
  -3   1  -8   -0.20    8.20
   3  -1   8    2.00    2.60
   3  -1   8    1.40    1.90
   3  -1   8    3.20    3.50
   3  -1   8    2.20    6.90
   3  -1   8    0.10    2.70
   3  -1   8    1.40    2.30
   3  -1   8    1.40    3.50
  -4   1  -8  110.59   10.40
  -4   1  -8  140.19   21.00
  -4   1  -8  144.19   11.00
   4  -1   8  128.79   14.20
   4  -1   8  140.19   10.50
   4  -1   8  137.29    8.70
   4  -1   8  148.39    9.40
   4  -1   8  148.29    9.10
   4  -1   8  128.99   15.20
   4  -1   8  140.49    9.30
   4  -1   8  139.89   11.60
  -5   1  -8  347.87   33.90
  -5   1  -8  362.86   21.70
  -5   1  -8  364.26   21.80
   5  -1   8  358.56   20.90
   5  -1   8  377.56   22.40
   5  -1   8  357.56   26.40
   5  -1   8  380.06   24.20
   5  -1   8  400.76   20.90
   5  -1   8  363.66   25.10
   5  -1   8  367.16   21.10
   5  -1   8  384.46   21.00
  -6   1  -8  393.36   42.90
   6  -1   8  456.45   26.50
   6  -1   8  447.86   29.80
   6  -1   8  424.16   28.80
   6  -1   8  459.25   24.50
   6  -1   8  417.56   24.90
   6  -1   8  435.96   24.60
   6  -1   8  433.96   25.10
   6  -1   8  458.25   32.20
  -7   1  -8  202.38   16.10
  -7   1  -8  175.98   32.10
   7  -1   8  204.28   13.90
   7  -1   8  227.98   13.60
   7  -1   8  177.48   15.00
   7  -1   8  203.38   14.60
   7  -1   8  203.78   16.70
   7  -1   8  217.48   16.30
   7  -1   8  203.88   23.00
   7   0  -8  219.08   22.80
   7   0  -8  168.38   25.60
  -7   0   8  138.49   24.40
  -7   0   8  219.78   25.70
  -7   0   8  233.68   21.60
   6   0  -8  113.79   22.00
   6   0  -8  124.79   13.80
  -6   0   8  104.99   17.90
  -6   0   8  123.39   18.80
  -6   0   8  132.89   18.30
  -6   0   8  119.39   18.40
   5   0  -8  277.87   22.20
   5   0  -8  371.16   26.50
  -5   0   8  340.67   25.20
  -5   0   8  260.57   22.10
  -5   0   8  305.57   22.30
  -5   0   8  253.17   21.90
   4   0  -8  107.89   13.30
   4   0  -8  144.99   13.30
   4   0  -8  153.18   14.70
  -4   0   8  150.38   14.00
  -4   0   8  129.49   13.10
   3   0  -8   20.70    5.70
   3   0  -8   28.80    7.30
   3   0  -8    4.60    5.10
   3   0  -8   26.00    7.40
   3   0  -8    3.00    5.50
  -3   0   8   29.60    7.60
  -3   0   8   11.60    7.70
  -3   0   8    9.50    4.70
  -3   0   8   12.90    5.90
  -3   0   8    9.60    4.90
   2   0  -8 2092.69  106.69
   2   0  -8 1928.41  107.09
   2   0  -8 1976.20  107.19
  -2   0   8 1978.10  106.19
  -2   0   8 1982.10  106.39
  -2   0   8 1982.10  106.49
   1   0  -8 2340.07  117.29
   1   0  -8 2276.47  117.59
   1   0  -8 2157.18  119.89
  -1   0   8 2199.08  117.19
  -1   0   8 2313.77  117.29
  -1   0   8 1940.61  118.69
  -1   0   8 2152.18  116.69
  -1   0   8 2209.28  119.69
   0   0  -8  622.84   41.70
   0   0  -8  707.73   37.70
   0   0  -8  731.23   40.00
   0   0  -8  789.32   39.00
   0   0   8  701.83   38.90
   0   0   8  648.54   40.20
   0   0   8  709.13   38.50
   0   0   8  732.53   38.90
   0   0   8  720.83   42.30
  -1   0  -8   60.99    9.70
  -1   0  -8   61.49    8.10
  -1   0  -8   61.39    5.60
  -1   0  -8   54.49    6.30
  -1   0  -8   62.79    4.00
  -1   0  -8   68.69    8.50
   1   0   8   62.39    6.60
   1   0   8   63.59    6.30
   1   0   8   49.90    8.90
   1   0   8   66.99   12.40
   1   0   8   76.09    6.50
  -2   0  -8   -0.30    4.80
  -2   0  -8   12.20    2.40
  -2   0  -8    8.50    5.00
  -2   0  -8   17.00    3.30
  -2   0  -8   20.20    5.10
  -2   0  -8   13.40    2.30
  -2   0  -8   17.40    6.40
   2   0   8   13.10    3.00
   2   0   8   18.30    3.50
   2   0   8   16.00    3.20
   2   0   8   15.20    3.20
   2   0   8   14.20    6.60
  -3   0  -8    7.30    3.30
  -3   0  -8    4.20    6.10
  -3   0  -8    7.70    4.00
  -3   0  -8    6.60    7.70
  -3   0  -8    6.90    2.50
   3   0   8    7.60    7.30
   3   0   8    7.90    3.60
   3   0   8    4.30    2.60
   3   0   8    6.00    2.70
   3   0   8    8.00    3.00
   3   0   8    5.70    3.40
   3   0   8    6.40    1.50
  -4   0  -8  146.89   11.20
  -4   0  -8  151.58   20.20
  -4   0  -8  145.39    9.90
   4   0   8  160.38   11.20
   4   0   8  161.68   11.80
   4   0   8  157.58   15.60
   4   0   8  155.08   11.60
   4   0   8  151.08    9.00
   4   0   8  131.79   11.90
   4   0   8  160.78   10.40
   4   0   8  159.98   10.00
  -5   0  -8  839.92   51.09
  -5   0  -8  891.91   58.89
  -5   0  -8  900.71   49.20
   5   0   8  903.31   49.20
   5   0   8  877.41   48.60
   5   0   8  930.41   49.90
   5   0   8  936.81   49.00
   5   0   8  952.30   51.09
   5   0   8  922.61   52.49
   5   0   8  918.51   49.10
  -6   0  -8  693.13   39.90
  -6   0  -8  734.33   39.40
  -6   0  -8  683.43   53.89
   6   0   8  738.33   39.80
   6   0   8  735.33   39.50
   6   0   8  735.93   43.00
   6   0   8  732.33   40.70
   6   0   8  720.63   44.00
   6   0   8  731.23   40.80
   6   0   8  682.23   39.20
   6   0   8  726.63   39.40
  -7   0  -8    6.30   21.80
  -7   0  -8    1.90    3.60
   7   0   8   13.10    5.20
   7   0   8   16.30    5.80
   7   0   8   16.40    5.20
   7   0   8   18.00    4.40
   7   0   8   15.10    4.60
   7   0   8   11.90    9.00
   7   0   8   14.20    6.50
   7  -1  -8   48.50   12.90
   7  -1  -8  132.99   18.80
  -7   1   8   81.49   13.90
  -7   1   8  105.59   13.80
  -7   1   8   75.09   22.30
  -7   1   8   74.89   15.30
  -7   1   8   81.59   13.10
   6  -1  -8   64.49   11.10
   6  -1  -8  121.89   16.90
   6  -1  -8   75.49   12.20
  -6   1   8   87.89   12.10
  -6   1   8   68.39   12.30
  -6   1   8   72.09   11.20
   5  -1  -8  331.67   22.20
   5  -1  -8  318.87   23.60
   5  -1  -8  286.87   23.20
  -5   1   8  279.97   21.90
  -5   1   8  241.08   22.60
  -5   1   8  293.37   21.70
   4  -1  -8   25.50    7.40
   4  -1  -8   23.00    7.80
   4  -1  -8   27.20    6.60
   4  -1  -8   37.80    7.10
  -4   1   8   15.40    6.00
  -4   1   8   18.70    6.70
  -4   1   8   46.00   12.80
  -4   1   8   24.50    6.60
   3  -1  -8  621.64   39.40
   3  -1  -8  764.42   39.40
   3  -1  -8  682.13   39.80
  -3   1   8  686.83   38.50
  -3   1   8  699.33   38.60
  -3   1   8  643.54   39.00
   2  -1  -8 1586.64   89.29
   2  -1  -8 1770.42   88.89
   2  -1  -8 1698.83   88.89
  -2   1   8 1602.64   88.59
  -2   1   8 1645.54   88.49
  -2   1   8 1573.44   88.29
   1  -1  -8 1082.29   57.29
   1  -1  -8 1176.38   58.49
   1  -1  -8 1087.69   57.89
   1  -1  -8 1078.89   57.49
  -1   1   8  976.30   56.79
  -1   1   8 1017.80   59.79
  -1   1   8 1105.49   57.39
  -1   1   8  998.60   57.19
  -1   1   8  984.10   60.39
   0  -1  -8   18.60    4.50
   0  -1  -8   16.10    3.50
   0  -1  -8   15.80    3.40
   0  -1  -8   23.90    5.40
   0   1   8   16.70    3.40
   0   1   8   14.60    4.50
   0   1   8   15.50    3.40
   0   1   8   20.20    7.90
  -1  -1  -8    4.50    3.10
  -1  -1  -8   -7.40    6.00
  -1  -1  -8   14.00    4.90
  -1  -1  -8    5.60    2.70
  -1  -1  -8    5.80    2.70
  -1  -1  -8    5.90    4.70
   1   1   8    7.30    3.30
   1   1   8    5.60    3.10
   1   1   8    6.70    8.40
   1   1   8    7.20    3.20
   1   1   8    6.80    3.70
  -2  -1  -8    1.40    2.20
  -2  -1  -8    9.60    3.50
  -2  -1  -8    2.10    5.70
  -2  -1  -8    0.50    5.00
  -2  -1  -8    0.10    2.40
  -2  -1  -8   -0.80    1.90
  -2  -1  -8    3.70    4.50
   2   1   8    1.60    3.10
   2   1   8   -1.30    6.70
   2   1   8    2.50    3.10
   2   1   8   -0.10    2.60
  -3  -1  -8   75.99    9.00
  -3  -1  -8   82.19   10.10
  -3  -1  -8   64.59    5.60
  -3  -1  -8   65.99    6.60
  -3  -1  -8   49.40    9.20
  -3  -1  -8   94.49   11.80
  -3  -1  -8   57.99    5.10
   3   1   8   67.99   10.30
   3   1   8   59.29    6.60
   3   1   8   64.39    6.90
   3   1   8   74.69    6.70
   3   1   8   63.69    7.30
   3   1   8   60.49    6.60
  -4  -1  -8  542.65   29.40
  -4  -1  -8  489.95   34.60
  -4  -1  -8  543.65   30.30
  -4  -1  -8  526.25   29.20
  -4  -1  -8  516.85   36.20
   4   1   8  562.04   30.20
   4   1   8  526.95   32.20
   4   1   8  558.14   30.80
   4   1   8  538.35   29.90
   4   1   8  563.04   30.70
   4   1   8  545.25   28.90
   4   1   8  532.15   30.40
   4   1   8  559.44   30.10
   4   1   8  554.44   34.40
  -5  -1  -8 1041.10   65.29
  -5  -1  -8  924.61   65.89
  -5  -1  -8 1079.79   57.29
  -5  -1  -8 1029.90   57.09
   5   1   8 1105.69   58.19
   5   1   8 1081.59   58.19
   5   1   8 1120.89   57.49
   5   1   8 1021.00   56.69
   5   1   8 1062.79   57.39
   5   1   8 1111.09   57.79
   5   1   8 1087.79   58.79
   5   1   8 1101.69   59.09
  -6  -1  -8  263.77   15.80
  -6  -1  -8  241.08   32.90
  -6  -1  -8  253.57   31.80
   6   1   8  262.87   17.70
   6   1   8  268.87   16.20
   6   1   8  276.47   17.10
   6   1   8  273.67   18.20
   6   1   8  257.07   20.70
   6   1   8  268.37   16.20
  -7  -1  -8   -6.40   16.00
  -7  -1  -8   -4.10   19.50
  -7  -1  -8    1.30    4.60
   7   1   8    4.10    4.40
   7   1   8   -6.40    7.40
   7   1   8    0.80    4.40
   7   1   8    8.90    6.30
   7   1   8    3.50    5.30
   7   1   8    3.10    3.80
   7   1   8   -0.20    4.80
  -8  -1  -8   26.20   26.50
   8   1   8   42.00    8.60
   8   1   8   24.00    7.30
   8   1   8   37.00    6.60
   8   1   8   39.10    6.70
   8   1   8   25.70   11.50
   8   1   8   36.00    7.30
   8   1   8   43.30    6.70
   6  -2  -8  107.39   15.30
   6  -2  -8  105.99   15.00
   6  -2  -8  102.69   17.70
  -6   2   8  103.39   19.60
  -6   2   8  157.88   17.00
  -6   2   8  132.69   18.50
  -6   2   8  121.19   17.90
   5  -2  -8  323.47   24.00
   5  -2  -8  295.27   24.90
   5  -2  -8  303.37   21.70
  -5   2   8  279.77   24.20
  -5   2   8  337.67   22.90
  -5   2   8  326.07   22.60
   4  -2  -8  103.19   13.20
   4  -2  -8  101.79   11.70
   4  -2  -8   65.89   10.90
  -4   2   8  101.49   16.50
  -4   2   8  102.09   12.00
  -4   2   8   87.89   13.70
  -4   2   8   83.89   11.40
   3  -2  -8 1365.26   73.69
   3  -2  -8 1470.75   74.09
   3  -2  -8 1330.97   73.29
   3  -2  -8 1216.18   74.09
  -3   2   8 1322.97   73.99
  -3   2   8 1312.97   72.79
  -3   2   8 1406.66   73.19
   2  -2  -8 1276.97   61.79
   2  -2  -8 1103.69   62.09
   2  -2  -8 1188.18   61.89
  -2   2   8 1158.58   61.29
  -2   2   8 1032.10   61.79
  -2   2   8  989.60   64.39
  -2   2   8 1125.19   61.29
   1  -2  -8   22.20    4.30
   1  -2  -8   23.10    4.10
   1  -2  -8   28.10    5.10
   1  -2  -8   21.90    4.90
  -1   2   8   27.50    4.80
  -1   2   8   25.50    7.60
  -1   2   8   23.00    4.10
  -1   2   8   39.60   11.70
  -1   2   8   27.50    4.60
   0  -2  -8   98.89    8.50
   0  -2  -8  100.09    9.40
   0  -2  -8  100.79    5.90
   0  -2  -8  102.19    8.40
   0  -2  -8  106.89    9.50
   0   2   8   99.19    8.50
   0   2   8   90.59   10.40
   0   2   8   98.59    8.00
   0   2   8  109.39    8.70
   0   2   8   83.59   13.00
  -1  -2  -8  110.49    9.30
  -1  -2  -8   83.39    7.50
  -1  -2  -8   85.09    8.20
  -1  -2  -8   92.89   10.10
  -1  -2  -8   89.49    7.60
   1   2   8   83.49    7.80
   1   2   8   86.69    7.50
   1   2   8   75.79   14.30
   1   2   8   71.99   11.70
   1   2   8   94.49    9.20
  -2  -2  -8   24.40    6.50
  -2  -2  -8   24.70    4.70
  -2  -2  -8   22.30    4.20
  -2  -2  -8   18.20    3.50
  -2  -2  -8   23.50    3.40
   2   2   8   22.00    3.90
   2   2   8   21.30    8.00
   2   2   8   16.50    3.50
   2   2   8   22.10    3.80
  -3  -2  -8  227.68   18.90
  -3  -2  -8  199.88   13.10
  -3  -2  -8  195.88   13.50
  -3  -2  -8  240.58   15.70
  -3  -2  -8  186.08   12.30
  -3  -2  -8  260.07   15.50
  -3  -2  -8  256.67   16.20
   3   2   8  215.98   13.80
   3   2   8  260.07   17.70
   3   2   8  197.98   13.60
   3   2   8  199.68   13.60
   3   2   8  207.88   13.90
  -4  -2  -8 1791.62   94.99
  -4  -2  -8 1651.93   96.89
  -4  -2  -8 1693.03   95.69
  -4  -2  -8 1804.82   94.49
  -4  -2  -8 1723.63   99.19
  -4  -2  -8 1715.13   94.09
  -4  -2  -8 1785.82   94.99
   4   2   8 1806.72   95.59
   4   2   8 1847.72   95.19
   4   2   8 1756.12   96.39
   4   2   8 1868.41   94.89
   4   2   8 1788.02   94.99
   4   2   8 1786.02   93.69
   4   2   8 1802.12   95.09
   4   2   8 1842.32   95.09
  -5  -2  -8  481.85   25.90
  -5  -2  -8  426.26   31.70
  -5  -2  -8  472.05   25.70
  -5  -2  -8  453.65   25.40
  -5  -2  -8  409.16   27.70
  -5  -2  -8  452.45   35.10
   5   2   8  472.75   27.70
   5   2   8  500.95   26.70
   5   2   8  463.25   28.00
   5   2   8  467.45   26.90
   5   2   8  443.06   25.00
   5   2   8  467.65   26.20
   5   2   8  473.45   26.70
   5   2   8  467.25   26.10
  -6  -2  -8    7.20    3.20
  -6  -2  -8   -0.80    3.40
  -6  -2  -8   10.30    3.70
  -6  -2  -8   10.00   14.10
  -6  -2  -8    2.90    5.10
  -6  -2  -8    6.30    9.80
   6   2   8    6.10    5.90
   6   2   8    7.10    5.60
   6   2   8    3.80    4.30
   6   2   8    2.10    5.10
   6   2   8    4.00    3.90
   6   2   8    6.40    3.50
  -7  -2  -8   10.10    4.60
  -7  -2  -8    3.30   17.20
  -7  -2  -8   17.30   13.90
   7   2   8   10.70    4.90
   7   2   8    9.30    6.60
   7   2   8    5.20    5.20
   7   2   8    9.40    5.40
   7   2   8    1.80    7.50
   7   2   8   13.60    4.30
  -8  -2  -8   -8.70   22.50
  -8  -2  -8    0.60    5.70
   8   2   8   18.00    5.90
   8   2   8    9.00    5.90
   8   2   8   18.90    7.90
   8   2   8    6.80    6.70
   8   2   8    0.50    9.50
   6  -3  -8  170.58   22.90
   6  -3  -8  180.58   28.90
  -6   3   8  239.88   25.50
  -6   3   8  211.58   24.70
  -6   3   8  236.98   31.60
  -6   3   8  226.68   21.70
  -6   3   8  231.18   21.80
   5  -3  -8    5.40    7.00
   5  -3  -8    3.30    5.80
  -5   3   8   12.10    7.60
  -5   3   8   11.00   14.00
  -5   3   8   14.50    7.10
  -5   3   8    2.20    8.80
  -5   3   8   10.00   19.30
   4  -3  -8  291.47   21.50
   4  -3  -8  265.17   19.50
  -4   3   8  323.77   20.00
  -4   3   8  281.97   22.40
  -4   3   8  285.27   19.80
   3  -3  -8  559.84   33.50
   3  -3  -8  588.34   33.20
  -3   3   8  601.04   33.30
  -3   3   8  585.74   35.30
  -3   3   8  486.75   40.40
  -3   3   8  632.54   33.60
   2  -3  -8  280.67   18.30
   2  -3  -8  301.67   16.50
   2  -3  -8  283.07   19.10
   2  -3  -8  297.47   17.20
   2  -3  -8  287.57   18.90
  -2   3   8  278.37   19.70
  -2   3   8  262.97   23.90
  -2   3   8  280.67   18.10
  -2   3   8  273.67   18.20
   1  -3  -8   17.70    5.20
   1  -3  -8   13.30    3.10
   1  -3  -8    9.20    3.70
   1  -3  -8   11.40    4.20
   1  -3  -8   13.40    3.70
  -1   3   8   10.60    4.00
  -1   3   8   10.90    4.60
  -1   3   8   11.50   10.70
  -1   3   8   12.70    4.20
  -1   3   8    8.90    6.30
   0  -3  -8   -0.10    3.90
   0  -3  -8    0.60    1.80
   0  -3  -8    3.70    3.50
   0  -3  -8    4.60    3.80
   0  -3  -8    1.40    3.70
   0   3   8    3.30    3.60
   0   3   8   -0.30    4.60
   0   3   8    9.40   10.80
   0   3   8   -1.10    3.70
   0   3   8    1.70    3.50
  -1  -3  -8  129.39   10.80
  -1  -3  -8  132.59   11.70
  -1  -3  -8  133.49    9.80
  -1  -3  -8  130.39    9.80
  -1  -3  -8  128.89   10.80
   1   3   8  118.59    9.40
   1   3   8  126.99   17.90
   1   3   8  130.39   11.40
   1   3   8  132.49    9.80
  -2  -3  -8   12.10    3.30
  -2  -3  -8    8.90    3.90
  -2  -3  -8    8.30    4.30
  -2  -3  -8   14.00    6.50
  -2  -3  -8    6.70    4.10
   2   3   8   11.60    3.50
   2   3   8   12.40    4.00
   2   3   8   14.90    7.80
   2   3   8    8.70    3.60
  -3  -3  -8 1325.87   74.59
  -3  -3  -8 1345.17   71.69
  -3  -3  -8 1360.76   72.99
  -3  -3  -8 1317.57   72.29
  -3  -3  -8 1301.47   71.69
   3   3   8 1277.97   71.49
   3   3   8 1384.16   72.09
   3   3   8 1314.87   71.69
   3   3   8 1383.66   71.79
   3   3   8 1355.56   73.99
   3   3   8 1304.97   71.79
  -4  -3  -8 1146.99   64.79
  -4  -3  -8 1181.28   65.39
  -4  -3  -8 1222.08   69.19
  -4  -3  -8 1176.48   64.29
  -4  -3  -8 1240.38   66.69
  -4  -3  -8 1245.98   63.69
  -4  -3  -8 1196.58   64.49
   4   3   8 1228.48   64.59
   4   3   8 1200.78   64.79
   4   3   8 1223.48   64.59
   4   3   8 1143.29   63.09
   4   3   8 1184.88   64.59
   4   3   8 1166.88   64.69
   4   3   8 1193.18   65.99
  -5  -3  -8   83.29    8.40
  -5  -3  -8   76.99   14.50
  -5  -3  -8   96.99   15.40
  -5  -3  -8   88.59    7.90
  -5  -3  -8   86.29    6.60
  -5  -3  -8   84.09   11.80
   5   3   8   84.09    8.40
   5   3   8   86.19   10.20
   5   3   8   93.99   11.50
   5   3   8   82.49    8.70
   5   3   8   80.89    7.80
   5   3   8   75.59    9.10
   5   3   8   86.49    9.70
  -6  -3  -8   41.60    8.10
  -6  -3  -8   45.90   16.30
  -6  -3  -8   44.20   10.50
  -6  -3  -8   39.10    5.30
  -6  -3  -8   39.80    5.70
  -6  -3  -8   48.90    4.90
   6   3   8   39.00    7.60
   6   3   8   55.69    7.50
   6   3   8   45.20    6.70
   6   3   8   35.30    5.90
   6   3   8   50.39    5.90
   6   3   8   29.10    5.20
   6   3   8   45.60    6.50
  -7  -3  -8   30.80    3.30
  -7  -3  -8   10.60   18.30
  -7  -3  -8   31.00    5.10
  -7  -3  -8   22.40    5.50
  -7  -3  -8   24.60    8.60
   7   3   8   28.20    6.30
   7   3   8   41.50    8.00
   7   3   8   35.00    6.00
   7   3   8   32.30    6.20
   7   3   8   26.00    8.20
   7   3   8   31.80    4.90
  -8  -3  -8   28.70   23.20
  -8  -3  -8   50.59    7.10
   8   3   8   46.50    8.30
   8   3   8   57.49    9.40
   8   3   8   42.40   11.00
   8   3   8   55.29    7.80
   8   3   8   63.79    8.20
   5  -4  -8   80.99   12.50
   5  -4  -8   82.39   15.80
   5  -4  -8   55.09    8.10
  -5   4   8  117.09   14.90
  -5   4   8   64.19   24.50
  -5   4   8   97.19   10.90
  -5   4   8   77.29   12.90
   4  -4  -8  281.17   19.40
   4  -4  -8  239.88   20.60
  -4   4   8  282.87   23.40
  -4   4   8  290.47   20.00
  -4   4   8  323.97   20.00
   3  -4  -8  284.27   18.40
   3  -4  -8  269.07   17.50
   3  -4  -8  254.57   17.00
  -3   4   8  232.48   17.10
  -3   4   8  237.58   20.30
  -3   4   8  178.28   26.90
  -3   4   8  252.07   17.20
   2  -4  -8    9.00    2.90
   2  -4  -8    7.30    5.10
   2  -4  -8   13.20    5.30
   2  -4  -8    9.30    4.70
  -2   4   8   14.20    4.60
  -2   4   8    8.60    6.10
  -2   4   8   12.40    4.90
  -2   4   8   10.50    9.20
  -2   4   8    4.10   14.30
   1  -4  -8    2.70    4.00
   1  -4  -8    2.30    3.50
   1  -4  -8    3.10    4.30
   1  -4  -8    0.40    4.20
   1  -4  -8    2.60    3.00
  -1   4   8    4.10    4.60
  -1   4   8    9.80   12.00
  -1   4   8    0.20    6.00
  -1   4   8    7.20    4.10
  -1   4   8    6.30    4.40
   0  -4  -8   34.20    5.10
   0  -4  -8   35.00    5.70
   0  -4  -8   35.00    4.10
   0  -4  -8   44.80    7.20
   0  -4  -8   41.50    5.70
   0   4   8   33.10    6.20
   0   4   8   45.50    5.70
   0   4   8   31.20   11.40
   0   4   8   36.20    5.40
   0   4   8   29.80    4.60
  -1  -4  -8   10.70    4.10
  -1  -4  -8   12.10    3.60
  -1  -4  -8    7.10    3.40
  -1  -4  -8   10.40    4.70
  -1  -4  -8   10.60    5.10
   1   4   8   10.00    3.50
   1   4   8   10.70    3.90
   1   4   8   23.50   10.10
   1   4   8   15.80    5.10
  -2  -4  -8  550.44   32.20
  -2  -4  -8  568.04   32.70
  -2  -4  -8  593.74   33.60
  -2  -4  -8  587.54   34.50
  -2  -4  -8  569.44   31.90
   2   4   8  586.34   31.90
   2   4   8  572.64   36.10
   2   4   8  545.25   32.80
  -3  -4  -8 1103.49   58.49
  -3  -4  -8 1146.69   60.19
  -3  -4  -8 1079.19   58.29
  -3  -4  -8 1072.69   61.49
  -3  -4  -8 1096.49   59.19
   3   4   8 1035.60   58.19
   3   4   8 1089.59   60.89
   3   4   8 1008.70   58.99
   3   4   8 1038.10   58.79
   3   4   8 1080.49   58.19
   3   4   8 1108.79   58.69
  -4  -4  -8  176.08   13.90
  -4  -4  -8  171.98   15.20
  -4  -4  -8  176.88   19.50
  -4  -4  -8  155.18   11.10
  -4  -4  -8  160.28   11.40
   4   4   8  161.28   11.80
   4   4   8  158.58   11.50
   4   4   8  159.48   12.30
   4   4   8  163.48   12.00
   4   4   8  163.88   11.60
   4   4   8  155.48   14.20
   4   4   8  152.08    9.10
  -5  -4  -8   34.40    6.90
  -5  -4  -8   33.50    7.90
  -5  -4  -8   25.50   11.60
  -5  -4  -8   30.70    4.70
  -5  -4  -8   30.20    5.20
   5   4   8   29.90    4.80
   5   4   8   24.60    6.20
   5   4   8   38.10    5.40
   5   4   8   46.50    6.40
   5   4   8   31.70    6.20
   5   4   8   29.90    5.60
   5   4   8   33.50    4.50
  -6  -4  -8   94.99    8.00
  -6  -4  -8  101.99   14.10
  -6  -4  -8   84.99    8.10
  -6  -4  -8   96.99   10.10
  -6  -4  -8  102.89   19.10
  -6  -4  -8   80.99   17.00
   6   4   8  101.49   10.70
   6   4   8  104.29   10.00
   6   4   8   89.59   10.90
   6   4   8   86.19   10.00
   6   4   8  108.69   11.80
   6   4   8  101.49    9.20
   6   4   8  101.39   14.10
  -7  -4  -8   14.90    4.80
  -7  -4  -8   13.10    8.80
  -7  -4  -8    7.50   16.70
  -7  -4  -8   12.70    3.10
   7   4   8   10.60    6.00
   7   4   8    7.20    5.80
   7   4   8   14.70    7.20
   7   4   8   15.70    5.70
   7   4   8   13.30    7.70
   7   4   8    6.10    5.80
  -8  -4  -8    1.50   10.60
  -8  -4  -8   -4.80    6.80
  -8  -4  -8   -6.70   21.70
  -8  -4  -8    4.40    5.80
   8   4   8    5.00    6.80
   8   4   8    2.50    9.50
   8   4   8   -0.40    6.90
   8   4   8    0.90    7.40
   8   4   8    0.70    6.70
   5  -5  -8   70.39    9.40
   5  -5  -8   67.39   11.20
  -5   5   8  109.59   17.20
  -5   5   8   97.99   15.20
  -5   5   8  140.99   20.60
  -5   5   8   75.29   29.90
  -5   5   8   85.39   11.70
  -5   5   8   94.39   11.20
   4  -5  -8   71.69   11.10
  -4   5   8   74.49    9.30
  -4   5   8   69.19   23.50
  -4   5   8  138.59   20.60
  -4   5   8   85.09   12.00
  -4   5   8   76.89   12.80
   3  -5  -8   -1.30    6.40
   3  -5  -8    8.90    6.50
   3  -5  -8    5.70    5.50
   3  -5  -8    0.60    4.80
  -3   5   8    3.70    5.70
  -3   5   8   -4.50    7.50
  -3   5   8    4.90   15.60
  -3   5   8    2.60    5.00
  -3   5   8   -1.30   15.50
   2  -5  -8   11.00    5.20
   2  -5  -8   10.30    5.00
   2  -5  -8    6.50    4.70
   2  -5  -8   11.10    3.20
  -2   5   8   12.50    5.00
  -2   5   8   14.50   15.50
  -2   5   8    9.80    5.50
  -2   5   8    9.10   10.80
  -2   5   8    7.50    7.30
   1  -5  -8    9.10    5.00
   1  -5  -8    3.00    4.50
   1  -5  -8    4.00    3.80
   1  -5  -8   10.20    3.90
  -1   5   8    8.10    4.90
  -1   5   8   15.70   14.00
  -1   5   8   27.10    8.40
  -1   5   8    9.30    6.30
  -1   5   8    8.00    4.40
   0  -5  -8  210.38   15.20
   0  -5  -8  233.48   15.50
   0  -5  -8  228.68   15.20
   0  -5  -8  224.68   14.80
   0  -5  -8  218.08   13.20
   0   5   8  206.88   25.00
   0   5   8  227.88   18.00
   0   5   8  217.78   15.00
   0   5   8  197.18   14.50
   0   5   8  236.18   15.00
  -1  -5  -8    2.40    4.50
  -1  -5  -8    4.60    5.40
  -1  -5  -8   -0.30    4.80
  -1  -5  -8   -3.80    3.60
  -1  -5  -8    9.00    3.50
   1   5   8    2.90    4.40
   1   5   8    5.20    4.10
   1   5   8    3.70    4.70
   1   5   8    3.30    8.70
  -2  -5  -8  488.25   28.20
  -2  -5  -8  465.55   27.20
  -2  -5  -8  489.35   29.50
  -2  -5  -8  495.55   27.80
  -2  -5  -8  490.35   30.00
   2   5   8  440.76   27.70
   2   5   8  459.15   27.50
   2   5   8  589.54   41.40
   2   5   8  463.65   27.30
   2   5   8  467.35   26.80
   2   5   8  464.65   28.40
  -3  -5  -8  572.64   32.60
  -3  -5  -8  613.64   33.90
  -3  -5  -8  607.14   36.60
  -3  -5  -8  583.04   33.10
  -3  -5  -8  626.04   35.20
   3   5   8  494.95   33.00
   3   5   8  596.94   32.90
   3   5   8  578.24   33.40
   3   5   8  599.24   31.20
   3   5   8  563.14   33.10
   3   5   8  589.34   35.70
  -4  -5  -8    3.30    3.60
  -4  -5  -8   -0.30    3.50
  -4  -5  -8    6.70    9.00
  -4  -5  -8    5.30    5.50
  -4  -5  -8   -0.10    5.70
   4   5   8    1.50    4.20
   4   5   8   -2.30    5.70
   4   5   8    5.60    3.50
   4   5   8    6.60    4.50
   4   5   8    4.40    4.50
   4   5   8    4.70    2.10
  -5  -5  -8   93.49    9.50
  -5  -5  -8   90.89   14.90
  -5  -5  -8   90.79   15.50
  -5  -5  -8   92.09   12.70
  -5  -5  -8   90.99    8.30
   5   5   8   88.89    8.80
   5   5   8   91.49    9.80
   5   5   8   87.29   10.70
   5   5   8   84.69    6.60
   5   5   8   89.49   10.70
   5   5   8   79.69    9.40
   5   5   8   95.99   10.90
  -6  -5  -8   16.20   14.80
  -6  -5  -8   18.60    7.70
  -6  -5  -8   20.00    5.30
  -6  -5  -8   17.20    4.60
   6   5   8   19.10    5.80
   6   5   8   21.20    6.60
   6   5   8   15.60    7.00
   6   5   8   15.20    5.90
   6   5   8   18.20    5.80
   6   5   8   12.90    5.10
   6   5   8   22.90    7.20
  -7  -5  -8   -4.70   18.70
  -7  -5  -8  -13.20    8.50
  -7  -5  -8    1.20    6.40
   7   5   8    2.80    9.50
   7   5   8    9.70    7.80
   7   5   8   -3.20    6.00
   7   5   8   -3.40    7.00
   7   5   8    1.20    6.40
   7   5   8   -2.90    5.90
  -4   6   8   12.20   10.30
  -4   6   8   19.20   26.00
  -4   6   8   23.00   14.50
  -4   6   8   19.40   20.50
  -4   6   8   20.10    7.00
  -4   6   8   15.90    8.00
   3  -6  -8   -0.10    5.20
   3  -6  -8   -6.90    7.50
  -3   6   8   -1.80    5.20
  -3   6   8    1.30    6.30
  -3   6   8  -19.30   18.40
  -3   6   8   -4.00   18.30
  -3   6   8  -10.10    9.20
   2  -6  -8   12.60    6.30
   2  -6  -8   14.50    5.50
   2  -6  -8   12.20    3.60
   2  -6  -8   13.60    6.90
  -2   6   8   18.10    5.40
  -2   6   8    3.40   17.20
  -2   6   8    6.30   13.40
  -2   6   8    6.50    7.70
  -2   6   8   17.80    6.30
   1  -6  -8  213.38   13.80
   1  -6  -8  203.68   15.30
   1  -6  -8  175.08   14.70
   1  -6  -8  202.58   13.80
  -1   6   8  202.28   15.00
  -1   6   8  179.68   30.30
  -1   6   8  213.18   14.70
  -1   6   8  181.38   21.80
  -1   6   8  200.88   19.50
   0  -6  -8   80.39    9.20
   0  -6  -8   86.99    9.20
   0  -6  -8   98.19   10.70
   0  -6  -8   97.49   10.90
   0   6   8   99.79   10.20
   0   6   8   76.59   10.40
   0   6   8  116.39   18.20
   0   6   8   91.59   10.20
   0   6   8   98.19   14.50
  -1  -6  -8  370.46   23.40
  -1  -6  -8  414.56   24.50
  -1  -6  -8  430.66   25.50
  -1  -6  -8  404.86   26.90
  -1  -6  -8  394.36   24.20
   1   6   8  381.06   23.50
   1   6   8  366.46   24.20
   1   6   8  401.06   31.00
   1   6   8  391.66   23.90
   1   6   8  410.16   25.90
  -2  -6  -8  711.53   41.40
  -2  -6  -8  678.43   39.50
  -2  -6  -8  683.23   38.50
  -2  -6  -8  745.23   39.40
  -2  -6  -8  745.43   41.30
   2   6   8  678.63   39.00
   2   6   8  679.73   38.60
   2   6   8  712.73   37.20
   2   6   8  670.83   39.20
   2   6   8  662.43   39.80
   2   6   8  661.33   37.90
  -3  -6  -8    6.10    8.50
  -3  -6  -8   -2.50    3.50
  -3  -6  -8    2.90    3.80
  -3  -6  -8    2.10    5.50
  -3  -6  -8   -3.00    5.70
   3   6   8    5.10    4.80
   3   6   8   12.40    5.10
   3   6   8    4.70    2.50
   3   6   8    0.50    3.80
   3   6   8   -0.90    3.40
  -4  -6  -8   82.09    9.30
  -4  -6  -8   81.69   12.20
  -4  -6  -8   85.69   13.40
  -4  -6  -8   91.59    8.60
  -4  -6  -8   82.09   14.40
   4   6   8   91.79   12.60
   4   6   8   84.59    8.90
   4   6   8  100.99   10.50
   4   6   8   82.79   10.60
   4   6   8   99.59   10.10
   4   6   8   91.59    6.60
  -5  -6  -8   16.00    7.30
  -5  -6  -8   19.20    5.30
  -5  -6  -8   19.20   12.70
  -5  -6  -8   20.20    4.80
   5   6   8   12.90    4.90
   5   6   8   19.80    3.40
   5   6   8   20.00    5.90
   5   6   8   10.40    6.30
   5   6   8   23.80    6.20
   5   6   8   13.50    5.70
  -6  -6  -8    2.70   14.30
  -6  -6  -8    6.40    9.50
  -6  -6  -8    5.00    7.90
  -6  -6  -8    2.70    5.40
   6   6   8    8.80    3.90
   6   6   8    1.60    6.00
   6   6   8    3.60    6.10
   6   6   8    3.90    5.90
   6   6   8    9.80    5.80
   6   6   8   10.30    6.50
  -7  -6  -8   17.30    3.70
  -7  -6  -8    4.90    6.30
  -7  -6  -8    7.00   10.00
  -7  -6  -8   11.70   18.20
   7   6   8   39.20    8.20
   7   6   8   25.40    9.30
   7   6   8   23.10    5.50
   7   6   8   18.10    7.70
   3  -7  -8  -11.80   12.00
   3  -7  -8   -0.30    6.10
  -3   7   8   -5.40   14.20
  -3   7   8    1.70    6.20
  -3   7   8    0.20    9.70
  -3   7   8    6.60   23.70
  -3   7   8   -1.70    7.50
  -3   7   8   11.20   25.20
   2  -7  -8   67.69    9.60
   2  -7  -8   73.79    8.70
   2  -7  -8   75.09    8.10
  -2   7   8   73.99   19.90
  -2   7   8   58.09   23.70
  -2   7   8   68.79   10.90
  -2   7   8   77.89    9.20
  -2   7   8   50.69   18.30
  -2   7   8   90.09   13.80
   1  -7  -8   56.69    9.10
   1  -7  -8   40.30    6.90
   1  -7  -8   51.09    7.90
   1  -7  -8   53.79    7.10
  -1   7   8   53.39    7.00
  -1   7   8   46.00   10.50
  -1   7   8   48.70    7.20
  -1   7   8   39.70   21.10
  -1   7   8   45.20   14.10
   0  -7  -8   16.10    5.80
   0  -7  -8   18.20    6.10
   0  -7  -8   19.10    5.40
   0  -7  -8   15.40    5.50
   0   7   8   19.00    4.70
   0   7   8   21.20    9.30
   0   7   8   15.10    6.00
   0   7   8   14.50    5.40
   0   7   8   21.20    9.30
   0   7   8   13.30    5.20
   0   7   8    4.80    5.30
   0   7   8   21.20   17.50
  -1  -7  -8  370.46   22.50
  -1  -7  -8  329.77   21.20
  -1  -7  -8  390.86   23.60
   1   7   8  346.57   21.70
   1   7   8  351.86   22.40
   1   7   8  363.76   21.70
   1   7   8  282.17   30.10
   1   7   8  302.67   19.90
  -2  -7  -8   36.10    9.00
  -2  -7  -8   25.00    5.70
  -2  -7  -8   22.40    6.30
  -2  -7  -8   23.40    5.20
  -2  -7  -8   16.70    8.30
   2   7   8   24.10    5.70
   2   7   8   24.80    4.10
   2   7   8   28.00    5.80
   2   7   8   33.90    3.80
   2   7   8   24.50    5.70
  -3  -7  -8   67.89   11.10
  -3  -7  -8   69.79    8.70
  -3  -7  -8   59.69    8.30
  -3  -7  -8   56.09    8.90
  -3  -7  -8   73.99   11.70
   3   7   8   80.69   10.50
   3   7   8   71.39    6.40
   3   7   8   61.19    8.10
   3   7   8   71.69    9.80
   3   7   8   69.79   10.70
   3   7   8   61.09    7.40
  -4  -7  -8   68.99    9.60
  -4  -7  -8   92.09    9.50
  -4  -7  -8  103.49   14.80
  -4  -7  -8   86.99   13.30
   4   7   8   98.09    7.50
   4   7   8  104.59   11.20
   4   7   8   88.99   11.20
   4   7   8   89.09   11.30
   4   7   8   88.49    9.60
  -5  -7  -8    2.30    6.80
  -5  -7  -8   -0.90    5.10
  -5  -7  -8   -2.60   12.70
  -5  -7  -8   -0.30    5.10
   5   7   8    3.80    5.80
   5   7   8    1.10    6.10
   5   7   8   -5.60    5.40
   5   7   8    5.10    3.60
   5   7   8    2.40    5.80
  -6  -7  -8   34.30    9.30
  -6  -7  -8   53.59   18.20
   6   7   8   40.20    8.10
   6   7   8   49.30    5.50
   6   7   8   49.10    8.80
   6   7   8   38.50    7.60
   6   7   8   31.30    7.80
   1  -8  -8   27.10    6.40
   1  -8  -8   21.70    7.90
  -1   8   8   18.70    6.40
  -1   8   8   25.10    7.40
  -1   8   8   28.50   11.70
  -1   8   8   19.50    6.20
  -1   8   8   21.20   11.20
   0  -8  -8   69.29   12.30
   0  -8  -8   59.39    8.40
   0  -8  -8   53.69    8.70
   0  -8  -8   76.69    9.00
   0   8   8   53.09    7.50
   0   8   8   56.89   14.00
   0   8   8   48.50   10.00
   0   8   8   75.79   10.10
   0   8   8   67.69    8.60
  -1  -8  -8    7.70    6.50
  -1  -8  -8   15.80    6.60
  -1  -8  -8   16.00    7.50
  -1  -8  -8   10.50    8.10
   1   8   8    4.50    5.40
   1   8   8   18.30   10.60
   1   8   8    9.10    3.70
   1   8   8   14.10    6.70
  -2  -8  -8   11.80    8.30
  -2  -8  -8    2.70    6.00
  -2  -8  -8   -2.70    5.40
   2   8   8   -1.10    5.00
   2   8   8    2.90    3.80
   2   8   8    9.30    6.20
   2   8   8    9.80    6.00
   2   8   8   10.50    3.80
  -3  -8  -8   57.09   11.80
  -3  -8  -8   58.69    7.80
  -3  -8  -8   44.50    8.60
   3   8   8   41.00    7.20
   3   8   8   68.89    7.00
   3   8   8   59.29    7.80
   3   8   8   41.40    7.40
   3   8   8   52.19    5.80
  -4  -8  -8   -4.70    8.40
  -4  -8  -8   -1.60   18.70
  -4  -8  -8    2.20    5.80
   4   8   8   -2.50    5.90
   4   8   8   -1.00    5.70
   4   8   8    5.60    6.20
   4   8   8   -2.60    7.10
   4   8   8   -0.50    3.90
  -5  -8  -8   52.49   13.60
  -5  -8  -8   41.40    9.20
  -5  -8  -8   38.30   15.80
   5   8   8   52.39   10.90
   5   8   8   43.30    7.90
   5   8   8   55.39    5.80
   5   8   8   55.79    8.50
   5   8   8   51.89    9.50
  -1  -9  -8   13.90    9.20
  -1  -9  -8    1.70    7.10
   1   9   8   -3.10   11.60
  -2  -9  -8   72.89    9.70
  -2  -9  -8   75.99   12.40
   2   9   8   69.49    8.70
   2   9   8   63.69    9.30
   2   9   8   82.29    9.10
  -3  -9  -8    8.80   10.00
  -3  -9  -8   -3.00    7.40
   3   9   8   -0.10    5.90
   3   9   8    6.50    6.70
   3   9   8    5.40    4.70
   3   7  -9  196.98   19.90
   3   7  -9  204.48   17.50
   3   7  -9  241.08   26.20
  -3  -7   9  227.38   18.40
  -3  -7   9  200.38   22.10
  -3  -7   9  198.58   31.80
  -3  -7   9  225.78   26.70
   2   7  -9   10.20   10.30
   2   7  -9   17.40    7.20
  -2  -7   9   12.00   14.70
  -2  -7   9   14.50    6.00
  -2  -7   9   -2.90    7.90
  -2  -7   9    8.60   11.40
   1   7  -9    4.40    6.70
   1   7  -9   17.40    9.90
  -1  -7   9   -5.50   10.00
  -1  -7   9   -9.40    6.50
  -1  -7   9   -5.10    7.80
  -1  -7   9    5.20    5.00
  -1  -7   9   11.90   14.30
   0   7  -9    5.50    9.00
   0   7  -9    6.60    6.40
   0   7  -9    5.80    5.30
   0  -7   9   -6.00    7.70
   0  -7   9   -7.90   11.80
   0  -7   9   -3.90    7.50
   0  -7   9    6.90    4.90
   0  -7   9    5.20    5.50
   0  -7   9   -3.40    9.30
  -1   7  -9   12.80    6.60
   1  -7   9   -1.20    8.20
   1  -7   9    4.30    4.40
   1  -7   9   13.00   13.00
   1  -7   9    7.40    8.60
   5   6  -9   95.59   14.00
   5   6  -9  127.79   13.60
   5   6  -9  109.39   17.10
   5   6  -9  128.59   18.00
  -5  -6   9  127.19   18.20
  -5  -6   9  111.39   18.20
  -5  -6   9  167.18   20.50
   4   6  -9  152.88   14.00
   4   6  -9  157.98   20.90
   4   6  -9  160.98   17.40
   4   6  -9  146.69   20.00
   4   6  -9  187.08   25.90
  -4  -6   9   99.69   23.90
  -4  -6   9  159.48   16.10
   3   6  -9    6.40    4.90
   3   6  -9    6.60   11.10
   3   6  -9    7.30    7.30
   3   6  -9   10.30    7.10
   3   6  -9    3.10    8.50
  -3  -6   9    9.60   15.70
  -3  -6   9    6.80    5.40
  -3  -6   9   11.70   10.80
  -3  -6   9    2.70   10.30
   2   6  -9   -2.20    4.50
   2   6  -9   -3.00    4.90
   2   6  -9    1.70    9.50
   2   6  -9    5.20    6.10
  -2  -6   9   -0.70    5.40
  -2  -6   9    3.70    4.40
  -2  -6   9   -7.10    9.40
  -2  -6   9  -13.00   13.90
  -2  -6   9    0.40    8.40
   1   6  -9   13.20    5.80
   1   6  -9   18.10    8.90
  -1  -6   9    7.30    5.70
  -1  -6   9    9.60   12.80
  -1  -6   9    6.60    7.20
  -1  -6   9    3.00    9.30
  -1  -6   9   13.70    4.00
   0   6  -9   17.20    5.50
   0   6  -9   23.70    6.00
   0   6  -9   23.40    9.10
   0  -6   9   11.70    6.30
   0  -6   9   12.90    6.20
   0  -6   9   13.10    8.90
   0  -6   9   11.40   12.80
  -1   6  -9   51.89    7.10
  -1   6  -9   39.90    6.80
  -1   6  -9   57.49   10.50
   1  -6   9   42.90    7.10
   1  -6   9   43.20    7.60
   1  -6   9   44.70    7.20
   1  -6   9   43.90    4.70
   1  -6   9   40.10    9.60
   1  -6   9   42.50    6.00
   1  -6   9   40.30   12.20
   1  -6   9   36.90    6.50
   1  -6   9   42.40   11.80
  -2   6  -9  105.79   11.40
  -2   6  -9  129.99   15.00
  -2   6  -9   90.79   11.20
   2  -6   9   91.49   10.00
   2  -6   9   86.29   14.30
   2  -6   9   94.89    8.10
   2  -6   9  115.29   15.80
   2  -6   9  106.69   14.70
   2  -6   9   96.29    8.40
   2  -6   9   74.09   12.00
   2  -6   9  116.79   20.80
   2  -6   9   84.79   13.40
   3  -6   9  107.89   19.80
   5   5  -9  203.18   26.20
   5   5  -9  168.98   27.10
   5   5  -9  195.18   26.40
   5   5  -9  222.48   20.50
  -5  -5   9  277.97   25.80
  -5  -5   9  215.88   20.50
   4   5  -9   38.80    9.40
   4   5  -9   33.50   11.20
   4   5  -9   50.69    8.70
   4   5  -9   44.60   13.10
   4   5  -9   40.10   10.60
  -4  -5   9   37.10   12.50
  -4  -5   9   65.59   11.80
  -4  -5   9   65.89   13.90
  -4  -5   9   79.29   16.80
  -4  -5   9   67.19   13.90
   3   5  -9    8.80    6.50
   3   5  -9   -0.40    7.10
   3   5  -9    6.10   10.10
   3   5  -9    2.00    5.20
   3   5  -9   -4.60    7.20
  -3  -5   9    8.90    5.60
  -3  -5   9   -2.50    9.50
  -3  -5   9    1.60    4.90
  -3  -5   9   -0.60    8.80
  -3  -5   9   -3.40   11.70
   2   5  -9    4.00    5.40
   2   5  -9    0.60    5.40
   2   5  -9    6.10    8.70
   2   5  -9    1.70    4.20
   2   5  -9   -1.30    5.00
  -2  -5   9    2.40    8.30
  -2  -5   9  -13.50   12.20
  -2  -5   9   -1.70    5.20
  -2  -5   9   -4.60    8.30
  -2  -5   9    2.60    3.80
   1   5  -9   30.20    4.70
   1   5  -9   31.40    5.70
   1   5  -9   28.20    3.30
   1   5  -9   31.80    4.80
   1   5  -9   40.40    9.70
  -1  -5   9   32.20    6.30
  -1  -5   9   22.50    8.20
  -1  -5   9   24.10   10.30
  -1  -5   9   28.10   12.40
  -1  -5   9   28.50    8.50
   0   5  -9   33.20    5.50
   0   5  -9   28.00    8.50
   0  -5   9   19.10    4.90
   0  -5   9   22.40   12.50
   0  -5   9   15.40    6.80
   0  -5   9   16.60    4.00
   0  -5   9   20.80    7.30
   0  -5   9   18.90    5.60
  -1   5  -9   76.19    9.20
  -1   5  -9  113.89   13.80
  -1   5  -9   90.39    9.50
   1  -5   9   78.49    7.40
   1  -5   9   82.59   13.70
   1  -5   9   69.39   10.20
   1  -5   9   97.89   10.90
   1  -5   9   86.49   11.10
   1  -5   9   80.89   10.80
   1  -5   9   82.49   13.80
  -2   5  -9  195.78   14.20
  -2   5  -9  225.98   17.50
  -2   5  -9  219.58   14.30
   2  -5   9  188.68   22.30
   2  -5   9  158.78   15.80
   2  -5   9  188.68   21.00
   2  -5   9  219.78   15.60
   2  -5   9  158.28   14.50
   2  -5   9  192.78   15.90
   2  -5   9  218.38   12.70
   2  -5   9  205.88   12.40
   2  -5   9  193.78   13.20
  -3   5  -9   46.10    7.70
  -3   5  -9   35.70    6.20
   3  -5   9   33.70    9.90
   3  -5   9   59.89   15.30
   3  -5   9   58.19    6.00
   3  -5   9   46.20    7.30
   3  -5   9   40.40    7.10
   3  -5   9   66.89    8.20
   3  -5   9   42.60    6.50
  -4   5  -9   60.49    8.50
   4  -5   9   82.39   19.60
   4  -5   9   71.29    9.90
   4  -5   9   60.29    6.30
   4  -5   9   61.09    7.70
   4  -5   9   55.89   10.50
   4  -5   9   56.49    7.00
   4  -5   9   59.69    9.80
   6   4  -9   94.99   17.20
   6   4  -9   39.50   18.80
   6   4  -9   79.69   15.40
  -6  -4   9  148.39   23.70
   5   4  -9   15.90   12.10
   5   4  -9   -0.70   12.70
   5   4  -9   12.10   12.50
   5   4  -9   14.70   10.50
  -5  -4   9   11.00   11.70
  -5  -4   9   31.00   11.50
  -5  -4   9   33.40   11.40
  -5  -4   9   19.10   10.40
   4   4  -9   25.80    7.70
   4   4  -9   19.70   11.60
   4   4  -9   12.50   11.50
   4   4  -9   30.80    7.30
   4   4  -9   20.90    8.30
   4   4  -9   17.90    8.60
  -4  -4   9   40.20    9.60
  -4  -4   9   30.90   10.20
  -4  -4   9   45.60   11.90
  -4  -4   9   42.40   11.60
   3   4  -9    3.40    8.50
   3   4  -9    5.40    6.80
   3   4  -9    8.40    6.20
   3   4  -9    8.30    6.00
   3   4  -9    3.30   10.00
  -3  -4   9   12.10    5.10
  -3  -4   9   16.80    9.20
  -3  -4   9   14.00    9.80
  -3  -4   9   20.20    8.10
   2   4  -9   17.90    8.70
   2   4  -9   13.30    5.10
   2   4  -9    8.60    4.50
   2   4  -9    9.20    5.30
   2   4  -9    5.10    5.90
  -2  -4   9   11.00    6.80
  -2  -4   9    6.60    8.80
  -2  -4   9   10.60    7.90
  -2  -4   9    5.80    4.90
   1   4  -9  171.98   12.80
   1   4  -9  177.28   11.90
   1   4  -9  176.88   12.20
   1   4  -9  176.38   18.20
   1   4  -9  176.08   11.70
   1   4  -9  164.18   11.50
  -1  -4   9  164.28   18.90
  -1  -4   9  146.09   16.30
  -1  -4   9  170.38   13.60
   0   4  -9    2.50    3.80
   0   4  -9   14.70    7.10
   0   4  -9    2.50    4.00
   0   4  -9    3.70    3.90
   0  -4   9    0.90    4.60
   0  -4   9   -1.80    3.30
   0  -4   9  -10.10    5.80
   0  -4   9    5.60    4.90
   0  -4   9   -2.20    7.90
   0  -4   9    1.50    5.00
  -1   4  -9  281.37   19.50
  -1   4  -9  261.47   15.50
   1  -4   9  222.88   16.70
   1  -4   9  256.07   16.70
   1  -4   9  220.38   19.90
   1  -4   9  230.28   16.60
   1  -4   9  265.37   14.80
  -2   4  -9  161.28   10.90
  -2   4  -9  154.28   14.20
   2  -4   9  111.09   18.60
   2  -4   9  104.69   11.50
   2  -4   9  103.09   14.20
   2  -4   9  157.08   12.30
   2  -4   9  153.08   12.30
   2  -4   9  138.89   11.60
   2  -4   9  148.29    9.90
  -3   4  -9   26.80    6.70
  -3   4  -9   18.00    4.90
   3  -4   9   20.60    4.70
   3  -4   9   24.90    6.30
   3  -4   9   19.30    5.00
   3  -4   9    9.50    4.70
   3  -4   9   18.10    4.20
   3  -4   9   13.80   11.90
   3  -4   9   18.20    5.10
   3  -4   9   25.00    4.60
  -4   4  -9    2.30    4.60
  -4   4  -9   10.60    5.90
   4  -4   9    7.30    4.50
   4  -4   9    9.30    4.20
   4  -4   9   15.90   13.60
   4  -4   9   11.90    5.20
   4  -4   9    8.70    6.20
  -5   4  -9    1.20    5.70
   5  -4   9    5.40    5.90
   5  -4   9   -7.50    6.00
   5  -4   9    6.30    3.70
   5  -4   9   13.20    4.40
   5  -4   9    5.70    7.90
   5  -4   9    0.10    7.80
   6   3  -9   56.39   15.00
  -6  -3   9   93.89   14.30
  -6  -3   9   91.49   13.60
  -6  -3   9   87.79   14.90
  -6  -3   9  101.29   14.30
   5   3  -9   10.30   11.90
   5   3  -9    6.50    7.00
   5   3  -9  -14.10   12.50
   5   3  -9  -28.70   12.00
   5   3  -9    3.70    8.90
  -5  -3   9   14.10    9.80
  -5  -3   9    1.30    9.20
  -5  -3   9    5.00    9.10
   4   3  -9   14.50    8.10
   4   3  -9    8.60    9.30
   4   3  -9    0.20   12.60
   4   3  -9   12.50   11.60
   4   3  -9   36.60    7.90
   4   3  -9   23.90    7.80
  -4  -3   9   25.40    9.60
  -4  -3   9   36.10    9.60
  -4  -3   9   26.70    8.90
   3   3  -9   43.10    8.20
   3   3  -9   80.19   11.30
   3   3  -9   67.69   11.30
   3   3  -9   50.19   12.50
   3   3  -9   54.79    7.50
   3   3  -9   41.90   11.30
  -3  -3   9   80.39   12.70
   2   3  -9  335.77   27.60
   2   3  -9  338.67   21.20
   2   3  -9  317.77   24.90
  -2  -3   9  399.56   27.00
  -2  -3   9  401.26   23.60
  -2  -3   9  344.97   23.30
   1   3  -9    3.00    3.70
   1   3  -9    2.80    3.70
   1   3  -9    1.50    5.00
   1   3  -9    5.80    7.30
   1   3  -9    3.30    3.80
   1   3  -9    0.50    5.50
  -1  -3   9    2.00    3.60
  -1  -3   9    5.80    5.20
  -1  -3   9    1.40    8.60
  -1  -3   9    3.50    6.00
  -1  -3   9    5.90    4.80
   0   3  -9  104.69    7.30
   0   3  -9  107.69    6.90
   0   3  -9  109.19    8.20
   0   3  -9  113.59   14.00
   0   3  -9   93.29    8.00
   0   3  -9   97.99    8.10
   0  -3   9  108.89   10.10
   0  -3   9   68.69   11.90
   0  -3   9   88.59   11.20
   0  -3   9   94.49   11.10
   0  -3   9   90.09    8.00
   0  -3   9   98.89   15.70
  -1   3  -9  163.88   11.50
  -1   3  -9  180.38   11.50
  -1   3  -9  176.08   11.20
  -1   3  -9  209.98   15.40
   1  -3   9  140.69   13.00
   1  -3   9  173.08   17.90
   1  -3   9  186.38   12.50
   1  -3   9  173.98   13.10
   1  -3   9  133.19   13.20
   1  -3   9  177.58   11.10
  -2   3  -9    6.70    3.50
  -2   3  -9    4.90    5.30
  -2   3  -9   -0.50    3.20
   2  -3   9    3.40    3.70
   2  -3   9    5.80    4.30
   2  -3   9    5.60    3.80
   2  -3   9    1.60    8.50
   2  -3   9    0.20    4.20
   2  -3   9    6.00    3.30
  -3   3  -9   92.09   11.10
  -3   3  -9   75.39    7.90
   3  -3   9  102.79   11.10
   3  -3   9   79.99    6.90
   3  -3   9   97.59    8.40
   3  -3   9   78.99    9.20
   3  -3   9   63.39    8.60
   3  -3   9   62.59   13.50
   3  -3   9   71.39    8.60
   3  -3   9   95.59    8.00
   3  -3   9   94.79   14.10
  -4   3  -9    5.70    5.20
   4  -3   9    0.10    3.90
   4  -3   9   -2.40    3.50
   4  -3   9   -0.30    2.60
   4  -3   9    3.30    4.50
   4  -3   9    2.30    3.60
   4  -3   9   -0.50    3.70
   4  -3   9    2.70    5.00
   4  -3   9    5.40    6.30
   4  -3   9   -2.20   10.70
   4  -3   9   -2.40    3.80
  -5   3  -9   21.80    5.90
   5  -3   9   31.70    6.30
   5  -3   9   32.80   13.60
   5  -3   9   25.60    5.30
   5  -3   9   19.90    8.70
   5  -3   9   26.60    4.10
   5  -3   9   24.30    7.60
   5  -3   9   24.00    4.40
   6   2  -9   -0.80    8.60
   6   2  -9  -15.00   11.80
   6   2  -9  -15.40   14.10
   6   2  -9    7.00    9.70
  -6  -2   9    9.70   10.30
  -6  -2   9    5.20   13.80
  -6  -2   9    9.40    9.50
   5   2  -9   24.50    8.90
   5   2  -9   68.99   13.50
   5   2  -9   34.40    9.00
   5   2  -9    1.80   13.60
   5   2  -9   33.70    8.40
   5   2  -9   31.10   13.20
  -5  -2   9   43.10    9.90
  -5  -2   9   35.70    9.20
  -5  -2   9   39.00    9.60
   4   2  -9    3.70    6.80
   4   2  -9  -11.50   10.30
   4   2  -9   -6.00    6.40
   4   2  -9    3.10    7.60
   4   2  -9   22.20   10.70
  -4  -2   9    9.70    8.00
  -4  -2   9   11.00    7.60
  -4  -2   9   -0.10    8.10
   3   2  -9  106.49   12.90
   3   2  -9  130.49   17.20
   3   2  -9  140.19   13.40
   3   2  -9  107.89   15.80
   3   2  -9  157.18   20.80
   3   2  -9  121.49   11.80
   2   2  -9   54.19   10.80
   2   2  -9   59.29    6.90
   2   2  -9   40.20   10.60
   2   2  -9   59.49    7.50
   2   2  -9   54.09    7.40
   2   2  -9   60.99    7.70
  -2  -2   9   78.09   11.20
  -2  -2   9   72.29   10.70
  -2  -2   9   62.79    9.50
  -2  -2   9   78.29   11.00
   1   2  -9   12.20    3.70
   1   2  -9   14.70    4.10
   1   2  -9   13.40    8.30
   1   2  -9   -1.20    6.70
   1   2  -9   15.90    4.10
  -1  -2   9    8.60    7.90
  -1  -2   9   19.40    5.90
  -1  -2   9   10.80    3.70
  -1  -2   9   12.90    4.50
  -1  -2   9   11.80    5.60
   0   2  -9  158.18   11.10
   0   2  -9  169.58   11.50
   0   2  -9  146.39   13.10
   0   2  -9  195.18   16.80
   0  -2   9  208.08   13.10
   0  -2   9  177.58   18.20
   0  -2   9  176.28   13.20
   0  -2   9  201.18   11.60
   0  -2   9  215.48   14.60
  -1   2  -9    1.60    3.00
  -1   2  -9   12.80    6.00
  -1   2  -9    0.00    2.70
  -1   2  -9    2.90    3.30
   1  -2   9    4.90    7.60
   1  -2   9   -2.40    4.20
   1  -2   9    6.30    3.90
   1  -2   9    0.10    3.40
   1  -2   9    3.70    3.20
  -2   2  -9  120.09   12.00
  -2   2  -9   97.69    8.10
  -2   2  -9  109.09    8.70
  -2   2  -9  108.59    8.00
   2  -2   9  111.49   10.10
   2  -2   9  119.49    8.90
   2  -2   9  119.69   17.50
   2  -2   9   98.49   14.50
   2  -2   9  106.39    8.40
   2  -2   9  112.99    9.50
  -3   2  -9   61.89   13.00
  -3   2  -9   70.69    7.20
  -3   2  -9   82.09   10.20
   3  -2   9   74.49    7.80
   3  -2   9   78.49    6.10
   3  -2   9   75.69    5.90
   3  -2   9   75.49    7.80
   3  -2   9   76.79    7.50
   3  -2   9   79.29    8.80
   3  -2   9   68.09    7.80
   3  -2   9   77.09   15.30
  -4   2  -9   68.49   10.00
  -4   2  -9   71.69   15.40
  -4   2  -9   67.39    7.70
   4  -2   9   65.69    6.60
   4  -2   9   76.39    8.80
   4  -2   9   71.39    7.10
   4  -2   9   77.39    9.30
   4  -2   9   68.19    8.70
   4  -2   9   74.49   12.70
   4  -2   9   74.09    9.20
   4  -2   9   75.59    7.60
   4  -2   9   74.69    7.40
   4  -2   9   78.89   14.00
   4  -2   9   74.49    6.50
  -5   2  -9   76.19   19.30
  -5   2  -9  112.29   11.10
   5  -2   9   98.39   13.00
   5  -2   9  106.29    7.70
   5  -2   9  105.69   11.50
   5  -2   9   98.09    8.70
   5  -2   9   93.99    8.60
   5  -2   9  100.49    8.80
   5  -2   9  120.09   10.90
   5  -2   9   98.69   11.50
   5  -2   9   95.49   14.80
  -6   2  -9   -4.90   32.90
  -6   2  -9    1.90    5.50
   6  -2   9   14.10    6.50
   6  -2   9    4.20    8.00
   6  -2   9   -0.10    5.10
   6  -2   9    4.00    3.30
   6  -2   9    2.50    4.50
   6  -2   9    7.90    4.10
   6   1  -9   12.20   12.30
   6   1  -9   29.40   12.10
   6   1  -9   21.10   10.20
   6   1  -9   51.69   20.80
  -6  -1   9   36.50   10.30
  -6  -1   9   24.20   10.50
  -6  -1   9   17.40   11.90
   5   1  -9   -3.10   11.20
   5   1  -9    9.30    8.50
   5   1  -9   19.80   12.20
   5   1  -9   -1.50    6.60
  -5  -1   9   14.30    7.80
  -5  -1   9    6.60    8.90
  -5  -1   9   12.20    8.70
  -5  -1   9   12.20    8.60
  -5  -1   9   11.20    8.10
   4   1  -9   38.90    8.70
   4   1  -9   11.50   10.70
   4   1  -9   18.90    7.30
   4   1  -9   26.90    7.50
   4   1  -9   55.99   12.60
  -4  -1   9   44.50   10.00
  -4  -1   9   34.20    7.60
  -4  -1   9   22.00    6.80
  -4  -1   9   28.30    6.90
   3   1  -9  365.26   30.40
   3   1  -9  312.87   23.00
   3   1  -9  300.67   22.90
   3   1  -9  352.76   27.90
   3   1  -9  358.46   22.30
  -3  -1   9  364.76   22.50
  -3  -1   9  422.96   23.70
  -3  -1   9  335.37   21.10
   2   1  -9  294.47   18.80
   2   1  -9  255.07   25.40
   2   1  -9  249.18   20.10
   2   1  -9  278.87   18.60
   2   1  -9  280.77   17.70
  -2  -1   9  287.47   18.40
  -2  -1   9  265.57   16.50
  -2  -1   9  267.77   17.90
   1   1  -9    5.30    8.70
   1   1  -9   -5.10    8.00
   1   1  -9    4.10    3.00
   1   1  -9    6.00    3.80
   1   1  -9    3.30    3.80
  -1  -1   9   -1.60    5.40
  -1  -1   9   -0.80    7.30
  -1  -1   9    6.60    4.20
  -1  -1   9   11.00    4.50
  -1  -1   9    4.20    3.40
   0   1  -9   83.19   11.00
   0   1  -9  103.99    8.10
   0   1  -9   94.39    6.50
   0   1  -9   67.49    9.90
   0   1  -9   87.49    8.00
   0  -1   9  104.59    9.00
   0  -1   9   92.49    7.70
   0  -1   9  104.39    9.10
   0  -1   9  102.29   15.30
  -1   1  -9  138.49   13.90
  -1   1  -9  119.39   13.70
  -1   1  -9  121.79    8.40
  -1   1  -9  127.79    8.20
  -1   1  -9   89.69   10.90
  -1   1  -9  126.29    9.10
  -1   1  -9  125.69    7.70
   1  -1   9  125.79    9.80
   1  -1   9  130.39    9.70
   1  -1   9  123.69    9.00
   1  -1   9  132.79   15.60
   1  -1   9  112.99   10.90
  -2   1  -9  187.88   12.00
  -2   1  -9  197.58   18.20
  -2   1  -9  197.18   12.70
  -2   1  -9  212.68   15.40
   2  -1   9  201.08   18.80
   2  -1   9  209.58   12.80
   2  -1   9  202.48   12.50
   2  -1   9  191.58   12.90
   2  -1   9  184.78   13.50
  -3   1  -9  217.88   21.00
  -3   1  -9  230.58   13.90
  -3   1  -9  223.48   15.40
   3  -1   9  186.78   14.00
   3  -1   9  216.78   13.60
   3  -1   9  215.18   12.20
   3  -1   9  224.98   13.90
   3  -1   9  221.08   13.50
   3  -1   9  219.28   12.70
  -4   1  -9  260.97   27.20
  -4   1  -9  242.68   16.10
  -4   1  -9  282.87   17.60
   4  -1   9  285.27   16.00
   4  -1   9  273.67   17.00
   4  -1   9  266.47   15.30
   4  -1   9  281.77   17.10
   4  -1   9  251.07   21.90
   4  -1   9  268.17   16.40
   4  -1   9  279.07   16.20
  -5   1  -9   34.10   16.80
  -5   1  -9   33.00    5.20
  -5   1  -9   44.00    5.70
   5  -1   9   37.20    4.90
   5  -1   9   40.60    4.50
   5  -1   9   27.60    8.10
   5  -1   9   46.20    6.80
   5  -1   9   42.90   11.10
   5  -1   9   40.40    6.50
   5  -1   9   44.10    6.20
   5  -1   9   54.79    6.90
  -6   1  -9   41.40    5.70
  -6   1  -9   40.20   21.60
   6  -1   9   35.60    7.10
   6  -1   9   32.80    5.40
   6  -1   9   30.90    8.20
   6  -1   9   36.30    4.80
   6  -1   9   37.20    5.40
   6  -1   9   40.10    5.20
  -7   1  -9    3.30   24.60
   7  -1   9    5.20    7.30
   7  -1   9   -4.80    9.10
   7  -1   9    5.90    5.10
   7  -1   9   -1.50    5.20
   7  -1   9    5.20    8.40
   7  -1   9   -1.30    6.30
   7  -1   9    2.90    4.50
   6   0  -9   98.99   21.10
   6   0  -9   52.99   11.10
   6   0  -9   84.19   13.70
  -6   0   9   79.29   12.10
  -6   0   9   62.89   11.80
  -6   0   9   69.19   12.40
   5   0  -9   66.29   10.80
   5   0  -9   84.59   12.40
   5   0  -9   56.59   10.00
   5   0  -9   91.99   12.30
  -5   0   9   94.29   11.40
  -5   0   9  116.79   15.10
  -5   0   9   58.19    9.50
  -5   0   9   72.99   10.70
   4   0  -9  492.35   29.80
   4   0  -9  506.15   28.80
   4   0  -9  381.26   28.50
  -4   0   9  403.46   27.60
  -4   0   9  491.45   28.80
   3   0  -9  392.96   25.90
   3   0  -9  351.06   25.30
   3   0  -9  429.56   25.10
  -3   0   9  418.66   25.10
  -3   0   9  420.66   24.50
  -3   0   9  377.06   24.00
   2   0  -9    4.90    4.80
   2   0  -9   -1.20    6.30
   2   0  -9   -0.60    4.70
   2   0  -9   13.60    9.80
   2   0  -9   14.90    7.70
  -2   0   9    3.10    4.00
  -2   0   9    2.40    3.90
  -2   0   9   -4.80    7.20
  -2   0   9    6.80    4.60
  -2   0   9    4.00    7.80
   1   0  -9   33.80    5.00
   1   0  -9   21.70    9.40
   1   0  -9   37.70    5.50
  -1   0   9   34.20   10.50
  -1   0   9   38.80    5.40
  -1   0   9   49.00    7.70
  -1   0   9   32.40    4.70
   0   0  -9   34.10    4.70
   0   0  -9   42.50    8.10
   0   0  -9    8.30    7.80
   0   0  -9   25.90    4.20
   0   0  -9   16.00    5.30
   0   0   9   19.70    4.30
   0   0   9   20.50    9.20
   0   0   9   18.90    4.30
   0   0   9   22.60    6.30
   0   0   9   18.20    4.00
  -1   0  -9  245.48   20.20
  -1   0  -9  272.67   19.30
  -1   0  -9  270.17   16.50
  -1   0  -9  287.57   16.10
  -1   0  -9  272.67   20.50
   1   0   9  269.97   16.30
   1   0   9  290.37   22.70
   1   0   9  277.57   16.70
   1   0   9  276.37   16.70
   1   0   9  265.77   18.10
  -2   0  -9    7.90    5.40
  -2   0  -9    1.10    6.80
  -2   0  -9    2.40    2.30
  -2   0  -9    3.50    3.30
  -2   0  -9   10.60    2.60
  -2   0  -9   -6.00    5.80
   2   0   9    1.50    3.40
   2   0   9    3.80    3.10
   2   0   9    0.10    3.30
   2   0   9    3.60    3.50
   2   0   9    4.10    7.80
  -3   0  -9  378.96   21.40
  -3   0  -9  361.76   22.50
  -3   0  -9  348.47   26.70
  -3   0  -9  343.77   20.50
   3   0   9  379.36   21.40
   3   0   9  361.66   21.50
   3   0   9  361.16   26.20
   3   0   9  379.06   21.30
   3   0   9  394.56   22.30
  -4   0  -9  311.87   27.60
  -4   0  -9  297.47   18.50
  -4   0  -9  333.07   19.90
   4   0   9  330.67   19.10
   4   0   9  329.77   19.50
   4   0   9  336.37   19.20
   4   0   9  341.87   20.00
   4   0   9  312.67   17.70
   4   0   9  320.27   18.80
  -5   0  -9    9.00    4.40
  -5   0  -9    7.60   12.80
  -5   0  -9    1.60    3.50
   5   0   9    0.00    6.50
   5   0   9    3.90    2.90
   5   0   9    5.30    3.50
   5   0   9    2.60    4.80
   5   0   9    4.70    3.90
   5   0   9    3.70    3.70
   5   0   9    6.20    5.20
  -6   0  -9   19.80    4.50
  -6   0  -9   11.30   17.30
  -6   0  -9   18.10    4.50
   6   0   9   24.00    4.60
   6   0   9   21.40    4.30
   6   0   9   14.60    4.80
   6   0   9   21.40    7.00
   6   0   9   17.40    4.20
   6   0   9   22.90    6.60
   6   0   9   10.30    6.70
  -7   0  -9    2.30   21.40
   7   0   9    4.40    4.90
   7   0   9    5.60    4.90
   7   0   9    4.30    8.60
   7   0   9   -6.80    8.20
   7   0   9   -2.80    5.20
   7   0   9    4.80    5.30
   7   0   9    2.70    7.00
   6  -1  -9    5.40    9.30
   6  -1  -9   15.40    9.10
   6  -1  -9   12.70   11.80
  -6   1   9    4.00    9.90
  -6   1   9    4.70   10.00
  -6   1   9   12.50   11.30
  -6   1   9   -0.20   12.80
   5  -1  -9  276.77   21.20
   5  -1  -9  292.07   23.20
   5  -1  -9  241.88   22.70
  -5   1   9  213.28   21.20
  -5   1   9  241.08   21.00
  -5   1   9  261.47   20.90
   4  -1  -9  322.97   24.20
  -4   1   9  330.57   21.80
  -4   1   9  352.26   22.70
  -4   1   9  295.67   22.40
   3  -1  -9   83.59   12.70
   3  -1  -9   56.59    7.80
   3  -1  -9   54.39    8.10
   3  -1  -9   50.89    7.50
  -3   1   9   90.39   14.50
  -3   1   9   43.50    7.20
  -3   1   9   37.80    6.10
  -3   1   9   39.00    6.40
   2  -1  -9   -2.80    4.60
   2  -1  -9    3.20    5.50
   2  -1  -9   -1.90    3.80
   2  -1  -9   -0.50    4.40
  -2   1   9    7.80    8.90
  -2   1   9    4.60    4.50
  -2   1   9    3.80    4.10
  -2   1   9    5.20    4.40
   1  -1  -9   30.60    6.40
   1  -1  -9   14.10    4.40
   1  -1  -9   19.10    4.90
   1  -1  -9   17.60    4.60
  -1   1   9   10.10    4.10
  -1   1   9   -2.90    6.50
  -1   1   9   16.00    4.30
  -1   1   9   15.30    4.40
  -1   1   9   32.00    9.60
   0  -1  -9  489.45   25.70
   0  -1  -9  475.45   27.10
   0  -1  -9  484.95   27.40
   0  -1  -9  486.25   27.80
   0  -1  -9  547.45   29.70
   0  -1  -9  472.65   28.30
   0   1   9  441.06   26.90
   0   1   9  505.95   33.10
   0   1   9  494.65   27.60
   0   1   9  464.55   27.50
   0   1   9  452.75   29.30
  -1  -1  -9   13.10    5.80
  -1  -1  -9   -4.00    7.40
  -1  -1  -9   12.50    3.30
  -1  -1  -9    9.80    3.90
  -1  -1  -9   11.40    3.30
  -1  -1  -9    7.90    5.40
   1   1   9    8.40    4.30
   1   1   9    9.20    9.10
   1   1   9    8.70    3.80
   1   1   9   14.50    3.60
   1   1   9   11.40    3.70
  -2  -1  -9  241.28   14.30
  -2  -1  -9  226.08   16.30
  -2  -1  -9  214.88   18.10
  -2  -1  -9  260.07   18.30
  -2  -1  -9  240.28   14.70
  -2  -1  -9  238.88   18.80
   2   1   9  234.08   15.40
   2   1   9  266.47   22.00
   2   1   9  233.68   14.70
   2   1   9  245.98   14.90
  -3  -1  -9  663.63   36.10
  -3  -1  -9  703.73   41.70
  -3  -1  -9  661.43   38.10
  -3  -1  -9  701.63   36.30
  -3  -1  -9  581.84   38.60
  -3  -1  -9  575.74   39.70
  -3  -1  -9  665.13   37.00
   3   1   9  724.53   37.00
   3   1   9  715.93   37.70
   3   1   9  686.83   37.00
   3   1   9  683.03   41.80
   3   1   9  675.43   37.20
  -4  -1  -9  127.19    8.30
  -4  -1  -9  123.29   18.60
  -4  -1  -9  138.19   10.30
  -4  -1  -9  141.99   19.50
  -4  -1  -9  144.89   11.40
  -4  -1  -9  125.19    8.90
   4   1   9  135.49   11.00
   4   1   9  133.99   10.70
   4   1   9  126.99    7.60
   4   1   9  132.79   10.90
   4   1   9  139.09   14.50
   4   1   9  147.39   10.20
   4   1   9  122.89   10.20
   4   1   9  126.89    9.80
  -5  -1  -9    2.60    3.00
  -5  -1  -9    3.70   22.30
  -5  -1  -9    0.20    3.90
  -5  -1  -9    0.70   13.10
   5   1   9   -4.60    2.40
   5   1   9   -3.50    4.80
   5   1   9   -0.70    3.90
   5   1   9    2.80    6.00
   5   1   9   -1.00    3.80
   5   1   9   -0.10    3.30
   5   1   9   -1.70    4.40
  -6  -1  -9    3.90   16.80
  -6  -1  -9    4.00    3.60
  -6  -1  -9    1.40   14.40
  -6  -1  -9    7.40    3.90
   6   1   9    7.40    3.70
   6   1   9    4.10    4.00
   6   1   9    8.60    6.10
   6   1   9    3.40    3.50
   6   1   9    3.80    6.00
   6   1   9    5.10    4.50
   6   1   9    3.40    5.90
  -7  -1  -9    6.30    4.70
  -7  -1  -9    5.10   38.60
  -7  -1  -9   -0.80   19.90
   7   1   9   12.70   12.40
   7   1   9   -1.10    4.90
   7   1   9   -3.70    7.70
   7   1   9    3.40    6.60
   7   1   9    2.60    5.30
   7   1   9    4.70    5.00
   7   1   9    5.40    4.80
   6  -2  -9   33.10    8.20
   6  -2  -9   32.80    9.40
   6  -2  -9   41.80   14.70
  -6   2   9   67.89   15.80
  -6   2   9   43.70    9.90
  -6   2   9   34.90   19.40
  -6   2   9   32.10   11.50
   5  -2  -9  369.46   29.50
   5  -2  -9  397.56   25.70
   5  -2  -9  403.86   27.50
  -5   2   9  327.77   27.10
  -5   2   9  376.36   26.40
  -5   2   9  382.26   26.00
   4  -2  -9  263.27   19.50
   4  -2  -9  255.07   18.40
  -4   2   9  207.38   19.40
  -4   2   9  244.78   18.00
  -4   2   9  235.18   18.40
   3  -2  -9   21.10    5.90
   3  -2  -9   21.90    6.30
   3  -2  -9   27.10    6.30
   3  -2  -9   33.60    7.50
  -3   2   9   23.00    5.10
  -3   2   9   -1.30   10.70
  -3   2   9   24.40    5.30
  -3   2   9   61.69   14.40
  -3   2   9   31.50    7.00
   2  -2  -9    5.30    5.50
   2  -2  -9   10.00    4.50
   2  -2  -9    6.90    5.40
  -2   2   9    7.80    4.30
  -2   2   9   37.10   13.90
  -2   2   9   10.90    5.40
  -2   2   9   12.80    5.10
  -2   2   9   -3.90    8.70
   1  -2  -9  195.08   14.20
   1  -2  -9  211.18   15.20
   1  -2  -9  204.88   13.50
  -1   2   9  168.78   18.10
  -1   2   9  191.08   13.30
  -1   2   9  229.28   22.60
  -1   2   9  217.48   14.00
  -1   2   9  198.68   14.20
   0  -2  -9  147.09   11.10
   0  -2  -9  144.59   11.60
   0  -2  -9  152.68   12.40
   0  -2  -9  144.19   10.80
   0   2   9  130.89   13.00
   0   2   9  156.98   11.10
   0   2   9  136.39   10.30
   0   2   9  150.98   11.30
   0   2   9  105.49   18.00
   0   2   9  173.78   22.70
  -1  -2  -9  136.79   11.00
  -1  -2  -9  145.19   10.30
  -1  -2  -9  146.29   12.20
  -1  -2  -9  135.09   12.60
   1   2   9  130.59   11.90
   1   2   9  112.79   19.90
   1   2   9  131.99   10.00
   1   2   9  141.79   21.00
   1   2   9  136.79   10.50
   1   2   9  139.59   10.50
  -2  -2  -9 1222.08   66.39
  -2  -2  -9 1166.48   64.19
  -2  -2  -9 1203.68   65.09
  -2  -2  -9 1187.68   64.79
  -2  -2  -9 1196.98   64.09
   2   2   9 1231.18   68.09
   2   2   9 1220.68   64.19
   2   2   9 1152.58   63.99
   2   2   9 1133.89   64.69
  -3  -2  -9  453.45   26.10
  -3  -2  -9  470.95   30.70
  -3  -2  -9  398.56   24.90
  -3  -2  -9  442.66   27.50
  -3  -2  -9  490.05   25.80
  -3  -2  -9  420.26   27.70
  -3  -2  -9  465.35   28.20
   3   2   9  461.45   26.10
   3   2   9  474.95   26.60
   3   2   9  490.65   30.10
   3   2   9  465.55   26.50
   3   2   9  464.15   26.10
  -4  -2  -9   22.80    9.60
  -4  -2  -9   29.20    8.40
  -4  -2  -9   23.60    5.50
  -4  -2  -9   18.90    6.40
  -4  -2  -9   24.80    3.80
  -4  -2  -9   25.10    3.30
  -4  -2  -9   30.30    4.90
   4   2   9   20.30    4.60
   4   2   9   24.40    4.60
   4   2   9   22.20    5.20
   4   2   9   22.50    4.30
   4   2   9   25.30    4.60
   4   2   9   26.40    7.40
  -5  -2  -9   13.20    3.00
  -5  -2  -9    8.80    4.20
  -5  -2  -9   17.60    9.20
  -5  -2  -9   10.70    3.50
  -5  -2  -9   12.10   11.30
  -5  -2  -9   11.60    6.60
   5   2   9    9.60    2.30
   5   2   9   11.30    4.90
   5   2   9    9.30    6.00
   5   2   9    5.90    4.20
   5   2   9    9.90    4.90
   5   2   9   11.30    3.60
   5   2   9    9.20    4.30
   5   2   9    6.20    4.20
  -6  -2  -9   12.90   14.50
  -6  -2  -9   20.60    4.10
  -6  -2  -9   21.90    4.00
  -6  -2  -9   12.60   11.90
   6   2   9   19.10    6.50
   6   2   9   21.30    6.50
   6   2   9   20.90    4.30
   6   2   9   18.40    3.50
   6   2   9   10.80    4.90
   6   2   9   19.60    4.80
   6   2   9   15.50    5.20
   6   2   9   23.50    6.50
  -7  -2  -9    8.50    4.80
  -7  -2  -9   11.50    3.80
  -7  -2  -9    7.40   16.40
   7   2   9    7.20    4.60
   7   2   9   10.80    5.00
   7   2   9    9.00    5.10
   7   2   9    0.40    6.50
   7   2   9   16.00   12.60
   7   2   9    8.60    7.40
   7   2   9    5.30    5.60
   5  -3  -9  144.59   17.70
   5  -3  -9  113.69   14.80
  -5   3   9  120.39   18.80
  -5   3   9  144.59   17.40
  -5   3   9  199.58   29.40
  -5   3   9  207.88   34.50
  -5   3   9  133.59   16.50
   4  -3  -9  198.38   18.30
   4  -3  -9  189.08   16.50
  -4   3   9  219.28   17.10
  -4   3   9  243.88   16.90
  -4   3   9  205.78   19.40
   3  -3  -9    6.10    5.90
   3  -3  -9    3.20    5.30
  -3   3   9    4.20    4.90
  -3   3   9    6.50    6.70
  -3   3   9   18.40   15.50
  -3   3   9    0.50    4.90
   2  -3  -9   92.39   10.70
   2  -3  -9   91.89    9.00
   2  -3  -9   80.59   10.70
   2  -3  -9   94.99    8.20
  -2   3   9  143.29   19.20
  -2   3   9  102.89   12.40
  -2   3   9  105.79   10.70
  -2   3   9  100.69   10.50
   1  -3  -9  211.58   15.50
   1  -3  -9  219.78   12.70
   1  -3  -9  219.08   15.20
   1  -3  -9  197.98   14.80
   1  -3  -9  213.98   13.80
  -1   3   9  225.98   14.60
  -1   3   9  255.77   27.80
  -1   3   9  176.18   19.20
  -1   3   9  219.18   15.00
  -1   3   9  193.18   14.30
   0  -3  -9   23.90    5.00
   0  -3  -9   29.80    4.90
   0  -3  -9   27.70    5.80
   0  -3  -9   28.10    3.30
   0  -3  -9   29.40    5.40
   0   3   9   39.40    7.90
   0   3   9   25.10    4.60
   0   3   9   34.60    5.00
   0   3   9   21.30   11.10
   0   3   9   28.10    4.80
  -1  -3  -9  747.03   41.70
  -1  -3  -9  739.23   42.10
  -1  -3  -9  772.92   42.60
  -1  -3  -9  767.32   42.70
  -1  -3  -9  791.52   41.90
   1   3   9  758.72   41.60
   1   3   9  700.73   41.20
   1   3   9  781.82   48.10
   1   3   9  720.73   42.70
  -2  -3  -9 1206.78   64.19
  -2  -3  -9 1183.98   65.99
  -2  -3  -9 1135.09   63.99
  -2  -3  -9 1211.18   65.09
  -2  -3  -9 1167.68   64.79
   2   3   9 1149.29   63.79
   2   3   9 1168.18   63.99
   2   3   9 1156.88   64.69
   2   3   9 1289.57   68.49
  -3  -3  -9  276.07   18.00
  -3  -3  -9  289.77   19.50
  -3  -3  -9  297.87   22.60
  -3  -3  -9  283.47   17.60
  -3  -3  -9  296.17   20.20
   3   3   9  300.17   18.30
   3   3   9  287.07   17.70
   3   3   9  292.17   18.00
   3   3   9  279.37   17.90
   3   3   9  301.37   21.90
  -4  -3  -9    4.70    3.60
  -4  -3  -9    3.00    9.10
  -4  -3  -9    6.90    6.40
  -4  -3  -9    5.50    5.20
  -4  -3  -9    8.40    5.80
  -4  -3  -9    3.20    2.80
   4   3   9    8.20    3.70
   4   3   9    3.10    3.90
   4   3   9    4.70    3.70
   4   3   9    6.60    6.50
   4   3   9    8.20    4.60
   4   3   9    3.00    4.30
  -5  -3  -9    8.50    8.30
  -5  -3  -9    1.80   11.20
  -5  -3  -9    2.40    6.50
  -5  -3  -9    2.10    3.00
  -5  -3  -9    3.60    3.60
  -5  -3  -9    1.90    4.40
   5   3   9    2.30    5.70
   5   3   9    1.00    5.00
   5   3   9   -1.30    4.30
   5   3   9    5.40    3.40
   5   3   9    2.70    4.40
   5   3   9    7.40    5.50
   5   3   9   -1.10    1.80
   5   3   9   -1.20    3.70
  -6  -3  -9   44.70   11.90
  -6  -3  -9   40.60   15.60
  -6  -3  -9   50.29    6.30
  -6  -3  -9   39.20    9.00
  -6  -3  -9   46.80    5.80
  -6  -3  -9   44.30    5.00
   6   3   9   40.40    7.30
   6   3   9   47.20    6.90
   6   3   9   44.40    7.20
   6   3   9   50.79    6.50
   6   3   9   37.00    7.50
   6   3   9   40.00    6.50
  -7  -3  -9   29.00    6.00
  -7  -3  -9   34.30    9.20
  -7  -3  -9   40.20    4.40
  -7  -3  -9   44.60    5.50
  -7  -3  -9   18.00   21.00
   7   3   9   40.00    7.50
   7   3   9   43.60    9.10
   7   3   9   56.39    9.30
   7   3   9   38.20    7.00
   7   3   9   51.19    6.90
   5  -4  -9   65.49    9.00
   5  -4  -9   85.99   12.60
  -5   4   9  123.79   19.60
  -5   4   9  116.89   17.20
  -5   4   9  118.09   16.00
  -5   4   9  111.59   36.50
   4  -4  -9   -0.40    8.80
   4  -4  -9    2.20    5.40
  -4   4   9    4.20    5.90
  -4   4   9   12.30   18.10
  -4   4   9    1.10    8.00
  -4   4   9    2.50    6.50
   3  -4  -9  112.49   13.00
   3  -4  -9  107.29   14.10
   3  -4  -9  120.19   12.20
  -3   4   9   68.49   17.40
  -3   4   9  203.58   32.30
  -3   4   9  110.69   15.60
  -3   4   9  124.19   12.20
  -3   4   9  126.59   12.80
   2  -4  -9  215.28   12.70
   2  -4  -9  176.38   15.00
   2  -4  -9  191.18   14.80
  -2   4   9  208.08   15.10
  -2   4   9  204.08   17.50
  -2   4   9  226.38   15.30
  -2   4   9  166.48   23.00
   1  -4  -9    9.00    4.80
   1  -4  -9    3.10    4.60
   1  -4  -9    5.80    4.00
   1  -4  -9    4.20    3.40
   1  -4  -9    3.00    4.60
  -1   4   9   -2.30    7.00
  -1   4   9   11.50   15.80
  -1   4   9   -1.00    4.70
  -1   4   9    7.50    4.60
  -1   4   9    7.10    4.20
   0  -4  -9  466.15   28.30
   0  -4  -9  468.25   27.80
   0  -4  -9  498.15   28.40
   0  -4  -9  473.25   25.90
   0  -4  -9  510.45   28.00
   0   4   9  498.85   27.80
   0   4   9  435.66   27.40
   0   4   9  487.25   27.70
   0   4   9  491.25   37.60
   0   4   9  458.05   30.20
  -1  -4  -9 1157.68   60.49
  -1  -4  -9 1123.69   60.99
  -1  -4  -9 1090.09   59.89
  -1  -4  -9 1117.39   59.99
  -1  -4  -9 1062.39   59.49
   1   4   9 1108.89   59.49
   1   4   9 1048.00   59.09
   1   4   9 1036.40   60.99
   1   4   9 1087.69   65.39
  -2  -4  -9  503.45   30.00
  -2  -4  -9  540.25   29.50
  -2  -4  -9  504.85   30.90
  -2  -4  -9  499.25   28.90
  -2  -4  -9  537.05   31.70
   2   4   9  499.95   29.20
   2   4   9  472.75   28.90
   2   4   9  481.65   30.50
   2   4   9  573.94   39.80
  -3  -4  -9    6.60    3.80
  -3  -4  -9    2.70    5.50
  -3  -4  -9    5.50    8.10
  -3  -4  -9   -1.50    5.00
  -3  -4  -9    5.70    3.70
   3   4   9    1.20    4.10
   3   4   9    8.40    4.60
   3   4   9    6.70    3.80
   3   4   9    1.00    3.40
   3   4   9    4.00    4.10
   3   4   9   -0.50    7.20
  -4  -4  -9    0.80    9.20
  -4  -4  -9    6.30    4.00
  -4  -4  -9    4.80    6.20
  -4  -4  -9    8.30    5.90
   4   4   9    7.00    4.70
   4   4   9    2.40    4.20
   4   4   9    9.20    3.50
   4   4   9    4.50    3.80
   4   4   9    7.20    5.00
   4   4   9    9.30    6.80
  -5  -4  -9   37.00    7.70
  -5  -4  -9   41.60    5.60
  -5  -4  -9   43.80    9.40
  -5  -4  -9   42.00    6.30
  -5  -4  -9   44.80   13.70
   5   4   9   51.99    7.00
   5   4   9   40.60    6.50
   5   4   9   35.10    7.10
   5   4   9   30.60    5.80
   5   4   9   43.90    6.50
   5   4   9   37.50    5.70
  -6  -4  -9    6.60   14.30
  -6  -4  -9   -1.80    4.00
  -6  -4  -9   14.80   10.50
  -6  -4  -9    1.50    7.90
  -6  -4  -9    4.10    5.00
   6   4   9    6.10    5.10
   6   4   9    4.50    6.20
   6   4   9   14.20    6.50
   6   4   9   -1.70    5.10
   6   4   9    3.40    3.80
   6   4   9   -0.50    5.70
  -7  -4  -9  169.78   14.90
  -7  -4  -9  195.28   35.10
  -7  -4  -9  161.48   13.30
  -7  -4  -9  172.98   29.40
  -7  -4  -9  172.78   20.50
  -7  -4  -9  159.48   10.90
   7   4   9  153.98   15.10
   7   4   9  175.58   14.90
   7   4   9  180.38   19.50
   7   4   9  193.08   16.30
   7   4   9  156.38   15.40
   4  -5  -9   13.60    9.50
  -4   5   9   24.80    7.00
  -4   5   9   16.70    7.60
  -4   5   9   21.40   10.10
  -4   5   9   32.30   20.60
   3  -5  -9   93.09   10.60
   3  -5  -9   86.99   11.40
  -3   5   9   89.99   11.60
  -3   5   9   95.19   16.60
  -3   5   9  162.78   23.60
  -3   5   9   99.69   12.60
   2  -5  -9   52.19    6.90
   2  -5  -9   52.59    7.10
   2  -5  -9   48.50    6.10
   2  -5  -9   38.50    6.80
  -2   5   9   46.60    6.60
  -2   5   9   38.10   14.30
  -2   5   9   46.10    6.90
  -2   5   9   77.89   22.10
  -2   5   9   48.10    9.20
   1  -5  -9   86.89    8.60
   1  -5  -9   79.39   10.70
   1  -5  -9   70.39    8.00
   1  -5  -9   68.29    8.30
  -1   5   9   82.79   13.20
  -1   5   9   84.19   10.00
  -1   5   9   93.99   10.50
  -1   5   9   81.99   19.60
  -1   5   9   90.39   14.00
  -1   5   9   69.59    8.50
   0  -5  -9  990.60   50.89
   0  -5  -9  922.51   51.09
   0  -5  -9  894.81   50.79
   0  -5  -9  915.11   49.30
   0  -5  -9  939.01   51.49
   0   5   9  825.52   50.29
   0   5   9  854.81   58.99
   0   5   9  992.60   53.79
   0   5   9  941.11   50.69
   0   5   9  901.01   50.59
  -1  -5  -9  514.85   30.00
  -1  -5  -9  539.05   30.70
  -1  -5  -9  493.55   29.30
  -1  -5  -9  520.75   32.10
  -1  -5  -9  537.35   30.20
   1   5   9  508.95   37.40
   1   5   9  501.55   31.20
   1   5   9  504.75   29.50
   1   5   9  469.05   29.00
  -2  -5  -9  104.49   10.10
  -2  -5  -9  103.89   11.40
  -2  -5  -9   91.09   13.80
  -2  -5  -9   97.19   13.50
  -2  -5  -9   89.59    9.00
   2   5   9   95.19    9.10
   2   5   9   79.99    9.80
   2   5   9  104.49    9.80
   2   5   9   98.89   10.70
  -3  -5  -9   54.59    8.20
  -3  -5  -9   64.19    6.50
  -3  -5  -9   50.79    8.20
  -3  -5  -9   52.19    7.60
  -3  -5  -9   53.99   10.30
   3   5   9   56.79   10.40
   3   5   9   60.19    9.10
   3   5   9   47.30    7.40
   3   5   9   52.49    6.70
   3   5   9   51.89    6.50
  -4  -5  -9   53.29    8.30
  -4  -5  -9   53.19    6.00
  -4  -5  -9   44.60    8.20
  -4  -5  -9   35.70   10.60
  -4  -5  -9   40.90    7.20
   4   5   9   43.50    5.90
   4   5   9   47.90    6.90
   4   5   9   42.50    6.50
   4   5   9   49.99    8.80
   4   5   9   38.60    5.70
   4   5   9   55.19    6.90
  -5  -5  -9   -1.40    7.70
  -5  -5  -9    2.50   12.10
  -5  -5  -9    2.60    3.80
  -5  -5  -9    2.40    4.80
  -5  -5  -9    2.30    6.50
   5   5   9   -1.30    4.50
   5   5   9   -3.50    2.20
   5   5   9    0.50    4.90
   5   5   9    3.70    3.50
   5   5   9    1.10    5.70
   5   5   9    3.90    5.10
   5   5   9    0.50    5.70
  -6  -5  -9  112.09   19.00
  -6  -5  -9  132.09   16.60
  -6  -5  -9  119.79   12.40
  -6  -5  -9  128.39   11.80
   6   5   9  101.09   12.30
   6   5   9  108.39   12.90
   6   5   9  131.89   13.60
   6   5   9  118.79   13.20
   6   5   9  118.19    8.50
  -7  -5  -9  331.77   20.60
  -7  -5  -9  367.46   39.80
  -7  -5  -9  354.16   24.40
  -7  -5  -9  396.46   28.80
   7   5   9  357.26   26.30
   7   5   9  363.66   27.80
   7   5   9  342.97   24.70
   7   5   9  357.86   24.20
   7   5   9  435.36   25.20
   3  -6  -9   99.09   13.90
  -3   6   9  119.69   12.80
  -3   6   9  101.09   14.30
   2  -6  -9   24.50    6.30
   2  -6  -9   29.00    4.40
   2  -6  -9   22.20    7.50
  -2   6   9   18.20    9.00
  -2   6   9   25.20    6.10
  -2   6   9   25.80    7.00
   1  -6  -9  375.06   24.80
   1  -6  -9  397.66   23.60
   1  -6  -9  407.36   23.60
   1  -6  -9  412.56   25.10
  -1   6   9  392.26   24.90
  -1   6   9  412.56   24.70
  -1   6   9  409.46   28.70
   0  -6  -9  570.84   33.30
   0  -6  -9  563.84   31.80
   0  -6  -9  577.74   33.60
   0  -6  -9  605.14   33.30
   0   6   9  560.44   33.10
   0   6   9  600.84   33.30
   0   6   9  537.25   33.10
  -1  -6  -9  377.46   27.00
  -1  -6  -9  395.86   24.80
  -1  -6  -9  366.36   23.00
  -1  -6  -9  399.56   24.10
   1   6   9  368.76   23.00
   1   6   9  370.96   24.50
   1   6   9  384.46   23.40
  -2  -6  -9   38.50    8.10
  -2  -6  -9   46.20    6.30
  -2  -6  -9   35.70    6.60
  -2  -6  -9   48.40    9.00
   2   6   9   35.20    5.80
   2   6   9   30.30    5.80
   2   6   9   36.40    5.20
   2   6   9   42.20    6.90
  -3  -6  -9    1.50    7.30
  -3  -6  -9    3.60    3.80
  -3  -6  -9    4.30    6.10
  -3  -6  -9   -3.60    8.00
   3   6   9    5.80    5.40
   3   6   9   -1.10    4.70
   3   6   9    2.40    4.10
   3   6   9    6.30    2.40
   3   6   9    7.10    5.30
  -4  -6  -9   -1.00    9.90
  -4  -6  -9    1.90    7.90
  -4  -6  -9    4.80    4.50
  -4  -6  -9    8.00    6.50
   4   6   9    4.50    6.70
   4   6   9    8.00    6.50
   4   6   9    2.20    4.70
   4   6   9    6.50    4.80
   4   6   9    9.10    2.60
   4   6   9    9.00    5.20
  -5  -6  -9   40.20   14.40
  -5  -6  -9   27.40    7.80
   5   6   9   29.70    7.30
   5   6   9   31.70    3.60
   5   6   9   34.10    6.70
   5   6   9   25.40    6.80
   5   6   9   21.60    5.90
  -6  -6  -9  594.34   45.90
  -6  -6  -9  621.84   36.10
  -6  -6  -9  589.24   33.10
   6   6   9  546.75   33.70
   6   6   9  548.55   34.10
   6   6   9  523.95   33.30
   6   6   9  536.05   30.70
   6   6   9  567.14   38.30
   2  -7  -9  141.69   10.50
   2  -7  -9  136.79   14.40
   2  -7  -9  125.29   16.00
  -2   7   9  143.29   15.70
  -2   7   9  132.69   27.00
  -2   7   9  135.69   20.30
  -2   7   9  136.19   13.60
   1  -7  -9  413.56   23.50
   1  -7  -9  396.46   26.50
   1  -7  -9  384.86   24.40
  -1   7   9  384.06   38.60
  -1   7   9  402.56   25.00
  -1   7   9  380.76   24.40
  -1   7   9  326.27   36.00
   0  -7  -9  468.25   29.70
   0  -7  -9  364.86   24.20
   0  -7  -9  355.86   22.70
   0  -7  -9  393.16   23.90
   0   7   9  372.96   23.90
   0   7   9  370.36   23.70
   0   7   9  379.66   28.40
   0   7   9  378.26   26.30
   0   7   9  360.86   23.80
   0   7   9  321.87   31.00
  -1  -7  -9   16.20    5.60
  -1  -7  -9    6.80    9.70
  -1  -7  -9   17.40    6.10
  -1  -7  -9   32.70    7.70
   1   7   9   23.70    6.50
   1   7   9   28.60    6.20
   1   7   9   30.10    9.50
   1   7   9   32.20    7.70
  -2  -7  -9    3.50    7.90
  -2  -7  -9   -3.30    4.70
  -2  -7  -9   -0.20    6.00
   2   7   9    3.50    4.90
   2   7   9    2.80    5.10
   2   7   9   -2.40    4.20
   2   7   9    1.90    5.90
  -3  -7  -9   19.70    6.90
  -3  -7  -9   20.50    9.70
  -3  -7  -9    7.90   10.00
  -3  -7  -9    9.50    4.90
   3   7   9   20.90    3.40
   3   7   9   21.20    7.10
   3   7   9   23.10    6.00
   3   7   9   15.20    5.90
   3   7   9   15.80    5.90
  -4  -7  -9   -3.40    9.00
  -4  -7  -9    1.20    6.80
  -4  -7  -9   -0.30   10.90
   4   7   9   -2.40    5.00
   4   7   9   -0.60    3.10
   4   7   9    1.80    6.70
   4   7   9   -0.50    5.70
   4   7   9   -1.10    5.00
  -5  -7  -9  275.37   22.00
  -5  -7  -9  285.67   34.70
   5   7   9  247.58   18.80
   5   7   9  245.68   20.30
   5   7   9  256.97   20.00
   5   7   9  295.17   19.20
   5   7   9  257.67   15.60
  -6  -7  -9  435.76   38.50
  -6  -7  -9  375.86   28.80
   6   7   9  385.56   26.90
   6   7   9  383.96   22.60
   6   7   9  416.36   26.10
   6   7   9  402.46   26.60
   6   7   9  382.06   26.60
   0  -8  -9   23.20    8.40
   0  -8  -9   10.60    7.10
   0  -8  -9   12.20    6.30
   0   8   9   13.00    7.30
   0   8   9    7.40   10.20
   0   8   9   -0.50    9.30
  -1  -8  -9   45.20    8.10
  -1  -8  -9   57.29    9.40
   1   8   9   34.30    9.30
   1   8   9   38.00    5.80
   1   8   9   49.70    8.40
  -2  -8  -9   28.70    9.40
  -2  -8  -9   17.40    7.40
   2   8   9   20.80    6.60
   2   8   9   19.60    5.20
   2   8   9    8.60    6.10
  -3  -8  -9    1.40    6.60
  -3  -8  -9    5.10   10.30
   3   8   9    9.40    6.50
   3   8   9    7.50    3.90
   3   8   9    9.50    8.10
   3   8   9    3.60    5.30
   3   8   9    3.60    5.60
  -4  -8  -9  119.99   17.20
  -4  -8  -9  107.29   15.60
   4   8   9  117.49   12.80
   4   8   9  108.79   13.50
   4   8   9  112.29   13.00
   4   8   9  103.69    9.10
   4   8   9  107.09   13.40
   3   6 -10   59.29    9.50
   3   6 -10   61.19   17.00
   3   6 -10   56.59   10.70
   3   6 -10   74.79    8.30
   3   6 -10   57.09    9.90
  -3  -6  10   67.89   11.80
  -3  -6  10   59.09   13.00
  -3  -6  10   81.89   14.20
  -3  -6  10   52.89   17.70
   2   6 -10   23.30    5.30
   2   6 -10   26.50   12.10
   2   6 -10   27.40    5.80
   2   6 -10   28.10    7.50
   2   6 -10   22.50    5.90
  -2  -6  10   34.30   11.80
  -2  -6  10    6.00   15.90
  -2  -6  10   21.30   10.40
   1   6 -10   56.29    7.80
   1   6 -10   42.80   11.10
  -1  -6  10   34.50   15.20
  -1  -6  10   32.10    8.60
  -1  -6  10   35.70    9.40
  -1  -6  10   36.90   11.60
   0   6 -10  573.14   34.50
   0   6 -10  552.14   30.00
   0   6 -10  478.45   29.20
   0  -6  10  492.05   38.00
   0  -6  10  511.75   34.70
   0  -6  10  466.85   30.70
   0  -6  10  458.65   31.30
  -1   6 -10  216.98   20.30
  -1   6 -10  180.28   14.60
  -1   6 -10  213.78   15.40
   1  -6  10  175.38   12.10
   1  -6  10  162.18   20.10
   1  -6  10  170.08   14.10
   1  -6  10  173.48   17.70
   1  -6  10  196.58   26.60
   1  -6  10  167.68   17.30
   4   5 -10   60.39   13.10
   4   5 -10   72.29   11.30
   4   5 -10   80.99   16.20
   4   5 -10   56.09   13.50
   4   5 -10   56.59   10.90
  -4  -5  10  116.49   26.30
  -4  -5  10   99.29   13.70
  -4  -5  10   62.89   24.20
   3   5 -10  104.49   12.90
   3   5 -10  118.79   15.60
   3   5 -10  112.49   13.30
   3   5 -10  121.79   14.00
   3   5 -10  100.49   15.90
  -3  -5  10  172.38   20.60
  -3  -5  10  163.18   20.50
   2   5 -10   -2.20    5.50
   2   5 -10    2.80    5.90
   2   5 -10    9.70    6.00
   2   5 -10    4.60    5.80
   2   5 -10   10.90   10.70
  -2  -5  10    5.10    6.00
  -2  -5  10    9.20    9.20
  -2  -5  10   -3.30    9.10
  -2  -5  10   -3.70   12.70
   1   5 -10  535.45   35.30
   1   5 -10  501.35   28.30
   1   5 -10  521.75   29.20
  -1  -5  10  432.96   32.10
  -1  -5  10  531.05   33.00
  -1  -5  10  472.35   30.30
   0   5 -10  559.84   35.60
   0   5 -10  559.84   31.10
   0   5 -10  609.04   31.50
   0  -5  10  517.15   33.50
   0  -5  10  576.34   34.50
   0  -5  10  509.15   32.60
   0  -5  10  513.15   30.10
   0  -5  10  534.35   30.50
  -1   5 -10  165.68   12.60
  -1   5 -10  148.79   12.30
  -1   5 -10  155.38   17.40
   1  -5  10  120.39   13.60
   1  -5  10  141.79   10.50
   1  -5  10  142.39   16.30
   1  -5  10  161.88   14.80
   1  -5  10  136.39   14.60
  -2   5 -10    0.70    4.80
  -2   5 -10    4.80    5.60
  -2   5 -10    9.60   14.00
   2  -5  10    4.00    6.90
   2  -5  10   -1.80   10.60
   2  -5  10   11.10    4.50
   2  -5  10   19.70   12.10
   2  -5  10    5.10    7.50
   2  -5  10   -4.30    4.80
  -3   5 -10    1.40    5.80
  -3   5 -10    7.80    7.00
   3  -5  10    5.30    7.10
   3  -5  10    6.60    5.00
   3  -5  10    2.30    9.80
   3  -5  10   12.60   15.90
   3  -5  10    4.40    3.50
   3  -5  10    6.60    6.60
   5   4 -10  178.78   21.00
   5   4 -10  136.59   26.20
   5   4 -10  135.49   20.60
   5   4 -10  210.18   26.00
   5   4 -10  156.98   21.20
   4   4 -10   53.09   10.00
   4   4 -10   22.50   14.60
   4   4 -10   41.80   13.60
   4   4 -10   43.30    9.70
   4   4 -10   44.50   11.20
   3   4 -10   12.20    8.60
   3   4 -10   25.80    7.30
   3   4 -10   27.60    7.50
   3   4 -10   22.20   13.30
   3   4 -10   13.20   10.40
  -3  -4  10   60.59   11.40
  -3  -4  10   45.40    9.40
   2   4 -10  259.37   18.10
   2   4 -10  245.38   17.90
   2   4 -10  256.77   19.20
   2   4 -10  274.57   26.20
   2   4 -10  248.38   20.30
  -2  -4  10  327.77   22.00
  -2  -4  10  340.97   23.40
  -2  -4  10  292.37   20.20
   1   4 -10  798.42   43.60
   1   4 -10  776.22   43.40
   1   4 -10  745.83   43.40
   1   4 -10  789.12   43.20
   1   4 -10  765.42   48.00
  -1  -4  10  864.41   47.10
  -1  -4  10  824.92   46.00
  -1  -4  10  770.92   45.30
   0   4 -10  397.56   21.20
   0   4 -10  368.56   21.00
   0   4 -10  394.66   26.10
   0  -4  10  362.26   23.30
   0  -4  10  318.07   21.50
   0  -4  10  296.27   28.20
   0  -4  10  372.96   23.50
   0  -4  10  341.17   24.10
   0  -4  10  339.87   20.30
  -1   4 -10  130.69   15.80
  -1   4 -10  107.89    9.20
   1  -4  10   92.09   10.70
   1  -4  10   64.29    9.30
   1  -4  10   75.59   11.40
   1  -4  10   89.39   11.40
   1  -4  10   92.69    8.10
   1  -4  10   78.69   11.90
  -2   4 -10    9.40    4.70
  -2   4 -10   14.60    6.70
  -2   4 -10    0.20    4.30
   2  -4  10    4.10   11.00
   2  -4  10   -1.30    5.60
   2  -4  10    3.80    5.40
   2  -4  10    0.80    5.20
   2  -4  10   10.20    4.10
   2  -4  10   -3.00    5.80
  -3   4 -10    6.40    6.80
  -3   4 -10   -2.70    5.00
   3  -4  10   -5.70    4.60
   3  -4  10   -4.00    5.40
   3  -4  10    5.70    5.70
   3  -4  10    2.00   13.20
   3  -4  10    0.00    4.40
  -4   4 -10    2.40    6.40
  -4   4 -10   -1.20    5.60
   4  -4  10    5.20    5.40
   4  -4  10   -0.60    5.70
   4  -4  10    1.80    5.20
   4  -4  10    2.20    5.40
   4  -4  10    9.50    5.60
   4  -4  10    5.30   16.30
   6   3 -10   83.09   15.90
  -6  -3  10   80.59   13.20
  -6  -3  10   63.39   15.00
   5   3 -10  153.08   21.70
   5   3 -10  220.48   27.90
  -5  -3  10  236.88   24.50
  -5  -3  10  195.68   23.70
   4   3 -10  203.88   27.30
   4   3 -10  225.08   20.50
   4   3 -10  218.68   23.60
   4   3 -10  199.18   22.30
   4   3 -10  267.27   19.70
   3   3 -10  152.08   22.80
   3   3 -10  145.59   18.80
   3   3 -10  170.18   15.40
   3   3 -10  177.28   17.70
   3   3 -10  190.78   15.30
   3   3 -10  184.38   16.40
  -3  -3  10  237.88   18.10
  -3  -3  10  214.88   16.80
   2   3 -10  923.11   57.89
   2   3 -10  909.11   51.99
   2   3 -10  864.21   52.99
   2   3 -10  868.41   55.19
   2   3 -10  912.91   51.79
  -2  -3  10 1136.89   54.29
  -2  -3  10 1018.60   53.89
   1   3 -10  788.52   44.10
   1   3 -10  791.42   44.60
   1   3 -10  785.72   49.30
   1   3 -10  754.82   45.50
   1   3 -10  800.02   44.50
  -1  -3  10  714.03   43.90
  -1  -3  10  902.61   46.90
  -1  -3  10  776.72   45.60
  -1  -3  10  929.41   46.70
  -1  -3  10  861.11   50.49
   0   3 -10  203.48   12.90
   0   3 -10  202.68   12.20
   0   3 -10  217.78   19.40
   0   3 -10  212.38   11.90
   0   3 -10  197.58   13.30
   0  -3  10  194.08   12.80
   0  -3  10  178.88   21.20
   0  -3  10  169.58   16.70
   0  -3  10  195.68   15.00
   0  -3  10  209.18   16.20
   0  -3  10  192.78   16.10
  -1   3 -10    3.70    3.70
  -1   3 -10    3.50    4.40
  -1   3 -10    4.10    3.50
  -1   3 -10   13.80    6.90
   1  -3  10   10.50    3.80
   1  -3  10   -1.10    8.80
   1  -3  10    0.90    5.40
   1  -3  10    6.30    4.50
   1  -3  10    5.90    5.80
  -2   3 -10   12.50    4.20
  -2   3 -10   16.40    6.50
   2  -3  10   11.50    4.10
   2  -3  10    3.70   10.00
   2  -3  10    8.20    5.30
   2  -3  10    8.20    4.70
   2  -3  10    5.40    5.20
   2  -3  10   10.20    4.80
  -3   3 -10    0.20    5.90
   3  -3  10   -0.50    4.70
   3  -3  10    7.20    7.00
   3  -3  10    0.00   11.50
   3  -3  10    4.50    4.40
   3  -3  10    0.10    4.90
   3  -3  10    4.00    5.00
   3  -3  10    3.00    4.20
  -4   3 -10  116.09   11.00
  -4   3 -10  135.59   13.60
   4  -3  10  137.39   11.50
   4  -3  10  115.89    9.70
   4  -3  10  141.99   16.80
   4  -3  10  121.29   10.60
   4  -3  10  136.09   10.90
   4  -3  10  121.39   10.60
   4  -3  10  111.99   17.80
   4  -3  10  101.49   10.50
  -5   3 -10  331.37   22.60
  -5   3 -10  378.66   23.60
   5  -3  10  361.76   21.90
   5  -3  10  370.56   21.60
   5  -3  10  348.57   21.90
   5  -3  10  394.86   23.10
   5  -3  10  353.76   24.10
   6   2 -10   90.79   19.80
   6   2 -10  133.89   17.90
  -6  -2  10  163.38   23.90
  -6  -2  10  148.99   21.40
  -6  -2  10  129.09   23.00
   5   2 -10  137.99   19.70
   5   2 -10  115.59   16.80
  -5  -2  10  126.99   21.10
  -5  -2  10  122.79   18.60
  -5  -2  10  155.58   20.40
   4   2 -10   12.70    8.30
   4   2 -10  -18.80   10.70
   4   2 -10    1.60    7.10
  -4  -2  10    6.60    8.70
  -4  -2  10    0.90   10.60
  -4  -2  10    9.60    8.00
   3   2 -10  403.96   39.70
   3   2 -10  533.25   32.40
   3   2 -10  471.15   32.70
   3   2 -10  533.05   32.90
   3   2 -10  533.65   31.40
  -3  -2  10  620.64   32.60
   2   2 -10 1324.37   72.49
   2   2 -10 1298.77   76.79
   2   2 -10 1256.47   73.19
   2   2 -10 1360.46   73.39
   2   2 -10 1222.08   77.49
  -2  -2  10 1341.47   72.99
  -2  -2  10 1516.15   73.89
   1   2 -10  355.26   20.20
   1   2 -10  342.87   21.10
   1   2 -10  302.47   25.40
   1   2 -10  350.96   21.50
   1   2 -10  335.37   27.90
  -1  -2  10  358.46   22.00
  -1  -2  10  352.36   22.80
  -1  -2  10  353.16   20.60
  -1  -2  10  398.06   28.00
   0   2 -10   21.80    3.70
   0   2 -10   23.70    4.80
   0   2 -10   17.00    3.90
   0   2 -10   19.80    7.80
   0   2 -10   12.30    5.70
   0  -2  10   14.10    6.20
   0  -2  10   14.80    4.10
   0  -2  10   15.60    9.80
   0  -2  10   19.70    4.90
   0  -2  10   25.60    5.70
  -1   2 -10   28.80    4.90
  -1   2 -10   31.70    7.30
  -1   2 -10   27.90    4.20
  -1   2 -10   27.90    3.90
   1  -2  10   27.50    5.00
   1  -2  10   32.60    5.20
   1  -2  10   31.50    4.50
   1  -2  10   22.50    6.00
   1  -2  10   34.80   11.00
  -2   2 -10   57.69    7.70
  -2   2 -10   46.10    5.20
  -2   2 -10   64.29    8.50
   2  -2  10   45.00    6.50
   2  -2  10   58.09    7.90
   2  -2  10   45.10   10.60
   2  -2  10   52.99    7.90
   2  -2  10   50.29    7.00
   2  -2  10   40.40    6.60
  -3   2 -10  100.39   11.80
  -3   2 -10   74.39   14.30
  -3   2 -10   69.89    7.90
   3  -2  10   78.49   13.30
   3  -2  10   98.29    9.00
   3  -2  10   89.39    9.10
   3  -2  10   68.49    9.00
   3  -2  10   90.09    8.80
   3  -2  10   99.49   10.20
  -4   2 -10  358.46   22.20
  -4   2 -10  406.56   33.90
   4  -2  10  345.57   20.20
   4  -2  10  367.96   21.30
   4  -2  10  360.06   20.60
   4  -2  10  322.47   19.60
   4  -2  10  327.97   20.50
   4  -2  10  334.07   20.70
   4  -2  10  323.97   29.70
  -5   2 -10  396.06   24.40
  -5   2 -10  380.46   51.29
  -5   2 -10  365.66   23.50
   5  -2  10  397.66   23.20
   5  -2  10  428.56   22.30
   5  -2  10  383.16   24.60
   5  -2  10  422.16   24.30
   5  -2  10  377.86   33.20
   5  -2  10  367.86   22.90
   5  -2  10  412.46   23.20
   5  -2  10  371.16   22.60
   6   1 -10  248.18   28.40
   6   1 -10  188.68   28.50
   6   1 -10  172.38   23.00
  -6  -1  10  200.68   23.10
  -6  -1  10  239.38   22.20
  -6  -1  10  229.68   24.60
   5   1 -10   87.29   12.60
   5   1 -10  118.69   16.60
   5   1 -10   93.19   12.50
  -5  -1  10  104.49   15.40
  -5  -1  10  127.99   17.90
  -5  -1  10  118.89   16.90
  -5  -1  10  104.49   17.70
   4   1 -10  254.47   21.70
   4   1 -10  367.96   29.90
   4   1 -10  285.47   23.00
  -4  -1  10  287.77   20.50
  -4  -1  10  332.17   23.40
   3   1 -10 1000.10   61.99
   3   1 -10  934.91   59.39
   3   1 -10 1205.18   65.99
   3   1 -10 1041.00   59.69
   3   1 -10 1011.50   58.69
  -3  -1  10  986.70   57.49
  -3  -1  10 1069.59   58.79
  -3  -1  10 1228.98   59.59
   2   1 -10  227.98   16.70
   2   1 -10  175.88   27.00
   2   1 -10  215.58   15.70
   2   1 -10  200.68   16.90
  -2  -1  10  234.08   16.00
  -2  -1  10  231.38   16.70
  -2  -1  10  220.28   14.20
   1   1 -10   25.20    5.30
   1   1 -10   29.30    4.10
   1   1 -10   38.00   11.60
   1   1 -10   23.00   10.50
   1   1 -10   20.70    5.20
  -1  -1  10   25.30   10.00
  -1  -1  10   37.00    7.80
  -1  -1  10   22.30    4.50
  -1  -1  10   23.90    5.10
  -1  -1  10   23.80    5.40
   0   1 -10  164.98   11.60
   0   1 -10  161.08   11.50
   0   1 -10  148.89   18.50
   0   1 -10  132.19   17.50
   0   1 -10  158.78    9.70
   0  -1  10  139.79   14.20
   0  -1  10  170.28   20.00
   0  -1  10  149.88   10.90
   0  -1  10  159.88   12.20
   0  -1  10  170.08   12.40
  -1   1 -10   55.49    5.10
  -1   1 -10   41.10    7.00
  -1   1 -10   60.69    7.30
  -1   1 -10   62.59    9.70
  -1   1 -10   69.69    6.10
  -1   1 -10   46.70    8.50
   1  -1  10   55.59    7.40
   1  -1  10   56.49   10.60
   1  -1  10   62.89    8.30
   1  -1  10   62.89    8.00
   1  -1  10   58.59    7.00
  -2   1 -10    6.40    6.00
  -2   1 -10    1.10    7.70
  -2   1 -10   -1.10    3.60
   2  -1  10    3.40    3.80
   2  -1  10    5.20    4.10
   2  -1  10    0.60    8.40
   2  -1  10   -4.70    4.30
   2  -1  10    5.40    3.60
  -3   1 -10  290.57   25.00
  -3   1 -10  286.37   19.50
  -3   1 -10  292.67   17.70
  -3   1 -10  255.67   16.60
   3  -1  10  292.87   17.50
   3  -1  10  266.87   17.70
   3  -1  10  278.37   17.40
   3  -1  10  302.87   17.50
  -4   1 -10  748.63   44.20
  -4   1 -10  845.72   45.50
  -4   1 -10  832.22   52.79
   4  -1  10  842.72   44.90
   4  -1  10  841.32   44.20
   4  -1  10  808.42   44.60
   4  -1  10  856.31   44.50
   4  -1  10  786.92   44.40
   4  -1  10  784.32   43.40
   4  -1  10  772.12   49.50
  -5   1 -10  468.95   28.20
  -5   1 -10  486.05   41.10
   5  -1  10  497.55   28.50
   5  -1  10  454.55   28.40
   5  -1  10  498.15   27.60
   5  -1  10  455.55   35.30
   5  -1  10  508.85   27.10
   5  -1  10  470.75   27.50
  -6   1 -10    0.30    5.00
  -6   1 -10    1.00   19.00
  -6   1 -10    2.40    5.20
   6  -1  10    3.80    4.90
   6  -1  10   -3.50    5.00
   6  -1  10    2.60    6.20
   6  -1  10    0.90    4.70
   6  -1  10   -4.50    6.70
   6  -1  10   -2.40    4.30
   6   0 -10  256.17   27.80
   6   0 -10  325.47   25.80
   6   0 -10  194.38   26.40
  -6   0  10  317.17   19.00
  -6   0  10  271.57   25.20
  -6   0  10  236.58   24.70
  -6   0  10  205.58   23.80
   5   0 -10   28.60   11.00
   5   0 -10   47.60   10.30
   5   0 -10   21.00   10.00
  -5   0  10   34.40   10.00
  -5   0  10   20.30    8.30
  -5   0  10   17.40    8.70
  -5   0  10   28.10   10.00
   4   0 -10 1038.50   61.99
   4   0 -10 1048.60   61.59
  -4   0  10  983.40   62.49
  -4   0  10 1130.19   61.19
   3   0 -10  425.96   29.30
   3   0 -10  458.75   28.30
   3   0 -10  430.06   29.00
  -3   0  10  523.95   28.60
  -3   0  10  428.56   27.00
  -3   0  10  463.25   27.70
   2   0 -10  314.37   20.60
   2   0 -10  374.36   30.30
   2   0 -10  261.77   20.60
  -2   0  10  327.37   20.50
  -2   0  10  328.87   20.20
  -2   0  10  306.67   19.30
   1   0 -10   36.40   11.60
   1   0 -10   33.30    5.60
   1   0 -10   41.70    6.10
  -1   0  10   43.30    5.50
  -1   0  10   56.29   11.60
  -1   0  10   43.70    6.10
  -1   0  10   39.60    8.80
  -1   0  10   39.30    5.70
   0   0 -10   55.99    9.80
   0   0 -10   27.80    6.40
   0   0 -10   27.20    4.90
   0   0 -10   30.40   10.50
   0   0 -10   32.70    5.20
   0   0  10   35.90    5.20
   0   0  10   38.00    5.60
   0   0  10   37.10   11.00
   0   0  10   16.90    6.10
   0   0  10   34.30    4.90
  -1   0 -10   19.80    4.30
  -1   0 -10   23.30    6.80
  -1   0 -10   28.90    4.10
  -1   0 -10   20.20    8.70
  -1   0 -10   32.30    8.80
   1   0  10   24.90    4.40
   1   0  10   16.60    5.50
   1   0  10   22.80    4.50
   1   0  10   26.30   10.80
   1   0  10   28.30    4.80
  -2   0 -10  132.89    8.60
  -2   0 -10  127.69   15.50
  -2   0 -10   90.09   13.70
  -2   0 -10  123.19   10.00
  -2   0 -10  134.69   14.40
  -2   0 -10  108.59    8.40
   2   0  10  133.69   18.80
   2   0  10  129.29   10.20
   2   0  10  139.09   10.40
   2   0  10  121.69   10.10
   2   0  10  120.99   10.70
  -3   0 -10 1008.70   54.79
  -3   0 -10  913.11   52.89
  -3   0 -10  985.30   53.69
  -3   0 -10  954.60   57.59
   3   0  10 1006.60   53.59
   3   0  10  974.90   53.49
   3   0  10  989.80   53.59
   3   0  10  990.40   53.99
   3   0  10 1052.49   58.59
  -4   0 -10  773.92   51.19
  -4   0 -10  830.12   45.80
   4   0  10  801.82   43.60
   4   0  10  830.62   45.30
   4   0  10  841.82   45.40
   4   0  10  850.91   45.10
   4   0  10  815.92   44.80
  -5   0 -10   59.79    6.80
  -5   0 -10   53.19   15.60
  -5   0 -10   53.59    6.90
   5   0  10   77.59   10.50
   5   0  10   53.19    6.30
   5   0  10   49.60    9.80
   5   0  10   58.59    7.80
   5   0  10   62.39    8.50
   5   0  10   51.69    5.60
  -6   0 -10    9.10    4.80
  -6   0 -10    4.20    4.40
   6   0  10    1.10    4.20
   6   0  10    5.30    5.10
   6   0  10    2.30    6.10
   6   0  10   11.50    8.20
   6   0  10    7.00    4.80
   6   0  10    7.60    6.20
   6   0  10    7.20    4.90
   5  -1 -10  229.98   31.30
   5  -1 -10  203.98   24.00
   5  -1 -10  211.08   22.00
  -5   1  10  168.38   19.20
  -5   1  10  173.58   19.40
  -5   1  10  182.28   19.20
   4  -1 -10  600.14   38.30
   4  -1 -10  618.24   40.50
  -4   1  10  606.24   38.10
  -4   1  10  648.24   37.50
  -4   1  10  705.73   38.40
   3  -1 -10  169.48   16.60
  -3   1  10  226.58   16.00
  -3   1  10  220.68   16.50
  -3   1  10  217.48   16.40
   2  -1 -10   10.20    5.50
   2  -1 -10   -2.40    4.90
   2  -1 -10   10.40    5.50
   2  -1 -10    5.90    6.80
  -2   1  10   -1.00    4.80
  -2   1  10   -1.60    4.30
  -2   1  10   10.40   10.00
  -2   1  10    1.40    4.40
   1  -1 -10   28.80    6.00
   1  -1 -10   49.20    8.20
   1  -1 -10   30.10    5.20
   1  -1 -10   30.30    5.50
  -1   1  10   43.30   11.40
  -1   1  10   26.40    5.10
  -1   1  10   12.90    7.30
  -1   1  10   17.40    4.50
  -1   1  10   34.70    6.10
   0  -1 -10  261.77   16.50
   0  -1 -10  221.48   23.30
   0  -1 -10  240.58   16.10
   0  -1 -10  249.08   17.30
   0  -1 -10  247.78   15.60
   0   1  10  297.97   24.90
   0   1  10  262.47   16.50
   0   1  10  255.47   16.30
   0   1  10  224.28   15.50
   0   1  10  243.48   18.70
  -1  -1 -10  105.79    9.20
  -1  -1 -10  106.79    9.00
  -1  -1 -10   90.89   11.80
  -1  -1 -10   69.19   11.00
  -1  -1 -10   82.49    8.90
   1   1  10  109.99    9.50
   1   1  10  103.99    9.70
   1   1  10   99.19    8.90
   1   1  10   92.89   10.50
   1   1  10  107.29   19.40
  -2  -1 -10  577.84   38.30
  -2  -1 -10  634.74   35.40
  -2  -1 -10  658.03   35.00
  -2  -1 -10  629.14   38.20
  -2  -1 -10  554.04   36.60
   2   1  10  725.73   42.60
   2   1  10  642.34   36.30
   2   1  10  638.24   35.40
   2   1  10  668.73   35.50
   2   1  10  618.44   35.20
  -3  -1 -10 1021.80   57.09
  -3  -1 -10 1110.79   62.09
  -3  -1 -10 1040.00   57.99
  -3  -1 -10  975.90   60.79
  -3  -1 -10 1068.89   57.29
  -3  -1 -10 1068.89   59.29
   3   1  10 1126.79   58.09
   3   1  10 1111.89   58.79
   3   1  10 1150.88   63.79
   3   1  10 1016.60   58.29
   3   1  10 1077.49   57.89
  -4  -1 -10  181.68   22.00
  -4  -1 -10  197.78   13.20
  -4  -1 -10  199.98   14.80
  -4  -1 -10  178.48   11.70
  -4  -1 -10  164.58   22.60
   4   1  10  197.98   13.30
   4   1  10  189.18   13.20
   4   1  10  204.08   13.90
   4   1  10  194.18   18.00
   4   1  10  185.98   13.20
  -5  -1 -10    7.10    3.70
  -5  -1 -10    4.30    4.40
  -5  -1 -10    9.80   20.60
  -5  -1 -10    1.90   14.10
   5   1  10    5.50    3.90
   5   1  10    5.60    2.30
   5   1  10   17.80    7.40
   5   1  10    5.20    4.60
   5   1  10   16.10    5.80
   5   1  10    1.30    4.30
   5   1  10    4.50    4.40
   5   1  10   -2.40    4.50
  -6  -1 -10   20.30    4.40
  -6  -1 -10   15.70    4.90
  -6  -1 -10   20.70   17.50
  -6  -1 -10   10.30   16.30
   6   1  10   24.40    5.30
   6   1  10   15.20    6.40
   6   1  10   18.70    3.80
   6   1  10   14.70    5.60
   6   1  10   20.70    7.90
   6   1  10   26.20    5.10
   6   1  10   26.00    7.00
  -7  -1 -10  -14.20   21.30
  -7  -1 -10    5.50    5.00
  -7  -1 -10    7.20    4.70
   7   1  10   12.10    6.00
   7   1  10    5.40    7.00
   7   1  10    9.70    5.10
   7   1  10    0.70    6.00
   7   1  10   12.90    5.60
   7   1  10    4.40    7.70
   7   1  10    8.30    8.60
   5  -2 -10  299.27   23.10
   5  -2 -10  288.17   21.50
  -5   2  10  264.97   22.60
  -5   2  10  239.28   22.70
  -5   2  10  205.28   32.40
   4  -2 -10  277.87   19.30
   4  -2 -10  264.47   20.50
  -4   2  10  184.78   19.10
  -4   2  10  215.58   18.70
  -4   2  10  193.58   17.60
  -4   2  10  317.67   33.80
   3  -2 -10    2.50    5.50
   3  -2 -10    3.40    5.90
  -3   2  10   34.50   15.50
  -3   2  10    5.90    5.80
  -3   2  10    3.20    6.20
  -3   2  10    1.40    4.90
   2  -2 -10    9.60    5.20
   2  -2 -10   13.80    6.60
   2  -2 -10   19.30    6.30
  -2   2  10   20.00    6.20
  -2   2  10   42.90   15.70
  -2   2  10   16.20    5.40
  -2   2  10    5.70    9.00
  -2   2  10   16.50    5.40
   1  -2 -10  125.19   10.90
   1  -2 -10  128.59   12.00
   1  -2 -10  121.89    8.70
   1  -2 -10  129.09   13.40
  -1   2  10  137.19   11.70
  -1   2  10  177.48   28.10
  -1   2  10  127.49   11.40
  -1   2  10  111.29   10.60
   0  -2 -10   22.60    5.10
   0  -2 -10   22.00    5.30
   0  -2 -10   16.00    4.60
   0  -2 -10   30.90    6.30
   0  -2 -10   23.20    5.00
   0   2  10   17.20    4.50
   0   2  10   22.20    5.30
   0   2  10   20.80   12.30
   0   2  10   32.20    5.60
   0   2  10   47.60   15.30
   0   2  10   19.30    5.70
  -1  -2 -10  129.79   12.70
  -1  -2 -10   93.89    9.70
  -1  -2 -10  104.49   11.00
  -1  -2 -10  121.29   10.10
   1   2  10  141.09   10.50
   1   2  10  117.39   10.40
   1   2  10  106.49    9.80
   1   2  10  101.59   16.50
   1   2  10  128.39   12.30
  -2  -2 -10 1632.44   88.09
  -2  -2 -10 1373.66   88.79
  -2  -2 -10 1624.84   87.49
  -2  -2 -10 1611.14   86.89
  -2  -2 -10 1700.23   89.09
   2   2  10 1693.03   91.29
   2   2  10 1577.24   87.49
   2   2  10 1720.93   86.99
   2   2  10 1611.54   86.59
  -3  -2 -10  399.36   27.30
  -3  -2 -10  359.46   25.20
  -3  -2 -10  385.96   22.50
  -3  -2 -10  390.96   22.10
  -3  -2 -10  362.86   25.20
  -3  -2 -10  379.86   25.20
   3   2  10  380.46   22.50
   3   2  10  389.76   23.10
   3   2  10  368.96   22.80
   3   2  10  377.16   22.60
   3   2  10  379.66   27.10
  -4  -2 -10    8.70    3.60
  -4  -2 -10    7.10    3.20
  -4  -2 -10   19.40    9.10
  -4  -2 -10    4.20   10.60
  -4  -2 -10   12.90    7.60
  -4  -2 -10    4.90    5.50
   4   2  10    8.00    4.80
   4   2  10   10.80    4.00
   4   2  10    5.60    4.10
   4   2  10    6.50    4.50
   4   2  10    4.90    4.30
   4   2  10   10.20    7.10
  -5  -2 -10   54.99   12.40
  -5  -2 -10   37.60    8.40
  -5  -2 -10   48.80    6.20
  -5  -2 -10   50.89    6.90
  -5  -2 -10   57.39    6.70
  -5  -2 -10   56.49   14.20
   5   2  10   40.20    8.20
   5   2  10   54.89    9.90
   5   2  10   60.89    7.80
   5   2  10   55.19    6.70
   5   2  10   55.39    6.60
   5   2  10   53.59    7.80
  -6  -2 -10   -0.70   13.70
  -6  -2 -10    4.90   16.30
  -6  -2 -10    0.70    4.30
  -6  -2 -10    2.70    3.70
   6   2  10   -2.00    4.20
   6   2  10   -2.10    6.70
   6   2  10    2.90    5.80
   6   2  10    9.00    6.40
   6   2  10   -0.40    4.90
   6   2  10    0.60    4.80
   6   2  10   -1.30    2.90
  -7  -2 -10    3.90   19.80
  -7  -2 -10   -2.00   19.60
  -7  -2 -10    2.80    4.90
  -7  -2 -10    7.40    4.40
   7   2  10    5.90    7.60
   7   2  10    6.60    6.00
   7   2  10    6.40    8.30
   7   2  10    1.30    6.10
   7   2  10    8.10    7.50
   5  -3 -10   48.60    8.40
   5  -3 -10   45.10    9.40
  -5   3  10   61.49   11.00
  -5   3  10   97.79   20.80
  -5   3  10   44.40   11.00
   4  -3 -10   42.60    7.70
   4  -3 -10   29.30    7.60
   4  -3 -10   44.80    9.70
  -4   3  10   40.50    9.50
  -4   3  10   33.30    7.70
  -4   3  10   42.70   26.30
  -4   3  10   95.69   19.70
  -4   3  10   46.50    7.50
   3  -3 -10   22.50    6.20
   3  -3 -10   18.80    7.10
   3  -3 -10   17.90    7.50
  -3   3  10   20.40    6.50
  -3   3  10   21.90    6.10
  -3   3  10   72.89   19.70
  -3   3  10   15.80    7.60
   2  -3 -10   93.39    9.80
   2  -3 -10   99.99   11.80
  -2   3  10  107.09   11.10
  -2   3  10   94.29   12.90
  -2   3  10  107.89   11.90
   1  -3 -10   81.09   10.30
   1  -3 -10   79.19    6.90
   1  -3 -10   77.89    8.80
   1  -3 -10   80.79   11.00
  -1   3  10   68.89    9.80
  -1   3  10   85.69   12.80
  -1   3  10   82.59    9.60
  -1   3  10  125.69   19.10
  -1   3  10   82.19   10.70
   0  -3 -10   35.70    6.20
   0  -3 -10   38.70    6.60
   0  -3 -10   41.30    6.40
   0   3  10   51.99    6.60
   0   3  10   43.90   16.50
   0   3  10   37.70    5.50
   0   3  10   34.00    5.40
  -1  -3 -10  631.84   36.40
  -1  -3 -10  577.74   35.80
  -1  -3 -10  635.44   36.40
  -1  -3 -10  657.73   35.60
   1   3  10  628.24   35.20
   1   3  10  584.64   34.70
   1   3  10  670.63   35.40
   1   3  10  597.84   36.60
  -2  -3 -10  516.55   31.40
  -2  -3 -10  506.25   29.90
  -2  -3 -10  532.95   32.30
  -2  -3 -10  536.75   31.00
   2   3  10  526.85   29.90
   2   3  10  516.35   29.70
   2   3  10  513.35   30.70
  -3  -3 -10   27.30    6.90
  -3  -3 -10   29.80    5.00
  -3  -3 -10   32.80    8.50
  -3  -3 -10   33.50    6.70
  -3  -3 -10   11.80    7.90
   3   3  10   28.30    5.20
   3   3  10   28.20    5.00
   3   3  10   31.20   10.00
   3   3  10   24.70    5.30
   3   3  10   30.60    5.00
  -4  -3 -10   23.70    8.10
  -4  -3 -10   16.40    9.40
  -4  -3 -10   16.20    6.90
  -4  -3 -10   13.20    6.60
   4   3  10   19.10    7.90
   4   3  10   15.70    5.10
   4   3  10   14.60    4.70
   4   3  10   17.50    5.40
   4   3  10   23.20    5.10
   4   3  10   11.40    4.00
  -5  -3 -10   12.50    4.50
  -5  -3 -10   16.90   12.00
  -5  -3 -10   12.80    7.60
  -5  -3 -10   11.80    4.00
  -5  -3 -10   13.80    5.60
  -5  -3 -10   25.50   11.00
   5   3  10   14.70    4.40
   5   3  10   15.90    7.30
   5   3  10   11.70    5.10
   5   3  10   13.30    5.50
   5   3  10   14.20    6.20
  -6  -3 -10    5.40   14.10
  -6  -3 -10   -1.80    4.40
  -6  -3 -10   -1.00    8.10
  -6  -3 -10    2.40    3.90
  -6  -3 -10    1.40    4.90
  -6  -3 -10    8.40   12.80
   6   3  10    4.80    6.10
   6   3  10    6.00    4.20
   6   3  10   -0.70    5.30
   6   3  10    5.70    6.10
   6   3  10    2.30    5.40
   6   3  10    1.20    6.80
   6   3  10   -1.40    2.60
  -7  -3 -10   23.20    5.00
  -7  -3 -10   22.30    4.70
  -7  -3 -10   30.60   18.70
   7   3  10   27.40    7.10
   7   3  10   26.20    9.00
   7   3  10   30.90    8.40
   7   3  10   27.70    7.10
   7   3  10   25.80    4.80
   4  -4 -10   -0.50    7.00
   4  -4 -10   -1.30    5.80
   4  -4 -10    7.70   10.70
  -4   4  10    7.40    6.30
  -4   4  10   -6.20   19.60
  -4   4  10    0.30    7.30
  -4   4  10   -0.70    8.40
   3  -4 -10   39.70    7.10
   3  -4 -10   50.29    8.80
  -3   4  10   45.60    7.40
  -3   4  10    3.20   17.20
  -3   4  10   51.99    7.80
  -3   4  10   49.99   20.30
  -3   4  10   47.40    9.40
   2  -4 -10  101.19    8.50
   2  -4 -10   74.09   11.80
   2  -4 -10   81.89   10.60
   2  -4 -10  100.59   11.60
  -2   4  10  106.49   11.60
  -2   4  10  109.19   12.30
  -2   4  10   93.99   14.10
   1  -4 -10   39.70    6.60
   1  -4 -10   38.60    5.40
   1  -4 -10   41.30    4.90
  -1   4  10   57.79   20.60
  -1   4  10   36.50    6.80
  -1   4  10   26.20    5.50
  -1   4  10   40.90    6.70
   0  -4 -10  360.86   21.70
   0  -4 -10  425.06   24.60
   0  -4 -10  356.96   24.60
   0  -4 -10  414.26   24.30
   0   4  10  396.56   37.00
   0   4  10  410.36   24.20
   0   4  10  423.56   24.30
   0   4  10  400.76   23.80
  -1  -4 -10  641.74   36.60
  -1  -4 -10  650.13   36.20
  -1  -4 -10  630.24   37.60
  -1  -4 -10  628.44   36.30
   1   4  10  589.74   35.10
   1   4  10  611.64   35.60
   1   4  10  640.34   35.70
  -2  -4 -10   80.69    9.90
  -2  -4 -10   95.89   13.60
  -2  -4 -10   93.89   11.90
  -2  -4 -10   82.89   13.50
   2   4  10   94.59    9.70
   2   4  10   86.79    9.90
  -3  -4 -10   37.60    7.70
  -3  -4 -10   46.50    9.90
  -3  -4 -10   47.30    7.50
  -3  -4 -10   41.60    5.90
   3   4  10   54.49    6.70
   3   4  10   41.70    5.70
   3   4  10   52.09   11.00
   3   4  10   44.30    6.10
   3   4  10   32.90    6.50
   3   4  10   40.40    5.90
  -4  -4 -10   36.90    8.40
  -4  -4 -10   20.80    7.00
  -4  -4 -10   31.50    5.50
  -4  -4 -10   35.90   11.30
  -4  -4 -10   22.50    7.80
   4   4  10   24.50    6.10
   4   4  10   26.70    5.30
   4   4  10   34.00    6.20
   4   4  10   21.70    5.20
   4   4  10   28.40    4.80
   4   4  10   21.50    7.80
  -5  -4 -10   10.80    9.30
  -5  -4 -10   -1.00   11.80
  -5  -4 -10   -3.10    7.20
  -5  -4 -10    2.50    6.10
  -5  -4 -10    6.80    5.10
   5   4  10    1.50    5.80
   5   4  10    5.40    3.80
   5   4  10   -2.50    4.30
   5   4  10    4.00    5.80
   5   4  10   -2.60    4.90
   5   4  10    3.10    6.90
  -6  -4 -10    7.90    5.70
  -6  -4 -10   16.30   13.70
  -6  -4 -10    9.30    5.10
  -6  -4 -10   12.10    9.10
  -6  -4 -10   -0.10   28.70
   6   4  10    6.50    5.80
   6   4  10   10.40    7.20
   6   4  10    7.80    6.50
   6   4  10   10.00    2.60
   6   4  10   -0.20    6.50
  -7  -4 -10   52.99   17.20
  -7  -4 -10   50.39   12.30
  -7  -4 -10   52.49    8.20
  -7  -4 -10   52.39   19.80
  -7  -4 -10   51.89    5.60
   7   4  10   64.79    9.10
   7   4  10   57.39    5.80
   7   4  10   51.39    8.70
   7   4  10   54.29    9.80
   7   4  10  105.89   14.10
   3  -5 -10   30.70    9.20
   3  -5 -10   23.30    7.10
  -3   5  10   24.10    6.50
  -3   5  10   26.10    9.50
  -3   5  10   34.50    8.10
   2  -5 -10   65.89    7.40
   2  -5 -10   62.29    8.00
   2  -5 -10   72.59    8.40
  -2   5  10   62.39   11.00
  -2   5  10   69.39   10.90
  -2   5  10   60.89   18.00
  -2   5  10   55.69    8.30
   1  -5 -10    4.00    5.00
   1  -5 -10    6.90    4.60
   1  -5 -10    6.60    5.10
   1  -5 -10    7.60    6.10
   1  -5 -10    3.30    4.60
  -1   5  10    7.60   13.30
  -1   5  10   13.10    7.60
  -1   5  10   10.00    6.40
  -1   5  10    7.30    5.10
   0  -5 -10  321.97   21.60
   0  -5 -10  346.67   20.90
   0  -5 -10  324.97   20.90
   0  -5 -10  317.27   18.70
   0   5  10  326.77   21.20
   0   5  10  306.27   20.60
   0   5  10  343.07   21.10
  -1  -5 -10  163.48   14.30
  -1  -5 -10  149.79   12.30
  -1  -5 -10  162.38   14.40
  -1  -5 -10  166.28   17.30
   1   5  10  158.98   12.80
   1   5  10  163.88   13.20
   1   5  10  141.39   13.00
  -2  -5 -10   62.69    7.00
  -2  -5 -10   51.49    9.00
  -2  -5 -10   55.89    9.20
  -2  -5 -10   57.79    7.90
  -2  -5 -10   65.89    7.70
   2   5  10   59.29    7.10
   2   5  10   56.09    7.20
   2   5  10   49.99    6.70
  -3  -5 -10   31.50    7.20
  -3  -5 -10   37.70    8.90
  -3  -5 -10   51.69   10.40
  -3  -5 -10   40.90    6.10
  -3  -5 -10   42.60    6.20
   3   5  10   47.00    6.50
   3   5  10   32.60    6.00
   3   5  10   47.10    9.90
   3   5  10   47.70    6.20
   3   5  10   48.50    7.60
  -4  -5 -10   -0.10    5.00
  -4  -5 -10    0.00    8.30
  -4  -5 -10    2.00   10.40
  -4  -5 -10   -0.50    6.50
   4   5  10   -5.80    6.90
   4   5  10   -2.10    4.60
   4   5  10    0.20    5.10
   4   5  10   -7.80    4.80
  -5  -5 -10   22.70    8.30
  -5  -5 -10   18.10   10.20
  -5  -5 -10   11.10   12.10
  -5  -5 -10   15.10    6.20
  -5  -5 -10   18.90    7.60
   5   5  10   15.50    6.00
   5   5  10   14.20    7.00
   5   5  10   16.40    6.10
   5   5  10   23.10    6.20
  -6  -5 -10   25.40    7.10
  -6  -5 -10   22.70    6.40
  -6  -5 -10   13.10   15.80
  -6  -5 -10   17.90    9.40
   6   5  10   18.90    7.20
   6   5  10   25.50    7.20
   6   5  10    9.90    7.00
   6   5  10   23.10    7.30
   2  -6 -10   25.80    4.30
   2  -6 -10   18.60    8.30
   2  -6 -10   28.20    6.70
  -2   6  10   25.50    6.50
  -2   6  10   30.50    7.90
  -2   6  10   23.30   10.80
   1  -6 -10   83.19   10.00
   1  -6 -10   80.59   10.40
   1  -6 -10   94.79   12.00
  -1   6  10   98.59   11.60
  -1   6  10  110.79   17.30
  -1   6  10  108.59   12.80
   0  -6 -10   87.19   11.00
   0  -6 -10   88.79    9.40
   0  -6 -10   94.99   12.20
   0   6  10   68.29   14.20
   0   6  10   89.19   12.00
   0   6  10   96.29   11.80
   0   6  10   94.79   11.40
  -1  -6 -10    2.30    5.80
  -1  -6 -10    0.50    5.70
  -1  -6 -10    7.00    5.70
  -1  -6 -10    7.40    6.50
  -1  -6 -10    4.60    8.40
   1   6  10    1.20   11.90
   1   6  10    4.00    5.10
   1   6  10    1.70    4.90
   1   6  10    8.80    5.20
  -2  -6 -10   39.60    7.30
  -2  -6 -10   61.59    8.00
  -2  -6 -10   49.30   10.70
  -2  -6 -10   64.59    7.90
  -2  -6 -10   56.89    9.50
   2   6  10   53.69    6.60
   2   6  10   56.09    7.00
   2   6  10   50.69    8.40
   2   6  10   41.30    6.40
  -3  -6 -10    7.50    9.40
  -3  -6 -10    2.20    8.30
  -3  -6 -10    5.00    6.40
   3   6  10    6.70    5.00
   3   6  10    1.10    5.10
   3   6  10    6.60    5.40
   3   6  10    9.40    6.50
  -4  -6 -10   90.89   14.00
  -4  -6 -10  115.09   15.60
   4   6  10  109.19   12.00
   4   6  10   75.29   11.60
   4   6  10   90.69   10.40
   4   6  10   95.29   11.80
  -5  -6 -10    3.00   14.10
  -5  -6 -10   -3.60   11.00
  -5  -6 -10    4.00    7.90
   5   6  10    5.20    6.00
   5   6  10    2.60    7.50
   5   6  10   -1.30    6.20
   5   6  10    1.20    8.60
  -6  -6 -10  128.39   21.30
  -6  -6 -10  130.09   19.60
  -6  -6 -10  145.69   15.30
   6   6  10  133.59   16.50
   6   6  10  145.19   15.40
   6   6  10  126.79   15.40
   6   6  10  124.59    9.00
   1  -7 -10  100.39   13.40
   1  -7 -10   95.69   10.80
   1  -7 -10   86.89   10.40
  -1   7  10   98.09   19.00
  -1   7  10   87.59   12.70
  -1   7  10   97.89   14.30
   0  -7 -10    1.60    6.20
   0  -7 -10   -2.60    6.50
   0  -7 -10    3.50    6.40
   0   7  10    4.70    7.00
   0   7  10    1.30    6.80
   0   7  10    4.00    9.40
   0   7  10    1.40    9.00
  -1  -7 -10    6.70    8.00
  -1  -7 -10    8.80    7.10
  -1  -7 -10   -0.60   11.90
   1   7  10    8.10    8.80
   1   7  10    7.40    6.70
   1   7  10    7.70    8.70
   1   7  10    7.90    6.40
  -2  -7 -10    1.00    7.90
  -2  -7 -10   -0.80   11.40
  -2  -7 -10   -7.20   10.50
   2   7  10   -2.10    5.70
   2   7  10   -2.10    9.40
   2   7  10    5.60    8.50
   2   7  10    1.80    5.40
  -3  -7 -10   12.40   11.50
  -3  -7 -10   24.40   10.00
  -3  -7 -10   16.80   13.10
   3   7  10   18.70    6.20
   3   7  10   23.80    9.00
   3   7  10   11.60    7.00
   3   7  10   16.10    6.20
  -4  -7 -10    7.50   11.10
  -4  -7 -10    5.60    8.70
   4   7  10   13.40    8.00
   4   7  10    9.40    3.20
   4   7  10    7.40    8.40
   4   7  10    3.60    5.70
   4   7  10   -2.00    6.30
  -5  -7 -10    7.90   13.50
  -5  -7 -10    0.60    8.50
   5   7  10    9.40    3.50
   5   7  10   11.50    9.00
   5   7  10   21.20    7.50
   5   7  10    1.90    6.60
   5   7  10    2.80    7.10
  -2  -8 -10   12.30    7.40
  -2  -8 -10   21.60    9.60
   2   8  10   11.30    6.60
   2   8  10   13.00    9.00
   2   8  10    8.30    6.10
  -3  -8 -10   65.89    9.70
   3   8  10   51.79    8.50
   3   8  10   45.60    8.00
   3   5 -11   84.89   11.20
   3   5 -11   70.09   12.30
   3   5 -11   84.79   10.80
   3   5 -11   63.09   12.50
   3   5 -11   71.59   17.30
  -3  -5  11  130.89   19.70
  -3  -5  11  107.49   15.30
   2   5 -11   37.70    7.60
   2   5 -11   26.40    7.30
   2   5 -11   35.00    7.80
   2   5 -11   39.10   13.20
  -2  -5  11   60.09   11.70
  -2  -5  11   43.10   15.00
  -2  -5  11   26.90   11.00
   1   5 -11   27.30    7.50
   1   5 -11   29.10   12.10
   1   5 -11   29.90    7.10
  -1  -5  11   29.50   10.20
  -1  -5  11   37.00   10.30
  -1  -5  11   16.20    9.50
   0   5 -11  125.69   15.20
   0   5 -11  156.88   13.10
   0  -5  11  145.39   17.60
   0  -5  11  108.69   16.30
  -1   5 -11  126.49   11.50
  -1   5 -11  137.99   18.90
  -1   5 -11  120.59   12.60
   1  -5  11  109.89   12.40
   1  -5  11  107.49   17.30
   1  -5  11  126.99   16.40
   1  -5  11  105.29   14.00
   1  -5  11  129.79   10.50
  -2   5 -11   45.50    7.20
  -2   5 -11   68.99   10.40
  -2   5 -11   84.69    8.50
   2  -5  11   52.29    7.50
   2  -5  11   51.89   10.30
   2  -5  11   65.89   15.30
   2  -5  11   42.00    9.70
   2  -5  11   65.59    9.10
   2  -5  11   52.29   14.60
   4   4 -11   70.09   16.70
   4   4 -11   95.59   13.70
   4   4 -11   40.80   19.10
   4   4 -11   62.89   11.40
  -4  -4  11  110.09   17.10
   3   4 -11   98.19   13.40
   3   4 -11   95.69   18.40
   3   4 -11  103.39   15.40
   3   4 -11  112.09   14.20
   3   4 -11  105.19   14.70
  -3  -4  11  175.88   27.40
   2   4 -11    0.20    7.00
   2   4 -11    3.70   12.70
   2   4 -11    5.80    7.80
   2   4 -11   13.20    6.10
  -2  -4  11   12.20    8.00
  -2  -4  11   19.20    9.50
   1   4 -11  170.78   13.40
   1   4 -11  179.68   13.10
   1   4 -11  164.18   14.30
   1   4 -11  169.48   22.60
   1   4 -11  182.18   14.00
  -1  -4  11  194.08   17.70
  -1  -4  11  238.08   19.50
  -1  -4  11  190.68   17.80
   0   4 -11   41.30    7.10
   0   4 -11   42.40    9.90
   0   4 -11   40.80    6.30
   0  -4  11   37.90    5.40
   0  -4  11   36.80    8.00
   0  -4  11   43.90    8.90
   0  -4  11   38.20    6.50
   0  -4  11   35.20    9.00
  -1   4 -11   37.70    6.10
  -1   4 -11   30.90    5.70
  -1   4 -11   45.90   10.50
   1  -4  11   18.70    7.70
   1  -4  11   18.60    8.00
   1  -4  11   33.60    7.40
   1  -4  11   31.30   10.40
   1  -4  11   36.50    5.20
  -2   4 -11    7.20    7.70
  -2   4 -11    3.70    4.90
  -2   4 -11    8.00    5.70
   2  -4  11   -2.10    6.10
   2  -4  11   -2.40    7.30
   2  -4  11    6.60   12.90
   2  -4  11    4.20    4.60
   2  -4  11    7.10    6.50
  -3   4 -11   12.10    7.90
  -3   4 -11    2.80    5.40
   3  -4  11   -0.90    5.50
   3  -4  11    1.30    7.40
   3  -4  11    9.30    7.00
   3  -4  11    3.90    5.10
   3  -4  11    9.10   16.00
   5   3 -11  -13.10   15.10
   5   3 -11   37.70   15.80
   5   3 -11   26.00   14.00
  -5  -3  11   36.60   11.50
  -5  -3  11   29.40   11.70
  -5  -3  11    5.70   12.70
   4   3 -11  264.97   31.20
   4   3 -11  295.17   23.70
   4   3 -11  256.27   24.00
   3   3 -11   15.80    7.10
   3   3 -11   -0.30   14.80
   3   3 -11   10.00    9.30
   3   3 -11   13.20    8.60
   3   3 -11   13.10   12.80
  -3  -3  11   -1.40   10.90
  -3  -3  11   29.20    8.70
  -3  -3  11   38.90   10.30
   2   3 -11   29.60   10.80
   2   3 -11   40.50    6.70
   2   3 -11   39.30    7.70
   2   3 -11   26.50   14.10
   2   3 -11   37.80    8.00
  -2  -3  11   64.49   10.00
  -2  -3  11   32.90    7.70
  -2  -3  11   35.70    8.40
   1   3 -11  102.49   14.10
   1   3 -11  125.19   16.80
   1   3 -11  112.99   11.60
   1   3 -11  116.29   10.70
   1   3 -11  125.49   12.10
  -1  -3  11  136.89   15.10
  -1  -3  11  114.89   10.40
  -1  -3  11  167.18   15.70
  -1  -3  11  143.29   13.50
   0   3 -11   16.40    3.70
   0   3 -11   19.00    3.30
   0   3 -11   18.00    5.70
   0   3 -11   18.30    4.70
   0   3 -11   11.20    9.00
   0  -3  11   15.00    4.70
   0  -3  11   12.80    7.30
   0  -3  11   19.20    8.80
   0  -3  11   17.30    7.00
   0  -3  11   13.00   11.50
   0  -3  11   15.60    5.90
  -1   3 -11   61.49    8.10
  -1   3 -11   68.29    9.70
  -1   3 -11   64.59   10.00
   1  -3  11   39.20    8.50
   1  -3  11   72.19    8.00
   1  -3  11   58.49   12.30
   1  -3  11   65.49    8.80
   1  -3  11   74.29   10.60
  -2   3 -11   23.60    8.20
  -2   3 -11   16.90    5.10
   2  -3  11   12.90    6.90
   2  -3  11   15.60    4.80
   2  -3  11   17.60   12.80
   2  -3  11   14.40    5.70
   2  -3  11   13.00    6.30
  -3   3 -11   86.59    9.70
  -3   3 -11   98.39   14.40
   3  -3  11  106.89   11.50
   3  -3  11   99.19   11.10
   3  -3  11   78.39   12.10
   3  -3  11   93.49   17.90
   3  -3  11   95.59   10.00
  -4   3 -11   22.60    7.00
  -4   3 -11   15.20    5.70
   4  -3  11   21.40    6.20
   4  -3  11   13.50    6.10
   4  -3  11   19.30    5.80
   4  -3  11   20.80    6.20
   4  -3  11   22.20    5.10
   4  -3  11   15.20   17.30
   5   2 -11  228.08   24.80
  -5  -2  11  235.58   24.10
  -5  -2  11  277.57   25.30
  -5  -2  11  283.27   30.30
   4   2 -11   60.19   13.30
   4   2 -11   61.59   18.70
  -4  -2  11  145.49   25.20
  -4  -2  11  115.89   16.30
  -4  -2  11  100.29   12.20
   3   2 -11  -11.10   11.60
   3   2 -11    2.30    6.70
   3   2 -11   25.80   12.90
   3   2 -11    0.70    7.90
   3   2 -11   -4.40    8.10
   3   2 -11  -27.30   13.80
  -3  -2  11    1.90    6.40
  -3  -2  11   11.60    8.20
  -3  -2  11   12.10   11.80
   2   2 -11  115.19   10.90
   2   2 -11   80.69   16.20
   2   2 -11   98.29   15.40
   2   2 -11  121.39   12.70
   2   2 -11  108.39   13.90
  -2  -2  11  114.09   12.90
  -2  -2  11  151.18   16.00
   1   2 -11   11.80    4.30
   1   2 -11    1.30   10.70
   1   2 -11    7.50    5.70
   1   2 -11    2.70    9.10
  -1  -2  11    6.40    4.80
  -1  -2  11   15.60   11.60
  -1  -2  11    8.40    5.40
  -1  -2  11    6.20    6.40
  -1  -2  11    0.00    7.30
   0   2 -11   71.19    7.60
   0   2 -11   59.89    8.00
   0   2 -11   62.29    7.00
   0   2 -11   52.79   11.10
   0   2 -11   52.09    8.00
   0  -2  11   66.29    8.00
   0  -2  11   58.09    9.10
   0  -2  11   56.79    7.20
   0  -2  11   47.70   14.10
   0  -2  11   59.09    7.80
  -1   2 -11   31.60    6.00
  -1   2 -11   36.60    4.50
  -1   2 -11   28.90    8.60
   1  -2  11   32.00    7.60
   1  -2  11   34.40    5.90
   1  -2  11   33.20    6.00
   1  -2  11   35.50    5.10
  -2   2 -11  126.09   15.10
  -2   2 -11  104.99    9.30
  -2   2 -11  116.89   11.10
   2  -2  11   99.19   11.90
   2  -2  11  123.99   11.20
   2  -2  11  114.69   20.10
   2  -2  11  122.59   10.00
   2  -2  11  105.19   12.60
   2  -2  11  124.39   11.30
  -3   2 -11  112.59   13.60
   3  -2  11  101.29   10.50
   3  -2  11  101.29   10.10
   3  -2  11  100.49   10.70
   3  -2  11   84.99   10.90
   3  -2  11   86.29   15.50
  -4   2 -11   -2.70    4.80
  -4   2 -11   18.90   28.90
  -4   2 -11    6.60    6.40
   4  -2  11    5.30    5.20
   4  -2  11    6.30   14.50
   4  -2  11    5.30    5.10
   4  -2  11    4.10    5.20
   4  -2  11   -2.40    5.30
  -5   2 -11   18.80    5.70
  -5   2 -11   18.00    6.60
  -5   2 -11   14.30   18.30
   5  -2  11   17.00    6.10
   5  -2  11   18.60    5.10
   5  -2  11   17.30    4.90
   5  -2  11   18.50    9.10
   5  -2  11   17.20    5.90
   5  -2  11   12.20    5.10
   5  -2  11   18.50    6.60
   5   1 -11  138.39   19.00
  -5  -1  11  183.38   23.70
  -5  -1  11  149.59   20.00
  -5  -1  11  146.29   17.90
  -5  -1  11  153.78   19.20
   4   1 -11   32.70   11.70
   4   1 -11   25.20   10.30
   4   1 -11   37.10   15.80
   4   1 -11   18.10   13.30
  -4  -1  11   63.69   13.60
  -4  -1  11   31.50    8.90
  -4  -1  11   28.00    7.60
   3   1 -11    7.80    7.50
   3   1 -11   22.40    8.10
   3   1 -11   18.50    8.70
   3   1 -11   19.00   16.30
  -3  -1  11   20.70    5.80
  -3  -1  11   31.60    8.30
  -3  -1  11   20.80    6.90
  -3  -1  11   37.10   12.80
   2   1 -11    2.60   14.00
   2   1 -11   30.10    7.40
   2   1 -11   19.00    6.90
   2   1 -11   34.20    7.70
  -2  -1  11   48.60   12.90
  -2  -1  11   27.70    5.20
  -2  -1  11   42.90    9.60
  -2  -1  11   26.60    6.20
  -2  -1  11   31.80    7.60
   1   1 -11  189.58   12.10
   1   1 -11  171.28   14.20
   1   1 -11  220.18   24.40
   1   1 -11  163.48   19.50
   1   1 -11  177.08   14.70
  -1  -1  11  185.58   13.20
  -1  -1  11  190.08   14.50
  -1  -1  11  198.88   15.00
   0   1 -11  164.08   20.40
   0   1 -11  198.88   11.90
   0   1 -11  187.68   22.90
   0   1 -11  197.88   14.00
   0   1 -11  194.28   14.10
   0  -1  11  208.08   14.70
   0  -1  11  200.08   14.50
   0  -1  11  187.68   13.20
   0  -1  11  204.48   23.50
  -1   1 -11   67.89    9.00
  -1   1 -11   93.19    7.90
  -1   1 -11   90.29   12.30
  -1   1 -11   84.69    9.10
  -1   1 -11   86.09    6.50
   1  -1  11  107.09   16.40
   1  -1  11   95.89   10.30
   1  -1  11   89.59    8.80
   1  -1  11   72.59   11.70
   1  -1  11  101.19   10.10
  -2   1 -11  498.55   31.40
  -2   1 -11  452.25   27.30
  -2   1 -11  490.05   28.40
  -2   1 -11  527.15   33.50
   2  -1  11  481.45   27.90
   2  -1  11  507.95   28.50
   2  -1  11  486.25   28.50
   2  -1  11  488.65   29.40
  -3   1 -11  109.19   13.60
  -3   1 -11  117.59   19.50
  -3   1 -11   86.99    8.60
  -3   1 -11  101.39   10.60
   3  -1  11  108.89   10.00
   3  -1  11   86.49   10.40
   3  -1  11  108.89   10.30
   3  -1  11  100.69   10.40
  -4   1 -11   41.20   13.50
  -4   1 -11   31.50    6.80
  -4   1 -11   15.90    4.50
   4  -1  11   25.90   12.50
   4  -1  11   31.30    5.60
   4  -1  11   30.70    6.30
   4  -1  11   27.60    5.60
   4  -1  11   30.90    5.50
  -5   1 -11    1.50   16.30
  -5   1 -11    3.20    5.70
   5  -1  11    5.20    4.80
   5  -1  11    4.50    5.30
   5  -1  11   -0.90    5.00
   5  -1  11    0.40    3.70
   5  -1  11   -3.70    4.40
   5  -1  11    3.30    6.00
   5  -1  11    3.90    5.10
   5   0 -11  214.58   30.80
   5   0 -11  232.38   25.60
  -5   0  11  210.68   21.50
  -5   0  11  156.58   18.90
  -5   0  11  166.88   20.00
   4   0 -11    8.00   10.40
   4   0 -11   -3.00   10.00
  -4   0  11    2.60    8.40
  -4   0  11   -3.40    6.10
  -4   0  11    4.20    6.70
   3   0 -11   31.20   11.10
   3   0 -11   -8.40    9.20
  -3   0  11    4.40    7.20
  -3   0  11   -5.00   11.00
  -3   0  11    3.00    5.40
  -3   0  11    6.20    5.70
   2   0 -11  100.39   12.50
   2   0 -11  118.99   16.50
   2   0 -11   84.69   13.10
  -2   0  11   98.89   12.10
  -2   0  11  101.89   11.60
  -2   0  11  103.69   10.50
   1   0 -11  223.48   13.40
   1   0 -11  234.88   16.80
   1   0 -11  205.78   25.90
   1   0 -11  211.38   15.90
  -1   0  11  201.38   14.70
  -1   0  11  222.68   19.70
  -1   0  11  226.28   16.00
  -1   0  11  230.58   16.00
   0   0 -11  101.69   10.30
   0   0 -11   77.19    9.80
   0   0 -11   65.99   13.00
   0   0  11   98.59   10.30
   0   0  11   81.39   10.50
   0   0  11   94.29   15.00
   0   0  11  102.99   10.70
   0   0  11   83.39    9.20
  -1   0 -11  618.24   35.70
  -1   0 -11  611.04   40.50
  -1   0 -11  553.74   40.00
  -1   0 -11  616.64   38.00
  -1   0 -11  654.03   35.30
   1   0  11  746.83   44.20
   1   0  11  591.44   35.10
   1   0  11  680.23   35.90
   1   0  11  638.44   37.30
   1   0  11  610.24   35.80
  -2   0 -11  224.18   15.70
  -2   0 -11  246.48   20.50
  -2   0 -11  217.48   19.60
  -2   0 -11  238.18   14.20
   2   0  11  172.18   23.80
   2   0  11  226.28   15.40
   2   0  11  216.48   16.40
   2   0  11  251.57   15.90
   2   0  11  254.87   15.80
  -3   0 -11    6.00    9.90
  -3   0 -11    5.00    5.10
  -3   0 -11    5.70    3.40
  -3   0 -11   10.30    6.50
   3   0  11    6.00    4.70
   3   0  11    1.50    4.50
   3   0  11   -2.70    4.20
   3   0  11    0.80    4.40
   3   0  11    0.30   12.30
  -4   0 -11    9.20    5.80
  -4   0 -11    6.80   11.10
  -4   0 -11    3.20    3.30
   4   0  11    4.90    4.60
   4   0  11   12.10    4.90
   4   0  11    1.80    4.50
   4   0  11    7.40    5.50
  -5   0 -11    1.40   18.20
  -5   0 -11   -0.40    3.80
  -5   0 -11    6.70    5.50
   5   0  11   -2.10    4.90
   5   0  11    1.10    4.50
   5   0  11    1.70    4.70
   5   0  11    3.80    2.90
   5   0  11    6.00    5.10
   5   0  11    3.80    6.00
  -6   0 -11    1.60    5.50
  -6   0 -11   20.20   19.30
   6   0  11   -2.60    5.50
   6   0  11   13.20    7.10
   6   0  11   -2.80    6.00
   6   0  11    6.60    5.50
   6   0  11    5.00    6.00
   6   0  11   -0.80    4.00
   6   0  11   -0.90   10.40
   5  -1 -11   55.59   11.20
  -5   1  11   64.69   11.60
  -5   1  11   43.50    9.70
  -5   1  11   42.60   10.50
   4  -1 -11    6.60    8.50
   4  -1 -11    5.40    8.30
  -4   1  11    3.80    7.30
  -4   1  11    2.80    7.90
  -4   1  11   -3.60    9.90
  -4   1  11   -5.50    5.70
   3  -1 -11    9.00    7.30
   3  -1 -11   35.80    9.00
   3  -1 -11   18.70    7.40
  -3   1  11   17.30    6.40
  -3   1  11   14.30    6.50
  -3   1  11    8.40    6.40
  -3   1  11   23.20   12.00
   2  -1 -11  210.98   17.70
  -2   1  11  220.98   15.90
  -2   1  11  204.48   15.90
  -2   1  11  217.58   16.00
   1  -1 -11    3.10    5.00
   1  -1 -11   -4.90    4.70
   1  -1 -11   20.60   11.70
   1  -1 -11    2.10    5.20
   1  -1 -11   10.20    8.00
  -1   1  11    5.10   11.50
  -1   1  11    6.80    4.70
  -1   1  11   -1.60    4.30
  -1   1  11    2.20    5.20
   0  -1 -11  373.96   24.00
   0  -1 -11  389.96   23.30
   0  -1 -11  388.56   25.00
   0  -1 -11  418.46   24.60
   0  -1 -11  383.36   32.00
   0   1  11  403.96   24.10
   0   1  11  430.66   24.20
   0   1  11  389.26   23.20
   0   1  11  377.46   26.40
  -1  -1 -11  598.24   34.10
  -1  -1 -11  609.64   36.00
  -1  -1 -11  630.44   34.10
  -1  -1 -11  548.85   33.60
  -1  -1 -11  501.95   38.70
   1   1  11  619.84   34.10
   1   1  11  587.04   33.40
   1   1  11  652.13   34.20
   1   1  11  604.84   35.50
  -2  -1 -11   68.69   13.20
  -2  -1 -11   47.00    6.30
  -2  -1 -11   71.59   13.30
  -2  -1 -11   55.39   10.60
  -2  -1 -11   62.89    7.90
   2   1  11   70.39    8.90
   2   1  11   51.99    7.30
   2   1  11   70.89    9.20
   2   1  11   63.99   14.60
   2   1  11   71.29    9.30
  -3  -1 -11    6.70    8.00
  -3  -1 -11   -1.40    8.40
  -3  -1 -11   16.50    7.30
  -3  -1 -11    9.10    3.70
  -3  -1 -11    8.80    8.50
   3   1  11    9.80    5.00
   3   1  11    7.60    4.50
   3   1  11    7.90    4.40
   3   1  11    8.10    4.80
  -4  -1 -11    7.60   10.60
  -4  -1 -11    6.80    4.50
  -4  -1 -11    5.70   10.90
  -4  -1 -11    6.70    3.70
  -4  -1 -11    7.90    6.10
   4   1  11   11.10    4.50
   4   1  11    9.00    4.70
   4   1  11   14.90    9.10
   4   1  11    7.70    5.30
   4   1  11    5.70   21.10
   4   1  11    9.90    5.10
  -5  -1 -11   52.89    6.90
  -5  -1 -11   44.20    5.30
  -5  -1 -11   39.30   15.30
  -5  -1 -11   53.39   15.60
   5   1  11   47.70    6.70
   5   1  11   52.79    6.60
   5   1  11   48.80    6.70
   5   1  11   52.29    7.60
   5   1  11   58.39   10.40
  -6  -1 -11   -3.60   17.20
  -6  -1 -11   -2.00    5.40
  -6  -1 -11   -1.30    4.40
   6   1  11    5.10    5.50
   6   1  11   -2.70    5.50
   6   1  11    8.50    6.80
   6   1  11   -2.10    5.90
   6   1  11   -3.20    3.10
   6   1  11    4.20    9.70
   6   1  11    2.00    5.80
   4  -2 -11   30.90    9.00
   4  -2 -11   23.40    8.30
  -4   2  11   22.10    8.60
  -4   2  11   14.90    7.90
  -4   2  11   22.10    8.90
   3  -2 -11  124.39   14.40
   3  -2 -11  119.09   14.90
  -3   2  11   95.09   12.10
  -3   2  11   89.89   13.30
  -3   2  11   84.89   13.50
   2  -2 -11   66.19   11.10
   2  -2 -11   61.79    8.80
  -2   2  11   61.99    8.20
  -2   2  11   59.99    8.40
  -2   2  11   57.99    7.60
   1  -2 -11   91.09    7.50
   1  -2 -11   91.99   13.70
   1  -2 -11   93.39   11.90
   1  -2 -11   88.39   10.20
  -1   2  11   97.09   11.40
  -1   2  11  101.19   11.20
  -1   2  11   82.59   10.30
   0  -2 -11  671.23   40.90
   0  -2 -11  708.63   41.20
   0  -2 -11  731.03   41.30
   0  -2 -11  733.03   41.40
   0  -2 -11  808.42   42.60
   0   2  11  661.43   47.50
   0   2  11  745.13   40.80
   0   2  11  679.73   40.10
   0   2  11  756.02   40.80
  -1  -2 -11  518.95   29.30
  -1  -2 -11  536.45   31.40
  -1  -2 -11  432.86   34.90
  -1  -2 -11  494.35   29.60
  -1  -2 -11  486.35   28.90
  -1  -2 -11  476.15   30.30
   1   2  11  548.65   40.20
   1   2  11  455.95   28.30
   1   2  11  492.45   29.10
   1   2  11  494.05   30.90
   1   2  11  522.35   29.10
  -2  -2 -11    2.60    4.70
  -2  -2 -11  -11.80    8.70
  -2  -2 -11   -1.10    7.30
  -2  -2 -11    4.30    7.50
  -2  -2 -11    1.90    4.20
  -2  -2 -11   10.10    5.90
   2   2  11    0.10    4.90
   2   2  11    5.40    5.00
   2   2  11    2.20    4.30
   2   2  11    2.50    4.50
   2   2  11   -6.20   11.80
  -3  -2 -11    1.40    8.70
  -3  -2 -11   12.80    7.40
  -3  -2 -11    2.90    7.80
  -3  -2 -11    0.70    8.10
  -3  -2 -11    5.80    4.20
   3   2  11    1.90    4.30
   3   2  11    6.50    4.50
   3   2  11   -0.60    8.20
   3   2  11   -1.40    3.90
  -4  -2 -11   52.79   13.10
  -4  -2 -11   35.60    9.60
  -4  -2 -11   32.70    5.90
  -4  -2 -11   31.10   11.30
  -4  -2 -11   35.00    7.30
  -4  -2 -11   36.80    5.10
  -4  -2 -11   28.00    4.40
   4   2  11   25.10    6.50
   4   2  11   34.00    6.00
   4   2  11   31.50    6.10
   4   2  11   32.60    5.50
   4   2  11   44.80   10.40
   4   2  11   43.00    6.50
  -5  -2 -11   30.10   13.60
  -5  -2 -11   32.80    6.50
  -5  -2 -11   27.90    7.60
  -5  -2 -11   31.40    4.50
  -5  -2 -11   31.00    4.50
  -5  -2 -11   33.20   14.40
   5   2  11   33.90    5.90
   5   2  11   32.90    6.10
   5   2  11   35.70    9.50
   5   2  11   45.30    7.50
   5   2  11   33.80    6.60
  -6  -2 -11   53.29   18.90
  -6  -2 -11   45.40    5.60
  -6  -2 -11   48.30    6.60
  -6  -2 -11   55.29   19.00
   6   2  11   60.19    8.90
   6   2  11   53.09    7.50
   6   2  11   57.79   11.10
   6   2  11   50.79    7.50
   6   2  11   49.00   10.80
   6   2  11   47.10    7.80
   4  -3 -11  113.39   15.00
   4  -3 -11  123.09   16.20
   4  -3 -11  110.19   13.50
  -4   3  11   98.99   16.80
  -4   3  11  130.29   16.20
  -4   3  11  120.49   14.10
   3  -3 -11  104.09   14.30
   3  -3 -11  109.59   13.50
   3  -3 -11   93.69   13.60
  -3   3  11  106.99   13.00
  -3   3  11  112.69   12.90
  -3   3  11  110.29   15.20
   2  -3 -11   48.70    7.90
   2  -3 -11   59.29    7.10
   2  -3 -11   30.00    7.40
  -2   3  11   -1.10   21.50
  -2   3  11   49.90    7.50
  -2   3  11   45.70    7.00
  -2   3  11   51.09    8.40
   1  -3 -11  667.23   36.20
   1  -3 -11  657.13   38.90
   1  -3 -11  676.73   37.70
  -1   3  11  661.13   38.30
  -1   3  11  708.23   38.50
  -1   3  11  642.74   37.90
   0  -3 -11  444.26   28.10
   0  -3 -11  456.45   28.30
   0  -3 -11  462.15   27.50
   0  -3 -11  429.86   36.50
   0   3  11  481.05   27.40
   0   3  11  439.86   26.70
   0   3  11  474.15   27.50
  -1  -3 -11   23.00    6.80
  -1  -3 -11   25.20    5.80
  -1  -3 -11   36.30    7.00
  -1  -3 -11   32.20    7.10
   1   3  11   29.40    5.30
   1   3  11   17.80    5.20
  -2  -3 -11   14.50    6.50
  -2  -3 -11   15.60    7.40
  -2  -3 -11   11.10    6.60
  -2  -3 -11   14.80    5.30
   2   3  11    8.10    4.80
   2   3  11   22.00    5.50
   2   3  11   12.60    5.40
   2   3  11   12.10    5.20
  -3  -3 -11   44.00   10.50
  -3  -3 -11   36.70    7.90
  -3  -3 -11   37.00    8.40
  -3  -3 -11   34.80    5.80
  -3  -3 -11   26.70    9.70
   3   3  11   47.40    6.70
   3   3  11   36.90    6.20
   3   3  11   45.00   11.80
   3   3  11   39.10    6.30
   3   3  11   34.20    5.80
  -4  -3 -11   77.69   13.10
  -4  -3 -11   88.19   10.30
  -4  -3 -11  111.49   19.40
  -4  -3 -11   95.19   10.80
  -4  -3 -11  102.29   15.40
   4   3  11   92.49   10.80
   4   3  11   91.59   12.70
   4   3  11   89.39    9.80
   4   3  11   91.49   11.30
   4   3  11   83.19   10.80
  -5  -3 -11   31.90    5.70
  -5  -3 -11   31.70    9.30
  -5  -3 -11   43.90   13.50
  -5  -3 -11   20.80   12.50
  -5  -3 -11   28.70    7.00
   5   3  11   26.20    6.60
   5   3  11   19.30    9.70
   5   3  11   25.70    6.80
   5   3  11   27.20    5.90
   5   3  11   32.10    6.80
  -6  -3 -11  223.78   16.00
  -6  -3 -11  264.87   17.30
  -6  -3 -11  254.77   34.50
  -6  -3 -11  260.17   17.90
  -6  -3 -11  210.28   22.60
  -6  -3 -11  279.87   32.10
   6   3  11  277.77   19.20
   6   3  11  293.37   19.80
   6   3  11  293.47   19.30
   3  -4 -11   -6.80    8.80
   3  -4 -11    2.90    6.40
  -3   4  11    1.30    6.40
  -3   4  11    0.50    6.40
  -3   4  11   13.50   23.50
  -3   4  11    0.10    7.90
   2  -4 -11  217.28   20.00
   2  -4 -11  242.98   19.10
  -2   4  11  261.17   21.10
  -2   4  11  267.17   18.50
  -2   4  11  276.17   19.20
   1  -4 -11  608.94   35.50
   1  -4 -11  611.44   33.20
   1  -4 -11  602.44   36.70
   1  -4 -11  597.84   34.20
  -1   4  11  588.44   54.49
  -1   4  11  572.84   34.90
  -1   4  11  627.14   35.50
  -1   4  11  621.14   35.20
   0  -4 -11  129.29   12.50
   0  -4 -11  129.69   17.10
   0  -4 -11  123.29   13.20
   0   4  11  125.89   12.00
   0   4  11  134.79   12.30
   0   4  11  151.88   13.40
   0   4  11   77.19   21.10
  -1  -4 -11    3.50    6.20
  -1  -4 -11   -0.80    5.50
  -1  -4 -11    1.50    7.00
  -1  -4 -11    7.00    5.30
   1   4  11   -1.70    5.20
   1   4  11    1.00    4.70
   1   4  11    5.50    5.20
  -2  -4 -11   28.90    6.30
  -2  -4 -11   28.40    7.80
  -2  -4 -11   23.20    6.70
  -2  -4 -11   26.40    8.10
   2   4  11   25.70    5.80
   2   4  11   41.20    6.40
  -3  -4 -11  103.39   16.30
  -3  -4 -11  105.09   16.00
  -3  -4 -11   92.19   13.60
  -3  -4 -11  101.49   11.50
   3   4  11  119.59   11.30
   3   4  11   84.69   13.00
   3   4  11   93.09   11.10
   3   4  11   89.29   11.30
   3   4  11   80.59   10.30
   3   4  11  114.29   15.50
  -4  -4 -11    2.50    5.30
  -4  -4 -11    5.80    9.20
  -4  -4 -11    3.30    9.70
  -4  -4 -11    3.20    8.20
  -4  -4 -11   -1.50    7.20
   4   4  11   -2.10    6.30
   4   4  11   -2.40    4.80
   4   4  11    8.20    5.80
  -5  -4 -11  350.46   22.50
  -5  -4 -11  358.86   26.00
  -5  -4 -11  331.17   31.10
  -5  -4 -11  365.56   31.90
  -5  -4 -11  352.36   24.00
   5   4  11  327.07   26.20
   5   4  11  315.77   22.90
   5   4  11  355.06   22.50
   5   4  11  336.87   23.30
  -6  -4 -11  368.96   35.50
  -6  -4 -11  336.57   22.40
  -6  -4 -11  348.87   22.60
  -6  -4 -11  349.87   27.90
  -6  -4 -11  260.97   37.80
   6   4  11  383.16   23.60
   6   4  11  338.87   23.30
   6   4  11  352.06   23.60
   3  -5 -11   61.49    8.80
   3  -5 -11   57.19   11.50
  -3   5  11   59.79   17.30
  -3   5  11   51.09    8.10
   2  -5 -11  309.67   21.70
   2  -5 -11  327.67   19.20
   2  -5 -11  310.17   21.40
  -2   5  11  316.67   25.10
  -2   5  11  347.57   22.80
  -2   5  11  297.47   22.50
   1  -5 -11  175.78   12.80
   1  -5 -11  179.78   13.50
   1  -5 -11  171.78   15.10
  -1   5  11  178.48   15.90
  -1   5  11  194.28   15.20
  -1   5  11  174.68   18.70
   0  -5 -11   35.00    6.60
   0  -5 -11   31.40    7.00
   0  -5 -11   48.10    4.70
   0   5  11   34.00    6.50
   0   5  11   29.70    6.50
   0   5  11   46.40    7.90
  -1  -5 -11   -2.00    5.90
  -1  -5 -11   -2.70    8.40
  -1  -5 -11    2.20    6.10
  -1  -5 -11   -0.60    5.20
   1   5  11   -6.10    5.20
   1   5  11   -1.50    5.00
   1   5  11    1.80    5.80
  -2  -5 -11  113.59   13.60
  -2  -5 -11   97.59   18.70
  -2  -5 -11  102.59   14.90
   2   5  11  102.59   11.80
   2   5  11   94.29   12.40
   2   5  11  100.39   11.10
  -3  -5 -11   22.30    9.70
  -3  -5 -11   17.30    7.20
  -3  -5 -11   19.00    9.50
  -3  -5 -11    4.20    4.90
   3   5  11   19.30    6.10
   3   5  11   17.70    6.10
   3   5  11   15.00    6.20
   3   5  11   11.70    7.10
  -4  -5 -11  126.89   16.20
  -4  -5 -11  134.39   14.20
  -4  -5 -11  141.89   20.30
  -4  -5 -11  125.19   22.90
   4   5  11  130.19   13.50
   4   5  11  153.48   13.60
   4   5  11  105.29   13.20
   4   5  11  138.49   15.70
  -5  -5 -11  454.95   27.60
  -5  -5 -11  337.57   33.90
  -5  -5 -11  433.46   28.40
  -5  -5 -11  448.16   41.20
  -5  -5 -11  474.95   30.00
   5   5  11  347.37   36.50
   5   5  11  351.56   29.00
   5   5  11  456.75   26.80
   5   5  11  447.06   26.70
   1  -6 -11   24.80    6.60
   1  -6 -11   38.80    7.60
   1  -6 -11   37.70    6.40
  -1   6  11   31.50    7.10
  -1   6  11   42.10    8.70
   0  -6 -11   29.60    5.60
   0  -6 -11   17.80    6.30
   0  -6 -11   15.70    6.90
   0   6  11   23.60    9.30
   0   6  11   21.70    7.40
   0   6  11   13.40    7.10
  -1  -6 -11   54.99   10.10
  -1  -6 -11   54.09    8.50
   1   6  11   47.20    7.50
   1   6  11   37.60    9.40
   1   6  11   49.99    7.90
  -2  -6 -11   56.19    9.80
  -2  -6 -11   49.00    8.30
   2   6  11   46.10    7.70
   2   6  11   51.79   10.60
   2   6  11   46.50    7.00
   2   6  11   43.60    7.50
  -3  -6 -11    7.90    7.30
  -3  -6 -11    5.60    9.50
  -3  -6 -11   -4.60   14.40
   3   6  11   -5.50    7.90
   3   6  11   -1.30    5.90
   3   6  11    4.30    8.50
   3   6  11   -4.30    6.00
  -4  -6 -11  532.95   34.90
  -4  -6 -11  469.05   30.30
  -4  -6 -11  459.15   29.80
   4   6  11  452.05   28.40
   4   6  11  422.76   29.20
   4   6  11  462.85   30.30
   4   6  11  430.56   29.00
  -5  -6 -11  460.85   31.20
  -5  -6 -11  487.35   32.20
  -5  -6 -11  490.55   38.20
  -5  -6 -11  490.25   39.80
   5   6  11  455.25   31.60
   5   6  11  470.55   29.80
   5   6  11  476.45   29.60
   0  -7 -11   27.90    7.50
   0   7  11   24.00    7.70
   0   7  11   35.20   11.10
  -1  -7 -11   43.40    8.40
  -1  -7 -11   67.79    9.70
   1   7  11   53.09    7.60
   1   7  11   45.60    8.30
   1   7  11   58.59    9.00
  -2  -7 -11   -0.20    8.20
  -2  -7 -11    4.20    7.20
   2   7  11    6.50   10.10
   2   7  11   -3.40    7.20
   2   7  11    4.20    6.90
   2   7  11    1.70    5.50
  -3  -7 -11  373.16   25.20
  -3  -7 -11  371.46   27.90
   3   7  11  320.67   27.30
   3   7  11  347.37   23.10
   3   7  11  311.37   23.80
   3   7  11  372.66   23.60
   3   4 -12  273.67   26.20
   3   4 -12  250.47   28.60
   3   4 -12  255.37   23.70
   3   4 -12  292.47   21.30
   3   4 -12  261.37   28.90
   2   4 -12  170.58   17.90
   2   4 -12  190.28   15.50
   2   4 -12  124.09   18.80
   2   4 -12  158.68   20.50
   2   4 -12  151.58   19.50
  -2  -4  12  215.88   20.30
   1   4 -12   40.00    7.30
   1   4 -12   26.60    5.80
   1   4 -12   28.20    5.70
   1   4 -12   32.30    8.60
   1   4 -12   22.70   13.30
  -1  -4  12   37.20    9.50
  -1  -4  12   49.20   10.80
   0   4 -12   13.20    8.20
   0   4 -12   16.70   11.60
   0   4 -12   20.40    6.30
   0  -4  12   14.30    8.20
   0  -4  12   21.40    9.20
   0  -4  12   17.70    5.60
   0  -4  12   11.20    9.80
  -1   4 -12   28.40    6.40
  -1   4 -12   25.80    5.40
  -1   4 -12   33.50   10.50
   1  -4  12   24.30    8.20
   1  -4  12   21.20   11.10
   1  -4  12    6.90    9.70
   1  -4  12   17.40    8.20
   1  -4  12   23.90    5.70
  -2   4 -12   24.90    9.10
  -2   4 -12   14.40    6.80
  -2   4 -12    7.10    5.10
   2  -4  12    6.60    7.20
   2  -4  12   17.50   15.40
   2  -4  12   13.10    8.00
   2  -4  12   19.30    5.80
   2  -4  12    9.10    9.70
   3   3 -12  317.07   31.40
   3   3 -12  211.08   27.20
   3   3 -12  262.07   23.30
   3   3 -12  281.47   20.50
   3   3 -12  292.17   25.80
   2   3 -12   80.39   11.20
   2   3 -12   53.69   27.30
   2   3 -12   77.89    9.00
   2   3 -12   71.79   11.00
   2   3 -12   69.29   13.90
  -2  -3  12  134.09   16.70
  -2  -3  12  117.69   19.40
  -2  -3  12   96.59   11.30
   1   3 -12   -3.40   13.40
   1   3 -12    2.50    6.20
   1   3 -12   -7.00    7.50
   1   3 -12    2.70    5.30
   1   3 -12    5.30    7.60
  -1  -3  12    5.70    8.30
  -1  -3  12    2.80    6.50
   0   3 -12   42.70    8.30
   0   3 -12   39.70   12.00
   0   3 -12   43.60    6.30
   0  -3  12   46.20    7.90
   0  -3  12   37.10    6.00
   0  -3  12   52.99    9.50
   0  -3  12   36.30    9.90
   0  -3  12   45.10   10.40
  -1   3 -12   19.80    9.80
  -1   3 -12   23.10    7.70
  -1   3 -12   25.30    5.50
   1  -3  12   26.70    9.50
   1  -3  12   22.30    5.10
   1  -3  12   12.00    8.90
   1  -3  12   16.10    6.60
  -2   3 -12   69.69   15.90
  -2   3 -12   46.00    6.20
   2  -3  12   50.29   16.40
   2  -3  12   56.29    8.20
   2  -3  12   43.20    9.60
   2  -3  12   57.79   11.20
   2  -3  12   64.69    6.90
  -3   3 -12  319.87   20.70
  -3   3 -12  350.46   25.00
   3  -3  12  314.67   22.00
   3  -3  12  273.27   37.10
   3  -3  12  319.47   23.30
   3  -3  12  365.66   21.10
   3  -3  12  339.17   22.40
   4   2 -12  353.96   40.10
   4   2 -12  307.87   36.50
  -4  -2  12  336.97   26.80
  -4  -2  12  409.86   28.40
  -3  -2  12  145.79   23.40
  -3  -2  12  207.18   17.90
   2   2 -12  -12.00   14.60
   2   2 -12   14.30    6.10
   2   2 -12   20.40   13.00
   2   2 -12   12.80    8.60
   2   2 -12   10.20    8.30
  -2  -2  12   18.80    8.30
  -2  -2  12   18.80    6.60
   1   2 -12   73.29    9.50
   1   2 -12   34.80   13.60
   1   2 -12   57.19   12.60
   1   2 -12   66.09    8.50
   1   2 -12   59.99    8.40
  -1  -2  12   65.19    7.20
  -1  -2  12   73.29    9.80
  -1  -2  12   59.29    8.20
   0   2 -12   18.00    7.00
   0   2 -12   19.10   11.30
   0   2 -12   13.50    7.10
   0   2 -12   18.50    5.10
   0   2 -12   18.10    4.60
   0  -2  12   18.00    6.00
   0  -2  12   16.90   14.60
   0  -2  12   12.30    6.40
   0  -2  12   15.60    5.10
   0  -2  12   13.70    8.40
  -1   2 -12   17.20    9.20
  -1   2 -12   17.00    4.40
  -1   2 -12   16.10    6.80
   1  -2  12   19.10    5.10
   1  -2  12   12.60    7.70
   1  -2  12   21.10    6.40
   1  -2  12   26.20   12.20
   1  -2  12   18.00    6.10
  -2   2 -12  447.86   29.20
  -2   2 -12  402.06   26.10
   2  -2  12  400.06   27.50
   2  -2  12  442.16   25.90
   2  -2  12  441.86   24.80
   2  -2  12  387.36   25.50
   2  -2  12  426.36   34.50
  -3   2 -12  409.56   26.90
  -3   2 -12  364.76   23.00
   3  -2  12  416.66   24.60
   3  -2  12  373.96   29.10
   3  -2  12  392.06   35.70
   3  -2  12  420.06   23.80
   3  -2  12  355.46   25.00
  -4   2 -12   74.59   10.20
  -4   2 -12   76.39    9.40
   4  -2  12   87.09   20.70
   4  -2  12   93.59   11.10
   4  -2  12   87.99   12.30
   4  -2  12   78.39    9.40
   4  -2  12   74.59   11.40
   4   1 -12  134.89   18.40
   4   1 -12  214.48   30.70
  -4  -1  12  137.39   15.20
  -4  -1  12  197.18   20.10
   3   1 -12    2.10   18.00
   3   1 -12   37.60   13.30
   3   1 -12    8.80    9.90
   3   1 -12  -10.60    9.30
  -3  -1  12   12.80   13.90
  -3  -1  12   11.50    5.90
  -3  -1  12   10.00    8.40
  -3  -1  12   10.40    6.60
   2   1 -12   26.60    6.20
   2   1 -12   28.50    9.10
   2   1 -12    2.80   16.80
  -2  -1  12   31.90    7.90
  -2  -1  12   66.29   15.30
  -2  -1  12   28.20    6.70
  -2  -1  12   28.80    5.60
   1   1 -12   28.00   15.60
   1   1 -12   58.49    8.90
   1   1 -12   66.29    7.50
   1   1 -12   74.79   14.30
   1   1 -12   67.29    9.00
  -1  -1  12   65.39   11.20
  -1  -1  12   51.09    7.30
  -1  -1  12   64.69    8.50
  -1  -1  12   51.49    7.00
   0   1 -12   -0.60    6.40
   0   1 -12    7.90    5.40
   0   1 -12  -14.90   11.60
   0   1 -12    4.10    3.50
   0   1 -12    0.60   10.50
   0  -1  12  -12.70    6.90
   0  -1  12    6.70    5.40
   0  -1  12    3.00    4.70
   0  -1  12    8.50    5.20
  -1   1 -12  163.88   11.30
  -1   1 -12  131.89   14.80
  -1   1 -12  143.39   13.00
  -1   1 -12  144.79   20.70
   1  -1  12  161.88   13.00
   1  -1  12  137.49   11.90
   1  -1  12  160.98   13.20
   1  -1  12  135.79   15.80
   1  -1  12  147.79   27.90
  -2   1 -12  342.77   26.90
  -2   1 -12  259.77   20.50
  -2   1 -12  345.77   25.10
   2  -1  12  331.77   20.90
   2  -1  12  311.77   22.10
   2  -1  12  353.66   21.00
   2  -1  12  329.07   20.10
  -3   1 -12  359.46   23.70
  -3   1 -12  331.37   28.70
  -3   1 -12  271.97   18.80
   3  -1  12  348.67   20.60
   3  -1  12  340.57   20.90
   3  -1  12  290.17   21.10
   3  -1  12  330.07   20.80
  -4   1 -12    7.20   13.70
  -4   1 -12   10.90    6.80
   4  -1  12    5.00    5.70
   4  -1  12   -9.70   14.40
   4  -1  12    7.40    6.10
   4  -1  12    9.10    5.80
   4  -1  12    8.30    6.90
   4   0 -12   36.30   16.20
   4   0 -12   18.40   11.60
   4   0 -12   54.79   12.20
  -4   0  12   17.00    7.80
  -4   0  12   13.70    7.60
  -4   0  12   23.20    9.60
  -4   0  12   53.19   14.80
   3   0 -12   33.50   11.00
   3   0 -12    7.80    9.20
   3   0 -12   69.39   17.60
  -3   0  12   28.90    8.10
  -3   0  12   14.90    6.60
  -3   0  12   22.50    6.80
   2   0 -12   65.19   10.50
   2   0 -12   96.89   11.70
   2   0 -12  128.59   19.60
  -2   0  12   77.59    9.50
  -2   0  12   83.39   10.80
  -2   0  12   79.29   11.90
   1   0 -12   39.20   15.20
   1   0 -12   45.30    8.30
   1   0 -12   53.09    5.20
  -1   0  12   45.20    6.90
  -1   0  12   43.70   11.20
  -1   0  12   57.99    7.60
  -1   0  12   49.00    7.00
   0   0 -12    4.10   12.60
   0   0 -12    9.30    5.90
   0   0 -12    7.50    5.80
   0   0  12    5.50    5.40
   0   0  12   -8.30    7.50
   0   0  12    4.50    4.80
   0   0  12    8.40    5.70
   0   0  12   20.80   14.40
  -1   0 -12  370.76   33.00
  -1   0 -12  471.45   33.50
  -1   0 -12  463.35   26.40
  -1   0 -12  455.35   29.60
   1   0  12  433.26   28.70
   1   0  12  469.15   27.10
   1   0  12  468.45   27.00
   1   0  12  421.86   26.10
  -2   0 -12  645.74   39.60
  -2   0 -12  618.54   34.30
  -2   0 -12  592.04   39.30
   2   0  12  634.64   35.50
   2   0  12  596.04   36.40
   2   0  12  697.33   45.60
   2   0  12  612.74   35.00
   2   0  12  591.54   35.50
  -3   0 -12   45.20    8.50
  -3   0 -12   58.39   12.00
  -3   0 -12   55.09    9.30
  -3   0 -12   54.79    7.10
   3   0  12   68.09   10.20
   3   0  12   73.19   10.10
   3   0  12   76.69   10.00
   3   0  12   57.29    7.90
  -4   0 -12    1.40   21.40
  -4   0 -12   -0.80    3.90
  -4   0 -12    0.70    6.50
   4   0  12    7.40    6.60
   4   0  12    0.30    5.30
   4   0  12    3.10    5.50
   4   0  12    8.20    5.40
  -5   0 -12    0.20    3.20
  -5   0 -12   -6.20   15.30
  -5   0 -12    6.00    6.40
   5   0  12    1.80    7.80
   5   0  12   -0.80    6.30
   5   0  12    4.70    6.00
   5   0  12   -0.50    5.70
   5   0  12   -1.50    5.20
   4  -1 -12   60.29   11.40
   4  -1 -12   40.40   10.70
  -4   1  12   33.10    9.60
  -4   1  12   17.00    7.00
  -4   1  12   52.59   12.90
  -4   1  12   31.10    9.00
   3  -1 -12   71.49   11.00
   3  -1 -12   67.29   10.50
  -3   1  12   42.70    8.40
  -3   1  12   55.79   15.10
  -3   1  12   37.60    8.20
   2  -1 -12  196.08   21.50
  -2   1  12  164.48   14.50
  -2   1  12  151.38   14.30
  -2   1  12  150.68   14.20
   1  -1 -12    1.10    6.50
   1  -1 -12   -6.10    3.40
   1  -1 -12    9.00    9.00
   1  -1 -12   -1.00    6.00
   1  -1 -12   15.90   13.80
   1  -1 -12   -1.80    5.50
  -1   1  12    2.70    5.80
  -1   1  12    2.40   13.40
  -1   1  12    6.20    5.60
  -1   1  12   -3.70    5.50
   0  -1 -12  266.97   17.90
   0  -1 -12  312.57   20.30
   0  -1 -12  285.07   20.30
   0  -1 -12  273.57   30.10
   0   1  12  298.27   19.40
   0   1  12  305.67   19.10
   0   1  12  236.28   21.60
   0   1  12  267.97   18.10
  -1  -1 -12 1036.70   56.09
  -1  -1 -12  888.41   59.29
  -1  -1 -12  955.20   54.39
   1   1  12 1019.80   54.49
   1   1  12  896.01   55.69
   1   1  12 1141.19   63.69
   1   1  12  979.20   53.69
   1   1  12  960.00   54.29
  -2  -1 -12  103.19   15.50
  -2  -1 -12   76.99   12.30
  -2  -1 -12   97.39   10.10
   2   1  12   76.39   12.20
   2   1  12  111.39   10.70
   2   1  12   91.09   11.30
   2   1  12  109.09   11.30
  -3  -1 -12    6.20    7.80
  -3  -1 -12    5.20    5.20
  -3  -1 -12    5.20    9.30
  -3  -1 -12    7.70    4.20
  -3  -1 -12   11.10    8.90
   3   1  12   12.40    5.50
   3   1  12    3.10    5.00
   3   1  12    7.40    5.40
   3   1  12   -0.50    5.10
  -4  -1 -12    7.30   11.40
  -4  -1 -12    8.30    7.10
  -4  -1 -12    2.40    4.00
   4   1  12    4.00    5.30
   4   1  12   14.60    5.70
   4   1  12    8.50    5.40
   4   1  12    9.50    5.30
  -5  -1 -12   -0.10    4.40
  -5  -1 -12  -10.30   12.70
  -5  -1 -12    4.40    6.10
   5   1  12    1.20    6.10
   5   1  12   -2.30    5.80
   5   1  12   -1.10    6.20
   4  -2 -12   21.20    8.50
   4  -2 -12   27.80    9.00
  -4   2  12   18.50    9.30
  -4   2  12   25.80    7.50
  -4   2  12   21.90    9.40
   3  -2 -12  133.99   18.10
   3  -2 -12  140.69   16.80
  -3   2  12   95.99   14.60
  -3   2  12  101.39   14.70
  -3   2  12   89.29   12.80
   2  -2 -12   18.20    6.20
   2  -2 -12   16.50    6.40
   2  -2 -12    7.00    8.30
   2  -2 -12   18.70    7.70
  -2   2  12   16.90    7.00
  -2   2  12   58.29   27.10
  -2   2  12   16.30    6.80
  -2   2  12   13.10    5.90
   1  -2 -12  101.79   11.60
   1  -2 -12   59.39   10.70
   1  -2 -12   85.59    7.30
   1  -2 -12  110.49   15.20
  -1   2  12   64.29    8.50
  -1   2  12   97.59   11.80
  -1   2  12  170.18   26.50
  -1   2  12  102.09   12.40
   0  -2 -12  396.76   25.80
   0  -2 -12  395.96   25.20
   0  -2 -12  337.67   24.50
   0  -2 -12  415.86   26.00
   0   2  12  374.76   23.80
   0   2  12  412.66   28.90
   0   2  12  423.36   24.60
   0   2  12  404.16   24.90
  -1  -2 -12  134.49   13.20
  -1  -2 -12  172.18   24.80
  -1  -2 -12  164.08   15.30
  -1  -2 -12  174.08   15.10
  -1  -2 -12  174.08   15.90
  -1  -2 -12  216.58   19.30
   1   2  12  177.98   14.10
   1   2  12  169.78   13.20
   1   2  12  180.68   14.60
  -2  -2 -12    8.70    5.00
  -2  -2 -12   12.80    9.10
  -2  -2 -12   20.00    7.40
  -2  -2 -12    9.00    9.80
  -2  -2 -12    9.70    5.50
  -2  -2 -12    8.50    7.90
   2   2  12   11.00    5.80
   2   2  12   13.50    5.20
   2   2  12    9.30    5.70
   2   2  12    6.40    5.20
  -3  -2 -12   29.40   10.70
  -3  -2 -12   28.70   10.40
  -3  -2 -12   37.70   10.40
  -3  -2 -12   28.50    6.60
  -3  -2 -12   27.50    9.30
   3   2  12   34.50    6.20
   3   2  12   22.10    5.90
   3   2  12   32.60    6.40
   3   2  12   16.80    5.80
   3   2  12   24.00    6.00
  -4  -2 -12    6.40    4.70
  -4  -2 -12    7.80    9.90
  -4  -2 -12    6.70   10.70
  -4  -2 -12    1.70   12.20
  -4  -2 -12    1.40    7.40
   4   2  12    0.40    5.20
   4   2  12    5.90    5.10
   4   2  12   -1.90    5.50
   4   2  12   -1.30    6.30
  -5  -2 -12   -7.30   13.30
  -5  -2 -12   -3.30    6.30
  -5  -2 -12    7.10   15.40
  -5  -2 -12   -1.10    4.00
   5   2  12   -3.80    5.60
   5   2  12    0.00    6.70
   5   2  12    4.00    6.10
   3  -3 -12   80.79   14.30
   3  -3 -12   74.29   10.80
   3  -3 -12   68.29    9.50
  -3   3  12   82.19   10.30
  -3   3  12   80.09   11.20
  -3   3  12   94.79   12.50
   2  -3 -12    2.40    6.30
   2  -3 -12   -2.70    8.10
  -2   3  12    3.60    7.00
  -2   3  12    1.00    7.00
   1  -3 -12  164.48   17.20
   1  -3 -12  189.88   17.20
   1  -3 -12  171.28   11.30
   1  -3 -12  177.38   14.10
  -1   3  12  187.28   15.70
  -1   3  12  185.48   15.30
  -1   3  12  170.98   14.90
   0  -3 -12  277.97   27.30
   0  -3 -12  318.97   21.30
   0  -3 -12  372.76   23.20
   0   3  12  336.17   21.60
   0   3  12  305.77   21.00
   0   3  12  314.57   20.50
  -1  -3 -12    8.30    6.40
  -1  -3 -12    4.70    7.60
  -1  -3 -12    8.90    6.50
  -1  -3 -12    6.20    7.10
   1   3  12    9.30    5.00
   1   3  12    8.40    5.10
   1   3  12    9.30    6.50
  -2  -3 -12   12.50    8.20
  -2  -3 -12   16.50    7.60
  -2  -3 -12   10.30    8.00
  -2  -3 -12   18.20    6.30
  -2  -3 -12   15.40   10.80
   2   3  12   10.30    5.50
   2   3  12    7.80    5.90
   2   3  12   16.00    5.60
  -3  -3 -12    0.80    8.50
  -3  -3 -12   -4.70    9.10
  -3  -3 -12    3.90    9.00
  -3  -3 -12    4.10    5.70
  -3  -3 -12    6.10    9.30
   3   3  12    5.60    5.80
   3   3  12   -6.70    5.20
   3   3  12    0.90    5.10
  -4  -3 -12   13.10   11.00
  -4  -3 -12   19.50   11.70
  -4  -3 -12   10.20    9.80
  -4  -3 -12   11.10    8.50
  -4  -3 -12    8.00    6.10
   4   3  12    2.50    5.40
   4   3  12    4.10    6.90
   4   3  12    7.40    6.00
  -5  -3 -12   50.09   15.90
  -5  -3 -12   38.70    6.60
  -5  -3 -12   45.10   13.80
  -5  -3 -12   42.90    8.30
  -5  -3 -12   64.19   12.10
   5   3  12   37.30    8.50
   5   3  12   38.80    7.20
   2  -4 -12   80.79    9.70
  -2   4  12   54.19    8.10
  -2   4  12   77.59    9.80
  -2   4  12   62.49   10.40
   1  -4 -12  268.47   23.30
   1  -4 -12  269.97   17.80
   1  -4 -12  253.07   16.00
  -1   4  12  227.08   23.00
  -1   4  12  286.47   21.50
  -1   4  12  263.17   19.50
   0  -4 -12   49.60    8.20
   0  -4 -12   44.40    7.30
   0  -4 -12   36.80    8.60
   0  -4 -12   39.30   10.70
   0   4  12   37.10    6.70
   0   4  12   42.20    7.80
   0   4  12   48.10    7.50
  -1  -4 -12   25.10    7.20
  -1  -4 -12   34.40    7.80
  -1  -4 -12   23.10   10.00
   1   4  12   35.90    7.40
   1   4  12   16.60    5.70
   1   4  12   21.90    5.80
  -2  -4 -12    2.60    6.80
  -2  -4 -12   12.90    6.80
  -2  -4 -12    3.80    8.90
  -2  -4 -12    7.50    7.40
   2   4  12    9.40    5.20
   2   4  12    5.90    5.40
   2   4  12    4.10    6.00
  -3  -4 -12   22.40   10.50
  -3  -4 -12   30.90    7.40
  -3  -4 -12   20.30    9.20
  -3  -4 -12   23.00    8.10
   3   4  12   29.00    6.30
   3   4  12   27.50    6.80
  -4  -4 -12    2.00    6.90
  -4  -4 -12   19.10   12.20
  -4  -4 -12    2.30    9.10
  -4  -4 -12   -0.60    8.60
  -4  -4 -12   -1.40   10.30
   4   4  12    3.40    6.10
   4   4  12    6.90    8.20
   4   4  12    1.00    7.90
   4   4  12    7.30    6.30
  -5  -4 -12   46.60   11.60
  -5  -4 -12   60.39    8.80
  -5  -4 -12   54.09    9.60
  -5  -4 -12   48.10   14.40
  -5  -4 -12   67.99   15.70
   5   4  12   59.99    8.50
   5   4  12   48.60    9.50
   5   4  12   52.89    8.00
   1  -5 -12   18.80    5.80
   1  -5 -12   20.90    5.90
   1  -5 -12    9.00    6.80
  -1   5  12   18.00    8.90
  -1   5  12   18.20    7.60
  -1   5  12   22.90    6.90
   0  -5 -12    1.50    6.50
   0  -5 -12    0.00    6.00
   0  -5 -12    0.20   11.50
   0   5  12    2.40    6.90
   0   5  12    6.80    6.20
   0   5  12   -2.30    5.40
  -1  -5 -12   13.20   11.40
  -1  -5 -12   11.80    6.80
  -1  -5 -12   14.10    6.90
   1   5  12   10.80   10.70
   1   5  12   13.00    6.50
  -2  -5 -12    9.40   11.20
  -2  -5 -12    8.30    7.80
  -2  -5 -12    2.10    6.50
  -2  -5 -12   10.50    7.80
   2   5  12   13.60    7.10
   2   5  12   -1.80    6.30
   2   5  12   10.70    6.80
  -3  -5 -12   26.00    8.00
  -3  -5 -12   33.70   10.30
  -3  -5 -12   29.20   12.10
   3   5  12   18.70    6.80
   3   5  12   32.10   10.10
   3   5  12   29.30    9.50
  -4  -5 -12   26.60   13.30
  -4  -5 -12   18.80    8.70
  -4  -5 -12    9.50   16.60
   4   5  12   30.50    7.70
   4   5  12   28.40    9.60
   4   5  12   10.80    8.10
   4   5  12   22.90    9.60
   0  -6 -12   39.50    7.40
   0  -6 -12   27.30   15.70
   0  -6 -12   23.30    7.10
   0   6  12   38.50    8.50
   0   6  12   31.30    8.70
   0   6  12   25.70    6.60
  -1  -6 -12   11.40    7.50
  -1  -6 -12   10.60    6.70
   1   6  12    7.50    6.70
   1   6  12   14.10    5.70
   1   6  12   11.60    7.60
  -2  -6 -12   34.00    8.50
  -2  -6 -12   41.10    9.40
   2   6  12   32.20    8.70
   2   6  12   47.90    8.60
   2   6  12   29.80    6.80
   2   6  12   35.40   11.20
   2   6  12   34.20    7.80
  -3  -6 -12    5.60    9.70
  -3  -6 -12    6.20    7.90
   3   6  12   10.10    6.70
   3   6  12    0.50    7.20
   3   6  12   -2.60    6.40
   3   6  12   14.00   11.30
   1   3 -13    6.30   14.00
   1   3 -13   27.00    7.10
   1   3 -13   24.30    8.10
   1   3 -13   11.10    9.30
   1   3 -13   17.70   10.60
  -1  -3  13   36.50    9.90
  -1  -3  13   27.80    8.20
   0   3 -13    2.60   12.10
   0   3 -13   28.70   10.50
   0   3 -13   27.20    6.40
   0  -3  13   25.50    7.80
   0  -3  13   32.30    9.20
   0  -3  13   27.10    6.20
   0  -3  13   29.70   10.20
  -1   3 -13   73.19   14.30
  -1   3 -13   86.09    8.60
  -1   3 -13   97.59   11.90
   1  -3  13   91.49   14.30
   1  -3  13  119.59   15.30
   1  -3  13   83.09   10.90
   1  -3  13  102.29   17.70
   2   2 -13   30.50   15.30
   2   2 -13   20.20   11.20
   2   2 -13   13.20   13.30
   2   2 -13   25.00    7.30
   2   2 -13  -20.30   17.30
  -2  -2  13   28.20    8.20
  -2  -2  13   32.80    9.30
   1   2 -13    1.90   14.00
   1   2 -13    7.40   11.90
   1   2 -13   19.90    8.80
   1   2 -13   17.70    5.90
  -1  -2  13   19.60    5.00
  -1  -2  13   22.40    7.20
  -1  -2  13   25.00    8.30
  -1  -2  13   16.30    6.10
   0   2 -13  106.69    9.80
   0   2 -13   74.79   15.70
   0   2 -13   88.09   14.80
   0   2 -13  112.59   12.00
   0  -2  13   91.79   10.80
   0  -2  13  119.09   14.20
   0  -2  13  130.19   22.20
   0  -2  13  109.49   13.60
  -1   2 -13  113.89    9.80
  -1   2 -13   95.59   14.50
   1  -2  13  109.19   13.60
   1  -2  13  118.39   13.70
   1  -2  13  112.99   18.20
   1  -2  13  103.39   11.00
   1  -2  13  103.69   21.20
  -2   2 -13   11.30    9.00
   2  -2  13   -3.10   16.40
   2  -2  13    5.80    6.80
   2  -2  13    5.50    5.70
   2  -2  13   10.60    6.30
   2  -2  13  -12.90    8.80
   3   1 -13   40.50   19.40
   3   1 -13   79.29   18.70
   3   1 -13   10.70   15.90
  -3  -1  13   15.90   13.90
  -3  -1  13   30.00    7.10
  -3  -1  13   21.90   15.10
  -3  -1  13   26.30    8.30
   2   1 -13   12.20    6.50
   2   1 -13   48.20   15.20
   2   1 -13    8.20   18.50
   2   1 -13  -41.70   16.40
   2   1 -13    7.70   10.30
  -2  -1  13    9.20    5.60
  -2  -1  13   14.90    9.40
  -2  -1  13   12.10    7.50
   1   1 -13  114.09   16.60
   1   1 -13   99.99    9.90
   1   1 -13   99.69   26.00
   1   1 -13   84.99   12.60
   1   1 -13  126.19   18.00
  -1  -1  13  138.99   15.10
  -1  -1  13  186.28   30.40
  -1  -1  13  130.89   13.40
  -1  -1  13  107.79   12.00
   0   1 -13  274.47   27.00
   0   1 -13  204.08   26.60
   0   1 -13  269.87   15.60
   0  -1  13  243.38   17.60
   0  -1  13  288.97   19.50
   0  -1  13  282.07   21.10
  -1   1 -13    3.10    4.80
  -1   1 -13    0.70   11.60
  -1   1 -13   -3.70    7.50
  -1   1 -13    1.60   12.70
   1  -1  13    1.60    5.20
   1  -1  13    5.10    6.10
   1  -1  13    5.90   11.90
  -2   1 -13   10.90    9.50
  -2   1 -13   19.00    8.50
   2  -1  13   22.30    6.70
   2  -1  13   17.80    6.40
   2  -1  13   26.00    6.20
   2  -1  13   11.40    8.10
  -3   1 -13    9.80    9.20
  -3   1 -13    2.10   11.60
   3  -1  13    6.50    6.20
   3  -1  13   -7.00    7.40
   3  -1  13   17.20    6.10
   3  -1  13    7.80    6.50
   3   0 -13  106.59   14.50
  -3   0  13   91.79   11.60
  -3   0  13   69.39   12.90
  -3   0  13   79.09   10.20
   2   0 -13   50.69   18.10
   2   0 -13   51.09    7.30
  -2   0  13   47.50    7.70
  -2   0  13   44.00   12.50
  -2   0  13   51.09    8.60
   1   0 -13  233.28   21.50
   1   0 -13  242.58   15.20
   1   0 -13  221.68   35.70
  -1   0  13  276.87   18.90
  -1   0  13  272.57   18.90
  -1   0  13  243.18   17.60
   0   0 -13   66.49    9.20
   0   0 -13   55.69    9.60
   0   0 -13   71.19   17.90
   0   0  13   71.99   11.50
   0   0  13   82.59   11.70
   0   0  13   59.29    7.40
  -1   0 -13    4.70    6.00
  -1   0 -13    6.70   12.10
  -1   0 -13   -3.60   11.90
  -1   0 -13   -5.50    6.80
   1   0  13    6.20    5.70
   1   0  13    1.00    5.00
   1   0  13    4.60    6.20
  -2   0 -13   22.70    5.10
  -2   0 -13   23.50   11.00
  -2   0 -13   20.10    8.20
  -2   0 -13   18.50    9.40
   2   0  13   30.70    6.30
   2   0  13   14.20    7.70
   2   0  13   23.00    6.40
  -3   0 -13   55.69   13.80
  -3   0 -13   58.09   10.50
   3   0  13   58.59    7.90
   3   0  13   52.19    9.00
   3   0  13   78.59   10.80
   3   0  13   49.40    7.70
  -4   0 -13    1.60   12.90
  -4   0 -13    0.40    3.20
  -4   0 -13    2.00    7.50
   4   0  13   10.80    6.20
   4   0  13   10.20    8.80
   4   0  13    6.40   12.40
   4   0  13   -0.90    6.30
   3  -1 -13   -4.50    9.50
   3  -1 -13   18.30   11.40
  -3   1  13   -1.90    7.30
  -3   1  13    2.40    6.20
  -3   1  13   -8.10   14.90
  -3   1  13    0.10    7.30
   2  -1 -13  221.48   26.70
  -2   1  13  213.98   17.90
  -2   1  13  195.08   17.00
  -2   1  13  193.88   16.90
   1  -1 -13  280.27   31.40
   1  -1 -13  239.68   18.90
  -1   1  13  243.78   17.90
  -1   1  13  262.07   19.00
  -1   1  13  263.27   18.80
   0  -1 -13   42.80   15.50
   0  -1 -13   61.99    9.70
   0   1  13   51.59    7.80
   0   1  13   56.09    7.80
   0   1  13   60.39    7.30
  -1  -1 -13    3.90    7.50
  -1  -1 -13   -5.80   12.10
  -1  -1 -13    2.50    6.50
   1   1  13    1.00   16.30
   1   1  13    0.00    5.40
   1   1  13   -2.50    5.20
   1   1  13    3.00    6.00
  -2  -1 -13   18.90    8.60
  -2  -1 -13   15.10   11.70
  -2  -1 -13   19.80    6.10
  -2  -1 -13   36.50   12.90
   2   1  13   23.80    6.70
   2   1  13   17.90    6.20
   2   1  13   20.80    6.10
  -3  -1 -13   33.40   10.00
  -3  -1 -13   34.30   11.50
  -3  -1 -13   35.40    5.70
  -3  -1 -13   26.70    9.80
   3   1  13   27.80    6.70
   3   1  13   32.30    7.00
   3   1  13   40.80    6.70
  -4  -1 -13   -2.00    7.70
  -4  -1 -13    4.50   11.30
   4   1  13   11.10    7.40
   4   1  13   -0.10    6.10
   4   1  13    7.10    5.90
   2  -2 -13  234.28   16.90
  -2   2  13  245.28   19.10
  -2   2  13  253.07   18.60
  -2   2  13  248.58   19.80
   1  -2 -13   50.09   11.20
   1  -2 -13  117.79   18.70
   1  -2 -13   89.39   13.10
   1  -2 -13   64.79   10.70
  -1   2  13   75.69    9.30
  -1   2  13   76.79   10.60
  -1   2  13   71.39    8.70
   0  -2 -13   -1.20    7.40
   0  -2 -13   -2.60    9.20
   0  -2 -13    6.40    6.50
   0  -2 -13   13.80   13.90
   0  -2 -13    7.50    7.60
   0   2  13    0.30    5.70
   0   2  13    1.90    6.20
   0   2  13   -6.40    5.70
  -1  -2 -13   80.09   12.20
  -1  -2 -13   45.40    8.50
  -1  -2 -13   53.79    8.90
  -1  -2 -13   50.79    8.90
  -1  -2 -13   40.50   14.70
   1   2  13   42.50    6.80
   1   2  13   38.70    7.00
   1   2  13   61.99    8.30
  -2  -2 -13   65.39   12.30
  -2  -2 -13   11.70   11.80
  -2  -2 -13   34.30    7.50
  -2  -2 -13   29.70    9.10
  -2  -2 -13   33.60    9.60
   2   2  13   28.60    6.50
   2   2  13   31.80    7.10
   2   2  13   33.10    6.60
  -3  -2 -13   47.20   12.60
  -3  -2 -13   18.10   11.40
  -3  -2 -13    5.00   10.10
  -3  -2 -13    6.50    9.10
   3   2  13   13.00    6.80
   3   2  13   14.70    6.20
   3   2  13   15.70    7.20
  -4  -2 -13   91.59   15.10
  -4  -2 -13   84.39   16.00
  -4  -2 -13   78.69   12.70
  -4  -2 -13   84.89   11.80
  -4  -2 -13   95.39   10.80
   4   2  13   98.39   12.70
   4   2  13  105.39   12.70
   4   2  13   94.29   11.20
   4   2  13  106.59   12.80
   2  -3 -13  181.48   17.90
   2  -3 -13  134.39   13.70
   2  -3 -13  156.18   16.60
  -2   3  13  159.68   14.90
  -2   3  13  156.68   16.30
  -2   3  13  148.99   17.40
   1  -3 -13    8.30   10.40
  -1   3  13   12.90    7.50
  -1   3  13    7.00    6.30
  -1   3  13   12.40    6.10
   0  -3 -13    8.80    6.10
   0  -3 -13   12.10    8.70
   0  -3 -13    4.30   11.10
   0  -3 -13    8.10    8.20
   0   3  13   16.60   10.20
   0   3  13    6.60    7.20
  -1  -3 -13  118.69   12.80
  -1  -3 -13  113.99   13.90
  -1  -3 -13   92.99   18.20
   1   3  13   78.59    9.80
   1   3  13  121.39   13.50
   1   3  13  109.49   12.90
  -2  -3 -13   60.89   10.00
  -2  -3 -13   58.29   11.20
  -2  -3 -13   63.39   11.10
  -2  -3 -13   55.79   14.00
  -2  -3 -13   61.59    9.20
   2   3  13   59.09   12.60
   2   3  13   59.09    7.90
   2   3  13   67.19    8.40
  -3  -3 -13   81.09   12.60
  -3  -3 -13   65.19   13.50
  -3  -3 -13   94.79   13.40
  -3  -3 -13  100.29   14.40
  -3  -3 -13   76.79   13.30
   3   3  13   93.69   12.40
   3   3  13   82.49   11.80
   3   3  13  104.89   12.20
  -4  -3 -13  271.27   25.40
  -4  -3 -13  319.37   28.30
  -4  -3 -13  317.37   35.60
  -4  -3 -13  292.87   21.40
  -4  -3 -13  284.07   27.50
   4   3  13  295.27   21.00
   4   3  13  324.87   20.80
   4   3  13  271.57   22.90
   1  -4 -13   11.50    8.00
   1  -4 -13   21.70    6.50
  -1   4  13   18.40    8.10
  -1   4  13   19.50    8.80
  -1   4  13   24.90    7.30
  -1   4  13   16.70    7.00
   0  -4 -13   38.10    7.70
   0  -4 -13   43.00    8.90
   0  -4 -13   33.40   12.80
   0   4  13   43.70    8.80
   0   4  13   40.70    7.10
   0   4  13   41.00    7.70
  -1  -4 -13   36.10    8.20
  -1  -4 -13   40.10   12.70
  -1  -4 -13   35.00    9.00
  -1  -4 -13   34.50   10.90
   1   4  13   47.30    7.30
   1   4  13   36.30    7.50
   1   4  13   45.20    8.50
  -2  -4 -13   -1.10   10.80
  -2  -4 -13   -0.20    8.00
  -2  -4 -13    2.00    8.30
   2   4  13   -3.50    9.30
   2   4  13    3.40    6.10
   2   4  13    8.50    6.80
  -3  -4 -13  219.18   21.70
  -3  -4 -13  226.98   27.40
  -3  -4 -13  203.08   19.30
  -3  -4 -13  216.28   21.30
  -3  -4 -13  206.38   26.30
   3   4  13  156.18   24.10
   3   4  13  209.08   16.90
   3   4  13  196.18   17.60
  -1  -5 -13   -1.10   14.10
  -1  -5 -13    2.80    7.30
  -1  -5 -13    2.00    7.30
   1   5  13   11.60    7.80
   1   5  13    8.30    6.30
   1   5  13   -0.70    6.20
  -2  -5 -13   95.89   15.70
  -2  -5 -13   81.89   10.90
  -2  -5 -13   83.09   16.40
   2   5  13  113.89   14.50
   2   5  13   95.69   13.00
   2   5  13   91.89   13.90
   2   5  13   92.09   12.40
   0   1 -14  239.28   27.60
   0   1 -14  315.47   29.80
   0   1 -14  344.67   23.70
   0  -1  14  342.77   22.80
   0  -1  14  309.17   20.90
   0  -1  14  345.47   22.90
  -1   1 -14  118.49   15.10
  -1   1 -14  118.19   11.70
   1  -1  14  110.09   12.30
   1  -1  14  113.89   13.40
   1   0 -14  146.19   17.10
   1   0 -14  140.89   23.20
  -1   0  14  214.18   17.30
  -1   0  14  172.98   16.50
  -1   0  14  187.98   16.20
   0   0 -14  137.99   23.30
   0   0 -14  199.48   20.70
   0   0  14  192.48   16.80
   0   0  14  196.08   16.70
   0   0  14  185.58   15.00
  -1   0 -14   -8.20   12.90
  -1   0 -14    9.70   13.00
   1   0  14    1.20    6.30
   1   0  14    2.70    6.60
   1   0  14    5.70    5.80
  -2   0 -14   28.20   10.70
  -2   0 -14    5.90   11.10
  -2   0 -14   23.00    8.40
  -2   0 -14   29.00    5.90
   2   0  14   35.30    7.80
   2   0  14   29.20    7.30
   2   0  14   27.80    7.50
   1  -1 -14  195.38   27.00
   1  -1 -14  317.57   38.10
  -1   1  14  254.87   19.30
  -1   1  14  242.18   19.30
  -1   1  14  256.17   18.20
   0  -1 -14   -1.50   16.50
   0  -1 -14   33.80   11.20
   0   1  14   64.09   25.60
   0   1  14   23.50    7.30
   0   1  14   22.90   13.00
   0   1  14   23.60    9.70
  -1  -1 -14  -10.00   13.30
  -1  -1 -14    4.50    8.30
  -1  -1 -14    4.20    8.40
   1   1  14    7.90    6.40
   1   1  14    5.50    6.70
  -2  -1 -14   27.40   13.60
  -2  -1 -14   -5.80   11.50
  -2  -1 -14    0.30   14.20
   2   1  14    7.30    6.70
   2   1  14    5.40    6.80
   2   1  14    2.30    6.20
   0  -2 -14    5.30    8.70
   0  -2 -14    1.60    7.10
   0  -2 -14    2.50   16.00
   0  -2 -14    8.30   11.10
   0  -2 -14    2.80    6.60
   0   2  14   -2.60    7.00
   0   2  14    0.20    6.30
   0   2  14    1.70    6.50
  -1  -2 -14   -1.90    7.60
  -1  -2 -14    2.10    9.20
  -1  -2 -14   13.10   12.30
  -1  -2 -14    6.30   14.30
   1   2  14    8.60    6.20
   1   2  14   -4.60    6.80
   1   2  14    3.10   10.00
  -2  -2 -14    9.20    8.80
  -2  -2 -14   20.80    8.70
  -2  -2 -14   41.70   13.60
  -2  -2 -14   13.60   14.30
   2   2  14   14.10    7.20
   2   2  14    8.20    6.40
   2   2  14   13.10    6.30
  -1  -3 -14    8.00   10.80
  -1  -3 -14    1.80    9.80
  -1  -3 -14   21.60   14.70
  -1  -3 -14    4.60    7.70
   1   3  14    4.60    6.00
   1   3  14    7.80    6.40
   1   3  14    5.60    7.40
;
loop_
_symmetry_equiv_pos_as_xyz
'x, y, z'
'-x, -y, -z'
loop_
_atom_site_label
_atom_site_type_symbol
_atom_site_fract_x
_atom_site_fract_y
_atom_site_fract_z
_atom_site_U_iso_or_equiv
_atom_site_adp_type
_atom_site_occupancy
_atom_site_calc_flag
Se1 Se 0.08094(5) 0.52738(4) 0.81560(3) 0.02826(18) Uani 1 d
Br2 Br 0.20838(7) 0.63940(6) 0.97694(4) 0.0415(2) Uani 1 d
Br1 Br -0.08113(7) 0.42410(6) 0.67033(4) 0.0428(2) Uani 1 d
O1 O 0.6638(4) -0.0801(4) 0.8392(3) 0.0504(9) Uani 1 d
O2 O 0.3072(5) 0.9840(4) 0.4537(3) 0.0481(9) Uani 1 d
C4 C 0.5283(6) 0.0537(5) 0.8359(4) 0.0345(10) Uani 1 d
C10 C 0.2529(6) 0.8878(5) 0.5381(4) 0.0338(9) Uani 1 d
C1 C 0.2704(5) 0.3362(5) 0.8191(3) 0.0291(9) Uani 1 d
C5 C 0.5745(6) 0.1986(6) 0.8058(4) 0.0384(10) Uani 1 d
H5 H 0.6951 0.1996 0.7899 0.046 Uiso 1 calc
C7 C 0.1636(5) 0.6694(5) 0.7013(3) 0.0287(9) Uani 1 d
C3 C 0.3542(6) 0.0513(5) 0.8602(4) 0.0352(10) Uani 1 d
H3 H 0.3236 -0.0474 0.8828 0.042 Uiso 1 calc
C11 C 0.3101(6) 0.7230(5) 0.5244(4) 0.0366(10) Uani 1 d
H11 H 0.3812 0.6861 0.4592 0.044 Uiso 1 calc
C8 C 0.1019(6) 0.8325(5) 0.7145(4) 0.0348(10) Uani 1 d
H8 H 0.0295 0.8686 0.7793 0.042 Uiso 1 calc
C6 C 0.4458(6) 0.3403(5) 0.7991(4) 0.0346(10) Uani 1 d
H6 H 0.4769 0.4398 0.7809 0.042 Uiso 1 calc
C9 C 0.1475(6) 0.9425(5) 0.6316(4) 0.0373(10) Uani 1 d
H9 H 0.1063 1.0546 0.6394 0.045 Uiso 1 calc
C2 C 0.2230(6) 0.1938(5) 0.8518(4) 0.0343(9) Uani 1 d
H2 H 0.1024 0.1933 0.8682 0.041 Uiso 1 calc
C12 C 0.2627(6) 0.6145(5) 0.6059(4) 0.0332(9) Uani 1 d
H12 H 0.2982 0.5026 0.5963 0.04 Uiso 1 calc
C13 C 0.6212(8) -0.2312(6) 0.8690(6) 0.0636(17) Uani 1 d
H13A H 0.5553 -0.2277 0.9426 0.095 Uiso 1 calc
H13B H 0.7304 -0.3166 0.8736 0.095 Uiso 1 calc
H13C H 0.5486 -0.2527 0.8113 0.095 Uiso 1 calc
C14 C 0.2640(8) 1.1528(6) 0.4663(5) 0.0573(15) Uani 1 d
H14A H 0.1352 1.1939 0.4697 0.086 Uiso 1 calc
H14B H 0.3158 1.2075 0.4014 0.086 Uiso 1 calc
H14C H 0.3113 1.1727 0.5363 0.086 Uiso 1 calc
loop_
_atom_site_aniso_label
_atom_site_aniso_U_11
_atom_site_aniso_U_22
_atom_site_aniso_U_33
_atom_site_aniso_U_23
_atom_site_aniso_U_13
_atom_site_aniso_U_12
Se1 0.0244(3) 0.0261(3) 0.0323(3) -0.00088(19) 0.00706(19) -0.00554(18)
Br2 0.0534(3) 0.0420(3) 0.0323(3) -0.0048(2) 0.0029(2) -0.0181(2)
Br1 0.0411(3) 0.0415(3) 0.0493(3) -0.0022(2) -0.0084(2) -0.0157(2)
O1 0.0324(18) 0.0401(18) 0.065(2) 0.0084(16) 0.0137(16) 0.0071(14)
O2 0.055(2) 0.0448(19) 0.0420(19) 0.0124(15) 0.0086(16) -0.0158(16)
C4 0.030(2) 0.033(2) 0.035(2) -0.0004(18) 0.0016(18) 0.0013(18)
C10 0.033(2) 0.036(2) 0.033(2) 0.0080(18) -0.0033(18) -0.0135(18)
C1 0.025(2) 0.0274(19) 0.033(2) -0.0019(16) 0.0010(17) -0.0039(16)
C5 0.025(2) 0.042(2) 0.046(3) 0.003(2) 0.003(2) -0.0075(19)
C7 0.028(2) 0.0278(19) 0.030(2) 0.0019(16) -0.0003(17) -0.0078(16)
C3 0.033(2) 0.027(2) 0.044(3) 0.0018(18) 0.004(2) -0.0090(17)
C11 0.034(2) 0.040(2) 0.034(2) -0.0022(19) 0.0087(19) -0.009(2)
C8 0.039(3) 0.030(2) 0.033(2) -0.0045(17) 0.0058(19) -0.0050(18)
C6 0.033(2) 0.035(2) 0.037(2) 0.0016(18) 0.0023(19) -0.0138(18)
C9 0.047(3) 0.024(2) 0.039(2) -0.0008(17) 0.001(2) -0.0071(18)
C2 0.024(2) 0.032(2) 0.045(3) 0.0007(18) 0.0033(19) -0.0066(17)
C12 0.033(2) 0.029(2) 0.036(2) -0.0049(17) 0.0088(18) -0.0053(17)
C13 0.052(3) 0.034(3) 0.087(4) 0.008(3) 0.020(3) 0.013(2)
C14 0.063(4) 0.040(3) 0.069(4) 0.017(3) 0.003(3) -0.021(3)
loop_
_atom_type_symbol
_atom_type_description
_atom_type_scat_dispersion_real
_atom_type_scat_dispersion_imag
_atom_type_scat_source
C C 0.0033 0.0016 'International Tables Vol C Tables 4.2.6.8 and 6.1.1.4'
H H 0 0 'International Tables Vol C Tables 4.2.6.8 and 6.1.1.4'
O O 0.0106 0.006 'International Tables Vol C Tables 4.2.6.8 and 6.1.1.4'
Se Se -0.0929 2.2259 'International Tables Vol C Tables 4.2.6.8 and 6.1.1.4'
Br Br -0.2901 2.4595 'International Tables Vol C Tables 4.2.6.8 and 6.1.1.4'
loop_
_geom_angle_atom_site_label_1
_geom_angle_atom_site_label_2
_geom_angle_atom_site_label_3
_geom_angle
C1 Se1 C7 103.47(18)
C1 Se1 Br1 92.60(12)
C7 Se1 Br1 91.60(12)
C1 Se1 Br2 91.89(12)
C7 Se1 Br2 92.60(12)
Br1 Se1 Br2 172.98(2)
C4 O1 C13 117.6(4)
C10 O2 C14 117.8(4)
O1 C4 C3 123.6(4)
O1 C4 C5 116.0(4)
C3 C4 C5 120.4(4)
O2 C10 C9 124.4(4)
O2 C10 C11 115.0(4)
C9 C10 C11 120.6(4)
C2 C1 C6 121.3(4)
C2 C1 Se1 116.0(3)
C6 C1 Se1 122.5(3)
C6 C5 C4 120.1(4)
C6 C5 H5 120
C4 C5 H5 120
C12 C7 C8 121.3(4)
C12 C7 Se1 122.3(3)
C8 C7 Se1 116.0(3)
C4 C3 C2 119.8(4)
C4 C3 H3 120.1
C2 C3 H3 120.1
C12 C11 C10 119.6(4)
C12 C11 H11 120.2
C10 C11 H11 120.2
C7 C8 C9 119.2(4)
C7 C8 H8 120.4
C9 C8 H8 120.4
C5 C6 C1 119.2(4)
C5 C6 H6 120.4
C1 C6 H6 120.4
C10 C9 C8 119.6(4)
C10 C9 H9 120.2
C8 C9 H9 120.2
C1 C2 C3 119.2(4)
C1 C2 H2 120.4
C3 C2 H2 120.4
C7 C12 C11 119.6(4)
C7 C12 H12 120.2
C11 C12 H12 120.2
O1 C13 H13A 109.5
O1 C13 H13B 109.5
H13A C13 H13B 109.5
O1 C13 H13C 109.5
H13A C13 H13C 109.5
H13B C13 H13C 109.5
O2 C14 H14A 109.5
O2 C14 H14B 109.5
H14A C14 H14B 109.5
O2 C14 H14C 109.5
H14A C14 H14C 109.5
H14B C14 H14C 109.5
loop_
_geom_bond_atom_site_label_1
_geom_bond_atom_site_label_2
_geom_bond_distance
Se1 C1 1.921(4)
Se1 C7 1.926(4)
Se1 Br1 2.5585(6)
Se1 Br2 2.5888(6)
O1 C4 1.358(5)
O1 C13 1.430(6)
O2 C10 1.353(5)
O2 C14 1.428(6)
C4 C3 1.376(6)
C4 C5 1.393(6)
C10 C9 1.379(7)
C10 C11 1.400(6)
C1 C2 1.382(6)
C1 C6 1.383(6)
C5 C6 1.376(6)
C5 H5 0.95
C7 C12 1.377(6)
C7 C8 1.387(6)
C3 C2 1.391(6)
C3 H3 0.95
C11 C12 1.378(6)
C11 H11 0.95
C8 C9 1.392(6)
C8 H8 0.95
C6 H6 0.95
C9 H9 0.95
C2 H2 0.95
C12 H12 0.95
C13 H13A 0.98
C13 H13B 0.98
C13 H13C 0.98
C14 H14A 0.98
C14 H14B 0.98
C14 H14C 0.98
