#------------------------------------------------------------------------------
#$Date: 2016-05-31 10:54:22 +0300 (Tue, 31 May 2016) $
#$Revision: 183168 $
#$URL: svn://www.crystallography.net/cod/cif/7/11/89/7118967.cif $
#------------------------------------------------------------------------------
#
# This file is available in the Crystallography Open Database (COD),
# http://www.crystallography.net/
#
# All data on this site have been placed in the public domain by the
# contributors.
#
data_7118967
loop_
_publ_author_name
'Dhananjay Dey'
'Subhrajyoti Bhandary'
'Abhishek Sirohiwal'
'Venkatesha R. Hathwar'
'Deepak Chopra'
_publ_section_title
;
 'Conformational lock' via unusual intramolecular C-F^...^O[double bond,
 length as m-dash]C and C-H^...^Cl-C parallel dipoles observed in in situ
 cryocrystallized liquids
;
_journal_name_full               Chem.Commun.
_journal_page_first              7225
_journal_volume                  52
_journal_year                    2016
_chemical_formula_sum            'C7 H3 Cl F2 O'
_chemical_formula_weight         176.54
_chemical_melting_point          262.5
_space_group_crystal_system      triclinic
_space_group_IT_number           2
_space_group_name_Hall           '-P 1'
_space_group_name_H-M_alt        'P -1'
_symmetry_space_group_name_Hall  '-P 1'
_symmetry_space_group_name_H-M   'P -1'
_atom_sites_solution_hydrogens   geom
_audit_creation_method           SHELXL-2014/7
_audit_update_record
;
2016-04-14 deposited with the CCDC.
2016-04-18 downloaded from the CCDC.
;
_cell_angle_alpha                94.6130(10)
_cell_angle_beta                 104.2750(10)
_cell_angle_gamma                115.9060(10)
_cell_formula_units_Z            2
_cell_length_a                   6.85900(10)
_cell_length_b                   7.20060(10)
_cell_length_c                   8.03650(10)
_cell_measurement_reflns_used    6234
_cell_measurement_temperature    140(2)
_cell_measurement_theta_max      30.53
_cell_measurement_theta_min      2.68
_cell_volume                     337.850(9)
_computing_cell_refinement       'Bruker SAINT'
_computing_data_collection       'Bruker APEX2'
_computing_data_reduction        'Bruker SAINT'
_computing_molecular_graphics
'PLATON (Spek, 2009) and Mercury (Macrae <i>et al.</i>, 2008)'
_computing_publication_material  'WINGX (Farrugia, 2014) and PLATON'
_computing_structure_refinement  'SHELXL-2014/7 (Sheldrick, 2014)'
_computing_structure_solution    'SIR2014 (Burla <i>et al.</i>, 2014)'
_diffrn_ambient_temperature      140(2)
_diffrn_measured_fraction_theta_full 0.785
_diffrn_measured_fraction_theta_max 0.721
_diffrn_measurement_device_type  'Bruker APEX-II CCD'
_diffrn_measurement_method       '\w scans'
_diffrn_radiation_type           MoK\a
_diffrn_radiation_wavelength     0.71073
_diffrn_reflns_av_R_equivalents  0.0093
_diffrn_reflns_av_unetI/netI     0.0059
_diffrn_reflns_Laue_measured_fraction_full 0.785
_diffrn_reflns_Laue_measured_fraction_max 0.721
_diffrn_reflns_limit_h_max       9
_diffrn_reflns_limit_h_min       -9
_diffrn_reflns_limit_k_max       9
_diffrn_reflns_limit_k_min       -9
_diffrn_reflns_limit_l_max       10
_diffrn_reflns_limit_l_min       -10
_diffrn_reflns_number            6690
_diffrn_reflns_point_group_measured_fraction_full 0.785
_diffrn_reflns_point_group_measured_fraction_max 0.721
_diffrn_reflns_theta_full        25.242
_diffrn_reflns_theta_max         28.273
_diffrn_reflns_theta_min         2.678
_exptl_absorpt_coefficient_mu    0.530
_exptl_absorpt_correction_T_max  0.853
_exptl_absorpt_correction_T_min  0.853
_exptl_absorpt_correction_type   multi-scan
_exptl_absorpt_process_details   SADABS
_exptl_crystal_colour            colourless
_exptl_crystal_density_diffrn    1.735
_exptl_crystal_description       block
_exptl_crystal_F_000             176
_exptl_crystal_size_max          0.300
_exptl_crystal_size_mid          0.300
_exptl_crystal_size_min          0.300
_refine_diff_density_max         0.305
_refine_diff_density_min         -0.270
_refine_diff_density_rms         0.056
_refine_ls_extinction_coef       .
_refine_ls_extinction_method     none
_refine_ls_goodness_of_fit_ref   1.158
_refine_ls_hydrogen_treatment    constr
_refine_ls_matrix_type           full
_refine_ls_number_parameters     100
_refine_ls_number_reflns         1210
_refine_ls_number_restraints     0
_refine_ls_restrained_S_all      1.158
_refine_ls_R_factor_all          0.0258
_refine_ls_R_factor_gt           0.0254
_refine_ls_shift/su_max          0.000
_refine_ls_shift/su_mean         0.000
_refine_ls_structure_factor_coef Fsqd
_refine_ls_weighting_details
'w=1/[\s^2^(Fo^2^)+(0.0351P)^2^+0.1592P] where P=(Fo^2^+2Fc^2^)/3'
_refine_ls_weighting_scheme      calc
_refine_ls_wR_factor_gt          0.0723
_refine_ls_wR_factor_ref         0.0726
_reflns_Friedel_coverage         0.000
_reflns_Friedel_fraction_full    .
_reflns_Friedel_fraction_max     .
_reflns_number_gt                1190
_reflns_number_total             1210
_reflns_threshold_expression     'I > 2\s(I)'
_cod_data_source_file            c6cc02535h2.cif
_cod_data_source_block           23dfbc
_cod_original_cell_volume        337.849(9)
_cod_database_code               7118967
_shelx_shelxl_version_number     2014/7
_shelx_space_group_comment
;
The symmetry employed for this shelxl refinement is uniquely defined
by the following loop, which should always be used as a source of
symmetry information in preference to the above space-group names.
They are only intended as comments.
;
_shelx_estimated_absorpt_t_min   0.857
_shelx_estimated_absorpt_t_max   0.857
_shelx_res_file
;

    shelx.res created by SHELXL-2014/7


TITL TRY1_a.res in P-1
CELL  0.71073   6.8590   7.2006   8.0365   94.613  104.275  115.906
ZERR    2.000   0.0001   0.0001   0.0001    0.001    0.001    0.001
LATT  1
SFAC C H O F CL
UNIT 14 6 2 4 2
MERG 2
L.S. 12
ACTA
BOND $H
HTAB
CONF
TEMP -133
SIZE 0.3 0.3 0.3
FMAP 2
PLAN 5
WGHT    0.035100    0.159200
FVAR       0.89830
CL1   5    0.689060    0.770557    0.933393    11.00000    0.02960    0.06054 =
         0.01878    0.00894    0.00295    0.02834
F2    4   -0.140857    0.781606    0.376372    11.00000    0.01865    0.03495 =
         0.02908    0.00965    0.00531    0.01801
F1    4    0.021391    0.796700    0.713165    11.00000    0.02414    0.03277 =
         0.02452    0.00773    0.01497    0.01782
O1    3    0.310401    0.735498    0.962052    11.00000    0.03877    0.05845 =
         0.02035    0.01570    0.01655    0.02952
C1    1    0.332356    0.751271    0.671571    11.00000    0.01540    0.01444 =
         0.01467    0.00321    0.00510    0.00619
C3    1    0.052125    0.764886    0.431220    11.00000    0.01220    0.01668 =
         0.02273    0.00528    0.00388    0.00719
C4    1    0.157929    0.738496    0.313621    11.00000    0.01850    0.01848 =
         0.01633    0.00445    0.00395    0.00747
AFIX  43
H4    2    0.098043    0.733796    0.192516    11.00000   -1.20000
AFIX   0
C6    1    0.441891    0.726223    0.552357    11.00000    0.01534    0.01729 =
         0.01752    0.00316    0.00559    0.00830
AFIX  43
H6    2    0.577333    0.714212    0.593110    11.00000   -1.20000
AFIX   0
C5    1    0.354760    0.718774    0.375537    11.00000    0.01792    0.02088 =
         0.01676    0.00323    0.00751    0.00934
AFIX  43
H5    2    0.429928    0.700064    0.295951    11.00000   -1.20000
AFIX   0
C2    1    0.135858    0.771623    0.608061    11.00000    0.01430    0.01486 =
         0.01931    0.00399    0.00897    0.00597
C7    1    0.411758    0.749680    0.860308    11.00000    0.02260    0.02232 =
         0.01610    0.00388    0.00522    0.01194
HKLF 4

REM  TRY1_a.res in P-1
REM R1 =  0.0254 for    1190 Fo > 4sig(Fo)  and  0.0258 for all    1210 data
REM    100 parameters refined using      0 restraints

END

WGHT      0.0349      0.1613

REM Instructions for potential hydrogen bonds
EQIV $1 x, y, z-1
HTAB C4 O1_$1

REM Highest difference peak  0.305,  deepest hole -0.270,  1-sigma level  0.056
Q1    1   0.3650  0.7436  0.7637  11.00000  0.05    0.31
Q2    1   0.0785  0.7479  0.5184  11.00000  0.05    0.30
Q3    1   0.3895  0.7470  0.6177  11.00000  0.05    0.28
Q4    1   0.3981  0.7304  0.4685  11.00000  0.05    0.27
Q5    1   0.1029  0.7455  0.3788  11.00000  0.05    0.27
;
_shelx_res_checksum              26190
_shelx_hkl_file
;
  -1   0   0    0.50    0.10
  -1   0   0    0.40    0.10
   1   0   0    0.50    0.10
   1   0   0    0.50    0.10
   1   0   0    0.50    0.10
   1   0   0    0.50    0.10
  -2   0   0   58.39    0.60
  -2   0   0   59.19    0.60
  -2   0   0   58.59    0.60
  -2   0   0   59.19    0.60
   2   0   0   58.39    0.60
   2   0   0   58.79    0.60
   2   0   0   59.69    0.60
  -3   0   0  532.05    4.30
  -3   0   0  538.65    4.40
  -3   0   0  531.35    4.30
  -3   0   0  530.65    4.30
  -3   0   0  526.95    4.30
   3   0   0  538.25    4.30
   3   0   0  537.45    4.40
  -4   0   0  148.79    1.40
  -4   0   0  144.99    1.40
  -4   0   0  148.19    1.40
  -4   0   0  145.89    1.40
   4   0   0  145.89    1.40
   4   0   0  147.19    1.50
  -5   0   0   66.69    0.80
  -5   0   0   67.99    0.80
  -5   0   0   66.69    0.80
  -5   0   0   66.29    0.80
   5   0   0   65.99    0.90
   5   0   0   64.49    0.90
   6  -1   0   68.49    1.00
   6  -1   0   68.49    1.00
  -6   1   0   68.59    0.90
  -6   1   0   69.79    1.00
  -6   1   0   68.69    0.90
  -6   1   0   68.89    0.90
   5  -1   0   66.19    0.90
   5  -1   0   65.89    0.90
  -5   1   0   65.89    0.90
  -5   1   0   66.59    0.80
  -5   1   0   66.69    0.90
  -5   1   0   66.59    0.90
  -5   1   0   67.49    0.90
  -4   1   0   15.60    0.30
  -4   1   0   15.40    0.30
  -4   1   0   15.60    0.30
  -4   1   0   16.50    0.30
  -4   1   0   15.10    0.40
   3  -1   0  539.25    4.40
   3  -1   0  539.25    4.40
  -3   1   0  536.35    4.40
  -3   1   0  535.95    4.50
  -3   1   0  536.75    4.40
  -3   1   0  536.25    4.40
  -3   1   0  539.15    4.40
   2  -1   0   55.79    0.60
   2  -1   0   55.59    0.60
   2  -1   0   56.39    0.60
  -2   1   0   54.79    0.60
  -2   1   0   54.89    0.60
  -2   1   0   55.29    0.60
  -2   1   0   55.79    0.60
  -2   1   0   55.59    0.60
   1  -1   0  107.89    1.00
   1  -1   0  110.19    1.00
   1  -1   0  109.79    1.00
   1  -1   0  111.29    1.00
  -1   1   0  107.49    1.00
  -1   1   0  109.09    1.00
   0  -1   0   41.70    0.50
   0  -1   0   41.00    0.50
   0  -1   0   41.60    0.50
   0   1   0   40.00    0.50
   0   1   0   39.60    0.50
  -2  -1   0   12.80    0.20
   2   1   0   11.90    0.20
   2   1   0   12.20    0.20
   2   1   0   11.90    0.20
   2   1   0   12.10    0.20
  -3  -1   0  386.56    3.10
  -3  -1   0  388.16    3.20
  -3  -1   0  382.76    3.20
  -3  -1   0  390.16    3.20
   3   1   0  391.96    3.20
   3   1   0  394.56    3.20
   3   1   0  394.06    3.20
  -4  -1   0    4.80    0.20
  -4  -1   0    4.90    0.20
  -4  -1   0    4.70    0.20
  -4  -1   0    4.50    0.20
   4   1   0    4.90    0.20
   4   1   0    4.60    0.20
  -7   2   0   93.39    1.20
  -7   2   0   93.39    1.30
  -7   2   0   92.99    1.20
  -7   2   0   92.79    1.20
   6  -2   0  377.36    3.60
   6  -2   0  376.06    3.50
  -6   2   0  378.86    3.40
  -6   2   0  380.46    3.40
  -6   2   0  382.26    3.50
  -6   2   0  383.16    3.50
  -6   2   0  378.16    3.60
   5  -2   0   25.00    0.50
   5  -2   0   25.40    0.50
  -5   2   0   24.30    0.50
  -5   2   0   25.40    0.50
  -5   2   0   23.80    0.50
  -5   2   0   25.20    0.50
  -5   2   0   24.80    0.60
   4  -2   0  216.18    2.10
   4  -2   0  215.98    2.10
  -4   2   0  215.78    2.00
  -4   2   0  216.38    2.10
  -4   2   0  215.48    2.00
  -4   2   0  217.08    2.00
  -4   2   0  217.38    2.00
   3  -2   0  711.43    6.00
   3  -2   0  706.53    5.90
  -3   2   0  707.83    6.40
  -3   2   0  712.13    5.70
  -3   2   0  703.83    6.10
  -3   2   0  703.13    5.90
  -3   2   0  702.73    5.80
   2  -2   0    1.40    0.10
   2  -2   0    1.30    0.10
  -2   2   0    1.40    0.10
  -2   2   0    1.20    0.10
  -2   2   0    1.30    0.10
  -2   2   0    1.30    0.10
   1  -2   0  160.78    1.50
   1  -2   0  164.98    1.50
   1  -2   0  166.98    1.40
  -1   2   0  164.98    1.40
  -1   2   0  164.98    1.40
  -1   2   0  165.88    1.50
  -1   2   0  166.78    1.40
   0  -2   0 9542.45   83.19
   0  -2   0 9575.04   84.19
   0  -2   0 9182.18   83.49
   0   2   0 9999.00   86.79
   0   2   0 9496.95   84.69
   8  -3   0    0.50    0.20
   8  -3   0    0.60    0.20
  -8   3   0    0.50    0.20
  -8   3   0    0.30    0.10
  -8   3   0    0.60    0.20
  -8   3   0    0.50    0.20
   7  -3   0   21.60    0.60
   7  -3   0   20.70    0.60
  -7   3   0   20.90    0.60
  -7   3   0   22.00    0.50
  -7   3   0   21.00    0.50
  -7   3   0   21.30    0.50
  -7   3   0   20.90    0.60
   6  -3   0   18.10    0.50
   6  -3   0   18.30    0.50
  -6   3   0   18.60    0.50
  -6   3   0   19.00    0.50
  -6   3   0   18.40    0.50
  -6   3   0   19.20    0.50
  -6   3   0   18.60    0.50
   5  -3   0   81.09    1.10
   5  -3   0   79.99    1.10
  -5   3   0   80.19    1.00
  -5   3   0   81.89    1.20
  -5   3   0   80.49    1.00
  -5   3   0   81.39    1.10
  -5   3   0   80.89    1.00
   4  -3   0   36.40    0.60
   4  -3   0   34.90    0.60
  -4   3   0   35.70    0.60
  -4   3   0   35.80    0.60
  -4   3   0   35.80    0.60
  -4   3   0   35.90    0.60
  -4   3   0   36.30    0.70
   3  -3   0  252.67    2.30
   3  -3   0  251.07    2.30
  -3   3   0  249.08    2.20
  -3   3   0  251.07    2.30
  -3   3   0  248.98    2.20
  -3   3   0  249.08    2.30
   2  -3   0   54.79    0.70
   2  -3   0   55.79    0.70
  -2   3   0   52.99    0.70
  -2   3   0   55.29    0.60
  -2   3   0   54.39    0.60
  -2   3   0   53.79    0.70
   1  -3   0   36.20    0.50
   1  -3   0   36.30    0.50
  -1   3   0   35.90    0.50
  -1   3   0   35.90    0.40
  -1   3   0   36.40    0.50
  -1   3   0   35.70    0.40
   0  -3   0  157.78    1.40
   0  -3   0  156.58    1.40
   0   3   0  156.88    1.30
   0   3   0  156.78    1.40
   0   3   0  154.78    1.30
   0   3   0  157.58    1.40
   8  -4   0   33.90    0.90
   8  -4   0   34.60    0.80
  -8   4   0   35.80    0.80
  -8   4   0   33.20    0.80
  -8   4   0   36.00    0.80
  -8   4   0   35.80    0.80
  -8   4   0   35.90    0.90
   7  -4   0   50.99    1.00
   7  -4   0   50.79    1.00
  -7   4   0   49.30    0.90
  -7   4   0   50.19    0.90
  -7   4   0   50.19    0.90
  -7   4   0   51.79    1.00
  -7   4   0   51.39    0.90
   6  -4   0  455.35    4.30
   6  -4   0  450.65    4.20
  -6   4   0  457.95    4.20
  -6   4   0  455.85    4.10
  -6   4   0  455.15    4.10
  -6   4   0  454.25    4.10
  -6   4   0  456.05    4.40
   5  -4   0    0.00    0.10
   5  -4   0    0.10    0.10
  -5   4   0    0.10    0.10
  -5   4   0    0.20    0.10
  -5   4   0    0.10    0.10
  -5   4   0    0.20    0.10
  -5   4   0    0.00    0.10
   4  -4   0  156.18    1.70
   4  -4   0  158.98    1.70
  -4   4   0  159.68    1.60
  -4   4   0  158.58    1.70
  -4   4   0  156.98    1.70
  -4   4   0  159.58    1.60
  -4   4   0  158.38    1.80
   3  -4   0  272.27    2.60
   3  -4   0  276.87    2.50
  -3   4   0  274.97    2.60
  -3   4   0  276.47    2.50
  -3   4   0  279.67    2.50
  -3   4   0  274.37    2.50
   2  -4   0    2.70    0.20
   2  -4   0    3.00    0.20
  -2   4   0    2.80    0.10
  -2   4   0    2.80    0.10
  -2   4   0    3.10    0.20
  -2   4   0    2.90    0.20
   1  -4   0  217.78    2.00
   1  -4   0  217.28    1.90
  -1   4   0  218.28    1.90
  -1   4   0  216.88    1.90
  -1   4   0  219.38    1.90
  -1   4   0  217.98    2.00
   0  -4   0 1978.40   16.00
   0  -4   0 1998.90   16.10
   0   4   0 2080.79   16.10
   0   4   0 2015.50   15.90
   0   4   0 2023.50   15.90
   0   4   0 2057.59   16.10
   8  -5   0    0.10    0.10
   8  -5   0    0.30    0.20
  -8   5   0    0.20    0.10
  -8   5   0    0.20    0.20
  -8   5   0    0.00    0.10
  -8   5   0    0.00    0.10
   7  -5   0   49.90    1.00
   7  -5   0   48.90    1.00
  -7   5   0   47.60    0.90
  -7   5   0   49.00    0.90
  -7   5   0   49.60    1.00
  -7   5   0   50.09    1.00
  -7   5   0   49.90    0.90
   6  -5   0    2.60    0.30
   6  -5   0    2.70    0.30
  -6   5   0    3.00    0.20
  -6   5   0    3.10    0.30
  -6   5   0    3.00    0.30
  -6   5   0    3.00    0.30
  -6   5   0    3.70    0.30
   5  -5   0   34.60    0.70
   5  -5   0   34.50    0.70
  -5   5   0   34.90    0.80
  -5   5   0   35.30    0.70
  -5   5   0   34.80    0.70
  -5   5   0   35.10    0.60
  -5   5   0   36.20    0.70
   4  -5   0   32.80    0.60
   4  -5   0   32.60    0.70
  -4   5   0   34.10    0.60
  -4   5   0   33.20    0.60
  -4   5   0   33.90    0.60
  -4   5   0   32.60    0.60
  -4   5   0   32.60    0.70
   3  -5   0   51.79    0.80
   3  -5   0   53.19    0.80
  -3   5   0   52.89    0.70
  -3   5   0   53.59    0.80
  -3   5   0   53.49    0.70
  -3   5   0   52.19    0.80
   2  -5   0   12.70    0.30
   2  -5   0   12.10    0.30
  -2   5   0   12.30    0.40
  -2   5   0   12.40    0.30
  -2   5   0   12.70    0.30
  -2   5   0   12.50    0.30
   1  -5   0   42.50    0.60
   1  -5   0   42.50    0.60
  -1   5   0   42.10    0.60
  -1   5   0   41.40    0.60
  -1   5   0   42.70    0.60
  -1   5   0   41.40    0.60
   0  -5   0   81.39    1.00
   0  -5   0   82.19    1.00
   0   5   0   81.59    0.90
   0   5   0   82.89    0.90
   8  -6   0   28.40    0.80
   8  -6   0   28.10    0.80
  -8   6   0   29.10    0.80
  -8   6   0   29.80    0.80
  -8   6   0   28.80    0.70
  -8   6   0   28.80    0.80
   7  -6   0    5.10    0.40
   7  -6   0    4.90    0.30
  -7   6   0    4.50    0.40
  -7   6   0    5.50    0.30
  -7   6   0    4.60    0.30
  -7   6   0    4.80    0.30
  -7   6   0    4.50    0.30
   6  -6   0  250.17    2.70
   6  -6   0  250.17    2.80
  -6   6   0  242.98    2.50
  -6   6   0  249.08    2.80
  -6   6   0  244.58    2.60
  -6   6   0  245.48    2.60
  -6   6   0  246.68    2.60
   5  -6   0    3.40    0.30
   5  -6   0    2.90    0.30
  -5   6   0    3.30    0.20
  -5   6   0    3.30    0.20
  -5   6   0    3.10    0.30
  -5   6   0    3.30    0.30
  -5   6   0    3.10    0.20
   4  -6   0   72.19    1.10
   4  -6   0   72.99    1.10
  -4   6   0   73.89    1.10
  -4   6   0   72.79    1.10
  -4   6   0   71.79    1.00
  -4   6   0   71.89    1.00
  -4   6   0   72.49    1.00
   3  -6   0   46.20    0.80
   3  -6   0   47.20    0.80
  -3   6   0   46.90    0.70
  -3   6   0   46.20    0.70
  -3   6   0   46.70    0.80
  -3   6   0   47.60    0.80
  -3   6   0   45.90    0.70
   2  -6   0    4.60    0.20
   2  -6   0    4.80    0.30
  -2   6   0    4.70    0.20
  -2   6   0    4.80    0.20
  -2   6   0    5.20    0.20
  -2   6   0    4.60    0.20
  -2   6   0    4.70    0.30
   1  -6   0  123.49    1.40
   1  -6   0  124.39    1.30
  -1   6   0  124.09    1.40
  -1   6   0  123.39    1.30
   8  -7   0    0.30    0.20
   8  -7   0    0.00    0.10
  -8   7   0    0.30    0.20
  -8   7   0    0.30    0.20
  -8   7   0    0.00    0.20
   7  -7   0   35.90    0.90
   7  -7   0   35.90    0.90
  -7   7   0   34.60    0.80
  -7   7   0   36.30    0.80
  -7   7   0   35.10    0.80
  -7   7   0   34.80    0.90
   6  -7   0   19.10    0.60
   6  -7   0   18.00    0.60
  -6   7   0   18.80    0.60
  -6   7   0   20.10    0.60
  -6   7   0   19.50    0.60
  -6   7   0   20.10    0.60
  -6   7   0   19.10    0.70
   5  -7   0    8.20    0.40
   5  -7   0    8.60    0.40
  -5   7   0    8.80    0.40
  -5   7   0    8.50    0.40
  -5   7   0    8.30    0.40
  -5   7   0    8.60    0.40
  -5   7   0    7.80    0.40
   4  -7   0   12.10    0.40
   4  -7   0   12.30    0.50
  -4   7   0   11.80    0.40
  -4   7   0   11.90    0.50
  -4   7   0   12.60    0.40
  -4   7   0   12.70    0.40
  -4   7   0   11.70    0.40
   3  -7   0   12.60    0.40
   3  -7   0   11.70    0.40
  -3   7   0   12.90    0.50
  -3   7   0   12.60    0.40
  -3   7   0   12.20    0.40
  -3   7   0   12.30    0.40
  -3   7   0   12.60    0.40
   2  -7   0    0.30    0.10
   2  -7   0    0.30    0.10
  -2   7   0    0.70    0.20
  -2   7   0    0.70    0.10
  -2   7   0    0.40    0.20
  -2   7   0    0.50    0.10
   7  -8   0    1.80    0.30
   7  -8   0    1.30    0.20
  -7   8   0    1.80    0.30
  -7   8   0    1.80    0.20
  -7   8   0    1.90    0.30
  -7   8   0    2.20    0.30
   6  -8   0   69.89    1.20
   6  -8   0   66.59    1.30
  -6   8   0   68.19    1.20
  -6   8   0   67.89    1.20
  -6   8   0   65.59    1.10
  -6   8   0   68.69    1.20
  -6   8   0   67.59    1.30
   5  -8   0    3.40    0.30
   5  -8   0    3.10    0.30
  -5   8   0    3.40    0.30
  -5   8   0    3.50    0.30
  -5   8   0    3.10    0.30
  -5   8   0    3.80    0.30
  -5   8   0    3.60    0.30
   4  -8   0   18.40    0.60
   4  -8   0   19.00    0.60
  -4   8   0   19.20    0.50
  -4   8   0   19.20    0.50
  -4   8   0   18.40    0.50
  -4   8   0   18.60    0.60
  -4   8   0   18.70    0.60
  -3   8   0    3.20    0.40
  -3   8   0    3.30    0.40
   6  -9   0   13.60    0.60
   6  -9   0   12.70    0.60
  -6   9   0   12.90    0.50
  -6   9   0   13.40    0.60
  -6   9   0   12.60    0.50
  -6   9   0   13.30    0.50
   5  -9   0    1.10    0.20
   5  -9   0    1.30    0.30
  -5   9   0    1.40    0.30
  -5   9   0    1.00    0.20
  -5   9   0    1.20    0.20
  -5   9   0    1.30    0.30
  -5   9   0    1.60    0.30
  -5   9  -1   49.99    1.00
  -5   9  -1   49.70    0.90
  -5   9  -1   49.40    1.00
  -5   9  -1   48.60    1.60
  -5   9  -1   50.29    1.00
   5  -9   1   49.50    1.10
   5  -9   1   50.09    1.00
  -6   9  -1    1.70    0.30
  -6   9  -1    2.00    0.30
  -6   9  -1    1.90    0.30
  -6   9  -1    1.90    0.30
   6  -9   1    1.50    0.30
   6  -9   1    1.70    0.30
  -3   8  -1    3.80    0.30
  -3   8  -1    4.40    0.30
  -3   8  -1    4.50    0.30
   3  -8   1    4.40    0.50
   3  -8   1    4.10    0.50
  -4   8  -1   49.90    0.90
  -4   8  -1   48.70    0.90
  -4   8  -1   48.50    1.00
  -4   8  -1   48.00    0.80
  -4   8  -1   49.00    0.90
   4  -8   1   49.80    1.00
   4  -8   1   48.60    0.90
  -5   8  -1    7.80    0.40
  -5   8  -1    8.90    0.40
  -5   8  -1    8.90    0.40
  -5   8  -1    8.80    0.50
  -5   8  -1    8.20    0.40
   5  -8   1    8.40    0.40
   5  -8   1    8.50    0.40
  -6   8  -1    9.10    0.40
  -6   8  -1    8.50    0.40
  -6   8  -1    8.40    0.40
  -6   8  -1    9.00    0.40
   6  -8   1    8.90    0.50
   6  -8   1    9.40    0.50
  -7   8  -1   14.40    0.60
  -7   8  -1   14.90    0.60
  -7   8  -1   13.50    0.60
  -7   8  -1   13.70    0.50
   7  -8   1   13.40    0.60
   7  -8   1   14.60    0.60
  -2   7  -1    0.70    0.10
  -2   7  -1    0.70    0.10
  -2   7  -1    0.70    0.10
  -2   7  -1    0.50    0.10
  -2   7  -1    0.40    0.20
   2  -7   1    0.30    0.10
   2  -7   1    0.70    0.10
  -3   7  -1  132.29    1.50
  -3   7  -1  136.19    1.50
  -3   7  -1  133.39    1.70
  -3   7  -1  135.39    1.60
  -3   7  -1  137.59    1.50
   3  -7   1  137.89    1.60
   3  -7   1  138.09    1.70
  -4   7  -1    1.30    0.20
  -4   7  -1    1.00    0.20
  -4   7  -1    1.30    0.20
  -4   7  -1    1.20    0.20
  -4   7  -1    1.70    0.20
   4  -7   1    1.30    0.20
   4  -7   1    1.40    0.20
  -5   7  -1   81.59    1.20
  -5   7  -1   79.89    1.20
  -5   7  -1   81.89    1.40
  -5   7  -1   80.69    1.20
  -5   7  -1   79.29    1.20
   5  -7   1   82.99    1.30
   5  -7   1   84.29    1.30
  -6   7  -1    0.30    0.10
  -6   7  -1    0.20    0.10
  -6   7  -1    0.50    0.20
  -6   7  -1    0.10    0.10
  -6   7  -1    0.40    0.20
   6  -7   1    0.50    0.20
   6  -7   1    0.50    0.20
  -7   7  -1   12.30    0.50
  -7   7  -1   12.00    0.50
  -7   7  -1   11.40    0.50
  -7   7  -1   12.30    0.50
   7  -7   1   12.10    0.60
   7  -7   1   12.30    0.50
  -8   7  -1   31.00    0.80
  -8   7  -1   31.30    0.80
  -8   7  -1   31.50    0.80
   8  -7   1   31.70    0.90
   8  -7   1   30.40    0.90
  -1   6  -1   61.39    0.80
  -1   6  -1   60.99    0.80
  -1   6  -1   57.79    1.00
  -1   6  -1   57.59    1.00
   1  -6   1   61.79    0.80
   1  -6   1   61.29    0.80
  -2   6  -1   60.89    0.90
  -2   6  -1   62.89    0.80
  -2   6  -1   62.29    0.80
  -2   6  -1   62.39    0.90
  -2   6  -1   61.99    0.80
   2  -6   1   62.79    0.90
   2  -6   1   62.49    0.90
  -3   6  -1   42.10    0.70
  -3   6  -1   41.70    0.70
  -3   6  -1   41.80    0.80
  -3   6  -1   41.30    0.70
  -3   6  -1   42.70    0.70
   3  -6   1   41.20    0.80
   3  -6   1   40.50    0.70
  -4   6  -1  157.28    1.80
  -4   6  -1  156.98    1.80
  -4   6  -1  157.98    1.90
  -4   6  -1  157.28    1.70
  -4   6  -1  156.58    1.70
   4  -6   1  159.58    1.80
   4  -6   1  157.88    1.90
  -5   6  -1   60.09    1.00
  -5   6  -1   60.79    1.10
  -5   6  -1   60.89    1.00
  -5   6  -1   62.19    1.00
  -5   6  -1   61.19    0.90
   5  -6   1   61.29    1.10
   5  -6   1   60.59    1.00
  -6   6  -1    5.80    0.30
  -6   6  -1    5.70    0.40
  -6   6  -1    5.40    0.30
  -6   6  -1    5.30    0.30
  -6   6  -1    5.50    0.30
   6  -6   1    5.70    0.30
   6  -6   1    5.80    0.40
  -7   6  -1   29.10    0.80
  -7   6  -1   28.20    0.70
  -7   6  -1   28.40    0.80
  -7   6  -1   28.50    0.70
  -7   6  -1   28.10    0.70
   7  -6   1   29.70    0.80
   7  -6   1   28.70    0.80
  -8   6  -1   40.80    1.00
  -8   6  -1   40.40    0.90
  -8   6  -1   41.10    0.90
  -8   6  -1   40.30    0.90
   8  -6   1   43.00    1.00
   8  -6   1   40.10    1.00
   0   5  -1   18.50    0.30
   0   5  -1   18.20    0.30
   0  -5   1   18.00    0.40
   0  -5   1   18.60    0.40
  -1   5  -1   46.40    0.60
  -1   5  -1   45.40    0.60
  -1   5  -1   45.70    0.60
  -1   5  -1   45.80    0.60
  -1   5  -1   46.20    0.70
   1  -5   1   46.80    0.70
   1  -5   1   46.20    0.60
  -2   5  -1    0.20    0.10
  -2   5  -1    0.30    0.10
  -2   5  -1    0.30    0.10
  -2   5  -1    0.30    0.10
  -2   5  -1    0.30    0.10
   2  -5   1    0.50    0.10
   2  -5   1    0.30    0.10
  -3   5  -1  512.25    4.40
  -3   5  -1  509.35    4.40
  -3   5  -1  516.35    4.40
  -3   5  -1  514.65    4.40
  -3   5  -1  512.25    4.60
   3  -5   1  525.35    4.50
   3  -5   1  517.85    4.50
  -4   5  -1   77.09    1.00
  -4   5  -1   76.99    1.10
  -4   5  -1   77.49    1.00
  -4   5  -1   76.49    1.10
  -4   5  -1   76.19    1.00
   4  -5   1   76.89    1.10
   4  -5   1   76.09    1.10
  -5   5  -1   66.89    1.10
  -5   5  -1   67.19    1.00
  -5   5  -1   67.89    1.00
  -5   5  -1   66.19    1.00
  -5   5  -1   67.49    1.00
   5  -5   1   65.69    1.10
   5  -5   1   67.39    1.00
  -6   5  -1    0.00    0.10
  -6   5  -1    0.30    0.10
  -6   5  -1    0.30    0.10
  -6   5  -1    0.10    0.10
  -6   5  -1    0.30    0.10
   6  -5   1    0.30    0.10
   6  -5   1    0.30    0.10
  -7   5  -1   60.29    1.10
  -7   5  -1   61.99    1.00
  -7   5  -1   59.49    1.20
  -7   5  -1   60.49    1.00
  -7   5  -1   61.39    1.10
   7  -5   1   60.49    1.10
   7  -5   1   59.89    1.10
  -8   5  -1   44.30    0.90
  -8   5  -1   44.10    0.90
  -8   5  -1   43.70    1.00
  -8   5  -1   43.80    0.90
   8  -5   1   42.00    1.00
   8  -5   1   43.40    1.00
   0   4  -1  125.69    1.20
   0   4  -1  125.09    1.10
   0   4  -1  125.19    1.10
   0   4  -1  124.99    1.10
   0   4  -1  125.99    1.10
   0  -4   1  121.09    1.20
   0  -4   1  124.69    1.10
   0  -4   1  124.49    1.20
  -1   4  -1  282.77    2.40
  -1   4  -1  280.47    2.50
  -1   4  -1  284.57    2.40
  -1   4  -1  283.37    2.40
  -1   4  -1  283.07    2.40
   1  -4   1  281.67    2.50
   1  -4   1  282.47    2.50
  -2   4  -1  196.68    1.80
  -2   4  -1  196.98    1.90
  -2   4  -1  197.98    1.80
  -2   4  -1  195.98    1.90
  -2   4  -1  197.88    1.80
   2  -4   1  200.38    1.90
   2  -4   1  201.38    1.90
  -3   4  -1  270.47    2.40
  -3   4  -1  268.67    2.60
  -3   4  -1  266.27    2.50
  -3   4  -1  266.67    2.50
  -3   4  -1  271.07    2.40
   3  -4   1  270.67    2.50
   3  -4   1  269.17    2.60
  -4   4  -1  188.88    1.90
  -4   4  -1  187.98    1.90
  -4   4  -1  185.98    1.90
  -4   4  -1  190.98    1.90
  -4   4  -1  187.48    2.00
   4  -4   1  187.58    2.00
   4  -4   1  186.68    1.90
  -5   4  -1  154.88    1.90
  -5   4  -1  158.18    1.70
  -5   4  -1  157.48    1.80
  -5   4  -1  156.78    1.70
  -5   4  -1  156.88    1.70
   5  -4   1  156.68    1.80
   5  -4   1  158.58    1.80
  -6   4  -1    0.40    0.10
  -6   4  -1    0.30    0.10
  -6   4  -1    0.80    0.20
  -6   4  -1    0.50    0.10
  -6   4  -1    0.70    0.10
   6  -4   1    0.40    0.10
   6  -4   1    0.30    0.10
  -7   4  -1   23.80    0.60
  -7   4  -1   24.30    0.60
  -7   4  -1   24.10    0.60
  -7   4  -1   24.10    0.60
   7  -4   1   23.90    0.60
   7  -4   1   24.00    0.70
  -8   4  -1   42.90    0.90
  -8   4  -1   42.20    0.90
  -8   4  -1   42.60    0.90
  -8   4  -1   42.10    0.90
   8  -4   1   42.40    1.00
   8  -4   1   42.30    0.90
   0   3  -1  116.79    1.00
   0   3  -1  117.19    1.10
   0   3  -1  118.49    1.00
   0   3  -1  117.19    1.00
   0  -3   1  115.09    1.10
   0  -3   1  110.59    1.10
   0  -3   1  117.19    1.00
  -1   3  -1   16.50    0.30
  -1   3  -1   16.60    0.30
  -1   3  -1   16.60    0.30
  -1   3  -1   16.00    0.30
  -1   3  -1   16.00    0.30
   1  -3   1   16.00    0.30
   1  -3   1   16.20    0.30
  -2   3  -1    1.00    0.10
  -2   3  -1    1.10    0.10
  -2   3  -1    1.20    0.10
  -2   3  -1    1.10    0.10
  -2   3  -1    1.10    0.10
   2  -3   1    0.80    0.10
   2  -3   1    0.90    0.10
  -3   3  -1 1207.18   10.00
  -3   3  -1 1219.38   10.00
  -3   3  -1 1189.18   10.30
  -3   3  -1 1222.68   10.50
  -3   3  -1 1203.58   11.00
   3  -3   1 1207.58   10.00
   3  -3   1 1219.48   10.20
  -4   3  -1  364.16    3.40
  -4   3  -1  360.56    3.20
  -4   3  -1  356.06    3.20
  -4   3  -1  359.66    3.20
  -4   3  -1  358.36    3.20
   4  -3   1  361.96    3.30
   4  -3   1  360.86    3.30
  -5   3  -1   20.50    0.50
  -5   3  -1   20.60    0.50
  -5   3  -1   21.00    0.60
  -5   3  -1   20.60    0.50
  -5   3  -1   20.80    0.50
   5  -3   1   20.70    0.50
   5  -3   1   20.20    0.50
  -6   3  -1    1.00    0.10
  -6   3  -1    1.00    0.20
  -6   3  -1    1.10    0.20
  -6   3  -1    0.80    0.10
   6  -3   1    1.00    0.20
   6  -3   1    1.20    0.20
  -7   3  -1  116.29    1.50
  -7   3  -1  115.99    1.50
  -7   3  -1  115.09    1.50
  -7   3  -1  114.29    1.50
   7  -3   1  116.99    1.60
   7  -3   1  115.99    1.60
  -8   3  -1   35.70    0.80
  -8   3  -1   36.50    0.80
  -8   3  -1   36.20    0.80
  -8   3  -1   35.70    0.80
   8  -3   1   36.30    0.90
   8  -3   1   37.00    0.80
   0   2  -1  274.87    2.20
   0   2  -1  275.57    2.20
   0  -2   1  276.77    2.20
   0  -2   1  265.87    2.20
   0  -2   1  279.27    2.20
   0  -2   1  275.97    2.20
  -1   2  -1  719.93    5.70
  -1   2  -1  722.03    6.00
  -1   2  -1  709.43    6.10
  -1   2  -1  706.33    5.80
  -1   2  -1  715.53    5.80
   1  -2   1  712.53    5.80
   1  -2   1  681.43    5.90
   1  -2   1  711.03    5.80
  -2   2  -1  422.96    3.60
  -2   2  -1  428.36    3.50
  -2   2  -1  422.46    3.50
  -2   2  -1  421.36    3.50
  -2   2  -1  425.36    3.50
   2  -2   1  429.76    3.60
   2  -2   1  425.26    3.50
  -3   2  -1  875.51    7.80
  -3   2  -1  877.61    7.50
  -3   2  -1  874.81    7.30
  -3   2  -1  868.61    7.20
  -3   2  -1  861.21    7.40
   3  -2   1  887.41    7.50
   3  -2   1  883.91    7.40
  -4   2  -1   34.90    0.60
  -4   2  -1   35.70    0.60
  -4   2  -1   34.40    0.50
  -4   2  -1   34.60    0.60
  -4   2  -1   34.80    0.60
   4  -2   1   35.00    0.60
   4  -2   1   35.60    0.60
  -5   2  -1  146.59    1.60
  -5   2  -1  147.59    1.60
  -5   2  -1  149.19    1.60
  -5   2  -1  149.39    1.60
   5  -2   1  151.78    1.70
   5  -2   1  149.49    1.60
  -6   2  -1    0.80    0.10
  -6   2  -1    0.60    0.10
  -6   2  -1    0.70    0.10
  -6   2  -1    0.70    0.10
   6  -2   1    0.80    0.20
   6  -2   1    0.40    0.10
  -7   2  -1    6.40    0.30
  -7   2  -1    6.40    0.30
  -7   2  -1    6.80    0.30
  -7   2  -1    6.60    0.30
   7  -2   1    6.40    0.30
   7  -2   1    6.30    0.30
   4   1  -1    5.30    0.20
   4   1  -1    5.40    0.20
  -4  -1   1    5.10    0.20
  -4  -1   1    5.30    0.20
  -4  -1   1    5.50    0.20
  -4  -1   1    5.50    0.20
   3   1  -1  288.57    2.30
  -3  -1   1  278.57    2.30
  -3  -1   1  280.77    2.30
  -3  -1   1  278.27    2.30
   0   1  -1  460.15    3.80
   0  -1   1  465.65    3.80
   0  -1   1  460.45    3.80
   0  -1   1  459.55    3.80
  -1   1  -1   48.00    0.50
  -1   1  -1   47.60    0.50
  -1   1  -1   48.10    0.50
   1  -1   1   47.90    0.50
   1  -1   1   47.20    0.50
  -2   1  -1   19.80    0.30
  -2   1  -1   19.70    0.30
  -2   1  -1   19.90    0.30
  -2   1  -1   19.30    0.30
   2  -1   1   19.50    0.30
   2  -1   1   20.00    0.30
  -3   1  -1  977.70    7.90
  -3   1  -1  988.80    8.60
  -3   1  -1  994.00    8.90
  -3   1  -1  988.90    7.90
   3  -1   1  997.30    8.10
   3  -1   1 1007.70    8.00
  -4   1  -1  494.25    4.20
  -4   1  -1  492.45    4.10
  -4   1  -1  479.25    4.10
  -4   1  -1  491.05    4.10
   4  -1   1  491.55    4.20
   4  -1   1  490.55    4.20
  -5   1  -1    1.70    0.20
  -5   1  -1    1.70    0.20
  -5   1  -1    2.00    0.20
  -5   1  -1    1.60    0.10
  -6   1  -1    0.00    0.10
  -6   1  -1    0.10    0.10
  -6   1  -1    0.10    0.10
  -6   1  -1    0.00    0.10
   6  -1   1    0.00    0.10
   6  -1   1    0.00    0.10
   5   0  -1  109.39    1.20
   5   0  -1  111.09    1.20
  -5   0   1  111.09    1.20
  -5   0   1  109.79    1.20
  -5   0   1  111.99    1.30
  -5   0   1  110.99    1.10
  -5   0   1  109.19    1.10
   4   0  -1  141.89    1.40
   4   0  -1  140.99    1.40
  -4   0   1  140.29    1.30
  -4   0   1  141.89    1.40
  -4   0   1  141.49    1.30
  -4   0   1  141.49    1.40
  -4   0   1  139.09    1.30
   3   0  -1  210.98    1.90
   3   0  -1  208.58    1.80
   3   0  -1  210.98    1.90
  -3   0   1  207.68    1.80
  -3   0   1  211.98    1.80
  -3   0   1  212.38    1.80
  -3   0   1  213.68    1.90
  -3   0   1  210.18    1.80
   2   0  -1 1175.98    9.80
   2   0  -1 1152.88    9.60
   2   0  -1 1156.28    9.70
  -2   0   1 1176.78    9.60
  -2   0   1 1180.68    9.50
  -2   0   1 1153.18    9.70
  -2   0   1 1175.58    9.40
  -1   0   1  956.90    7.90
   0   0  -1  132.09    1.10
   0   0   1  132.69    1.10
   0   0   1  131.89    1.10
  -1   0  -1  495.65    4.20
  -1   0  -1  501.15    4.20
  -1   0  -1  481.95    4.20
   1   0   1  491.45    4.30
   1   0   1  501.15    4.40
  -2   0  -1  310.47    2.60
  -2   0  -1  312.17    2.60
  -2   0  -1  310.67    2.60
  -2   0  -1  306.07    2.60
  -3   0  -1  902.11    7.20
  -3   0  -1  914.01    7.60
  -3   0  -1  903.71    7.50
  -3   0  -1  896.11    7.40
   3   0   1  900.61    7.60
   3   0   1  903.81    7.50
  -4   0  -1   14.30    0.30
  -4   0  -1   14.40    0.30
  -4   0  -1   15.00    0.30
  -4   0  -1   15.00    0.30
   4   0   1   14.70    0.30
   4   0   1   14.30    0.40
  -5   0  -1   50.09    0.70
  -5   0  -1   49.99    0.70
  -5   0  -1   49.80    0.70
  -5   0  -1   50.29    0.70
   5   0   1   50.69    0.80
   5   0   1   49.20    0.70
   6  -1  -1   18.50    0.40
   6  -1  -1   18.90    0.50
  -6   1   1   18.70    0.40
  -6   1   1   18.00    0.40
  -6   1   1   18.20    0.50
  -6   1   1   18.60    0.40
  -6   1   1   18.30    0.40
   5  -1  -1    1.60    0.10
   5  -1  -1    1.60    0.20
  -5   1   1    1.50    0.10
  -5   1   1    1.70    0.10
  -5   1   1    1.50    0.20
  -5   1   1    1.80    0.20
  -5   1   1    1.80    0.20
  -4   1   1   13.90    0.30
  -4   1   1   13.40    0.30
  -4   1   1   13.90    0.30
  -4   1   1   13.90    0.30
  -4   1   1   14.10    0.30
   3  -1  -1  604.54    5.50
   3  -1  -1  600.74    5.30
  -3   1   1  604.04    4.90
  -3   1   1  601.04    4.80
  -3   1   1  600.04    5.20
  -3   1   1  604.94    4.90
   2  -1  -1  548.15    4.90
   2  -1  -1  550.24    4.90
   2  -1  -1  548.75    5.00
  -2   1   1  556.74    4.70
  -2   1   1  552.04    4.60
  -2   1   1  552.74    5.10
  -2   1   1  549.54    4.60
   1  -1  -1  618.84    5.20
   1  -1  -1  613.04    5.30
  -1   1   1  611.04    5.30
  -1   1   1  613.74    5.10
  -1   1   1  611.24    6.70
   0  -1  -1  375.56    3.20
   0  -1  -1  385.76    3.20
   0  -1  -1  371.16    3.10
   0   1   1  369.26    3.00
  -1  -1  -1  132.89    1.20
  -1  -1  -1  133.19    1.20
  -1  -1  -1  134.19    1.20
  -1  -1  -1  134.19    1.20
  -1  -1  -1  132.39    1.10
   1   1   1  131.59    1.20
  -2  -1  -1   36.60    0.40
  -2  -1  -1   36.80    0.50
  -2  -1  -1   36.30    0.40
  -2  -1  -1   35.60    0.40
   2   1   1   36.20    0.40
   2   1   1   36.40    0.50
  -3  -1  -1  229.78    2.00
  -3  -1  -1  229.08    2.00
  -3  -1  -1  225.78    2.00
  -3  -1  -1  227.28    2.00
   3   1   1  227.58    2.00
   3   1   1  228.88    2.10
  -4  -1  -1  237.38    2.10
  -4  -1  -1  237.38    2.20
  -4  -1  -1  234.78    2.10
  -4  -1  -1  234.88    2.10
   4   1   1  236.78    2.20
   4   1   1  238.18    2.20
  -7   2   1    1.90    0.20
  -7   2   1    1.70    0.20
  -7   2   1    1.70    0.20
  -7   2   1    1.60    0.20
  -7   2   1    1.40    0.20
   6  -2  -1   38.10    0.70
   6  -2  -1   39.10    0.70
  -6   2   1   40.00    0.70
  -6   2   1   39.10    0.70
  -6   2   1   39.40    0.80
  -6   2   1   40.00    0.70
  -6   2   1   40.00    0.70
   5  -2  -1  135.39    1.50
   5  -2  -1  133.29    1.50
  -5   2   1  134.29    1.40
  -5   2   1  133.69    1.60
  -5   2   1  134.29    1.50
  -5   2   1  135.19    1.40
  -5   2   1  134.19    1.40
   4  -2  -1  109.69    1.20
   4  -2  -1  109.89    1.20
  -4   2   1  110.69    1.20
  -4   2   1  107.49    1.20
  -4   2   1  109.19    1.30
  -4   2   1  109.89    1.10
   3  -2  -1  856.71    7.50
   3  -2  -1  847.22    7.40
  -3   2   1  851.81    7.70
  -3   2   1  861.11    7.10
  -3   2   1  845.32    7.30
  -3   2   1  843.92    7.30
   2  -2  -1  502.85    4.10
   2  -2  -1  500.15    4.20
  -2   2   1  502.15    4.10
  -2   2   1  496.65    4.10
  -2   2   1  503.25    4.20
  -2   2   1  503.05    4.00
   1  -2  -1  568.34    4.70
   1  -2  -1  567.14    4.80
  -1   2   1  571.54    4.70
  -1   2   1  571.14    4.60
  -1   2   1  568.64    4.60
  -1   2   1  571.44    4.80
   0  -2  -1    1.10    0.10
   0  -2  -1    0.90    0.10
   0   2   1    1.20    0.10
  -1  -2  -1   70.49    0.70
  -1  -2  -1   69.59    0.70
   1   2   1   70.09    0.70
  -2  -2  -1  102.49    1.00
  -2  -2  -1  102.59    1.00
   2   2   1  103.39    1.00
   2   2   1  103.69    1.00
   2   2   1  101.69    1.00
  -3  -2  -1  393.96    3.50
  -3  -2  -1  396.46    3.60
  -3  -2  -1  406.16    3.30
   3   2   1  402.16    3.30
   3   2   1  408.86    3.40
   3   2   1  403.36    3.30
   8  -3  -1   11.00    0.40
   8  -3  -1   11.40    0.50
  -8   3   1   11.60    0.40
  -8   3   1   11.50    0.40
  -8   3   1   11.40    0.40
  -8   3   1   11.10    0.50
  -8   3   1   11.00    0.50
   7  -3  -1   22.30    0.60
   7  -3  -1   23.30    0.60
  -7   3   1   23.30    0.60
  -7   3   1   22.20    0.60
  -7   3   1   22.40    0.50
  -7   3   1   23.00    0.50
  -7   3   1   22.60    0.60
   6  -3  -1   31.60    0.70
   6  -3  -1   32.00    0.60
  -6   3   1   31.70    0.60
  -6   3   1   32.10    0.70
  -6   3   1   31.30    0.70
  -6   3   1   32.20    0.60
  -6   3   1   31.90    0.60
   5  -3  -1    4.00    0.20
   5  -3  -1    4.50    0.20
  -5   3   1    4.60    0.30
  -5   3   1    4.40    0.20
  -5   3   1    4.50    0.20
  -5   3   1    4.00    0.20
  -5   3   1    4.80    0.20
   4  -3  -1   50.09    0.80
   4  -3  -1   49.99    0.70
  -4   3   1   50.09    0.70
  -4   3   1   49.99    0.80
  -4   3   1   50.09    0.70
   3  -3  -1  336.97    3.00
   3  -3  -1  336.77    2.90
  -3   3   1  335.97    2.90
  -3   3   1  334.67    2.90
  -3   3   1  336.87    3.00
  -3   3   1  333.47    2.90
   2  -3  -1  419.36    3.60
   2  -3  -1  415.56    3.50
  -2   3   1  419.76    3.50
  -2   3   1  420.86    3.50
  -2   3   1  417.66    3.60
  -2   3   1  419.26    3.50
   1  -3  -1   24.10    0.40
   1  -3  -1   23.80    0.40
  -1   3   1   24.00    0.40
  -1   3   1   24.10    0.30
  -1   3   1   23.50    0.40
  -1   3   1   24.40    0.40
   0  -3  -1   89.79    0.90
   0  -3  -1   87.89    0.90
   0   3   1   86.89    0.80
   0   3   1   86.19    0.90
   0   3   1   88.39    0.90
  -1  -3  -1   62.79    0.70
  -1  -3  -1   61.99    0.70
   1   3   1   62.49    0.70
   2   3   1   25.90    0.40
   2   3   1   27.30    0.40
   2   3   1   26.80    0.40
   9  -4  -1   12.80    0.60
   9  -4  -1   12.30    0.50
  -9   4   1   12.00    0.50
  -9   4   1   11.70    0.50
  -9   4   1   12.90    0.50
  -9   4   1   12.50    0.50
   8  -4  -1   58.99    1.10
   8  -4  -1   57.89    1.10
  -8   4   1   59.99    1.20
  -8   4   1   60.59    1.00
  -8   4   1   58.99    1.10
  -8   4   1   59.69    1.10
  -8   4   1   60.49    1.00
   7  -4  -1    0.90    0.20
   7  -4  -1    0.80    0.20
  -7   4   1    0.80    0.20
  -7   4   1    0.50    0.10
  -7   4   1    0.80    0.20
  -7   4   1    0.70    0.10
  -7   4   1    0.80    0.20
   6  -4  -1   89.19    1.30
   6  -4  -1   93.99    1.30
  -6   4   1   89.99    1.30
  -6   4   1   90.79    1.20
  -6   4   1   89.19    1.20
  -6   4   1   90.99    1.20
  -6   4   1   89.39    1.20
   5  -4  -1   56.49    0.90
   5  -4  -1   56.49    0.90
  -5   4   1   56.49    0.90
  -5   4   1   56.99    0.80
  -5   4   1   56.49    1.00
  -5   4   1   55.59    0.80
   4  -4  -1   18.90    0.40
   4  -4  -1   19.00    0.50
  -4   4   1   19.60    0.40
  -4   4   1   19.40    0.50
  -4   4   1   19.60    0.40
  -4   4   1   19.10    0.40
   3  -4  -1  696.43    5.80
   3  -4  -1  702.73    5.80
  -3   4   1  696.53    5.70
  -3   4   1  686.73    5.80
  -3   4   1  698.53    5.90
  -3   4   1  698.03    5.70
   2  -4  -1   24.90    0.50
   2  -4  -1   25.20    0.50
  -2   4   1   25.60    0.40
  -2   4   1   25.20    0.40
  -2   4   1   25.20    0.50
  -2   4   1   24.90    0.40
   1  -4  -1  132.39    1.30
   1  -4  -1  131.49    1.30
  -1   4   1  131.89    1.30
  -1   4   1  130.19    1.20
  -1   4   1  129.09    1.40
  -1   4   1  129.19    1.30
   0  -4  -1   16.90    0.30
   0  -4  -1   16.40    0.30
   0   4   1   17.40    0.30
   0   4   1   17.40    0.30
   0   4   1   17.10    0.30
   0   4   1   17.20    0.30
  -1  -4  -1    3.40    0.20
  -1  -4  -1    3.40    0.20
   1   4   1    2.50    0.10
   1   4   1    2.60    0.10
   9  -5  -1   73.79    1.40
   9  -5  -1   74.29    1.30
  -9   5   1   75.49    1.20
  -9   5   1   74.29    1.30
  -9   5   1   74.09    1.60
  -9   5   1   73.79    1.30
   8  -5  -1   35.60    0.90
   8  -5  -1   35.40    0.80
  -8   5   1   36.20    0.80
  -8   5   1   36.20    0.80
  -8   5   1   34.70    0.80
  -8   5   1   36.90    0.90
  -8   5   1   35.60    0.80
   7  -5  -1   17.30    0.60
   7  -5  -1   17.70    0.60
  -7   5   1   18.40    0.60
  -7   5   1   17.00    0.50
  -7   5   1   17.80    0.50
  -7   5   1   17.30    0.50
  -7   5   1   17.90    0.50
   6  -5  -1   20.70    0.60
   6  -5  -1   20.80    0.60
  -6   5   1   19.70    0.50
  -6   5   1   19.20    0.60
  -6   5   1   19.20    0.50
  -6   5   1   19.00    0.50
  -6   5   1   19.30    0.50
   5  -5  -1   11.90    0.40
   5  -5  -1   12.00    0.40
  -5   5   1   11.70    0.50
  -5   5   1   11.40    0.40
  -5   5   1   11.30    0.40
  -5   5   1   12.00    0.40
   4  -5  -1   85.39    1.10
   4  -5  -1   84.29    1.20
  -4   5   1   84.89    1.20
  -4   5   1   84.09    1.00
  -4   5   1   84.29    1.10
  -4   5   1   83.49    1.10
   3  -5  -1   48.10    0.80
   3  -5  -1   49.20    0.80
  -3   5   1   48.90    0.70
  -3   5   1   49.70    0.70
  -3   5   1   48.70    0.80
  -3   5   1   49.20    0.80
   2  -5  -1  109.79    1.20
   2  -5  -1  110.29    1.30
  -2   5   1  111.89    1.20
  -2   5   1  108.49    1.30
  -2   5   1  109.99    1.20
  -2   5   1  109.19    1.20
   1  -5  -1    1.00    0.10
  -1   5   1    0.10    0.10
  -1   5   1    0.00    0.10
  -1   5   1    0.10    0.10
   0  -5  -1    8.40    0.30
   0  -5  -1    8.40    0.30
   0   5   1    8.60    0.30
   0   5   1    8.10    0.20
   8  -6  -1   12.40    0.60
   8  -6  -1   13.20    0.50
  -8   6   1   12.60    0.50
  -8   6   1   12.30    0.50
  -8   6   1   12.50    0.50
  -8   6   1   13.10    0.50
   7  -6  -1    0.80    0.20
   7  -6  -1    0.80    0.20
  -7   6   1    0.60    0.20
  -7   6   1    0.50    0.20
  -7   6   1    0.70    0.20
  -7   6   1    0.60    0.20
  -7   6   1    0.60    0.20
   6  -6  -1   81.59    1.20
   6  -6  -1   80.89    1.30
  -6   6   1   80.19    1.20
  -6   6   1   80.39    1.20
  -6   6   1   80.89    1.20
  -6   6   1   83.69    1.40
  -6   6   1   80.19    1.20
   5  -6  -1    5.50    0.30
   5  -6  -1    6.00    0.40
  -5   6   1    6.50    0.30
  -5   6   1    6.60    0.30
  -5   6   1    6.50    0.30
  -5   6   1    6.00    0.40
   4  -6  -1    2.70    0.20
   4  -6  -1    3.10    0.30
  -4   6   1    2.00    0.20
  -4   6   1    2.30    0.20
  -4   6   1    2.50    0.20
  -4   6   1    2.50    0.20
   3  -6  -1  251.67    2.50
   3  -6  -1  250.07    2.50
  -3   6   1  246.08    2.40
  -3   6   1  245.88    2.60
  -3   6   1  248.78    2.40
  -3   6   1  247.58    2.40
  -2   6   1    2.20    0.20
  -2   6   1    2.10    0.20
  -2   6   1    2.20    0.20
  -2   6   1    2.20    0.20
   1  -6  -1   25.60    0.50
   1  -6  -1   27.30    0.50
  -1   6   1   26.60    0.50
  -1   6   1   26.60    0.60
   8  -7  -1   34.60    0.90
   8  -7  -1   35.00    0.90
  -8   7   1   35.20    0.80
  -8   7   1   34.70    0.80
  -8   7   1   33.60    0.90
  -8   7   1   34.50    0.90
   7  -7  -1   12.90    0.60
   7  -7  -1   13.10    0.50
  -7   7   1   13.00    0.50
  -7   7   1   14.00    0.50
  -7   7   1   12.70    0.50
  -7   7   1   12.90    0.50
  -7   7   1   14.50    0.90
   6  -7  -1    3.50    0.30
   6  -7  -1    3.40    0.30
  -6   7   1    2.80    0.30
  -6   7   1    2.90    0.30
  -6   7   1    3.60    0.30
  -6   7   1    2.90    0.30
  -6   7   1    3.20    0.30
   5  -7  -1   19.80    0.60
   5  -7  -1   19.60    0.60
  -5   7   1   19.80    0.60
  -5   7   1   19.50    0.60
  -5   7   1   19.80    0.50
  -5   7   1   19.40    0.60
  -5   7   1   19.80    0.60
   4  -7  -1   71.59    1.20
   4  -7  -1   73.19    1.10
  -4   7   1   73.19    1.00
  -4   7   1   71.49    1.00
  -4   7   1   75.49    1.20
  -4   7   1   72.29    1.10
   3  -7  -1    0.70    0.20
   3  -7  -1    0.70    0.20
  -3   7   1    0.70    0.10
  -3   7   1    0.60    0.20
  -3   7   1    0.70    0.10
  -3   7   1    0.60    0.10
   2  -7  -1   10.20    0.50
   2  -7  -1    9.80    0.40
  -2   7   1   10.80    0.40
  -2   7   1   10.30    0.40
   7  -8  -1    1.50    0.30
   7  -8  -1    1.30    0.30
  -7   8   1    1.60    0.20
  -7   8   1    1.10    0.20
  -7   8   1    1.40    0.20
  -7   8   1    1.20    0.20
   6  -8  -1   32.60    0.90
   6  -8  -1   32.30    0.80
  -6   8   1   33.90    0.80
  -6   8   1   34.70    1.00
  -6   8   1   33.80    0.80
  -6   8   1   34.20    0.80
  -6   8   1   33.30    0.80
   5  -8  -1    0.00    0.20
   5  -8  -1    0.20    0.20
  -5   8   1   -0.10    0.10
  -5   8   1    0.10    0.20
  -5   8   1    0.00    0.20
  -5   8   1    0.20    0.20
  -5   8   1    0.10    0.20
   4  -8  -1   22.40    0.60
   4  -8  -1   22.60    0.70
  -4   8   1   21.90    0.70
  -4   8   1   22.20    0.60
  -4   8   1   22.90    0.60
  -4   8   1   23.00    0.60
  -4   8   1   21.80    0.60
   6  -9  -1   -0.40    0.10
   6  -9  -1    0.10    0.20
  -6   9   1    0.00    0.20
  -6   9   1   -0.10    0.20
  -6   9   1    0.10    0.20
  -6   9   1   -0.10    0.20
   5  -9  -1   19.50    0.70
   5  -9  -1   18.60    0.60
  -5   9   1   19.10    0.60
  -5   9   1   18.80    0.60
  -5   9   1   19.00    0.60
  -5   9   1   18.90    0.60
  -5   9  -2   14.50    0.60
  -5   9  -2   13.90    0.50
  -5   9  -2   13.50    0.50
  -5   9  -2   14.40    0.60
   5  -9   2   14.40    0.60
   5  -9   2   14.40    0.60
  -6   9  -2    4.00    0.60
  -6   9  -2    3.40    0.30
  -6   9  -2    4.30    0.40
  -6   9  -2    3.80    0.40
   6  -9   2    4.00    0.40
   6  -9   2    4.60    0.40
  -3   8  -2   43.10    0.80
  -3   8  -2   41.80    0.80
  -3   8  -2   43.00    0.80
   3  -8   2   41.20    0.90
   3  -8   2   41.40    0.90
  -4   8  -2    8.40    0.40
  -4   8  -2    8.80    0.50
  -4   8  -2    8.50    0.40
  -4   8  -2    8.70    0.40
  -4   8  -2    9.30    0.40
   4  -8   2    8.80    0.40
   4  -8   2    9.10    0.40
  -5   8  -2   15.40    0.50
  -5   8  -2   15.60    0.50
  -5   8  -2   15.50    0.50
  -5   8  -2   15.50    0.60
  -5   8  -2   16.20    0.60
   5  -8   2   15.70    0.60
   5  -8   2   14.40    0.60
  -6   8  -2   45.50    1.00
  -6   8  -2   46.20    0.90
  -6   8  -2   44.90    1.00
  -6   8  -2   46.70    0.90
   6  -8   2   44.60    1.00
   6  -8   2   46.50    1.10
  -7   8  -2   43.60    1.00
  -7   8  -2   43.90    0.90
  -7   8  -2   45.50    1.00
   7  -8   2   45.00    1.00
   7  -8   2   44.80    1.10
  -2   7  -2   43.60    0.90
  -2   7  -2   45.00    0.70
  -2   7  -2   43.20    0.70
  -2   7  -2   43.70    0.70
  -2   7  -2   44.30    0.70
   2  -7   2   44.00    0.70
   2  -7   2   43.20    0.80
  -3   7  -2    0.60    0.10
  -3   7  -2    0.50    0.10
  -3   7  -2    0.40    0.20
  -3   7  -2    0.50    0.10
  -3   7  -2    0.70    0.10
   3  -7   2    0.60    0.20
   3  -7   2    0.80    0.20
  -4   7  -2   32.00    0.70
  -4   7  -2   31.70    0.60
  -4   7  -2   32.30    0.80
  -4   7  -2   31.60    0.70
  -4   7  -2   32.00    0.70
   4  -7   2   31.70    0.70
   4  -7   2   31.80    0.70
  -5   7  -2    0.50    0.20
  -5   7  -2    0.30    0.10
  -5   7  -2    0.50    0.20
  -5   7  -2    0.30    0.20
  -5   7  -2    0.50    0.20
   5  -7   2    0.60    0.20
   5  -7   2    0.00    0.10
  -6   7  -2   18.00    0.60
  -6   7  -2   18.50    0.60
  -6   7  -2   18.50    0.70
  -6   7  -2   18.20    0.60
  -6   7  -2   19.70    0.60
   6  -7   2   19.10    0.60
   6  -7   2   18.80    0.60
  -7   7  -2   -0.20    0.10
  -7   7  -2    0.30    0.20
  -7   7  -2    0.10    0.10
  -7   7  -2   -0.10    0.10
   7  -7   2    0.10    0.20
   7  -7   2    0.10    0.20
  -1   6  -2   39.20    0.60
  -1   6  -2   38.90    0.60
  -1   6  -2   39.70    0.60
  -1   6  -2   37.00    0.80
   1  -6   2   38.70    0.60
   1  -6   2   38.10    0.60
  -2   6  -2   52.19    0.80
  -2   6  -2   52.99    0.80
  -2   6  -2   51.69    0.80
  -2   6  -2   51.59    0.70
  -2   6  -2   51.99    0.70
   2  -6   2   52.39    0.80
   2  -6   2   52.19    0.80
  -3   6  -2  130.89    1.40
  -3   6  -2  130.99    1.50
  -3   6  -2  133.19    1.50
  -3   6  -2  129.99    1.50
  -3   6  -2  134.19    1.60
   3  -6   2  131.19    1.50
   3  -6   2  131.89    1.60
  -4   6  -2   27.80    0.60
  -4   6  -2   27.50    0.60
  -4   6  -2   27.30    0.60
  -4   6  -2   27.70    0.60
  -4   6  -2   27.30    0.70
   4  -6   2   27.40    0.70
   4  -6   2   26.90    0.60
  -5   6  -2   15.00    0.50
  -5   6  -2   14.10    0.50
  -5   6  -2   13.10    0.50
  -5   6  -2   13.70    0.40
  -5   6  -2   13.20    0.50
   5  -6   2   14.90    0.50
   5  -6   2   13.60    0.50
  -6   6  -2  106.79    1.50
  -6   6  -2  107.09    1.40
  -6   6  -2  105.89    1.50
  -6   6  -2  105.39    1.50
  -6   6  -2  106.49    1.60
   6  -6   2  109.69    1.60
   6  -6   2  106.49    1.60
  -7   6  -2   96.59    1.40
  -7   6  -2   96.69    1.50
  -7   6  -2   95.39    1.40
  -7   6  -2   96.89    1.50
   7  -6   2   94.49    1.50
   7  -6   2   96.39    1.60
  -8   6  -2    4.50    0.40
  -8   6  -2    4.00    0.40
  -8   6  -2    4.40    0.40
   8  -6   2    4.20    0.40
   8  -6   2    3.90    0.40
   0   5  -2   68.79    0.80
   0  -5   2   68.19    0.80
   0  -5   2   69.09    0.80
  -1   5  -2  107.69    1.10
  -1   5  -2  108.19    1.10
  -1   5  -2  107.79    1.10
  -1   5  -2  108.49    1.20
   1  -5   2  107.79    1.20
   1  -5   2  107.59    1.20
  -2   5  -2  219.38    2.10
  -2   5  -2  219.88    2.00
  -2   5  -2  219.78    2.10
  -2   5  -2  219.98    2.10
  -2   5  -2  219.48    2.20
   2  -5   2  219.78    2.10
   2  -5   2  219.88    2.20
  -3   5  -2    3.10    0.20
  -3   5  -2    3.20    0.20
  -3   5  -2    3.30    0.20
  -3   5  -2    3.70    0.20
  -3   5  -2    3.40    0.20
   3  -5   2    3.20    0.20
   3  -5   2    3.20    0.20
  -4   5  -2   86.49    1.10
  -4   5  -2   86.69    1.20
  -4   5  -2   83.99    1.10
  -4   5  -2   85.79    1.30
  -4   5  -2   85.69    1.10
   4  -5   2   84.89    1.20
   4  -5   2   85.89    1.20
  -5   5  -2   25.40    0.60
  -5   5  -2   26.30    0.60
  -5   5  -2   25.90    0.60
  -5   5  -2   25.30    0.60
  -5   5  -2   25.10    0.70
   5  -5   2   25.40    0.60
   5  -5   2   25.30    0.60
  -6   5  -2   39.50    0.80
  -6   5  -2   39.20    0.80
  -6   5  -2   38.90    0.80
  -6   5  -2   38.50    0.80
   6  -5   2   39.10    0.80
   6  -5   2   38.80    0.90
  -7   5  -2    3.00    0.30
  -7   5  -2    2.90    0.30
  -7   5  -2    3.20    0.30
  -7   5  -2    2.90    0.30
   7  -5   2    3.10    0.30
   7  -5   2    2.60    0.30
  -8   5  -2   61.99    1.10
  -8   5  -2   61.69    1.20
  -8   5  -2   62.39    1.10
  -8   5  -2   61.79    1.20
   8  -5   2   61.39    1.20
   8  -5   2   61.49    1.30
   0   4  -2   30.30    0.40
   0   4  -2   30.20    0.40
   0   4  -2   30.30    0.40
   0   4  -2   30.40    0.40
   0  -4   2   30.70    0.40
   0  -4   2   30.90    0.40
  -1   4  -2  360.46    3.00
  -1   4  -2  356.26    3.00
  -1   4  -2  359.26    3.10
  -1   4  -2  359.96    3.00
   1  -4   2  359.36    3.10
   1  -4   2  362.76    3.10
  -2   4  -2    0.00    0.10
  -2   4  -2    0.20    0.10
  -2   4  -2    0.00    0.10
  -2   4  -2    0.00    0.10
  -2   4  -2    0.10    0.10
   2  -4   2   -0.10    0.10
   2  -4   2    0.00    0.10
  -3   4  -2  251.87    2.30
  -3   4  -2  249.78    2.50
  -3   4  -2  251.07    2.30
  -3   4  -2  251.77    2.40
  -3   4  -2  249.18    2.40
   3  -4   2  251.87    2.40
   3  -4   2  251.17    2.40
  -4   4  -2   73.89    1.00
  -4   4  -2   74.19    1.00
  -4   4  -2   71.79    0.90
  -4   4  -2   72.29    1.00
  -4   4  -2   73.09    1.10
   4  -4   2   71.89    1.00
   4  -4   2   72.59    1.10
  -5   4  -2    1.30    0.20
  -5   4  -2    0.90    0.20
  -5   4  -2    1.00    0.10
  -5   4  -2    1.00    0.20
   5  -4   2    1.00    0.20
   5  -4   2    0.90    0.20
  -6   4  -2  163.18    1.90
  -6   4  -2  164.88    1.90
  -6   4  -2  165.18    2.00
  -6   4  -2  164.48    1.90
   6  -4   2  170.08    2.00
   6  -4   2  167.78    2.00
  -7   4  -2  103.59    1.40
  -7   4  -2  104.39    1.50
  -7   4  -2  105.79    1.40
  -7   4  -2  102.99    1.50
   7  -4   2  103.49    1.50
   7  -4   2  103.79    1.60
  -8   4  -2    4.50    0.30
  -8   4  -2    4.60    0.30
  -8   4  -2    4.40    0.40
  -8   4  -2    5.30    0.40
   8  -4   2    5.10    0.40
   8  -4   2    6.00    0.40
   0   3  -2  367.96    3.00
   0   3  -2  367.66    3.00
   0   3  -2  370.66    3.00
   0   3  -2  372.26    3.00
   0  -3   2  359.56    3.10
   0  -3   2  365.26    3.00
   0  -3   2  362.46    3.00
  -1   3  -2  177.08    1.60
  -1   3  -2  174.88    1.60
  -1   3  -2  174.98    1.60
  -1   3  -2  172.28    1.60
   1  -3   2  173.38    1.60
   1  -3   2  172.48    1.60
  -2   3  -2  558.24    4.60
  -2   3  -2  564.44    4.60
  -2   3  -2  562.84    4.60
  -2   3  -2  552.84    4.70
   2  -3   2  568.04    4.70
   2  -3   2  559.94    4.70
  -3   3  -2    1.90    0.10
  -3   3  -2    2.10    0.10
  -3   3  -2    1.90    0.10
  -3   3  -2    2.20    0.20
   3  -3   2    2.10    0.20
   3  -3   2    2.00    0.20
  -4   3  -2   89.59    1.10
  -4   3  -2   90.79    1.10
  -4   3  -2   90.59    1.10
  -4   3  -2   89.89    1.10
   4  -3   2   88.59    1.20
   4  -3   2   88.89    1.10
  -5   3  -2   99.99    1.20
  -5   3  -2  100.59    1.30
  -5   3  -2   99.99    1.30
  -5   3  -2  100.49    1.20
   5  -3   2   98.69    1.30
   5  -3   2   99.99    1.30
  -6   3  -2   38.80    0.80
  -6   3  -2   37.50    0.70
  -6   3  -2   39.30    0.70
  -6   3  -2   38.70    0.70
   6  -3   2   38.90    0.80
   6  -3   2   38.70    0.80
  -7   3  -2   17.20    0.60
  -7   3  -2   18.00    0.50
  -7   3  -2   17.70    0.50
  -7   3  -2   17.30    0.50
   7  -3   2   17.30    0.60
   7  -3   2   17.30    0.60
  -8   3  -2   30.40    0.80
  -8   3  -2   31.00    0.70
  -8   3  -2   31.70    0.80
  -8   3  -2   30.90    0.70
   8  -3   2   32.60    0.80
   8  -3   2   31.30    0.80
   1   2  -2   18.70    0.20
  -1  -2   2   18.40    0.20
  -1  -2   2   18.90    0.20
  -1  -2   2   19.10    0.20
  -1  -2   2   18.30    0.20
   0   2  -2  127.49    1.10
   0   2  -2  126.99    1.20
   0   2  -2  128.29    1.10
   0  -2   2  125.89    1.20
   0  -2   2  126.89    1.20
  -1   2  -2 1284.67   10.90
  -1   2  -2 1293.27   10.50
  -1   2  -2 1287.97   10.50
  -1   2  -2 1298.67   10.70
   1  -2   2 1289.47   10.80
   1  -2   2 1281.37   10.90
  -2   2  -2  199.48    1.80
  -2   2  -2  203.78    1.90
  -2   2  -2  201.38    1.80
  -2   2  -2  202.88    1.80
   2  -2   2  202.28    1.90
   2  -2   2  201.78    1.90
  -3   2  -2  234.38    2.20
  -3   2  -2  230.88    2.10
  -3   2  -2  231.48    2.20
  -3   2  -2  232.18    2.10
   3  -2   2  230.88    2.20
   3  -2   2  230.68    2.20
  -4   2  -2   96.79    1.20
  -4   2  -2   99.09    1.10
  -4   2  -2   97.69    1.10
  -4   2  -2   96.09    1.10
   4  -2   2   98.99    1.20
   4  -2   2   97.99    1.20
  -5   2  -2    6.70    0.30
  -5   2  -2    7.00    0.30
  -5   2  -2    6.30    0.30
  -5   2  -2    6.80    0.30
   5  -2   2    6.40    0.30
   5  -2   2    6.50    0.30
  -6   2  -2  151.58    1.70
  -6   2  -2  149.88    1.80
  -6   2  -2  151.58    1.70
  -6   2  -2  151.48    1.70
   6  -2   2  152.88    1.90
   6  -2   2  152.38    1.80
  -7   2  -2   46.70    0.90
  -7   2  -2   48.50    0.90
  -7   2  -2   47.10    0.90
  -7   2  -2   45.20    0.80
   7  -2   2   46.00    0.90
   7  -2   2   47.90    0.90
   4   1  -2  205.58    1.80
   4   1  -2  206.98    1.80
  -4  -1   2  202.38    1.80
  -4  -1   2  204.58    1.80
  -4  -1   2  202.18    1.80
  -4  -1   2  204.68    1.80
  -4  -1   2  205.08    1.90
   3   1  -2   54.89    0.60
   3   1  -2   55.89    0.60
  -3  -1   2   54.29    0.50
  -3  -1   2   56.19    0.60
  -3  -1   2   54.39    0.60
  -3  -1   2   54.79    0.60
   2   1  -2  295.67    2.40
   2   1  -2  297.27    2.40
   2   1  -2  304.37    2.50
  -2  -1   2  295.77    2.40
  -2  -1   2  292.77    2.40
   1   1  -2  153.68    1.30
   1   1  -2  152.98    1.30
   1   1  -2  148.89    1.30
  -1  -1   2  151.98    1.30
   0   1  -2 1215.98   10.40
   0   1  -2 1277.87   10.50
   0   1  -2 1248.88   10.30
   0   1  -2 1260.07   10.60
   0   1  -2 1271.67   10.40
  -1   1  -2    6.90    0.20
  -1   1  -2    6.90    0.20
  -1   1  -2    6.80    0.20
  -1   1  -2    6.90    0.20
   1  -1   2    6.70    0.20
   1  -1   2    6.80    0.20
  -2   1  -2  512.35    4.20
  -2   1  -2  516.55    4.30
  -2   1  -2  515.25    4.20
  -2   1  -2  521.05    4.20
   2  -1   2  514.55    4.30
   2  -1   2  516.75    4.30
  -3   1  -2    4.50    0.20
  -3   1  -2    4.30    0.20
  -3   1  -2    4.50    0.20
  -3   1  -2    4.50    0.20
   3  -1   2    3.70    0.20
   3  -1   2    3.40    0.20
  -4   1  -2   16.50    0.40
  -4   1  -2   16.70    0.40
  -4   1  -2   17.00    0.40
  -4   1  -2   16.90    0.40
   4  -1   2   17.10    0.40
   4  -1   2   17.00    0.40
  -5   1  -2  114.39    1.30
  -5   1  -2  113.99    1.30
  -5   1  -2  114.69    1.30
  -5   1  -2  113.59    1.40
   5  -1   2  114.69    1.40
   5  -1   2  114.09    1.40
  -6   1  -2   14.50    0.40
  -6   1  -2   14.00    0.40
  -6   1  -2   14.60    0.40
  -6   1  -2   14.30    0.40
   6  -1   2   11.60    0.40
   6  -1   2   11.60    0.40
   5   0  -2  376.66    3.30
   5   0  -2  373.06    3.20
  -5   0   2  373.76    3.20
  -5   0   2  369.76    3.20
  -5   0   2  371.46    3.20
  -5   0   2  370.06    3.20
  -5   0   2  372.66    3.30
   4   0  -2   18.30    0.30
   4   0  -2   18.50    0.40
  -4   0   2   18.40    0.30
  -4   0   2   18.50    0.40
  -4   0   2   18.30    0.30
  -4   0   2   18.20    0.30
   3   0  -2   27.60    0.40
   3   0  -2   27.30    0.40
  -3   0   2   28.70    0.40
  -3   0   2   28.60    0.40
  -3   0   2   28.30    0.40
  -3   0   2   28.10    0.40
   2   0  -2   43.00    0.50
   2   0  -2   43.20    0.50
  -2   0   2   45.40    0.50
  -2   0   2   44.70    0.50
  -2   0   2   44.60    0.50
   1   0  -2    9.90    0.20
   1   0  -2    9.50    0.20
  -1   0   2    9.90    0.20
   0   0  -2  246.08    2.10
   0   0  -2  251.57    2.10
   0   0  -2  253.17    2.10
   0   0  -2  251.87    2.10
   0   0  -2  250.47    2.10
   0   0  -2  246.88    2.10
   0   0   2  249.48    2.10
  -1   0  -2 1276.07   11.10
  -1   0  -2 1333.87   11.40
  -1   0  -2 1313.77   11.10
  -1   0  -2 1309.27   11.00
  -1   0  -2 1297.57   11.00
  -1   0  -2 1323.57   10.90
  -2   0  -2  446.06    3.70
  -2   0  -2  452.95    3.70
  -2   0  -2  450.65    3.70
  -2   0  -2  450.55    3.70
   2   0   2  444.26    3.80
   2   0   2  441.76    3.70
  -3   0  -2   92.89    1.00
  -3   0  -2   91.99    1.00
  -3   0  -2   89.39    1.00
  -3   0  -2   91.79    1.00
  -4   0  -2   41.50    0.70
  -4   0  -2   42.40    0.60
  -4   0  -2   42.40    0.60
  -4   0  -2   42.90    0.60
   4   0   2   42.80    0.70
   4   0   2   43.70    0.70
  -5   0  -2   12.80    0.40
  -5   0  -2   12.90    0.40
  -5   0  -2   12.70    0.30
  -5   0  -2   13.00    0.40
   5   0   2   13.40    0.40
   5   0   2   13.00    0.40
   6  -1  -2   32.60    0.60
   6  -1  -2   32.90    0.60
  -6   1   2   32.70    0.60
  -6   1   2   32.50    0.50
  -6   1   2   32.30    0.60
  -6   1   2   33.50    0.70
  -6   1   2   32.70    0.60
   5  -1  -2    3.80    0.20
   5  -1  -2    3.50    0.20
  -5   1   2    3.50    0.20
  -5   1   2    3.20    0.20
  -5   1   2    3.30    0.20
  -5   1   2    3.30    0.20
  -4   1   2  333.37    2.90
  -4   1   2  336.17    2.90
  -4   1   2  338.97    2.90
  -4   1   2  337.57    3.00
   3  -1  -2  132.99    1.30
   3  -1  -2  131.39    1.30
  -3   1   2  131.59    1.30
  -3   1   2  131.39    1.30
  -3   1   2  131.99    1.20
  -3   1   2  132.79    1.30
   2  -1  -2  195.08    1.80
   2  -1  -2  195.98    1.70
  -2   1   2  193.88    1.70
  -2   1   2  192.88    1.70
  -2   1   2  193.58    1.70
   1  -1  -2  489.45    4.20
   1  -1  -2  500.85    4.30
  -1   1   2  496.55    4.30
   0  -1  -2 1247.38   10.50
   0  -1  -2 1224.48   10.30
   0  -1  -2 1189.78   10.30
   0  -1  -2 1223.38   10.20
   0   1   2 1219.98   10.30
  -1  -1  -2  147.79    1.40
  -1  -1  -2  145.99    1.40
  -1  -1  -2  149.59    1.30
  -1  -1  -2  147.39    1.40
  -1  -1  -2  144.89    1.30
  -1  -1  -2  148.89    1.30
   1   1   2  148.29    1.40
  -2  -1  -2  112.49    1.10
  -2  -1  -2  112.09    1.10
  -2  -1  -2  109.59    1.10
  -2  -1  -2  111.69    1.10
   2   1   2  111.19    1.20
   2   1   2  111.59    1.10
  -3  -1  -2   11.90    0.30
  -3  -1  -2   11.70    0.30
  -3  -1  -2   12.30    0.30
  -3  -1  -2   11.70    0.30
   3   1   2   12.10    0.30
   3   1   2   12.20    0.30
  -4  -1  -2    2.60    0.20
  -4  -1  -2    2.70    0.20
  -4  -1  -2    2.60    0.20
  -4  -1  -2    2.60    0.20
   4   1   2    2.40    0.20
   4   1   2    2.80    0.20
  -7   2   2   33.40    0.70
  -7   2   2   33.70    0.60
  -7   2   2   34.50    0.70
  -7   2   2   34.40    0.60
  -7   2   2   34.50    0.80
   6  -2  -2  192.78    2.10
   6  -2  -2  194.48    2.00
  -6   2   2  196.38    1.90
  -6   2   2  193.08    2.00
  -6   2   2  194.28    2.00
  -6   2   2  197.08    2.10
  -6   2   2  195.08    2.00
   5  -2  -2  779.02    6.50
   5  -2  -2  770.52    6.50
  -5   2   2  786.02    6.60
  -5   2   2  777.42    6.40
  -5   2   2  771.52    6.40
  -5   2   2  787.12    6.50
   4  -2  -2    2.00    0.10
   4  -2  -2    1.90    0.20
  -4   2   2    2.00    0.10
  -4   2   2    1.70    0.10
  -4   2   2    1.90    0.20
  -4   2   2    1.80    0.10
   3  -2  -2    4.70    0.20
   3  -2  -2    4.70    0.20
  -3   2   2    4.50    0.20
  -3   2   2    4.90    0.20
  -3   2   2    4.70    0.20
  -3   2   2    4.70    0.20
   2  -2  -2   21.70    0.40
   2  -2  -2   21.80    0.40
  -2   2   2   21.60    0.40
  -2   2   2   21.20    0.40
  -2   2   2   21.40    0.30
  -2   2   2   21.20    0.30
   1  -2  -2   45.60    0.60
   1  -2  -2   45.30    0.60
  -1   2   2   44.50    0.60
   0  -2  -2  148.89    1.40
   0  -2  -2  150.98    1.40
   0  -2  -2  149.49    1.40
   0   2   2  150.48    1.40
  -1  -2  -2  375.96    3.20
  -1  -2  -2  380.36    3.10
  -1  -2  -2  370.26    3.10
  -1  -2  -2  376.56    3.10
   1   2   2  377.46    3.20
  -2  -2  -2  202.98    1.80
  -2  -2  -2  203.08    1.80
  -2  -2  -2  201.28    1.80
  -2  -2  -2  199.18    1.80
   2   2   2  201.18    1.80
  -3  -2  -2   27.90    0.40
  -3  -2  -2   28.10    0.40
  -3  -2  -2   27.80    0.50
  -3  -2  -2   28.50    0.50
   3   2   2   27.70    0.50
   3   2   2   28.50    0.50
   3   2   2   28.70    0.50
   8  -3  -2   38.40    0.90
   8  -3  -2   39.00    0.80
  -8   3   2   39.00    0.80
  -8   3   2   38.70    0.80
  -8   3   2   38.80    0.80
  -8   3   2   38.80    0.90
  -8   3   2   38.80    0.80
   7  -3  -2    6.50    0.30
   7  -3  -2    6.60    0.30
  -7   3   2    6.80    0.30
  -7   3   2    6.60    0.30
  -7   3   2    6.00    0.30
  -7   3   2    6.00    0.30
  -7   3   2    6.10    0.30
   6  -3  -2   84.79    1.20
   6  -3  -2   83.99    1.20
  -6   3   2   84.09    1.20
  -6   3   2   84.19    1.20
  -6   3   2   83.79    1.10
  -6   3   2   84.79    1.10
   5  -3  -2  152.68    1.70
   5  -3  -2  153.48    1.70
  -5   3   2  151.78    1.60
  -5   3   2  153.08    1.70
  -5   3   2  151.58    1.60
  -5   3   2  151.48    1.80
   4  -3  -2  167.48    1.80
   4  -3  -2  167.38    1.70
  -4   3   2  168.58    1.60
  -4   3   2  165.18    1.70
  -4   3   2  166.98    1.80
  -4   3   2  167.08    1.70
   3  -3  -2  139.69    1.50
   3  -3  -2  138.99    1.40
  -3   3   2  136.79    1.40
  -3   3   2  137.49    1.40
  -3   3   2  137.39    1.40
  -3   3   2  136.09    1.50
   2  -3  -2    6.00    0.20
   2  -3  -2    5.60    0.20
  -2   3   2    5.60    0.20
  -2   3   2    6.00    0.20
  -2   3   2    5.70    0.20
  -2   3   2    5.90    0.20
   1  -3  -2  318.17    2.80
   1  -3  -2  314.07    2.80
  -1   3   2  322.07    2.70
  -1   3   2  318.57    2.70
  -1   3   2  319.87    2.80
   0  -3  -2  414.96    3.50
   0  -3  -2  425.26    3.60
   0   3   2  415.56    3.50
  -1  -3  -2  216.38    2.00
  -1  -3  -2  216.38    1.90
  -1  -3  -2  217.08    2.00
   1   3   2  220.98    2.00
   2   3   2    2.00    0.10
   9  -4  -2    2.30    0.30
   9  -4  -2    2.00    0.30
  -9   4   2    2.20    0.30
  -9   4   2    2.50    0.30
  -9   4   2    2.70    0.30
  -9   4   2    3.00    0.30
   8  -4  -2  170.08    2.20
   8  -4  -2  169.98    2.10
  -8   4   2  167.28    2.20
  -8   4   2  171.38    2.00
  -8   4   2  171.58    2.00
  -8   4   2  169.88    2.10
  -8   4   2  169.88    2.00
   7  -4  -2   21.70    0.60
   7  -4  -2   22.20    0.60
  -7   4   2   22.90    0.60
  -7   4   2   23.30    0.70
  -7   4   2   21.80    0.60
  -7   4   2   21.40    0.60
  -7   4   2   22.40    0.60
   6  -4  -2  113.89    1.50
   6  -4  -2  113.39    1.50
  -6   4   2  113.89    1.50
  -6   4   2  114.99    1.60
  -6   4   2  114.79    1.40
  -6   4   2  113.29    1.40
   5  -4  -2  638.84    5.60
   5  -4  -2  635.44    5.50
  -5   4   2  643.44    5.40
  -5   4   2  633.34    5.40
  -5   4   2  645.14    5.70
  -5   4   2  650.83    5.50
   4  -4  -2    5.00    0.30
   4  -4  -2    4.70    0.20
  -4   4   2    4.50    0.20
  -4   4   2    4.50    0.20
  -4   4   2    4.80    0.20
   3  -4  -2    0.00    0.10
   3  -4  -2    0.20    0.10
  -3   4   2    0.20    0.10
  -3   4   2    0.20    0.10
  -3   4   2    0.20    0.10
  -3   4   2    0.10    0.10
   2  -4  -2    0.30    0.10
   2  -4  -2    0.20    0.10
  -2   4   2    0.10    0.10
  -2   4   2    0.20    0.10
  -2   4   2    0.30    0.10
  -2   4   2    0.10    0.10
   1  -4  -2   17.90    0.40
   1  -4  -2   17.80    0.40
  -1   4   2   17.50    0.30
  -1   4   2   17.40    0.40
  -1   4   2   17.50    0.40
  -1   4   2   17.60    0.30
   0  -4  -2   59.79    0.80
   0  -4  -2   61.39    0.80
   0   4   2   60.79    0.70
   0   4   2   59.19    0.70
   0   4   2   60.39    0.70
  -1  -4  -2   38.20    0.60
  -1  -4  -2   37.80    0.50
   1   4   2   38.10    0.50
   9  -5  -2    8.10    0.50
   9  -5  -2    8.00    0.40
  -9   5   2    8.50    0.40
  -9   5   2    9.50    0.50
  -9   5   2    7.50    0.40
  -9   5   2    8.10    0.50
   8  -5  -2   21.90    0.70
   8  -5  -2   22.60    0.70
  -8   5   2   22.70    0.70
  -8   5   2   23.30    0.60
  -8   5   2   22.50    0.70
  -8   5   2   22.70    0.60
  -8   5   2   22.60    0.70
   7  -5  -2    1.30    0.20
   7  -5  -2    1.30    0.20
  -7   5   2    1.30    0.20
  -7   5   2    1.20    0.20
  -7   5   2    1.00    0.20
  -7   5   2    1.50    0.20
  -7   5   2    1.10    0.20
   6  -5  -2   79.09    1.20
   6  -5  -2   79.69    1.20
  -6   5   2   79.59    1.20
  -6   5   2   79.49    1.10
  -6   5   2   80.29    1.30
  -6   5   2   79.99    1.10
   5  -5  -2  375.46    3.50
   5  -5  -2  375.86    3.60
  -5   5   2  379.16    3.50
  -5   5   2  373.66    3.50
  -5   5   2  374.26    3.70
  -5   5   2  372.66    3.40
   4  -5  -2   23.50    0.60
   4  -5  -2   22.60    0.50
  -4   5   2   23.10    0.50
  -4   5   2   22.90    0.50
  -4   5   2   23.60    0.60
  -4   5   2   23.20    0.50
   3  -5  -2   68.99    1.00
   3  -5  -2   71.09    1.00
  -3   5   2   68.19    1.00
  -3   5   2   70.19    0.90
  -3   5   2   69.69    0.90
  -3   5   2   68.09    0.90
   2  -5  -2   15.40    0.40
   2  -5  -2   16.00    0.40
  -2   5   2   14.60    0.40
  -2   5   2   15.40    0.40
  -2   5   2   15.20    0.40
  -2   5   2   15.30    0.40
   1  -5  -2  136.09    1.50
   1  -5  -2  134.79    1.40
  -1   5   2  137.69    1.50
  -1   5   2  136.09    1.40
  -1   5   2  138.69    1.40
  -1   5   2  137.99    1.40
   0  -5  -2   74.89    0.90
   0  -5  -2   73.79    1.00
   0   5   2   70.49    1.20
   0   5   2   78.29    1.00
   0   5   2   76.89    0.90
   0   5   2   70.99    1.10
   8  -6  -2  164.28    2.20
   8  -6  -2  161.88    2.10
  -8   6   2  161.38    2.10
  -8   6   2  165.18    2.00
  -8   6   2  165.18    2.10
  -8   6   2  163.48    2.00
   7  -6  -2    8.80    0.40
   7  -6  -2    9.30    0.40
  -7   6   2   10.00    0.40
  -7   6   2    8.70    0.40
  -7   6   2    9.10    0.50
  -7   6   2    8.50    0.40
  -7   6   2    8.70    0.40
   6  -6  -2   29.90    0.70
   6  -6  -2   30.20    0.80
  -6   6   2   30.20    0.70
  -6   6   2   29.60    0.80
  -6   6   2   28.00    0.70
  -6   6   2   30.80    0.70
   5  -6  -2  243.28    2.60
   5  -6  -2  244.38    2.60
  -5   6   2  244.18    2.50
  -5   6   2  242.88    2.60
  -5   6   2  242.78    2.70
  -5   6   2  240.38    2.40
   4  -6  -2    2.80    0.20
   4  -6  -2    3.20    0.30
  -4   6   2    3.00    0.20
  -4   6   2    3.10    0.30
  -4   6   2    2.40    0.30
  -4   6   2    3.10    0.20
   3  -6  -2    0.10    0.10
   3  -6  -2    0.20    0.10
  -3   6   2    0.10    0.10
  -3   6   2    0.10    0.10
  -3   6   2    0.10    0.10
  -3   6   2    0.00    0.10
   2  -6  -2    8.20    0.30
   2  -6  -2    7.70    0.30
  -2   6   2    8.10    0.30
  -2   6   2    8.30    0.30
  -2   6   2    8.00    0.30
  -2   6   2    7.60    0.30
   1  -6  -2    1.70    0.20
   1  -6  -2    1.80    0.20
  -1   6   2    1.80    0.20
  -1   6   2    1.80    0.20
  -1   6   2    1.80    0.20
  -1   6   2    1.60    0.30
   8  -7  -2    6.40    0.40
   8  -7  -2    6.00    0.40
  -8   7   2    5.70    0.40
  -8   7   2    6.80    0.40
  -8   7   2    6.40    0.50
  -8   7   2    6.40    0.40
   7  -7  -2    0.40    0.20
   7  -7  -2    0.10    0.10
  -7   7   2    0.50    0.20
  -7   7   2    0.50    0.20
  -7   7   2    0.40    0.20
  -7   7   2    0.50    0.20
   6  -7  -2   32.10    0.80
   6  -7  -2   31.60    0.80
  -6   7   2   31.80    0.80
  -6   7   2   30.30    0.70
  -6   7   2   30.50    0.80
  -6   7   2   32.60    0.70
   5  -7  -2  349.77    3.50
   5  -7  -2  348.17    3.60
  -5   7   2  352.36    3.40
  -5   7   2  353.96    3.40
  -5   7   2  345.77    3.50
  -5   7   2  355.66    3.70
   4  -7  -2    0.00    0.10
   4  -7  -2    0.10    0.10
  -4   7   2    0.10    0.10
  -4   7   2    0.20    0.10
  -4   7   2    0.00    0.10
  -4   7   2   -0.10    0.10
   3  -7  -2   15.70    0.50
   3  -7  -2   15.40    0.50
  -3   7   2   15.40    0.50
  -3   7   2   15.90    0.50
  -3   7   2   15.50    0.50
  -3   7   2   15.90    0.40
   7  -8  -2    3.20    0.30
   7  -8  -2    2.60    0.30
  -7   8   2    3.50    0.40
  -7   8   2    2.90    0.30
  -7   8   2    2.20    0.30
  -7   8   2    2.80    0.30
   6  -8  -2    4.20    0.40
   6  -8  -2    3.40    0.40
  -6   8   2    3.70    0.40
  -6   8   2    3.00    0.30
  -6   8   2    3.20    0.30
  -6   8   2    3.20    0.30
   5  -8  -2   56.19    1.10
   5  -8  -2   55.49    1.10
  -5   8   2   53.89    1.10
  -5   8   2   55.49    1.00
  -5   8   2   54.89    1.00
  -5   8   2   53.39    1.00
   4  -8  -2   22.50    0.70
   4  -8  -2   23.20    0.60
  -4   8   2   21.20    0.60
  -4   8   2   22.60    0.70
  -4   8   2   22.70    0.60
  -4   8   2   22.20    0.60
   6  -9  -2    4.30    0.40
   6  -9  -2    4.30    0.40
  -6   9   2    4.40    0.40
  -6   9   2    4.30    0.40
  -6   9   2    4.80    0.40
  -6   9   2    5.00    0.40
   5  -9  -2  180.98    2.40
   5  -9  -2  180.88    2.30
  -5   9   2  184.88    2.20
  -5   9   2  184.88    2.30
  -5   9   2  184.18    2.20
  -5   9   2  186.18    2.20
  -4   9  -3   22.20    0.90
  -5   9  -3    2.40    0.30
  -5   9  -3    2.00    0.30
  -5   9  -3    1.90    0.30
  -5   9  -3    1.60    0.30
   5  -9   3    1.60    0.30
   5  -9   3    1.90    0.30
  -3   8  -3    0.10    0.10
  -3   8  -3    0.20    0.10
  -3   8  -3    0.00    0.10
   3  -8   3    0.00    0.10
   3  -8   3    0.10    0.10
  -4   8  -3   35.60    0.70
  -4   8  -3   34.90    0.70
  -4   8  -3   36.20    0.80
  -4   8  -3   35.00    0.80
   4  -8   3   34.50    0.80
   4  -8   3   34.90    0.80
  -5   8  -3   16.30    0.50
  -5   8  -3   16.40    0.50
  -5   8  -3   16.60    0.60
  -5   8  -3   16.10    0.60
   5  -8   3   17.30    0.60
   5  -8   3   16.60    0.60
  -6   8  -3    9.00    0.50
  -6   8  -3    9.70    0.50
  -6   8  -3    9.40    0.50
  -6   8  -3    8.50    0.40
   6  -8   3    9.20    0.50
   6  -8   3    9.80    0.50
  -2   7  -3   11.30    0.40
  -2   7  -3   10.80    0.40
  -2   7  -3   10.40    0.30
  -2   7  -3   10.60    0.30
   2  -7   3   11.40    0.40
   2  -7   3   11.00    0.40
  -3   7  -3   16.20    0.50
  -3   7  -3   15.60    0.50
  -3   7  -3   16.10    0.50
  -3   7  -3   16.00    0.40
   3  -7   3   16.30    0.50
   3  -7   3   16.30    0.50
  -4   7  -3   62.99    1.00
  -4   7  -3   62.39    1.00
  -4   7  -3   63.49    1.00
  -4   7  -3   61.29    1.00
   4  -7   3   62.29    1.10
   4  -7   3   63.19    1.10
  -5   7  -3   14.60    0.50
  -5   7  -3   15.00    0.50
  -5   7  -3   14.40    0.50
  -5   7  -3   14.20    0.50
   5  -7   3   14.20    0.50
   5  -7   3   13.90    0.50
  -6   7  -3   29.50    0.70
  -6   7  -3   30.30    0.80
  -6   7  -3   30.60    0.80
  -6   7  -3   30.70    0.70
   6  -7   3   28.70    0.80
   6  -7   3   29.40    0.80
  -7   7  -3    0.90    0.20
  -7   7  -3    0.90    0.20
  -7   7  -3    0.60    0.20
   7  -7   3    0.70    0.20
   7  -7   3    0.70    0.20
  -1   6  -3    1.70    0.20
  -1   6  -3    1.70    0.20
  -1   6  -3    2.00    0.20
  -1   6  -3    1.80    0.20
   1  -6   3    2.00    0.20
   1  -6   3    1.80    0.20
  -2   6  -3   18.80    0.40
  -2   6  -3   18.20    0.40
  -2   6  -3   19.20    0.40
  -2   6  -3   18.40    0.50
   2  -6   3   18.90    0.50
   2  -6   3   19.00    0.50
  -3   6  -3    6.30    0.30
  -3   6  -3    6.80    0.30
  -3   6  -3    6.30    0.30
  -3   6  -3    5.50    0.30
   3  -6   3    6.10    0.30
   3  -6   3    5.60    0.30
  -4   6  -3  155.58    1.80
  -4   6  -3  154.58    1.80
  -4   6  -3  153.68    1.70
  -4   6  -3  154.48    1.80
   4  -6   3  155.08    1.90
   4  -6   3  154.88    1.80
  -5   6  -3   27.00    0.70
  -5   6  -3   28.30    0.70
  -5   6  -3   27.20    0.60
  -5   6  -3   27.40    0.60
   5  -6   3   27.80    0.70
   5  -6   3   27.10    0.70
  -6   6  -3   41.50    0.80
  -6   6  -3   41.60    0.90
  -6   6  -3   39.90    0.90
  -6   6  -3   40.60    0.80
   6  -6   3   40.90    0.90
   6  -6   3   40.70    0.90
  -7   6  -3    9.20    0.50
  -7   6  -3    8.50    0.40
  -7   6  -3    8.10    0.40
  -7   6  -3    8.80    0.40
   7  -6   3    9.30    0.50
   7  -6   3    8.20    0.50
   0   5  -3  158.58    1.50
   0   5  -3  153.78    1.50
   0   5  -3  158.08    1.50
   0  -5   3  157.38    1.50
   0  -5   3  156.98    1.50
  -1   5  -3   68.09    0.80
  -1   5  -3   69.49    0.90
  -1   5  -3   67.19    0.80
  -1   5  -3   67.79    0.80
   1  -5   3   68.99    0.90
   1  -5   3   69.49    0.90
  -2   5  -3    6.40    0.30
  -2   5  -3    6.50    0.20
  -2   5  -3    6.20    0.20
  -2   5  -3    6.30    0.30
   2  -5   3    6.40    0.30
   2  -5   3    6.40    0.30
  -3   5  -3   76.29    1.00
  -3   5  -3   75.39    1.00
  -3   5  -3   75.79    1.00
  -3   5  -3   74.99    1.00
   3  -5   3   75.29    1.10
   3  -5   3   74.99    1.10
  -4   5  -3  127.59    1.50
  -4   5  -3  127.89    1.50
  -4   5  -3  129.89    1.50
  -4   5  -3  130.29    1.60
   4  -5   3  128.19    1.60
   4  -5   3  128.89    1.60
  -5   5  -3   57.19    0.90
  -5   5  -3   59.69    1.00
  -5   5  -3   58.79    1.00
  -5   5  -3   58.59    1.00
   5  -5   3   58.59    1.00
   5  -5   3   60.29    1.10
  -6   5  -3   22.00    0.60
  -6   5  -3   22.20    0.60
  -6   5  -3   21.00    0.60
  -6   5  -3   23.10    0.60
   6  -5   3   22.30    0.60
   6  -5   3   22.00    0.70
  -7   5  -3    3.20    0.30
  -7   5  -3    2.60    0.30
  -7   5  -3    3.00    0.30
  -7   5  -3    3.20    0.30
   7  -5   3    3.60    0.30
   7  -5   3    2.60    0.30
   0   4  -3  379.46    3.10
   0   4  -3  382.16    3.20
   0   4  -3  374.56    3.20
   0   4  -3  379.96    3.20
   0  -4   3  376.76    3.20
   0  -4   3  380.66    3.20
  -1   4  -3   19.30    0.40
  -1   4  -3   19.00    0.40
  -1   4  -3   18.60    0.40
  -1   4  -3   19.20    0.40
   1  -4   3   18.90    0.40
   1  -4   3   19.00    0.40
  -2   4  -3   72.79    0.90
  -2   4  -3   72.89    0.90
  -2   4  -3   72.89    0.90
  -2   4  -3   71.39    0.90
   2  -4   3   72.39    0.90
   2  -4   3   72.59    1.00
  -3   4  -3   64.09    0.90
  -3   4  -3   64.09    0.90
  -3   4  -3   63.69    0.90
  -3   4  -3   63.79    0.90
   3  -4   3   62.39    0.90
   3  -4   3   63.49    0.90
  -4   4  -3  407.06    3.70
  -4   4  -3  403.86    3.70
  -4   4  -3  401.06    3.60
  -4   4  -3  405.16    3.70
   4  -4   3  400.86    3.80
   4  -4   3  402.36    3.70
  -5   4  -3    7.40    0.30
  -5   4  -3    7.50    0.30
  -5   4  -3    7.90    0.30
  -5   4  -3    7.00    0.30
   5  -4   3    7.20    0.40
   5  -4   3    6.60    0.30
  -6   4  -3   77.09    1.20
  -6   4  -3   76.99    1.20
  -6   4  -3   77.89    1.10
  -6   4  -3   76.69    1.20
   6  -4   3   76.99    1.20
   6  -4   3   77.69    1.30
  -7   4  -3   15.10    0.50
  -7   4  -3   14.40    0.50
  -7   4  -3   14.70    0.50
  -7   4  -3   14.70    0.50
   7  -4   3   14.90    0.50
   7  -4   3   15.60    0.60
   1   3  -3   11.10    0.20
   1   3  -3   11.20    0.20
   1   3  -3   11.30    0.20
   1   3  -3   11.10    0.20
  -1  -3   3   11.30    0.20
  -1  -3   3   10.60    0.20
  -1  -3   3   10.50    0.20
  -1  -3   3   10.70    0.20
   0   3  -3  337.37    2.80
   0   3  -3  340.47    2.90
   0   3  -3  339.17    2.80
   0   3  -3  343.07    2.80
   0  -3   3  336.07    2.90
   0  -3   3  338.17    2.90
  -1   3  -3  398.26    3.40
  -1   3  -3  394.16    3.40
  -1   3  -3  395.36    3.30
  -1   3  -3  395.26    3.30
   1  -3   3  394.86    3.40
   1  -3   3  395.96    3.40
  -2   3  -3   12.40    0.30
  -2   3  -3   12.40    0.30
  -2   3  -3   12.70    0.30
  -2   3  -3   12.10    0.30
   2  -3   3   12.30    0.30
   2  -3   3   12.40    0.30
  -3   3  -3  140.69    1.50
  -3   3  -3  142.49    1.50
  -3   3  -3  141.29    1.50
  -3   3  -3  141.99    1.50
   3  -3   3  138.79    1.60
   3  -3   3  140.49    1.50
  -4   3  -3  143.19    1.60
  -4   3  -3  144.39    1.60
  -4   3  -3  145.19    1.60
  -4   3  -3  145.39    1.70
   4  -3   3  145.99    1.70
   4  -3   3  143.19    1.70
  -5   3  -3   95.49    1.20
  -5   3  -3   95.89    1.30
  -5   3  -3   93.19    1.20
  -5   3  -3   95.29    1.30
   5  -3   3   97.19    1.30
   5  -3   3   95.69    1.40
  -6   3  -3    3.70    0.30
  -6   3  -3    4.00    0.30
  -6   3  -3    4.30    0.30
  -6   3  -3    3.80    0.30
   6  -3   3    4.10    0.30
   6  -3   3    4.20    0.30
  -7   3  -3    7.20    0.40
  -7   3  -3    7.00    0.40
  -7   3  -3    7.90    0.40
  -7   3  -3    7.90    0.40
   7  -3   3    7.20    0.40
   7  -3   3    6.90    0.40
   2   2  -3  296.37    2.40
   2   2  -3  298.27    2.50
  -2  -2   3  293.77    2.40
   1   2  -3  421.56    3.50
   1   2  -3  428.46    3.50
   1   2  -3  428.06    3.50
   1   2  -3  431.56    3.50
   1   2  -3  428.06    3.50
   1   2  -3  431.26    3.50
  -1  -2   3  430.66    3.50
   0   2  -3 1284.27   10.80
   0   2  -3 1316.57   10.70
   0   2  -3 1310.37   10.70
   0   2  -3 1321.87   10.90
   0  -2   3 1292.37   10.90
   0  -2   3 1282.67   10.80
  -1   2  -3   48.30    0.60
  -1   2  -3   47.00    0.60
  -1   2  -3   46.40    0.60
  -1   2  -3   48.10    0.60
   1  -2   3   47.10    0.60
   1  -2   3   47.40    0.70
  -2   2  -3   70.99    0.90
  -2   2  -3   68.99    0.80
  -2   2  -3   68.99    0.80
  -2   2  -3   69.59    0.80
   2  -2   3   68.59    0.90
   2  -2   3   68.49    0.90
  -3   2  -3  171.38    1.80
  -3   2  -3  172.58    1.70
  -3   2  -3  171.48    1.70
  -3   2  -3  169.38    1.70
   3  -2   3  170.68    1.80
   3  -2   3  170.58    1.80
  -4   2  -3  609.84    5.20
  -4   2  -3  607.84    5.10
  -4   2  -3  604.54    5.20
  -4   2  -3  594.44    5.20
   4  -2   3  601.14    5.30
   4  -2   3  608.44    5.20
  -5   2  -3    8.70    0.40
  -5   2  -3    8.60    0.30
  -5   2  -3    8.60    0.30
  -5   2  -3    9.10    0.30
   5  -2   3    8.80    0.40
   5  -2   3    8.90    0.40
  -6   2  -3   66.39    1.10
  -6   2  -3   67.49    1.00
  -6   2  -3   65.89    1.00
  -6   2  -3   66.69    1.10
   6  -2   3   69.49    1.20
   6  -2   3   68.49    1.10
  -7   2  -3   19.80    0.60
  -7   2  -3   18.60    0.50
  -7   2  -3   18.70    0.60
  -7   2  -3   20.20    0.60
   7  -2   3   19.30    0.60
   7  -2   3   19.10    0.60
   4   1  -3   52.89    0.60
   4   1  -3   52.99    0.60
  -4  -1   3   52.59    0.70
  -4  -1   3   52.39    0.60
  -4  -1   3   52.39    0.60
  -4  -1   3   51.99    0.60
   3   1  -3    5.90    0.20
   3   1  -3    6.30    0.20
  -3  -1   3    5.70    0.20
  -3  -1   3    5.50    0.10
  -3  -1   3    5.80    0.20
  -3  -1   3    5.70    0.20
   2   1  -3  498.65    4.10
   2   1  -3  483.45    4.10
   2   1  -3  495.45    4.20
  -2  -1   3  497.95    4.10
   1   1  -3  275.57    2.30
   1   1  -3  274.67    2.30
   1   1  -3  276.57    2.30
   1   1  -3  274.47    2.30
  -1  -1   3  274.27    2.30
   0   1  -3  372.66    3.10
   0   1  -3  383.66    3.20
   0   1  -3  382.16    3.10
   0   1  -3  376.66    3.10
   0   1  -3  377.36    3.20
   0   1  -3  380.06    3.20
  -1   1  -3  997.00    8.50
  -1   1  -3  990.40    8.80
  -1   1  -3 1001.10    8.20
  -1   1  -3  993.20    8.20
  -2   1  -3  160.28    1.50
  -2   1  -3  163.28    1.60
  -2   1  -3  161.78    1.60
  -2   1  -3  160.08    1.60
   2  -1   3  161.58    1.60
   2  -1   3  159.88    1.60
  -3   1  -3  106.79    1.20
  -3   1  -3  102.39    1.20
  -3   1  -3  104.29    1.20
  -3   1  -3  105.49    1.20
   3  -1   3  105.49    1.30
   3  -1   3  106.59    1.20
  -4   1  -3   68.89    0.90
  -4   1  -3   70.79    0.90
  -4   1  -3   69.49    1.00
  -4   1  -3   69.89    1.00
   4  -1   3   71.99    1.00
   4  -1   3   71.19    1.00
  -5   1  -3   46.40    0.80
  -5   1  -3   47.20    0.80
  -5   1  -3   48.30    0.80
  -5   1  -3   47.90    0.80
   5  -1   3   47.70    0.90
   5  -1   3   47.50    0.80
  -6   1  -3    0.20    0.10
  -6   1  -3    0.10    0.10
  -6   1  -3    0.30    0.10
  -6   1  -3    0.60    0.10
   6  -1   3    0.20    0.10
   6  -1   3    0.20    0.10
   5   0  -3    4.30    0.20
   5   0  -3    4.30    0.20
  -5   0   3    4.30    0.20
  -5   0   3    4.20    0.20
  -5   0   3    4.50    0.20
  -5   0   3    4.50    0.20
   4   0  -3  313.07    2.70
   4   0  -3  308.47    2.70
  -4   0   3  304.37    2.60
  -4   0   3  307.57    2.60
  -4   0   3  309.97    2.80
  -4   0   3  313.57    2.70
   3   0  -3   18.30    0.30
   3   0  -3   17.90    0.30
  -3   0   3   18.60    0.40
  -3   0   3   18.30    0.30
  -3   0   3   18.20    0.30
  -3   0   3   17.40    0.30
   2   0  -3 1062.49    9.20
   2   0  -3 1110.79    9.40
  -2   0   3 1091.39    9.30
   1   0  -3  208.38    1.80
   1   0  -3  208.98    1.90
   1   0  -3  206.08    1.80
   1   0  -3  206.68    1.80
  -1   0   3  206.68    1.80
   0   0  -3 1390.26   12.10
   0   0  -3 1403.46   11.90
   0   0  -3 1418.16   11.80
   0   0  -3 1417.06   11.70
   0   0  -3 1416.46   12.20
   0   0  -3 1433.56   12.40
   0   0   3 1403.96   12.30
  -1   0  -3   30.00    0.50
  -1   0  -3   30.60    0.50
  -1   0  -3   30.10    0.40
  -1   0  -3   30.60    0.50
  -1   0  -3   30.20    0.50
  -1   0  -3   31.10    0.50
  -2   0  -3    2.80    0.20
  -2   0  -3    3.20    0.20
  -2   0  -3    3.20    0.20
  -2   0  -3    3.00    0.20
   2   0   3    2.60    0.20
   2   0   3    2.60    0.20
  -3   0  -3  169.88    1.70
  -3   0  -3  165.38    1.70
  -3   0  -3  169.38    1.70
  -3   0  -3  169.08    1.70
   3   0   3  167.58    1.80
   3   0   3  168.78    1.70
  -4   0  -3  500.65    4.40
  -4   0  -3  504.85    4.30
  -4   0  -3  501.85    4.40
  -4   0  -3  501.85    4.30
  -5   0  -3   53.99    0.80
  -5   0  -3   53.59    0.80
  -5   0  -3   53.29    0.90
  -5   0  -3   53.19    0.80
   5   0   3   55.39    0.90
   5   0   3   54.39    0.90
   6  -1  -3   21.80    0.50
   6  -1  -3   20.80    0.50
  -6   1   3   20.90    0.40
  -6   1   3   20.80    0.40
  -6   1   3   20.30    0.50
  -6   1   3   21.90    0.50
   5  -1  -3  446.36    4.00
   5  -1  -3  444.36    3.90
  -5   1   3  465.35    4.00
  -5   1   3  451.45    3.80
  -5   1   3  452.25    3.90
  -5   1   3  451.25    3.90
   4  -1  -3    5.60    0.20
   4  -1  -3    5.60    0.20
  -4   1   3    6.10    0.20
  -4   1   3    5.60    0.20
  -4   1   3    5.70    0.20
  -4   1   3    5.60    0.20
   3  -1  -3    3.10    0.10
   3  -1  -3    3.10    0.20
  -3   1   3    3.20    0.10
  -3   1   3    3.10    0.10
  -3   1   3    3.00    0.20
  -3   1   3    3.30    0.20
   2  -1  -3  593.64    5.20
   2  -1  -3  590.44    5.30
  -2   1   3  606.44    5.10
   1  -1  -3  629.14    5.10
   1  -1  -3  638.84    5.10
   1  -1  -3  615.44    5.10
  -1   1   3  618.14    5.30
   0  -1  -3  130.69    1.30
   0  -1  -3  127.49    1.30
   0  -1  -3  130.89    1.30
   0  -1  -3  126.09    1.30
   0   1   3  128.79    1.30
  -1  -1  -3  718.83    5.80
  -1  -1  -3  713.33    5.70
  -1  -1  -3  704.73    5.80
  -1  -1  -3  718.43    5.90
  -1  -1  -3  709.73    5.80
  -1  -1  -3  711.13    5.80
   1   1   3  712.63    5.90
  -2  -1  -3  240.18    2.20
  -2  -1  -3  241.68    2.20
  -2  -1  -3  239.88    2.20
  -2  -1  -3  238.08    2.20
   2   1   3  239.08    2.20
  -3  -1  -3   31.30    0.50
  -3  -1  -3   31.50    0.50
  -3  -1  -3   31.30    0.60
  -3  -1  -3   31.10    0.50
   3   1   3   30.90    0.60
   3   1   3   30.70    0.60
   3   1   3   31.80    0.60
  -4  -1  -3   15.20    0.40
  -4  -1  -3   15.00    0.40
  -4  -1  -3   15.40    0.40
  -4  -1  -3   15.80    0.40
   4   1   3   15.90    0.40
   4   1   3   15.10    0.40
   4   1   3   15.30    0.40
  -7   2   3  111.29    1.50
  -7   2   3  111.19    1.40
  -7   2   3  109.49    1.40
  -7   2   3  109.99    1.30
  -7   2   3  109.99    1.40
   6  -2  -3  643.04    5.50
   6  -2  -3  641.94    5.60
  -6   2   3  648.14    5.50
  -6   2   3  654.13    5.60
  -6   2   3  643.64    5.40
  -6   2   3  642.84    5.70
   5  -2  -3    9.50    0.30
   5  -2  -3   10.10    0.30
  -5   2   3    9.50    0.30
  -5   2   3    9.70    0.30
  -5   2   3    9.80    0.30
  -5   2   3   10.20    0.40
   4  -2  -3  221.68    2.20
   4  -2  -3  222.98    2.10
  -4   2   3  222.08    2.10
  -4   2   3  219.08    2.00
  -4   2   3  220.28    2.20
  -4   2   3  222.18    2.10
   3  -2  -3   42.20    0.60
   3  -2  -3   42.30    0.60
  -3   2   3   42.00    0.60
  -3   2   3   41.90    0.60
  -3   2   3   40.90    0.70
  -3   2   3   41.60    0.60
   2  -2  -3 1330.97   11.60
   2  -2  -3 1347.77   11.40
  -2   2   3 1338.97   21.70
  -2   2   3 1316.97   11.00
  -2   2   3 1324.07   10.90
   1  -2  -3   -0.20    0.10
   1  -2  -3   -0.20    0.10
   1  -2  -3   -0.20    0.10
  -1   2   3    0.00    0.10
   0  -2  -3  436.76    3.70
   0  -2  -3  445.96    3.80
   0  -2  -3  435.86    3.70
   0   2   3  436.46    3.70
  -1  -2  -3    4.70    0.20
  -1  -2  -3    3.40    0.20
  -1  -2  -3    4.00    0.20
  -1  -2  -3    4.00    0.20
   1   2   3    3.90    0.20
  -2  -2  -3   19.50    0.40
  -2  -2  -3   20.00    0.40
  -2  -2  -3   19.80    0.40
  -2  -2  -3   20.10    0.40
   2   2   3   19.80    0.40
  -3  -2  -3   80.89    1.00
  -3  -2  -3   81.09    1.00
  -3  -2  -3   81.29    1.00
  -3  -2  -3   82.09    1.00
   3   2   3   81.19    1.00
   3   2   3   82.49    1.10
   3   2   3   83.09    1.00
   8  -3  -3  136.79    1.80
   8  -3  -3  134.29    1.70
  -8   3   3  135.59    1.70
  -8   3   3  135.69    1.60
  -8   3   3  133.39    1.70
  -8   3   3  135.99    1.70
  -8   3   3  134.99    1.90
   7  -3  -3    3.00    0.30
   7  -3  -3    2.70    0.20
  -7   3   3    2.80    0.20
  -7   3   3    2.90    0.20
  -7   3   3    2.60    0.30
  -7   3   3    2.80    0.20
   6  -3  -3    9.80    0.40
   6  -3  -3   10.60    0.40
  -6   3   3   10.20    0.40
  -6   3   3    9.70    0.40
  -6   3   3   10.30    0.40
  -6   3   3   10.80    0.40
   5  -3  -3  635.44    5.50
   5  -3  -3  637.44    5.50
  -5   3   3  643.54    5.50
  -5   3   3  636.54    5.40
  -5   3   3  640.84    5.40
  -5   3   3  636.54    5.60
   4  -3  -3   17.50    0.40
   4  -3  -3   18.20    0.40
  -4   3   3   17.90    0.40
  -4   3   3   17.80    0.40
  -4   3   3   18.30    0.50
  -4   3   3   17.90    0.40
   3  -3  -3    0.00    0.10
   3  -3  -3    0.10    0.10
  -3   3   3    0.10    0.10
  -3   3   3    0.10    0.10
  -3   3   3    0.20    0.10
  -3   3   3    0.00    0.10
   2  -3  -3  169.38    1.70
   2  -3  -3  170.98    1.70
  -2   3   3  168.68    1.60
  -2   3   3  169.58    1.60
  -2   3   3  167.48    1.70
   1  -3  -3  332.37    3.00
   1  -3  -3  334.57    2.90
  -1   3   3  322.97    2.90
   0  -3  -3   18.50    0.40
   0  -3  -3   18.60    0.40
   0  -3  -3   18.50    0.40
   0   3   3   18.10    0.40
  -1  -3  -3  216.28    2.00
  -1  -3  -3  216.48    2.00
  -1  -3  -3  220.28    2.10
   1   3   3  220.98    2.10
  -2  -3  -3  139.59    1.50
  -2  -3  -3  137.99    1.50
  -2  -3  -3  138.29    1.50
   2   3   3  137.99    1.50
   9  -4  -3    0.40    0.20
   9  -4  -3    0.60    0.20
  -9   4   3    0.50    0.20
  -9   4   3    0.70    0.20
  -9   4   3    0.60    0.20
  -9   4   3    0.50    0.20
   8  -4  -3    6.60    0.40
   8  -4  -3    6.30    0.40
  -8   4   3    7.20    0.40
  -8   4   3    7.20    0.40
  -8   4   3    6.90    0.40
  -8   4   3    7.00    0.40
  -8   4   3    7.50    0.40
   7  -4  -3   45.20    0.90
   7  -4  -3   44.80    0.90
  -7   4   3   45.90    1.00
  -7   4   3   45.30    0.80
  -7   4   3   45.60    0.90
  -7   4   3   43.90    0.80
   6  -4  -3  505.45    4.70
   6  -4  -3  499.55    4.60
  -6   4   3  506.25    4.50
  -6   4   3  504.35    4.60
  -6   4   3  507.45    4.50
  -6   4   3  503.55    4.70
   5  -4  -3   22.80    0.60
   5  -4  -3   23.00    0.50
  -5   4   3   23.60    0.60
  -5   4   3   23.90    0.50
  -5   4   3   23.20    0.50
  -5   4   3   22.80    0.50
   4  -4  -3   38.70    0.70
   4  -4  -3   39.10    0.70
  -4   4   3   41.20    0.60
  -4   4   3   40.10    0.70
  -4   4   3   40.70    0.80
  -4   4   3   40.30    0.70
   3  -4  -3   21.00    0.50
   3  -4  -3   20.70    0.50
  -3   4   3   21.70    0.50
  -3   4   3   21.50    0.50
  -3   4   3   21.60    0.40
  -3   4   3   22.20    0.50
   2  -4  -3  671.83    5.70
   2  -4  -3  666.33    5.60
  -2   4   3  671.13    5.50
  -2   4   3  660.93    5.60
  -2   4   3  665.03    5.50
  -2   4   3  669.33    5.70
   1  -4  -3   37.20    0.60
   1  -4  -3   37.10    0.60
  -1   4   3   38.10    0.60
  -1   4   3   37.20    0.60
  -1   4   3   38.00    0.60
   0  -4  -3   65.59    0.90
   0  -4  -3   65.09    0.90
   0   4   3   66.19    0.80
   0   4   3   66.89    0.90
   0   4   3   67.29    0.80
  -1  -4  -3    0.90    0.10
  -1  -4  -3    0.80    0.10
   9  -5  -3   66.69    1.30
   9  -5  -3   66.79    1.30
  -9   5   3   66.29    1.20
  -9   5   3   67.49    1.30
  -9   5   3   65.29    1.10
  -9   5   3   67.19    1.20
   8  -5  -3  106.79    1.70
   8  -5  -3  106.59    1.60
  -8   5   3  107.09    1.50
  -8   5   3  108.49    1.50
  -8   5   3  107.19    1.60
  -8   5   3  107.49    1.70
  -8   5   3  105.09    1.60
   7  -5  -3   12.00    0.50
   7  -5  -3   11.90    0.50
  -7   5   3   12.00    0.40
  -7   5   3   11.90    0.40
  -7   5   3   12.00    0.50
  -7   5   3   10.90    0.40
   6  -5  -3    2.50    0.30
   6  -5  -3    2.50    0.30
  -6   5   3    2.00    0.20
  -6   5   3    2.40    0.20
  -6   5   3    2.60    0.20
  -6   5   3    2.60    0.30
   5  -5  -3  437.26    4.00
   5  -5  -3  435.06    4.10
  -5   5   3  435.96    4.00
  -5   5   3  435.16    4.20
  -5   5   3  433.56    4.00
  -5   5   3  435.76    3.90
   4  -5  -3   36.50    0.70
   4  -5  -3   36.00    0.70
  -4   5   3   37.20    0.70
  -4   5   3   37.60    0.70
  -4   5   3   37.00    0.80
  -4   5   3   36.30    0.60
   3  -5  -3    0.50    0.10
   3  -5  -3    0.30    0.10
  -3   5   3    0.60    0.10
  -3   5   3    0.50    0.10
  -3   5   3    0.60    0.10
  -3   5   3    0.60    0.10
   2  -5  -3    8.00    0.30
   2  -5  -3    8.60    0.30
  -2   5   3    7.30    0.30
  -2   5   3    7.60    0.30
  -2   5   3    7.30    0.30
  -2   5   3    7.40    0.30
   1  -5  -3   64.59    0.90
   1  -5  -3   64.49    0.90
  -1   5   3   63.59    0.90
  -1   5   3   66.19    0.90
  -1   5   3   65.49    0.80
  -1   5   3   66.29    1.00
   0  -5  -3    4.10    0.20
   0  -5  -3    4.10    0.20
   0   5   3    4.10    0.30
   0   5   3    4.00    0.30
   0   5   3    4.10    0.30
   0   5   3    3.80    0.20
   8  -6  -3   12.10    0.60
   8  -6  -3   12.50    0.50
  -8   6   3   12.40    0.50
  -8   6   3   12.80    0.50
  -8   6   3   12.90    0.50
  -8   6   3   12.40    0.50
   7  -6  -3    2.50    0.30
   7  -6  -3    2.10    0.30
  -7   6   3    1.80    0.20
  -7   6   3    2.30    0.30
  -7   6   3    1.90    0.20
  -7   6   3    1.70    0.20
   6  -6  -3  215.88    2.40
   6  -6  -3  220.38    2.50
  -6   6   3  211.68    2.30
  -6   6   3  216.98    2.30
  -6   6   3  217.08    2.40
  -6   6   3  216.28    2.60
   5  -6  -3   25.10    0.60
   5  -6  -3   24.40    0.70
  -5   6   3   24.10    0.70
  -5   6   3   24.20    0.60
  -5   6   3   23.90    0.60
  -5   6   3   24.10    0.60
   4  -6  -3    0.10    0.10
   4  -6  -3   -0.10    0.10
  -4   6   3    0.00    0.10
  -4   6   3   -0.20    0.10
  -4   6   3    0.00    0.10
  -4   6   3    0.00    0.10
   3  -6  -3    7.20    0.30
   3  -6  -3    7.10    0.30
  -3   6   3    7.20    0.30
  -3   6   3    6.90    0.30
  -3   6   3    6.60    0.40
  -3   6   3    7.00    0.30
   2  -6  -3  228.08    2.40
   2  -6  -3  228.78    2.30
  -2   6   3  228.78    2.30
  -2   6   3  228.18    2.20
  -2   6   3  225.48    2.40
  -2   6   3  225.58    2.20
   1  -6  -3   30.90    0.80
   1  -6  -3   32.60    0.70
  -1   6   3   29.60    0.70
  -1   6   3   29.90    0.70
   8  -7  -3   39.70    1.00
   8  -7  -3   38.80    1.00
  -8   7   3   37.90    0.90
  -8   7   3   37.10    0.90
  -8   7   3   37.90    0.90
   7  -7  -3   20.00    0.70
   7  -7  -3   20.10    0.70
  -7   7   3   21.40    0.60
  -7   7   3   19.70    0.60
  -7   7   3   20.30    0.70
   6  -7  -3    0.50    0.20
   6  -7  -3    0.50    0.20
  -6   7   3    0.20    0.20
  -6   7   3    0.50    0.20
  -6   7   3    0.60    0.20
  -6   7   3    0.50    0.20
   5  -7  -3  183.48    2.20
   5  -7  -3  180.48    2.20
  -5   7   3  176.68    2.30
  -5   7   3  178.48    2.00
  -5   7   3  177.28    2.10
  -5   7   3  176.58    2.10
   4  -7  -3   19.40    0.60
   4  -7  -3   19.80    0.60
  -4   7   3   19.50    0.50
  -4   7   3   18.50    0.50
  -4   7   3   18.40    0.60
  -4   7   3   17.90    0.60
   3  -7  -3    0.10    0.10
   3  -7  -3    0.10    0.10
  -3   7   3   -0.10    0.10
  -3   7   3    0.10    0.10
  -3   7   3   -0.10    0.10
  -3   7   3   -0.20    0.10
   7  -8  -3    2.20    0.30
   7  -8  -3    2.00    0.30
  -7   8   3    2.50    0.30
  -7   8   3    2.80    0.30
  -7   8   3    2.60    0.50
   6  -8  -3   59.39    1.20
   6  -8  -3   58.09    1.10
  -6   8   3   58.19    1.10
  -6   8   3   57.49    1.00
  -6   8   3   58.49    1.10
   5  -8  -3   10.70    0.50
   5  -8  -3   11.00    0.50
  -5   8   3   11.10    0.50
  -5   8   3   11.80    0.50
  -5   8   3   11.50    0.50
  -5   8   3   10.90    0.50
   4  -8  -3    6.30    0.40
   4  -8  -3    6.60    0.40
  -4   8   3    6.20    0.40
  -4   8   3    6.30    0.40
  -4   8   3    6.70    0.40
  -4   8   3    7.10    0.40
  -4   9  -4    3.60    0.50
  -3   8  -4   12.60    0.40
  -3   8  -4   12.70    0.40
  -3   8  -4   12.00    0.40
   3  -8   4   12.40    0.50
   3  -8   4   12.50    0.50
  -4   8  -4   10.70    0.50
  -4   8  -4   11.00    0.40
  -4   8  -4   10.40    0.40
  -4   8  -4   11.20    0.50
   4  -8   4   10.60    0.50
   4  -8   4   10.00    0.50
  -5   8  -4    4.00    0.30
  -5   8  -4    3.30    0.30
  -5   8  -4    3.90    0.30
  -5   8  -4    3.90    0.30
   5  -8   4    3.70    0.40
   5  -8   4    3.80    0.40
  -6   8  -4    2.90    0.30
  -6   8  -4    2.50    0.30
  -6   8  -4    2.90    0.30
   6  -8   4    2.20    0.30
   6  -8   4    3.20    0.40
  -2   7  -4    0.40    0.10
  -2   7  -4    0.40    0.10
  -2   7  -4    0.40    0.10
  -2   7  -4    0.40    0.10
   2  -7   4    0.30    0.10
   2  -7   4    0.30    0.10
  -3   7  -4  473.55    4.30
  -3   7  -4  468.65    4.30
  -3   7  -4  466.15    4.20
  -3   7  -4  469.95    4.40
   3  -7   4  471.45    4.40
   3  -7   4  480.65    4.40
  -4   7  -4    4.40    0.30
  -4   7  -4    3.50    0.30
  -4   7  -4    3.20    0.30
  -4   7  -4    3.30    0.30
   4  -7   4    3.90    0.30
   4  -7   4    3.70    0.30
  -5   7  -4    2.60    0.30
  -5   7  -4    2.60    0.30
  -5   7  -4    2.10    0.20
  -5   7  -4    3.00    0.30
   5  -7   4    2.70    0.30
   5  -7   4    2.50    0.30
  -6   7  -4   71.89    1.30
  -6   7  -4   71.89    1.30
  -6   7  -4   72.49    1.20
  -6   7  -4   72.49    1.20
   6  -7   4   73.49    1.40
   6  -7   4   73.19    1.30
  -1   6  -4    2.80    0.20
  -1   6  -4    3.10    0.20
  -1   6  -4    2.80    0.20
  -1   6  -4    2.80    0.20
   1  -6   4    2.80    0.20
   1  -6   4    2.80    0.20
  -2   6  -4    1.60    0.20
  -2   6  -4    1.60    0.20
  -2   6  -4    1.60    0.20
  -2   6  -4    1.70    0.20
   2  -6   4    1.40    0.20
   2  -6   4    1.30    0.20
  -3   6  -4   10.20    0.40
  -3   6  -4   10.10    0.40
  -3   6  -4    9.60    0.40
  -3   6  -4    9.50    0.40
   3  -6   4   10.40    0.40
   3  -6   4   10.50    0.40
  -4   6  -4   34.30    0.70
  -4   6  -4   34.00    0.70
  -4   6  -4   35.10    0.70
  -4   6  -4   33.60    0.70
   4  -6   4   34.70    0.80
   4  -6   4   34.10    0.80
  -5   6  -4    0.20    0.10
  -5   6  -4    0.10    0.10
  -5   6  -4    0.10    0.10
  -5   6  -4    0.10    0.10
   5  -6   4    0.10    0.10
   5  -6   4    0.20    0.10
  -6   6  -4    8.90    0.40
  -6   6  -4    8.70    0.40
  -6   6  -4    9.00    0.50
  -6   6  -4    9.60    0.40
   6  -6   4    9.00    0.50
   6  -6   4    8.00    0.50
  -7   6  -4   31.30    0.80
  -7   6  -4   32.00    0.80
  -7   6  -4   30.50    0.80
   7  -6   4   31.20    0.90
   7  -6   4   30.80    0.90
   0   5  -4   25.30    0.40
   0   5  -4   24.90    0.40
   0   5  -4   26.20    0.50
   0   5  -4   25.60    0.40
   0  -5   4   25.90    0.50
   0  -5   4   25.10    0.50
  -1   5  -4   32.10    0.50
  -1   5  -4   31.20    0.50
  -1   5  -4   31.10    0.50
  -1   5  -4   31.00    0.60
   1  -5   4   31.20    0.60
   1  -5   4   31.30    0.60
  -2   5  -4    1.50    0.20
  -2   5  -4    1.40    0.20
  -2   5  -4    1.40    0.20
  -2   5  -4    1.40    0.20
   2  -5   4    1.60    0.20
   2  -5   4    1.50    0.20
  -3   5  -4 1066.79    8.80
  -3   5  -4 1071.89    8.80
  -3   5  -4 1063.29    8.90
  -3   5  -4 1068.89    8.80
   3  -5   4 1085.59    9.00
   3  -5   4 1084.59    8.90
  -4   5  -4    0.20    0.10
  -4   5  -4    0.00    0.10
  -4   5  -4    0.10    0.10
  -4   5  -4   -0.10    0.10
   4  -5   4    0.20    0.10
   4  -5   4    0.00    0.10
  -5   5  -4    0.70    0.20
  -5   5  -4    0.50    0.10
  -5   5  -4    0.30    0.10
  -5   5  -4    0.70    0.20
   5  -5   4    0.30    0.10
   5  -5   4    0.60    0.20
  -6   5  -4  176.28    2.10
  -6   5  -4  175.88    2.10
  -6   5  -4  174.08    2.20
  -6   5  -4  176.78    2.10
   6  -5   4  176.38    2.30
   6  -5   4  176.38    2.20
  -7   5  -4   76.89    1.30
  -7   5  -4   75.19    1.30
  -7   5  -4   79.09    1.40
  -7   5  -4   77.39    1.30
   7  -5   4   75.99    1.40
   7  -5   4   77.89    1.40
   1   4  -4    1.50    0.10
   1   4  -4    1.30    0.10
   1   4  -4    1.30    0.10
   1   4  -4    1.50    0.10
  -1  -4   4    1.20    0.10
   0   4  -4  476.65    4.00
   0   4  -4  474.85    4.00
   0   4  -4  474.75    4.00
   0   4  -4  473.15    3.90
   0  -4   4  472.25    4.00
   0  -4   4  467.55    4.00
  -1   4  -4   23.20    0.50
  -1   4  -4   23.90    0.40
  -1   4  -4   23.40    0.50
  -1   4  -4   23.50    0.40
   1  -4   4   23.70    0.50
   1  -4   4   23.70    0.50
  -2   4  -4   15.70    0.40
  -2   4  -4   16.40    0.40
  -2   4  -4   15.90    0.40
  -2   4  -4   15.90    0.40
   2  -4   4   15.70    0.40
   2  -4   4   15.40    0.40
  -3   4  -4    1.70    0.20
  -3   4  -4    1.70    0.20
  -3   4  -4    1.80    0.20
  -3   4  -4    1.50    0.20
   3  -4   4    1.80    0.20
   3  -4   4    1.60    0.20
  -4   4  -4   95.69    1.30
  -4   4  -4   97.29    1.20
  -4   4  -4   95.09    1.30
  -4   4  -4   96.69    1.30
   4  -4   4   97.29    1.30
   4  -4   4   98.39    1.40
  -5   4  -4    8.10    0.30
  -5   4  -4    8.30    0.40
  -5   4  -4    8.00    0.40
  -5   4  -4    8.30    0.40
   5  -4   4    8.00    0.40
   5  -4   4    8.50    0.40
  -6   4  -4   29.80    0.70
  -6   4  -4   29.60    0.70
  -6   4  -4   29.10    0.80
  -6   4  -4   29.10    0.70
   6  -4   4   28.80    0.70
   6  -4   4   28.80    0.80
  -7   4  -4   37.80    0.90
  -7   4  -4   36.60    0.90
  -7   4  -4   35.80    0.80
  -7   4  -4   35.90    0.80
   7  -4   4   37.40    0.90
   7  -4   4   37.60    1.00
   2   3  -4    1.50    0.20
  -2  -3   4    1.70    0.10
  -2  -3   4    1.90    0.10
  -2  -3   4    1.70    0.10
   1   3  -4   24.30    0.40
   1   3  -4   23.70    0.40
   1   3  -4   23.40    0.40
   1   3  -4   23.00    0.40
  -1  -3   4   22.20    0.40
  -1  -3   4   22.30    0.40
  -1  -3   4   23.00    0.40
   0   3  -4  240.98    2.10
   0   3  -4  235.28    2.20
   0   3  -4  243.18    2.20
   0   3  -4  243.08    2.20
   0  -3   4  244.18    2.20
   0  -3   4  243.48    2.20
  -1   3  -4   26.50    0.50
  -1   3  -4   25.90    0.50
  -1   3  -4   26.70    0.50
  -1   3  -4   26.50    0.50
   1  -3   4   25.70    0.50
   1  -3   4   26.50    0.50
  -2   3  -4   43.30    0.60
  -2   3  -4   43.90    0.70
  -2   3  -4   43.80    0.70
  -2   3  -4   42.80    0.70
   2  -3   4   43.20    0.70
   2  -3   4   43.80    0.70
  -3   3  -4 1524.05   12.60
  -3   3  -4 1504.15   12.80
  -3   3  -4 1496.85   12.10
  -3   3  -4 1492.25   12.30
   3  -3   4 1503.45   12.50
   3  -3   4 1497.95   12.40
  -4   3  -4    4.70    0.30
  -4   3  -4    4.10    0.20
  -4   3  -4    4.10    0.20
  -4   3  -4    4.10    0.30
   4  -3   4    5.00    0.30
   4  -3   4    4.80    0.30
  -5   3  -4   26.50    0.70
  -5   3  -4   27.50    0.60
  -5   3  -4   25.90    0.60
  -5   3  -4   28.00    0.60
   5  -3   4   26.50    0.70
   5  -3   4   26.60    0.70
  -6   3  -4  197.88    2.30
  -6   3  -4  196.08    2.20
  -6   3  -4  200.18    2.30
  -6   3  -4  196.58    2.30
   6  -3   4  202.08    2.40
   6  -3   4  205.28    2.40
  -7   3  -4   45.70    0.90
  -7   3  -4   48.00    1.00
  -7   3  -4   44.30    0.90
  -7   3  -4   46.30    1.00
   7  -3   4   44.00    1.00
   7  -3   4   45.80    1.00
   3   2  -4    0.50    0.10
   3   2  -4    0.60    0.10
  -3  -2   4    0.50    0.10
  -3  -2   4    0.50    0.10
  -3  -2   4    0.50    0.10
   2   2  -4   17.50    0.30
   2   2  -4   17.40    0.30
   2   2  -4   17.70    0.30
  -2  -2   4   17.80    0.30
   1   2  -4   33.00    0.50
   1   2  -4   33.00    0.50
   1   2  -4   32.30    0.50
   1   2  -4   32.80    0.40
   1   2  -4   32.90    0.50
   1   2  -4   33.10    0.50
  -1  -2   4   32.90    0.50
   0   2  -4  598.24    4.90
   0   2  -4  604.74    5.00
   0   2  -4  596.44    4.90
   0   2  -4  598.54    4.90
   0   2  -4  608.94    5.00
   0   2  -4  594.14    5.00
  -1   2  -4   64.49    0.80
  -1   2  -4   66.39    0.80
  -1   2  -4   64.29    0.80
  -1   2  -4   66.49    0.80
   1  -2   4   65.39    0.90
   1  -2   4   64.49    0.80
  -2   2  -4   93.99    1.10
  -2   2  -4   94.49    1.10
  -2   2  -4   92.49    1.10
  -2   2  -4   93.09    1.10
   2  -2   4   93.39    1.20
   2  -2   4   92.79    1.10
  -3   2  -4   37.50    0.70
  -3   2  -4   36.80    0.60
  -3   2  -4   37.60    0.70
  -3   2  -4   37.70    0.70
   3  -2   4   39.50    0.70
   3  -2   4   39.40    0.70
  -4   2  -4  170.18    1.90
  -4   2  -4  172.88    1.80
  -4   2  -4  169.28    1.90
  -4   2  -4  169.08    1.90
   4  -2   4  170.58    1.90
   4  -2   4  172.08    2.00
  -5   2  -4   28.90    0.60
  -5   2  -4   28.10    0.60
  -5   2  -4   27.10    0.60
  -5   2  -4   27.50    0.70
   5  -2   4   27.70    0.70
   5  -2   4   27.30    0.70
  -6   2  -4   49.00    0.90
  -6   2  -4   49.70    1.00
  -6   2  -4   49.99    0.90
  -6   2  -4   50.49    0.90
   6  -2   4   50.69    1.00
   6  -2   4   49.50    1.00
  -7   2  -4   22.70    0.60
  -7   2  -4   21.00    0.60
  -7   2  -4   23.40    0.70
   7  -2   4   21.50    0.70
   7  -2   4   21.60    0.70
   4   1  -4  133.69    1.30
   4   1  -4  132.69    1.30
  -4  -1   4  130.09    1.30
  -4  -1   4  134.89    1.40
  -4  -1   4  128.29    1.30
  -4  -1   4  129.79    1.30
   3   1  -4  876.11    7.30
   3   1  -4  895.61    7.50
  -3  -1   4  891.41    7.10
  -3  -1   4  898.21    7.10
  -3  -1   4  884.91    7.10
   2   1  -4    0.70    0.10
   2   1  -4    0.30    0.10
   2   1  -4    0.60    0.10
  -2  -1   4    0.30    0.10
   1   1  -4   69.09    0.80
   1   1  -4   67.79    0.80
   1   1  -4   69.29    0.80
   1   1  -4   66.79    0.80
   1   1  -4   68.99    0.80
   1   1  -4   68.49    0.80
  -1  -1   4   68.49    0.80
   0   1  -4  649.34    5.30
   0   1  -4  641.74    5.30
   0   1  -4  649.54    5.40
   0   1  -4  652.93    5.30
   0   1  -4  656.73    5.30
   0   1  -4  642.64    5.30
   0  -1   4  645.54    5.30
  -1   1  -4    1.50    0.10
  -1   1  -4    1.80    0.10
  -1   1  -4    1.70    0.10
  -1   1  -4    1.70    0.10
  -1   1  -4    1.60    0.10
  -1   1  -4    1.90    0.10
  -2   1  -4  176.48    1.80
  -2   1  -4  178.68    1.80
  -2   1  -4  178.28    1.80
  -2   1  -4  179.48    1.80
   2  -1   4  177.68    1.80
   2  -1   4  178.88    1.90
  -3   1  -4 1028.10    8.50
  -3   1  -4 1036.30    8.40
  -3   1  -4 1031.40    8.50
  -3   1  -4 1042.00    8.40
   3  -1   4 1039.20    8.50
   3  -1   4 1033.30    8.60
  -4   1  -4   12.00    0.40
  -4   1  -4   11.30    0.40
  -4   1  -4   12.40    0.40
  -4   1  -4   11.80    0.40
   4  -1   4   11.20    0.40
   4  -1   4   11.40    0.40
  -5   1  -4   80.99    1.10
  -5   1  -4   80.99    1.20
  -5   1  -4   82.09    1.20
  -5   1  -4   80.99    1.20
   5  -1   4   80.59    1.20
   5  -1   4   81.69    1.30
  -6   1  -4  107.59    1.50
  -6   1  -4  108.79    1.40
  -6   1  -4  106.39    1.50
  -6   1  -4  111.09    1.50
   6  -1   4  110.09    1.60
   6  -1   4  107.09    1.50
   5   0  -4   16.30    0.40
   5   0  -4   15.60    0.40
  -5   0   4   15.40    0.40
  -5   0   4   15.70    0.40
  -5   0   4   16.40    0.40
  -5   0   4   16.60    0.30
   4   0  -4   72.99    0.90
   4   0  -4   73.99    0.90
  -4   0   4   75.59    0.80
  -4   0   4   74.89    0.90
  -4   0   4   73.69    0.90
  -4   0   4   72.29    0.90
  -3   0   4   57.69    0.70
  -3   0   4   58.49    0.70
  -3   0   4   57.29    0.70
   2   0  -4    0.10    0.10
   2   0  -4    0.10    0.10
   2   0  -4    0.10    0.10
  -2   0   4    0.10    0.10
   1   0  -4  177.78    1.70
   1   0  -4  178.88    1.70
   1   0  -4  172.38    1.70
   1   0  -4  174.48    1.70
  -1   0   4  173.68    1.70
   0   0  -4  258.87    2.30
   0   0  -4  256.97    2.40
   0   0  -4  260.87    2.30
   0   0  -4  260.17    2.30
   0   0  -4  269.47    2.40
   0   0  -4  260.57    2.40
   0   0   4  257.17    2.40
  -1   0  -4   85.99    1.00
  -1   0  -4   85.59    1.10
  -1   0  -4   85.69    1.00
  -1   0  -4   84.69    1.00
  -1   0  -4   84.09    1.00
  -1   0  -4   85.59    1.00
   1   0   4   84.09    1.00
  -2   0  -4  105.99    1.20
  -2   0  -4  110.09    1.20
  -2   0  -4  109.29    1.20
  -2   0  -4  108.29    1.30
   2   0   4  110.69    1.30
   2   0   4  109.89    1.30
  -3   0  -4   57.39    0.80
  -3   0  -4   57.09    0.80
  -3   0  -4   56.39    0.80
  -3   0  -4   57.29    0.90
   3   0   4   57.59    0.90
   3   0   4   57.49    0.90
  -4   0  -4  163.28    1.80
  -4   0  -4  163.88    1.80
  -4   0  -4  161.68    1.70
  -4   0  -4  158.08    1.80
   4   0   4  161.98    1.90
   4   0   4  161.28    1.80
  -5   0  -4   26.70    0.60
  -5   0  -4   26.50    0.60
  -5   0  -4   26.10    0.60
  -5   0  -4   25.50    0.60
   6  -1  -4   61.59    0.90
   6  -1  -4   62.09    0.90
  -6   1   4   61.79    0.80
  -6   1   4   59.59    0.90
  -6   1   4   60.49    0.90
  -6   1   4   61.89    1.00
  -5   1   4  109.19    1.30
  -5   1   4  105.79    1.20
  -5   1   4  106.09    1.20
  -5   1   4  104.99    1.20
   4  -1  -4   59.79    0.80
   4  -1  -4   61.59    0.90
  -4   1   4   60.89    0.80
  -4   1   4   59.89    0.80
  -4   1   4   62.29    0.90
  -4   1   4   59.99    0.80
   3  -1  -4 1115.99   10.00
   3  -1  -4 1139.19   10.30
  -3   1   4 1099.49    9.00
  -3   1   4 1094.49    9.00
  -3   1   4 1119.29    9.70
   2  -1  -4    1.00    0.10
   2  -1  -4    1.20    0.10
   2  -1  -4    1.30    0.10
  -2   1   4    0.80    0.10
   1  -1  -4   20.00    0.40
   1  -1  -4   20.70    0.40
   0  -1  -4  524.85    4.40
   0  -1  -4  517.45    4.40
   0  -1  -4  521.95    4.40
   0  -1  -4  529.65    4.50
   0   1   4  521.85    4.40
  -1  -1  -4    7.30    0.20
  -1  -1  -4    7.20    0.30
  -1  -1  -4    6.90    0.20
  -1  -1  -4    7.10    0.30
  -1  -1  -4    7.10    0.20
  -1  -1  -4    7.80    0.30
   1   1   4    7.20    0.30
  -2  -1  -4  222.38    2.20
  -2  -1  -4  216.98    2.10
  -2  -1  -4  219.98    2.10
  -2  -1  -4  219.78    2.10
   2   1   4  220.48    2.20
  -3  -1  -4  356.16    3.30
  -3  -1  -4  355.26    3.30
  -3  -1  -4  360.46    3.20
  -3  -1  -4  355.96    3.20
   3   1   4  359.46    3.30
  -4  -1  -4   10.60    0.30
  -4  -1  -4   10.60    0.40
  -4  -1  -4   10.90    0.40
  -4  -1  -4   10.90    0.40
   4   1   4   10.70    0.40
   4   1   4   10.90    0.40
   4   1   4   10.50    0.40
   7  -2  -4    2.50    0.20
   7  -2  -4    2.10    0.20
  -7   2   4    3.90    0.30
  -7   2   4    3.70    0.30
  -7   2   4    3.20    0.20
  -7   2   4    3.20    0.20
   6  -2  -4  108.39    1.40
   6  -2  -4  108.89    1.40
  -6   2   4  108.29    1.40
  -6   2   4  108.29    1.30
  -6   2   4  107.59    1.30
  -6   2   4  109.69    1.50
   5  -2  -4   29.10    0.60
   5  -2  -4   28.60    0.60
  -5   2   4   28.30    0.60
  -5   2   4   29.00    0.50
  -5   2   4   27.70    0.50
  -5   2   4   29.00    0.60
   4  -2  -4  164.58    1.80
   4  -2  -4  165.48    1.70
  -4   2   4  166.28    1.80
  -4   2   4  165.98    1.70
  -4   2   4  165.58    1.70
  -4   2   4  165.68    1.70
   3  -2  -4  175.28    1.80
   3  -2  -4  174.48    1.80
  -3   2   4  175.78    1.80
  -3   2   4  173.98    1.70
  -3   2   4  174.28    1.70
   2  -2  -4   21.00    0.50
   2  -2  -4   20.20    0.40
  -2   2   4   20.20    0.40
   1  -2  -4  207.38    2.00
   1  -2  -4  213.08    2.10
   1  -2  -4  209.28    2.00
  -1   2   4  209.68    2.00
   0  -2  -4   21.20    0.40
   0  -2  -4   22.60    0.50
   0  -2  -4   20.80    0.40
   0   2   4   20.70    0.40
  -1  -2  -4   57.99    0.80
  -1  -2  -4   58.29    0.80
  -1  -2  -4   58.49    0.90
  -1  -2  -4   58.59    0.80
   1   2   4   58.19    0.80
  -2  -2  -4   45.80    0.70
  -2  -2  -4   47.40    0.80
  -2  -2  -4   47.20    0.70
  -2  -2  -4   46.70    0.70
   2   2   4   47.10    0.70
  -3  -2  -4   28.90    0.60
  -3  -2  -4   28.50    0.60
   3   2   4   28.40    0.60
   3   2   4   28.20    0.60
   3   2   4   28.50    0.60
   8  -3  -4   14.50    0.50
   8  -3  -4   13.30    0.50
  -8   3   4   13.50    0.50
  -8   3   4   13.10    0.50
  -8   3   4   13.20    0.50
  -8   3   4   13.90    0.50
  -8   3   4   13.60    0.50
   7  -3  -4   29.70    0.70
   7  -3  -4   30.80    0.70
  -7   3   4   30.60    0.60
  -7   3   4   30.80    0.70
  -7   3   4   30.90    0.70
  -7   3   4   31.70    0.80
   6  -3  -4  104.99    1.40
   6  -3  -4  103.29    1.40
  -6   3   4  105.09    1.30
  -6   3   4  105.39    1.50
  -6   3   4  105.29    1.40
  -6   3   4  103.29    1.30
   5  -3  -4  101.49    1.30
   5  -3  -4  101.39    1.30
  -5   3   4  101.89    1.40
  -5   3   4  100.49    1.20
  -5   3   4  100.79    1.20
  -5   3   4  101.59    1.30
   4  -3  -4    0.20    0.10
   4  -3  -4    0.40    0.10
  -4   3   4    0.50    0.10
  -4   3   4    0.30    0.10
  -4   3   4    0.30    0.10
  -4   3   4    0.30    0.10
   3  -3  -4  473.15    4.10
   3  -3  -4  467.75    4.20
  -3   3   4  474.25    4.10
  -3   3   4  475.85    4.00
  -3   3   4  467.45    4.10
   2  -3  -4    3.50    0.20
   2  -3  -4    3.40    0.20
  -2   3   4    3.40    0.20
  -2   3   4    3.20    0.20
  -2   3   4    3.50    0.20
   1  -3  -4    2.40    0.20
   1  -3  -4    2.40    0.20
  -1   3   4    2.40    0.20
   0  -3  -4  167.48    1.70
   0  -3  -4  166.68    1.70
   0  -3  -4  167.18    1.80
   0   3   4  167.38    1.70
  -1  -3  -4   18.90    0.50
  -1  -3  -4   18.20    0.40
  -1  -3  -4   18.50    0.40
   1   3   4   17.80    0.40
  -2  -3  -4  120.89    1.40
  -2  -3  -4  121.99    1.40
  -2  -3  -4  120.29    1.50
   2   3   4  119.49    1.40
   9  -4  -4    1.30    0.20
   9  -4  -4    1.00    0.20
  -9   4   4    0.80    0.20
  -9   4   4    0.90    0.20
  -9   4   4    0.60    0.20
  -9   4   4    1.00    0.20
   8  -4  -4    6.10    0.40
   8  -4  -4    6.20    0.40
  -8   4   4    6.60    0.40
  -8   4   4    6.20    0.30
  -8   4   4    6.10    0.40
  -8   4   4    6.30    0.40
   7  -4  -4   19.10    0.60
   7  -4  -4   19.50    0.60
  -7   4   4   19.20    0.50
  -7   4   4   19.60    0.50
  -7   4   4   18.20    0.60
  -7   4   4   18.50    0.60
   6  -4  -4   24.50    0.60
   6  -4  -4   25.40    0.70
  -6   4   4   24.90    0.70
  -6   4   4   23.90    0.60
  -6   4   4   24.20    0.60
  -6   4   4   24.20    0.60
   5  -4  -4   31.90    0.70
   5  -4  -4   32.70    0.70
  -5   4   4   32.70    0.70
  -5   4   4   32.60    0.70
  -5   4   4   32.10    0.60
  -5   4   4   31.40    0.60
   4  -4  -4  107.39    1.40
   4  -4  -4  107.39    1.40
  -4   4   4  108.89    1.40
  -4   4   4  108.79    1.30
  -4   4   4  109.39    1.50
  -4   4   4  109.39    1.30
   3  -4  -4  126.19    1.50
   3  -4  -4  127.59    1.50
  -3   4   4  124.89    1.40
  -3   4   4  125.39    1.60
  -3   4   4  128.69    1.40
  -3   4   4  126.59    1.50
   2  -4  -4   11.40    0.40
   2  -4  -4   11.10    0.40
  -2   4   4   11.00    0.40
  -2   4   4   11.00    0.30
  -2   4   4   11.20    0.30
   1  -4  -4   97.59    1.30
   1  -4  -4   95.49    1.20
  -1   4   4   96.79    1.10
  -1   4   4   96.39    1.20
  -1   4   4   96.39    1.10
   0  -4  -4    0.20    0.10
   0  -4  -4    0.50    0.10
   0   4   4    0.60    0.10
  -1  -4  -4   25.50    0.60
  -1  -4  -4   25.30    0.50
   1   4   4   25.00    0.60
   8  -5  -4   20.20    0.60
   8  -5  -4   21.40    0.70
  -8   5   4   21.20    0.60
  -8   5   4   20.70    0.70
  -8   5   4   21.10    0.60
   7  -5  -4   20.90    0.60
   7  -5  -4   21.00    0.70
  -7   5   4   21.50    0.60
  -7   5   4   21.20    0.70
  -7   5   4   20.70    0.60
  -7   5   4   20.10    0.60
   6  -5  -4   74.99    1.20
   6  -5  -4   74.19    1.20
  -6   5   4   74.59    1.30
  -6   5   4   74.89    1.20
  -6   5   4   75.29    1.10
  -6   5   4   75.29    1.10
   5  -5  -4   54.49    0.90
   5  -5  -4   54.79    1.00
  -5   5   4   54.39    0.90
  -5   5   4   56.19    1.00
  -5   5   4   54.09    0.90
  -5   5   4   54.59    0.90
   4  -5  -4   29.00    0.70
   4  -5  -4   29.00    0.60
  -4   5   4   29.70    0.60
  -4   5   4   28.00    0.60
  -4   5   4   29.70    0.60
  -4   5   4   28.50    0.70
   3  -5  -4   85.69    1.20
   3  -5  -4   86.69    1.20
  -3   5   4   89.39    1.20
  -3   5   4   87.29    1.30
  -3   5   4   89.09    1.10
  -3   5   4   87.49    1.20
   2  -5  -4    3.00    0.20
   2  -5  -4    3.10    0.20
  -2   5   4    3.20    0.20
  -2   5   4    3.10    0.20
  -2   5   4    3.50    0.30
  -2   5   4    3.30    0.20
   1  -5  -4   12.00    0.40
   1  -5  -4   12.30    0.40
  -1   5   4   11.70    0.40
  -1   5   4   12.20    0.40
  -1   5   4   12.10    0.40
   0  -5  -4   28.00    0.60
   0  -5  -4   27.40    0.70
   0   5   4   26.60    0.90
   0   5   4   29.50    0.70
   0   5   4   28.40    0.60
   8  -6  -4    4.40    0.40
   8  -6  -4    4.50    0.40
  -8   6   4    4.50    0.40
  -8   6   4    4.50    0.40
  -8   6   4    4.40    0.30
   7  -6  -4   16.90    0.60
   7  -6  -4   16.80    0.60
  -7   6   4   17.70    0.60
  -7   6   4   17.10    0.70
  -7   6   4   17.00    0.50
  -7   6   4   17.00    0.60
   6  -6  -4   -0.10    0.10
   6  -6  -4    0.20    0.10
  -6   6   4    0.30    0.20
  -6   6   4    0.40    0.20
  -6   6   4    0.30    0.20
  -6   6   4    0.40    0.20
   5  -6  -4   26.50    0.70
   5  -6  -4   27.00    0.70
  -5   6   4   26.30    0.60
  -5   6   4   26.20    0.70
  -5   6   4   27.30    0.60
  -5   6   4   26.60    0.70
   4  -6  -4   23.20    0.60
   4  -6  -4   21.70    0.60
  -4   6   4   23.90    0.60
  -4   6   4   23.00    0.70
  -4   6   4   22.70    0.50
  -4   6   4   22.60    0.60
   3  -6  -4   40.10    0.80
   3  -6  -4   37.80    0.80
  -3   6   4   39.00    0.80
  -3   6   4   39.30    0.70
  -3   6   4   39.00    0.80
  -3   6   4   38.00    0.70
   2  -6  -4    1.60    0.20
   2  -6  -4    1.50    0.20
  -2   6   4    1.30    0.20
  -2   6   4    1.40    0.20
  -2   6   4    1.20    0.20
  -2   6   4    1.30    0.20
  -1   6   4   19.70    0.80
  -1   6   4   17.90    0.70
   8  -7  -4   21.90    0.70
   8  -7  -4   21.50    0.80
  -8   7   4   21.80    0.70
  -8   7   4   21.50    0.70
   7  -7  -4    7.30    0.50
   7  -7  -4    6.00    0.40
  -7   7   4    7.30    0.40
  -7   7   4    6.80    0.40
  -7   7   4    6.70    0.40
   6  -7  -4   28.30    0.80
   6  -7  -4   28.30    0.80
  -6   7   4   28.00    0.80
  -6   7   4   27.50    0.70
  -6   7   4   27.80    0.70
  -6   7   4   28.30    0.90
   5  -7  -4   17.10    0.60
   5  -7  -4   18.50    0.60
  -5   7   4   16.80    0.50
  -5   7   4   17.40    0.50
  -5   7   4   16.80    0.60
  -5   7   4   18.00    0.60
   4  -7  -4   29.50    0.80
   4  -7  -4   28.50    0.70
  -4   7   4   29.00    0.70
  -4   7   4   28.80    0.80
  -4   7   4   28.50    0.70
  -4   7   4   29.10    0.70
   3  -7  -4    8.00    0.40
   3  -7  -4    8.60    0.40
  -3   7   4    7.90    0.40
  -3   7   4    8.00    0.40
  -3   7   4    7.30    0.40
  -3   7   4    7.70    0.40
   7  -8  -4    3.30    0.40
   7  -8  -4    3.40    0.40
  -7   8   4    3.50    0.30
  -7   8   4    3.70    0.30
   6  -8  -4    2.20    0.30
   6  -8  -4    1.50    0.30
  -6   8   4    1.70    0.30
  -6   8   4    1.90    0.30
  -6   8   4    1.90    0.30
   5  -8  -4   13.10    0.50
   5  -8  -4   13.20    0.60
  -5   8   4   13.00    0.50
  -5   8   4   14.30    0.60
  -5   8   4   13.50    0.50
   4  -8  -4    0.40    0.20
   4  -8  -4    0.30    0.20
  -4   8   4    0.20    0.20
  -4   8   4    0.20    0.20
  -4   8   4    0.20    0.20
  -4   8   4    0.00    0.10
  -3   8  -5    8.10    0.40
  -3   8  -5    7.40    0.40
  -3   8  -5    7.20    0.40
   3  -8   5    7.60    0.50
   3  -8   5    8.40    0.50
  -4   8  -5    0.90    0.20
  -4   8  -5    0.50    0.20
  -4   8  -5    0.70    0.20
  -4   8  -5    0.70    0.20
   4  -8   5    1.10    0.20
   4  -8   5    0.80    0.20
  -5   8  -5   11.80    0.50
  -5   8  -5   11.30    0.50
  -5   8  -5   11.10    0.50
  -5   8  -5   12.00    0.50
   5  -8   5   11.30    0.50
   5  -8   5   10.90    0.60
  -2   7  -5    4.30    0.30
  -2   7  -5    4.20    0.30
  -2   7  -5    4.10    0.30
  -2   7  -5    3.80    0.30
   2  -7   5    3.20    0.30
   2  -7   5    3.60    0.30
  -3   7  -5   98.49    1.30
  -3   7  -5   98.59    1.30
  -3   7  -5   98.99    1.40
  -3   7  -5   96.69    1.40
   3  -7   5   99.39    1.50
   3  -7   5   99.19    1.40
  -4   7  -5   99.89    1.40
  -4   7  -5   99.09    1.40
  -4   7  -5  100.99    1.40
  -4   7  -5   98.39    1.50
   4  -7   5  101.69    1.50
   4  -7   5  101.59    1.60
  -5   7  -5   10.00    0.50
  -5   7  -5   10.90    0.50
  -5   7  -5   10.80    0.50
  -5   7  -5   11.20    0.50
   5  -7   5   10.40    0.50
   5  -7   5   10.50    0.50
  -6   7  -5   44.60    1.00
  -6   7  -5   44.10    1.00
  -6   7  -5   45.70    1.00
   6  -7   5   44.60    1.10
   6  -7   5   45.60    1.10
  -1   6  -5    8.40    0.30
  -1   6  -5    8.40    0.30
  -1   6  -5    8.80    0.30
  -1   6  -5    8.40    0.30
   1  -6   5    8.20    0.30
   1  -6   5    8.30    0.30
  -2   6  -5   58.99    0.90
  -2   6  -5   58.19    0.90
  -2   6  -5   59.79    0.90
  -2   6  -5   59.79    0.90
   2  -6   5   60.99    1.00
   2  -6   5   59.39    1.00
  -3   6  -5   42.50    0.80
  -3   6  -5   44.60    0.80
  -3   6  -5   42.60    0.80
  -3   6  -5   44.10    0.80
   3  -6   5   43.60    0.90
   3  -6   5   42.70    0.80
  -4   6  -5   22.80    0.60
  -4   6  -5   23.30    0.60
  -4   6  -5   23.80    0.60
  -4   6  -5   23.50    0.60
   4  -6   5   24.00    0.70
   4  -6   5   24.30    0.70
  -5   6  -5   28.50    0.70
  -5   6  -5   28.90    0.80
  -5   6  -5   29.40    0.70
  -5   6  -5   29.00    0.70
   5  -6   5   28.00    0.80
   5  -6   5   29.00    0.80
  -6   6  -5   56.49    1.10
  -6   6  -5   57.49    1.20
  -6   6  -5   55.39    1.10
  -6   6  -5   57.39    1.10
   6  -6   5   56.69    1.20
   6  -6   5   57.59    1.20
   0   5  -5   10.50    0.30
   0   5  -5   11.40    0.30
   0   5  -5   11.10    0.30
   0   5  -5   11.00    0.30
   0  -5   5   10.90    0.30
   0  -5   5   11.10    0.30
  -1   5  -5  124.19    1.40
  -1   5  -5  123.99    1.40
  -1   5  -5  122.59    1.40
  -1   5  -5  123.99    1.40
   1  -5   5  123.09    1.40
   1  -5   5  122.59    1.50
  -2   5  -5    4.40    0.30
  -2   5  -5    4.10    0.20
  -2   5  -5    5.00    0.30
  -2   5  -5    4.40    0.30
   2  -5   5    4.70    0.30
   2  -5   5    4.50    0.30
  -3   5  -5   50.59    0.90
  -3   5  -5   50.69    0.90
  -3   5  -5   51.49    0.90
  -3   5  -5   50.39    0.80
   3  -5   5   51.79    0.90
   3  -5   5   50.59    0.90
  -4   5  -5  203.98    2.20
  -4   5  -5  204.88    2.30
  -4   5  -5  206.78    2.30
  -4   5  -5  206.28    2.30
   4  -5   5  205.78    2.40
   4  -5   5  207.78    2.30
  -5   5  -5   23.50    0.70
  -5   5  -5   22.70    0.60
  -5   5  -5   22.70    0.60
  -5   5  -5   22.70    0.60
   5  -5   5   23.20    0.70
   5  -5   5   23.00    0.70
  -6   5  -5   95.59    1.50
  -6   5  -5   94.29    1.40
  -6   5  -5   93.99    1.50
  -6   5  -5   94.09    1.40
   6  -5   5   95.69    1.60
   6  -5   5   95.29    1.50
   1   4  -5   34.60    0.50
   1   4  -5   34.70    0.50
   1   4  -5   34.30    0.50
   1   4  -5   35.00    0.50
  -1  -4   5   34.80    0.60
  -1  -4   5   35.10    0.60
  -1  -4   5   34.30    0.60
   0   4  -5   11.60    0.30
   0   4  -5   11.60    0.30
   0   4  -5   11.50    0.30
   0   4  -5   11.20    0.30
   0  -4   5   12.00    0.30
   0  -4   5   11.90    0.40
  -1   4  -5   49.60    0.80
  -1   4  -5   49.40    0.70
  -1   4  -5   48.50    0.70
  -1   4  -5   48.80    0.70
   1  -4   5   49.50    0.80
   1  -4   5   50.39    0.80
  -2   4  -5   26.60    0.60
  -2   4  -5   26.50    0.50
  -2   4  -5   26.90    0.60
  -2   4  -5   26.40    0.60
   2  -4   5   25.70    0.60
   2  -4   5   25.80    0.60
  -3   4  -5  109.09    1.40
  -3   4  -5  109.49    1.30
  -3   4  -5  107.79    1.40
  -3   4  -5  110.89    1.40
   3  -4   5  109.49    1.50
   3  -4   5  108.49    1.40
  -4   4  -5  101.19    1.40
  -4   4  -5   98.39    1.30
  -4   4  -5  101.79    1.40
  -4   4  -5   97.29    1.30
   4  -4   5  100.69    1.50
   4  -4   5  101.69    1.40
  -5   4  -5   39.00    0.90
  -5   4  -5   37.10    0.80
  -5   4  -5   38.30    0.80
  -5   4  -5   38.10    0.80
   5  -4   5   38.80    0.90
   5  -4   5   37.40    0.90
  -6   4  -5   34.60    0.80
  -6   4  -5   35.60    0.90
  -6   4  -5   35.30    0.80
  -6   4  -5   33.20    0.80
   6  -4   5   34.00    0.90
   6  -4   5   34.30    0.90
   2   3  -5  277.97    2.40
  -2  -3   5  278.47    2.50
   1   3  -5   53.09    0.70
   1   3  -5   54.19    0.70
   1   3  -5   53.39    0.70
   1   3  -5   53.39    0.70
  -1  -3   5   54.39    0.80
  -1  -3   5   54.49    0.70
  -1  -3   5   53.79    0.70
   0   3  -5  141.09    1.50
   0   3  -5  142.69    1.40
   0   3  -5  144.49    1.50
   0   3  -5  143.39    1.50
   0  -3   5  144.09    1.60
   0  -3   5  144.59    1.50
  -1   3  -5  194.98    2.00
  -1   3  -5  199.58    1.90
  -1   3  -5  198.68    2.00
  -1   3  -5  195.98    2.00
   1  -3   5  194.68    2.00
   1  -3   5  199.78    2.10
  -2   3  -5    3.30    0.20
  -2   3  -5    3.50    0.20
  -2   3  -5    3.50    0.20
  -2   3  -5    3.50    0.20
   2  -3   5    3.40    0.20
   2  -3   5    3.40    0.20
  -3   3  -5    0.00    0.10
  -3   3  -5    0.20    0.10
  -3   3  -5    0.10    0.10
  -3   3  -5    0.00    0.10
   3  -3   5    0.10    0.10
   3  -3   5    0.20    0.10
  -4   3  -5  209.58    2.30
  -4   3  -5  203.28    2.20
  -4   3  -5  201.08    2.20
  -4   3  -5  205.68    2.30
   4  -3   5  207.38    2.40
   4  -3   5  208.38    2.30
  -5   3  -5   38.20    0.80
  -5   3  -5   38.90    0.80
  -5   3  -5   38.80    0.80
  -5   3  -5   38.20    0.80
   5  -3   5   39.30    0.80
   5  -3   5   38.10    0.90
  -6   3  -5  109.19    1.60
  -6   3  -5  111.69    1.60
  -6   3  -5  109.69    1.60
  -6   3  -5  108.89    1.50
   6  -3   5  109.89    1.60
   6  -3   5  110.99    1.70
   3   2  -5   53.49    0.70
   3   2  -5   53.19    0.70
  -3  -2   5   52.39    0.70
   2   2  -5    2.00    0.10
   2   2  -5    1.90    0.10
   2   2  -5    2.10    0.20
  -2  -2   5    1.90    0.10
   1   2  -5   76.39    1.00
   1   2  -5   76.99    0.90
   1   2  -5   78.49    0.90
   1   2  -5   77.09    0.90
   1   2  -5   76.49    0.90
   1   2  -5   77.69    0.90
  -1  -2   5   78.19    0.90
   0   2  -5   29.80    0.50
   0   2  -5   30.30    0.50
   0   2  -5   29.70    0.50
   0   2  -5   29.80    0.50
   0   2  -5   30.00    0.60
   0   2  -5   29.20    0.50
   0  -2   5   29.30    0.50
  -1   2  -5   95.39    1.10
  -1   2  -5   95.29    1.10
  -1   2  -5   93.79    1.10
  -1   2  -5   94.79    1.20
   1  -2   5   94.99    1.20
   1  -2   5   97.09    1.20
  -2   2  -5    8.20    0.30
  -2   2  -5    8.10    0.30
  -2   2  -5    8.50    0.30
  -2   2  -5    8.50    0.30
   2  -2   5    8.40    0.30
   2  -2   5    8.20    0.30
  -3   2  -5  120.79    1.50
  -3   2  -5  120.29    1.40
  -3   2  -5  120.29    1.40
  -3   2  -5  122.99    1.50
   3  -2   5  120.79    1.60
   3  -2   5  121.49    1.50
  -4   2  -5  173.28    2.00
  -4   2  -5  169.68    1.90
  -4   2  -5  170.88    1.90
  -4   2  -5  172.78    2.00
   4  -2   5  175.48    2.00
   4  -2   5  175.68    2.10
  -5   2  -5   25.90    0.60
  -5   2  -5   26.20    0.70
  -5   2  -5   27.00    0.70
  -5   2  -5   26.00    0.60
   5  -2   5   27.20    0.70
   5  -2   5   26.70    0.70
  -6   2  -5    7.40    0.40
  -6   2  -5    7.50    0.40
  -6   2  -5    7.50    0.40
  -6   2  -5    7.60    0.40
   6  -2   5    7.20    0.40
   6  -2   5    7.30    0.40
   4   1  -5   34.70    0.60
   4   1  -5   34.00    0.50
  -4  -1   5   35.20    0.50
  -4  -1   5   35.40    0.60
  -4  -1   5   35.80    0.60
  -4  -1   5   35.30    0.50
   3   1  -5    0.60    0.10
   3   1  -5    0.70    0.10
  -3  -1   5    0.50    0.10
   2   1  -5  483.75    4.10
   2   1  -5  482.15    4.10
   2   1  -5  491.95    4.20
  -2  -1   5  486.85    4.10
   1   1  -5   10.40    0.30
   1   1  -5    9.80    0.30
   1   1  -5   10.40    0.30
   1   1  -5   10.00    0.30
   1   1  -5   10.10    0.30
   1   1  -5   10.20    0.30
  -1  -1   5    9.80    0.30
   0   1  -5  432.76    3.80
   0   1  -5  435.16    3.70
   0   1  -5  436.76    3.90
   0   1  -5  432.76    3.80
   0   1  -5  433.06    3.80
   0   1  -5  434.36    3.70
   0  -1   5  436.36    3.80
  -1   1  -5  109.49    1.20
  -1   1  -5  109.29    1.30
  -1   1  -5  108.39    1.30
  -1   1  -5  110.49    1.40
  -1   1  -5  109.39    1.20
  -1   1  -5  109.09    1.30
   1  -1   5  110.19    1.30
  -2   1  -5    2.50    0.20
  -2   1  -5    2.30    0.20
  -2   1  -5    2.40    0.20
  -2   1  -5    2.20    0.20
   2  -1   5    2.00    0.20
   2  -1   5    1.90    0.20
  -3   1  -5   48.80    0.80
  -3   1  -5   49.10    0.80
  -3   1  -5   48.00    0.80
  -3   1  -5   48.60    0.80
   3  -1   5   48.60    0.80
   3  -1   5   48.40    0.90
  -4   1  -5   88.59    1.20
  -4   1  -5   89.09    1.20
  -4   1  -5   89.09    1.30
  -4   1  -5   86.69    1.20
   4  -1   5   90.59    1.30
   4  -1   5   88.89    1.30
  -5   1  -5   40.40    0.90
  -5   1  -5   41.10    0.80
  -5   1  -5   41.80    0.80
  -5   1  -5   39.90    0.80
   5  -1   5   39.20    0.80
   5  -1   5   39.40    0.90
  -6   1  -5   64.49    1.10
  -6   1  -5   63.89    1.10
  -6   1  -5   64.09    1.10
   6  -1   5   63.89    1.20
   6  -1   5   63.99    1.20
   5   0  -5   50.29    0.80
   5   0  -5   51.89    0.80
  -5   0   5   50.39    0.70
  -5   0   5   51.59    0.80
  -5   0   5   50.89    0.70
  -5   0   5   50.39    0.80
   4   0  -5    5.80    0.20
   4   0  -5    6.10    0.30
  -4   0   5    7.40    0.20
  -4   0   5    7.70    0.20
  -4   0   5    7.70    0.30
   3   0  -5  149.79    1.60
   3   0  -5  147.89    1.50
  -3   0   5  152.18    1.60
   2   0  -5    5.10    0.20
   2   0  -5    4.60    0.20
   2   0  -5    5.20    0.20
  -2   0   5    4.90    0.20
   1   0  -5  139.89    1.50
   1   0  -5  140.79    1.50
   1   0  -5  141.49    1.50
   1   0  -5  140.59    1.60
  -1   0   5  140.79    1.50
   0   0  -5   19.00    0.40
   0   0  -5   18.40    0.40
   0   0  -5   19.20    0.40
   0   0  -5   18.60    0.40
   0   0  -5   18.70    0.40
   0   0  -5   19.50    0.50
   0   0   5   18.60    0.40
  -1   0  -5   66.29    0.90
  -1   0  -5   66.99    0.90
  -1   0  -5   67.69    0.90
  -1   0  -5   67.29    1.00
  -1   0  -5   65.99    0.90
  -1   0  -5   67.29    0.90
   1   0   5   66.39    0.90
  -2   0  -5    6.80    0.30
  -2   0  -5    6.00    0.30
  -2   0  -5    6.70    0.30
  -2   0  -5    6.60    0.30
   2   0   5    6.70    0.30
   2   0   5    6.10    0.30
   2   0   5    5.90    0.30
  -3   0  -5   50.19    0.90
  -3   0  -5   50.79    0.80
  -3   0  -5   51.19    0.80
  -3   0  -5   48.80    0.80
   3   0   5   51.69    0.90
   3   0   5   50.99    0.90
   3   0   5   49.50    0.90
  -4   0  -5  134.09    1.60
  -4   0  -5  133.09    1.70
  -4   0  -5  134.89    1.60
  -4   0  -5  135.89    1.60
   4   0   5  133.89    1.70
   4   0   5  134.19    1.70
   4   0   5  135.09    1.70
  -5   0  -5    7.30    0.40
  -5   0  -5    8.10    0.40
  -5   0  -5    7.50    0.40
   5   0   5    8.40    0.60
   5   0   5    8.30    0.40
   5   0   5    8.50    0.40
   6  -1  -5   68.09    1.00
   6  -1  -5   67.59    1.00
  -6   1   5   66.99    0.90
  -6   1   5   67.29    1.00
  -6   1   5   67.79    0.90
  -6   1   5   68.69    1.10
   5  -1  -5   83.49    1.10
   5  -1  -5   84.69    1.10
  -5   1   5   84.69    1.10
  -5   1   5   84.19    1.10
  -5   1   5   85.49    1.00
  -5   1   5   84.59    1.20
   4  -1  -5   98.79    1.20
   4  -1  -5   96.99    1.20
  -4   1   5   96.79    1.10
  -4   1   5   96.89    1.10
  -4   1   5   98.89    1.20
   3  -1  -5   62.79    0.90
   3  -1  -5   62.99    0.90
  -3   1   5   60.79    0.80
   2  -1  -5  318.47    2.90
   2  -1  -5  320.97    2.90
   2  -1  -5  329.97    3.00
  -2   1   5  329.07    3.00
   1  -1  -5   11.30    0.30
   1  -1  -5   10.40    0.30
   1  -1  -5   10.60    0.30
   0  -1  -5  419.06    3.70
   0  -1  -5  418.26    3.80
   0  -1  -5  415.26    3.70
   0  -1  -5  419.96    3.70
   0   1   5  420.26    3.70
  -1  -1  -5   15.70    0.40
  -1  -1  -5   16.50    0.40
  -1  -1  -5   15.70    0.40
  -1  -1  -5   16.00    0.40
  -1  -1  -5   16.10    0.40
  -1  -1  -5   16.50    0.40
   1   1   5   16.10    0.40
  -2  -1  -5    3.30    0.20
  -2  -1  -5    3.20    0.20
  -2  -1  -5    3.40    0.20
  -2  -1  -5    3.60    0.20
   2   1   5    3.20    0.20
  -3  -1  -5   72.89    1.00
  -3  -1  -5   71.69    1.00
  -3  -1  -5   74.99    1.10
  -3  -1  -5   75.99    1.10
   3   1   5   73.99    1.10
   3   1   5   73.89    1.10
   3   1   5   72.39    1.10
  -4  -1  -5   13.60    0.50
  -4  -1  -5   14.30    0.50
  -4  -1  -5   14.20    0.40
  -4  -1  -5   13.60    0.50
   4   1   5   14.50    0.50
   7  -2  -5    1.00    0.20
   7  -2  -5    0.90    0.20
  -7   2   5    0.90    0.20
  -7   2   5    1.30    0.20
  -7   2   5    1.20    0.20
  -7   2   5    0.90    0.20
   6  -2  -5   62.59    1.00
   6  -2  -5   61.59    1.00
  -6   2   5   60.79    1.00
  -6   2   5   62.89    0.90
  -6   2   5   61.69    1.10
  -6   2   5   62.29    0.90
   5  -2  -5   71.79    1.10
   5  -2  -5   71.69    1.00
  -5   2   5   70.09    0.90
  -5   2   5   72.09    1.00
  -5   2   5   71.89    1.00
  -5   2   5   71.59    1.10
   4  -2  -5    3.50    0.20
   4  -2  -5    3.90    0.20
  -4   2   5    3.30    0.20
  -4   2   5    2.80    0.20
  -4   2   5    3.70    0.20
  -4   2   5    3.20    0.20
   3  -2  -5  116.29    1.40
   3  -2  -5  118.59    1.40
  -3   2   5  115.99    1.30
  -3   2   5  116.59    1.30
  -3   2   5  117.99    1.40
   2  -2  -5   12.50    0.40
   2  -2  -5   12.30    0.40
   2  -2  -5   12.50    0.40
  -2   2   5   12.90    0.40
   1  -2  -5  159.58    1.70
   1  -2  -5  159.68    1.70
   1  -2  -5  163.78    1.80
  -1   2   5  162.38    1.70
   0  -2  -5    2.90    0.20
   0  -2  -5    3.00    0.20
   0  -2  -5    2.70    0.20
   0   2   5    2.90    0.20
  -1  -2  -5   18.30    0.50
  -1  -2  -5   17.90    0.40
  -1  -2  -5   17.50    0.50
  -1  -2  -5   18.80    0.50
   1   2   5   18.20    0.50
  -2  -2  -5    5.10    0.30
  -2  -2  -5    5.40    0.30
  -2  -2  -5    5.00    0.30
  -2  -2  -5    5.30    0.30
   2   2   5    5.30    0.30
  -3  -2  -5    6.80    0.40
  -3  -2  -5    7.50    0.30
   3   2   5    6.90    0.40
   3   2   5    7.00    0.40
   3   2   5    6.60    0.30
   8  -3  -5   49.40    1.00
   8  -3  -5   50.09    1.00
  -8   3   5   49.00    0.90
  -8   3   5   49.50    1.00
  -8   3   5   49.80    0.90
  -8   3   5   49.99    1.10
   7  -3  -5   13.90    0.50
   7  -3  -5   13.70    0.50
  -7   3   5   13.70    0.50
  -7   3   5   14.20    0.50
  -7   3   5   14.20    0.50
  -7   3   5   13.90    0.40
   6  -3  -5  159.98    1.90
   6  -3  -5  162.38    1.90
  -6   3   5  158.88    1.80
  -6   3   5  158.38    2.00
  -6   3   5  157.28    1.90
  -6   3   5  159.78    1.80
   5  -3  -5   22.00    0.50
   5  -3  -5   22.60    0.60
  -5   3   5   22.50    0.60
  -5   3   5   21.30    0.50
  -5   3   5   22.10    0.50
  -5   3   5   21.80    0.60
   4  -3  -5  112.89    1.40
   4  -3  -5  114.79    1.50
  -4   3   5  114.79    1.40
  -4   3   5  116.09    1.50
   3  -3  -5  149.09    1.70
   3  -3  -5  144.69    1.60
  -3   3   5  148.79    1.60
  -3   3   5  143.29    1.60
  -3   3   5  147.99    1.60
   2  -3  -5   75.09    1.10
   2  -3  -5   76.19    1.00
  -2   3   5   73.59    1.00
   1  -3  -5   59.59    0.90
   1  -3  -5   58.99    0.90
   1  -3  -5   58.39    0.90
  -1   3   5   59.89    0.90
   0  -3  -5  148.39    1.70
   0  -3  -5  147.69    1.70
   0  -3  -5  146.39    1.60
   0   3   5  148.89    1.70
  -1  -3  -5    0.20    0.10
  -1  -3  -5    0.10    0.10
  -1  -3  -5    0.00    0.10
   1   3   5    0.10    0.10
  -2  -3  -5    6.80    0.30
   2   3   5    7.00    0.40
   8  -4  -5   32.10    0.80
   8  -4  -5   33.10    0.80
  -8   4   5   31.80    0.80
  -8   4   5   31.20    0.90
  -8   4   5   33.40    0.80
  -8   4   5   33.20    0.70
   7  -4  -5    8.30    0.40
   7  -4  -5    8.60    0.40
  -7   4   5    8.80    0.40
  -7   4   5    8.40    0.50
  -7   4   5    8.50    0.40
  -7   4   5    8.00    0.40
   6  -4  -5   30.80    0.70
   6  -4  -5   30.20    0.70
  -6   4   5   28.50    0.80
  -6   4   5   29.90    0.60
  -6   4   5   29.70    0.70
  -6   4   5   28.90    0.70
   5  -4  -5   36.60    0.80
   5  -4  -5   36.70    0.80
  -5   4   5   36.90    0.80
  -5   4   5   36.70    0.70
  -5   4   5   37.10    0.70
  -5   4   5   36.90    0.80
   4  -4  -5    6.40    0.30
   4  -4  -5    6.30    0.30
  -4   4   5    6.60    0.30
  -4   4   5    6.50    0.30
  -4   4   5    6.40    0.30
  -4   4   5    5.90    0.30
   3  -4  -5   22.90    0.60
   3  -4  -5   23.00    0.60
  -3   4   5   22.90    0.50
  -3   4   5   22.70    0.50
  -3   4   5   22.10    0.50
   2  -4  -5    4.50    0.30
   2  -4  -5    4.40    0.30
  -2   4   5    4.60    0.30
  -2   4   5    4.90    0.30
  -2   4   5    4.90    0.30
   1  -4  -5  112.79    1.40
   1  -4  -5  111.49    1.50
  -1   4   5  110.09    1.40
   0  -4  -5    0.10    0.10
   0  -4  -5    0.40    0.10
   0   4   5    0.20    0.10
  -1  -4  -5    1.20    0.20
  -1  -4  -5    0.90    0.20
  -1  -4  -5    1.70    0.20
   8  -5  -5   29.90    0.80
   8  -5  -5   29.20    0.80
  -8   5   5   29.40    0.80
  -8   5   5   29.10    0.70
  -8   5   5   29.50    0.80
   7  -5  -5    0.30    0.20
   7  -5  -5    0.40    0.20
  -7   5   5    0.30    0.20
  -7   5   5    0.10    0.10
  -7   5   5    0.00    0.10
  -7   5   5    0.30    0.20
   6  -5  -5  143.69    1.90
   6  -5  -5  147.39    1.90
  -6   5   5  144.19    2.00
  -6   5   5  143.59    1.80
  -6   5   5  144.89    1.90
  -6   5   5  144.59    1.70
   5  -5  -5   -0.10    0.10
   5  -5  -5    0.10    0.10
  -5   5   5    0.30    0.10
  -5   5   5    0.20    0.10
  -5   5   5    0.10    0.10
  -5   5   5    0.00    0.10
   4  -5  -5   65.49    1.10
   4  -5  -5   64.69    1.10
  -4   5   5   67.39    1.00
  -4   5   5   64.39    1.10
  -4   5   5   66.79    1.00
  -4   5   5   65.39    1.10
   3  -5  -5   86.39    1.20
   3  -5  -5   82.19    1.30
  -3   5   5   83.59    1.20
  -3   5   5   85.39    1.20
  -3   5   5   84.09    1.30
  -3   5   5   84.49    1.10
   2  -5  -5    4.40    0.30
   2  -5  -5    3.90    0.30
  -2   5   5    3.90    0.30
  -2   5   5    4.10    0.30
  -2   5   5    3.90    0.30
   1  -5  -5   75.99    1.10
   1  -5  -5   74.69    1.20
  -1   5   5   75.19    1.10
  -1   5   5   74.29    1.10
  -1   5   5   73.59    1.00
   0   5   5   16.10    0.60
   0   5   5   15.60    0.50
   8  -6  -5   24.10    0.80
   8  -6  -5   23.50    0.70
  -8   6   5   23.30    0.70
  -8   6   5   23.90    0.70
   7  -6  -5   15.80    0.60
   7  -6  -5   14.90    0.60
  -7   6   5   15.80    0.50
  -7   6   5   15.80    0.60
  -7   6   5   15.50    0.60
   6  -6  -5    4.50    0.40
   6  -6  -5    4.00    0.30
  -6   6   5    4.20    0.30
  -6   6   5    3.90    0.30
  -6   6   5    4.40    0.30
  -6   6   5    4.30    0.40
   5  -6  -5    8.60    0.40
   5  -6  -5    8.20    0.40
  -5   6   5    8.80    0.50
  -5   6   5    9.00    0.40
  -5   6   5    8.00    0.40
  -5   6   5    9.40    0.40
   4  -6  -5   26.70    0.70
   4  -6  -5   26.00    0.70
  -4   6   5   26.90    0.60
  -4   6   5   26.20    0.70
  -4   6   5   26.70    0.60
  -4   6   5   27.40    0.70
   3  -6  -5   -0.30    0.10
   3  -6  -5   -0.10    0.10
  -3   6   5    0.00    0.10
  -3   6   5    0.10    0.10
  -3   6   5   -0.20    0.10
  -3   6   5    0.00    0.10
   2  -6  -5    0.10    0.10
   2  -6  -5    0.20    0.10
  -2   6   5    0.10    0.10
  -2   6   5    0.30    0.10
  -2   6   5    0.10    0.10
  -2   6   5    0.30    0.10
   7  -7  -5    5.40    0.40
   7  -7  -5    5.20    0.40
  -7   7   5    5.90    0.40
  -7   7   5    5.30    0.40
   6  -7  -5   60.39    1.20
   6  -7  -5   61.19    1.20
  -6   7   5   59.49    1.10
  -6   7   5   61.19    1.20
  -6   7   5   61.69    1.10
   5  -7  -5    3.20    0.30
   5  -7  -5    3.00    0.30
  -5   7   5    2.90    0.30
  -5   7   5    3.40    0.30
  -5   7   5    3.00    0.30
   4  -7  -5   23.40    0.70
   4  -7  -5   23.20    0.70
  -4   7   5   24.70    0.60
  -4   7   5   23.30    0.70
  -4   7   5   23.70    0.70
  -4   7   5   23.00    0.60
   3  -7  -5   15.40    0.60
   3  -7  -5   16.80    0.60
  -3   7   5   17.90    0.50
  -3   7   5   16.50    0.60
  -3   7   5   16.60    0.60
  -3   7   5   17.20    0.50
   5  -8  -5    0.50    0.20
   5  -8  -5    0.70    0.20
  -5   8   5    0.70    0.20
  -5   8   5    0.70    0.20
  -5   8   5    0.70    0.20
   4  -8  -5   23.50    0.70
   4  -8  -5   21.00    0.70
  -4   8   5   23.30    0.70
  -4   8   5   23.10    0.70
  -4   8   5   23.30    0.70
  -3   8  -6   20.70    0.60
  -3   8  -6   20.00    0.60
  -3   8  -6   20.20    0.60
  -2   7  -6   34.70    0.70
  -2   7  -6   34.00    0.90
  -2   7  -6   33.80    0.70
  -2   7  -6   34.60    0.70
   2  -7   6   34.40    0.80
   2  -7   6   34.40    0.80
  -3   7  -6   31.10    0.70
  -3   7  -6   32.00    0.80
  -3   7  -6   32.30    0.70
  -3   7  -6   32.30    0.70
   3  -7   6   32.10    0.80
   3  -7   6   30.70    0.80
  -4   7  -6   25.50    0.70
  -4   7  -6   24.70    0.70
  -4   7  -6   25.50    0.70
  -4   7  -6   24.80    0.70
   4  -7   6   25.70    0.80
   4  -7   6   25.40    0.70
  -5   7  -6    3.60    0.30
  -5   7  -6    3.60    0.30
  -5   7  -6    4.00    0.40
   5  -7   6    3.80    0.40
   5  -7   6    3.30    0.40
  -1   6  -6   35.90    0.70
  -1   6  -6   34.80    0.70
  -1   6  -6   35.00    0.60
  -1   6  -6   34.80    0.70
   1  -6   6   35.80    0.70
   1  -6   6   35.00    0.70
  -2   6  -6   22.40    0.60
  -2   6  -6   21.90    0.60
  -2   6  -6   23.00    0.60
  -2   6  -6   21.90    0.60
   2  -6   6   22.50    0.60
   2  -6   6   21.90    0.60
  -3   6  -6   52.49    1.00
  -3   6  -6   52.89    0.90
  -3   6  -6   53.09    0.90
  -3   6  -6   51.89    1.00
   3  -6   6   54.59    1.00
   3  -6   6   53.09    1.00
  -4   6  -6    2.50    0.30
  -4   6  -6    2.60    0.30
  -4   6  -6    2.10    0.20
  -4   6  -6    2.10    0.30
   4  -6   6    2.20    0.30
   4  -6   6    2.20    0.30
  -5   6  -6   13.10    0.50
  -5   6  -6   12.70    0.50
  -5   6  -6   12.70    0.50
  -5   6  -6   13.50    0.50
   5  -6   6   13.10    0.60
   5  -6   6   12.50    0.50
   0   5  -6   11.00    0.30
   0   5  -6   11.20    0.30
   0   5  -6   11.70    0.40
   0   5  -6   11.80    0.30
   0  -5   6   11.90    0.40
   0  -5   6   11.80    0.40
  -1   5  -6   25.80    0.60
  -1   5  -6   25.70    0.50
  -1   5  -6   25.80    0.60
  -1   5  -6   25.50    0.60
   1  -5   6   26.50    0.60
   1  -5   6   26.20    0.60
  -2   5  -6   39.80    0.80
  -2   5  -6   41.10    0.70
  -2   5  -6   39.70    0.80
  -2   5  -6   40.20    0.80
   2  -5   6   40.90    0.80
   2  -5   6   40.00    0.80
  -3   5  -6   62.89    1.10
  -3   5  -6   62.19    1.00
  -3   5  -6   63.19    1.00
  -3   5  -6   63.59    1.00
   3  -5   6   63.29    1.10
   3  -5   6   62.29    1.10
  -4   5  -6   62.29    1.10
  -4   5  -6   64.99    1.10
  -4   5  -6   62.49    1.00
  -4   5  -6   62.99    1.10
   4  -5   6   62.09    1.10
   4  -5   6   63.09    1.20
  -5   5  -6   -0.10    0.10
  -5   5  -6    0.30    0.20
  -5   5  -6    0.20    0.10
  -5   5  -6    0.10    0.10
   5  -5   6    0.10    0.20
   5  -5   6    0.10    0.20
  -6   5  -6   17.30    0.60
  -6   5  -6   16.20    0.60
  -6   5  -6   17.70    0.60
   6  -5   6   17.00    0.70
   6  -5   6   16.80    0.60
   1   4  -6   10.20    0.30
   1   4  -6   10.40    0.30
   1   4  -6   10.30    0.30
   1   4  -6   10.30    0.30
  -1  -4   6   10.40    0.30
  -1  -4   6   10.30    0.30
  -1  -4   6   10.60    0.40
   0   4  -6    9.40    0.30
   0   4  -6    9.20    0.30
   0   4  -6    9.50    0.30
   0   4  -6    9.20    0.30
   0  -4   6    9.30    0.40
   0  -4   6    8.90    0.30
   0  -4   6    9.60    0.30
  -1   4  -6   61.29    0.90
  -1   4  -6   59.89    0.90
  -1   4  -6   58.99    0.90
  -1   4  -6   60.89    0.90
   1  -4   6   60.99    1.00
   1  -4   6   61.19    0.90
  -2   4  -6  126.69    1.50
  -2   4  -6  129.69    1.50
  -2   4  -6  127.29    1.60
  -2   4  -6  129.29    1.60
   2  -4   6  130.89    1.70
   2  -4   6  128.19    1.60
  -3   4  -6   89.09    1.30
  -3   4  -6   89.79    1.30
  -3   4  -6   87.09    1.20
  -3   4  -6   89.59    1.30
   3  -4   6   89.59    1.40
   3  -4   6   88.79    1.30
  -4   4  -6    0.80    0.20
  -4   4  -6    1.20    0.20
  -4   4  -6    1.00    0.20
  -4   4  -6    0.80    0.20
   4  -4   6    1.10    0.20
   4  -4   6    1.00    0.20
  -5   4  -6   16.40    0.60
  -5   4  -6   16.30    0.50
  -5   4  -6   15.60    0.60
  -5   4  -6   15.70    0.60
   5  -4   6   15.00    0.60
   5  -4   6   16.10    0.60
  -6   4  -6   10.50    0.50
  -6   4  -6    9.80    0.50
  -6   4  -6   10.70    0.50
   6  -4   6   11.10    0.50
   6  -4   6   10.00    0.50
   2   3  -6  292.17    2.70
   2   3  -6  294.07    2.70
   2   3  -6  290.37    2.70
  -2  -3   6  292.87    2.70
   1   3  -6   64.69    0.90
   1   3  -6   64.69    0.80
   1   3  -6   64.49    0.90
   1   3  -6   64.99    0.90
  -1  -3   6   64.49    0.90
   0   3  -6   21.10    0.50
   0   3  -6   21.20    0.50
   0   3  -6   21.50    0.50
   0   3  -6   20.40    0.40
   0  -3   6   21.00    0.50
   0  -3   6   20.40    0.50
   0  -3   6   20.70    0.50
  -1   3  -6  134.19    1.60
  -1   3  -6  138.09    1.60
  -1   3  -6  136.89    1.50
  -1   3  -6  138.49    1.60
   1  -3   6  139.49    1.60
   1  -3   6  138.89    1.70
  -2   3  -6   14.10    0.40
  -2   3  -6   15.40    0.40
  -2   3  -6   15.10    0.50
  -2   3  -6   15.20    0.40
   2  -3   6   14.50    0.50
   2  -3   6   15.80    0.50
  -3   3  -6   88.29    1.20
  -3   3  -6   87.89    1.30
  -3   3  -6   85.09    1.20
  -3   3  -6   84.79    1.30
   3  -3   6   89.49    1.30
   3  -3   6   87.79    1.30
  -4   3  -6   70.19    1.20
  -4   3  -6   69.69    1.10
  -4   3  -6   69.39    1.10
  -4   3  -6   69.69    1.10
   4  -3   6   69.99    1.20
   4  -3   6   70.89    1.20
  -5   3  -6    1.30    0.20
  -5   3  -6    1.30    0.20
  -5   3  -6    1.20    0.20
  -5   3  -6    1.00    0.20
   5  -3   6    1.30    0.30
   5  -3   6    1.10    0.20
   3   2  -6    2.10    0.20
   3   2  -6    2.80    0.20
   3   2  -6    2.50    0.20
  -3  -2   6    2.30    0.20
   2   2  -6   46.70    0.70
   2   2  -6   45.70    0.70
   1   2  -6    4.90    0.20
   1   2  -6    5.00    0.20
   1   2  -6    4.90    0.20
   1   2  -6    4.60    0.30
   1   2  -6    5.40    0.20
   1   2  -6    5.10    0.20
  -1  -2   6    4.90    0.20
   0   2  -6   38.70    0.60
   0   2  -6   39.50    0.70
   0   2  -6   39.70    0.70
   0   2  -6   39.60    0.70
   0   2  -6   40.00    0.70
   0   2  -6   39.70    0.70
   0  -2   6   40.00    0.70
  -1   2  -6   24.70    0.50
  -1   2  -6   24.70    0.50
  -1   2  -6   24.60    0.60
  -1   2  -6   23.90    0.50
   1  -2   6   24.00    0.60
   1  -2   6   24.60    0.60
   1  -2   6   24.90    0.60
  -2   2  -6  243.98    2.50
  -2   2  -6  246.78    2.50
  -2   2  -6  243.38    2.40
  -2   2  -6  244.38    2.50
   2  -2   6  243.28    2.50
   2  -2   6  245.48    2.60
  -3   2  -6   80.39    1.20
  -3   2  -6   79.19    1.10
  -3   2  -6   84.89    1.20
  -3   2  -6   80.89    1.20
   3  -2   6   82.89    1.30
   3  -2   6   79.99    1.20
  -4   2  -6   16.60    0.50
  -4   2  -6   16.00    0.50
  -4   2  -6   16.60    0.50
  -4   2  -6   15.40    0.50
   4  -2   6   16.30    0.50
   4  -2   6   16.00    0.60
  -5   2  -6    9.10    0.40
  -5   2  -6    8.70    0.40
  -5   2  -6    8.70    0.40
  -5   2  -6    9.40    0.50
   5  -2   6    8.70    0.50
   5  -2   6    8.60    0.40
   4   1  -6   64.39    0.90
   4   1  -6   64.59    0.90
  -4  -1   6   64.59    0.90
  -4  -1   6   65.49    0.90
  -4  -1   6   64.49    0.80
   3   1  -6   18.60    0.40
  -3  -1   6   18.30    0.40
   2   1  -6  642.64    5.40
   2   1  -6  639.34    5.50
   2   1  -6  625.24    5.40
  -2  -1   6  641.04    5.40
   1   1  -6   85.29    1.10
   1   1  -6   85.29    1.10
   1   1  -6   84.99    1.10
   1   1  -6   84.69    1.10
  -1  -1   6   85.59    1.10
   0   1  -6   10.20    0.30
   0   1  -6    9.90    0.40
   0   1  -6   10.50    0.30
   0   1  -6   10.50    0.30
   0   1  -6   10.20    0.30
   0   1  -6   10.70    0.30
  -1   1  -6  210.18    2.30
  -1   1  -6  208.58    2.20
  -1   1  -6  209.88    2.10
  -1   1  -6  209.48    2.10
  -1   1  -6  208.08    2.20
  -1   1  -6  212.78    2.20
   1  -1   6  209.58    2.20
  -2   1  -6    0.10    0.10
  -2   1  -6    0.30    0.10
  -2   1  -6    0.40    0.10
  -2   1  -6    0.50    0.10
   2  -1   6    0.20    0.10
   2  -1   6    0.20    0.10
   2  -1   6    0.20    0.10
  -3   1  -6   74.09    1.10
  -3   1  -6   74.49    1.10
  -3   1  -6   72.89    1.10
  -3   1  -6   74.79    1.20
   3  -1   6   74.49    1.20
   3  -1   6   73.29    1.20
  -4   1  -6   32.90    0.80
  -4   1  -6   32.90    0.70
  -4   1  -6   33.20    0.70
  -4   1  -6   33.00    0.70
   4  -1   6   32.60    0.80
   4  -1   6   32.40    0.80
  -5   1  -6    2.00    0.30
  -5   1  -6    2.60    0.30
  -5   1  -6    2.90    0.30
  -5   1  -6    2.30    0.30
   5  -1   6    2.20    0.30
   5  -1   6    3.00    0.30
   5  -1   6    2.30    0.30
   5   0  -6  160.98    1.80
   5   0  -6  157.08    1.70
  -5   0   6  155.48    1.60
  -5   0   6  160.28    1.70
  -5   0   6  159.68    1.80
  -5   0   6  160.78    1.70
   4   0  -6    2.50    0.20
   4   0  -6    2.60    0.20
  -4   0   6    2.40    0.20
  -4   0   6    2.30    0.20
  -4   0   6    2.90    0.20
   3   0  -6   16.20    0.40
   3   0  -6   16.60    0.40
   3   0  -6   16.50    0.40
  -3   0   6   16.50    0.40
   2   0  -6  266.47    2.50
   2   0  -6  266.17    2.60
   2   0  -6  266.97    2.60
  -2   0   6  266.67    2.60
   1   0  -6    1.30    0.10
   1   0  -6    1.10    0.10
  -1   0   6    1.10    0.10
   0   0  -6   74.39    1.00
   0   0  -6   75.79    1.00
   0   0  -6   75.89    1.00
   0   0  -6   74.99    1.10
   0   0  -6   76.09    1.00
   0   0  -6   73.49    1.00
   0   0   6   73.69    1.00
  -1   0  -6    3.40    0.20
  -1   0  -6    3.10    0.20
  -1   0  -6    4.00    0.20
  -1   0  -6    3.20    0.20
  -1   0  -6    3.50    0.20
  -1   0  -6    3.40    0.20
   1   0   6    3.50    0.20
  -2   0  -6  228.68    2.40
  -2   0  -6  229.38    2.40
  -2   0  -6  232.98    2.40
  -2   0  -6  230.78    2.30
   2   0   6  234.68    2.40
   2   0   6  235.38    2.50
   2   0   6  229.98    2.40
  -3   0  -6   34.70    0.70
  -3   0  -6   35.80    0.70
  -3   0  -6   33.90    0.70
  -3   0  -6   33.10    0.70
   3   0   6   34.70    0.80
   3   0   6   36.90    0.80
   3   0   6   35.30    0.80
  -4   0  -6   30.20    0.70
  -4   0  -6   30.20    0.70
  -4   0  -6   30.90    0.70
  -4   0  -6   30.50    0.70
   4   0   6   29.80    0.70
   4   0   6   30.40    0.80
   4   0   6   30.10    0.70
  -5   0  -6    1.40    0.20
  -5   0  -6    1.90    0.30
  -5   0  -6    1.60    0.20
   5   0   6    1.20    0.30
   5   0   6    1.30    0.30
  -6   1   6    6.10    0.30
  -6   1   6    6.40    0.30
  -6   1   6    6.30    0.30
  -6   1   6    6.50    0.30
   5  -1  -6  458.25    4.10
   5  -1  -6  458.85    4.20
  -5   1   6  466.15    4.10
  -5   1   6  458.45    4.30
  -5   1   6  464.15    4.20
  -5   1   6  456.65    4.00
   4  -1  -6   30.80    0.60
   4  -1  -6   30.30    0.70
  -4   1   6   30.50    0.60
  -4   1   6   30.80    0.60
  -4   1   6   31.40    0.60
   3  -1  -6    0.10    0.10
   3  -1  -6    0.50    0.10
  -3   1   6   -0.10    0.10
   2  -1  -6  618.44    5.30
   2  -1  -6  613.04    5.30
   2  -1  -6  633.74    5.40
  -2   1   6  615.64    5.30
   1  -1  -6  111.09    1.40
   1  -1  -6  108.79    1.30
   1  -1  -6  109.59    1.30
  -1   1   6  109.59    1.40
   0  -1  -6    0.40    0.10
   0  -1  -6    0.50    0.10
   0  -1  -6    0.60    0.10
   0  -1  -6    0.70    0.10
   0   1   6    0.70    0.10
  -1  -1  -6  107.09    1.40
  -1  -1  -6  105.79    1.40
  -1  -1  -6  109.59    1.40
  -1  -1  -6  107.99    1.50
   1   1   6  106.69    1.40
  -2  -1  -6    3.20    0.30
  -2  -1  -6    3.60    0.30
  -2  -1  -6    3.30    0.20
  -2  -1  -6    3.20    0.20
   2   1   6    4.10    0.30
  -3  -1  -6   33.50    0.70
  -3  -1  -6   32.30    0.70
  -3  -1  -6   32.50    0.70
  -3  -1  -6   32.90    0.70
   3   1   6   33.10    0.70
   3   1   6   31.60    0.80
   3   1   6   32.80    0.70
  -4  -1  -6    5.20    0.30
  -4  -1  -6    4.80    0.30
  -4  -1  -6    4.90    0.30
   4   1   6    4.50    0.40
   4   1   6    4.80    0.40
   7  -2  -6    0.80    0.20
   7  -2  -6    0.80    0.20
  -7   2   6    0.30    0.10
  -7   2   6    0.10    0.10
  -7   2   6    0.30    0.10
  -7   2   6    0.10    0.10
   6  -2  -6    0.10    0.10
   6  -2  -6    0.00    0.10
  -6   2   6    0.00    0.10
  -6   2   6    0.40    0.10
  -6   2   6    0.10    0.10
  -6   2   6    0.20    0.10
   5  -2  -6  100.09    1.30
   5  -2  -6  100.79    1.40
  -5   2   6   99.19    1.30
  -5   2   6   99.79    1.40
  -5   2   6   98.69    1.20
  -5   2   6   97.89    1.30
   4  -2  -6    0.40    0.10
   4  -2  -6    0.20    0.10
  -4   2   6    0.40    0.10
  -4   2   6    0.20    0.10
  -4   2   6    0.60    0.10
   3  -2  -6   24.40    0.60
   3  -2  -6   25.80    0.60
  -3   2   6   25.30    0.60
   2  -2  -6  373.66    3.50
   2  -2  -6  373.06    3.40
   2  -2  -6  370.06    3.50
  -2   2   6  369.56    3.50
   1  -2  -6   12.80    0.40
   1  -2  -6   13.20    0.40
   1  -2  -6   12.80    0.40
  -1   2   6   13.20    0.40
   0  -2  -6   42.80    0.80
   0  -2  -6   43.20    0.80
   0  -2  -6   44.60    0.80
   0   2   6   44.70    0.80
  -1  -2  -6   41.10    0.80
  -1  -2  -6   42.40    0.80
  -1  -2  -6   42.60    0.80
  -1  -2  -6   43.20    0.90
   1   2   6   42.70    0.80
  -2  -2  -6  131.29    1.70
  -2  -2  -6  132.99    1.60
   2   2   6  131.89    1.70
  -3  -2  -6    4.70    0.30
   3   2   6    2.80    0.30
   3   2   6    3.10    0.30
   8  -3  -6   65.59    1.20
   8  -3  -6   65.69    1.20
  -8   3   6   64.19    1.20
  -8   3   6   66.29    1.10
  -8   3   6   65.19    1.30
  -8   3   6   65.99    1.10
   7  -3  -6    9.50    0.40
   7  -3  -6    9.20    0.40
  -7   3   6    8.60    0.40
  -7   3   6    9.20    0.40
  -7   3   6    9.20    0.40
  -7   3   6    8.90    0.40
   6  -3  -6    0.50    0.20
   6  -3  -6    0.60    0.20
  -6   3   6    0.80    0.20
  -6   3   6    0.70    0.10
  -6   3   6    0.60    0.20
  -6   3   6    0.60    0.10
   5  -3  -6  503.85    4.60
   5  -3  -6  508.15    4.70
  -5   3   6  497.75    4.50
  -5   3   6  508.25    4.60
  -5   3   6  502.35    4.50
  -5   3   6  504.65    4.80
   4  -3  -6    3.50    0.30
   4  -3  -6    3.40    0.30
  -4   3   6    3.60    0.20
  -4   3   6    3.70    0.30
  -4   3   6    3.60    0.20
   3  -3  -6   15.60    0.50
   3  -3  -6   16.10    0.50
  -3   3   6   16.50    0.50
  -3   3   6   16.60    0.50
  -3   3   6   16.60    0.40
   2  -3  -6  297.77    3.00
   2  -3  -6  298.47    2.90
  -2   3   6  295.37    2.90
   1  -3  -6  122.79    1.50
   1  -3  -6  122.19    1.50
   1  -3  -6  122.59    1.60
  -1   3   6  121.39    1.50
   0  -3  -6   13.20    0.40
   0  -3  -6   12.20    0.50
   0  -3  -6   13.50    0.40
   0   3   6   12.80    0.40
  -1  -3  -6   15.20    0.50
  -1  -3  -6   16.20    0.50
  -1  -3  -6   17.30    0.50
   1   3   6   16.10    0.50
  -2  -3  -6    1.90    0.20
   8  -4  -6   16.20    0.60
   8  -4  -6   17.10    0.60
  -8   4   6   16.80    0.60
  -8   4   6   16.90    0.60
  -8   4   6   16.60    0.60
   7  -4  -6    4.50    0.30
   7  -4  -6    4.50    0.40
  -7   4   6    4.90    0.40
  -7   4   6    4.50    0.30
  -7   4   6    4.70    0.30
  -7   4   6    4.20    0.30
   6  -4  -6    8.30    0.40
   6  -4  -6    8.20    0.40
  -6   4   6    7.90    0.40
  -6   4   6    8.50    0.40
  -6   4   6    8.30    0.40
  -6   4   6    8.20    0.40
   5  -4  -6   25.00    0.60
   5  -4  -6   25.90    0.70
  -5   4   6   26.00    0.60
  -5   4   6   24.60    0.70
  -5   4   6   25.50    0.70
  -5   4   6   25.00    0.60
   4  -4  -6    3.20    0.30
   4  -4  -6    2.70    0.30
  -4   4   6    1.90    0.20
  -4   4   6    2.10    0.30
  -4   4   6    2.50    0.20
  -4   4   6    2.60    0.20
   3  -4  -6   10.20    0.40
   3  -4  -6   10.10    0.40
  -3   4   6   10.70    0.40
  -3   4   6   10.10    0.40
  -3   4   6   10.30    0.40
   2  -4  -6  282.17    3.00
   2  -4  -6  281.07    2.90
  -2   4   6  279.67    2.70
  -2   4   6  283.77    2.80
  -2   4   6  275.77    2.90
   1  -4  -6   18.60    0.60
   1  -4  -6   18.60    0.50
  -1   4   6   18.20    0.50
   0  -4  -6    3.50    0.30
   0  -4  -6    3.80    0.30
   0   4   6    3.40    0.30
  -1  -4  -6   43.10    0.90
   8  -5  -6   49.90    1.10
   8  -5  -6   49.40    1.10
  -8   5   6   49.30    1.00
  -8   5   6   50.29    1.00
  -8   5   6   46.70    1.10
   7  -5  -6    7.00    0.40
   7  -5  -6    7.70    0.40
  -7   5   6    7.40    0.40
  -7   5   6    6.80    0.40
  -7   5   6    6.80    0.40
   6  -5  -6    4.30    0.30
   6  -5  -6    4.00    0.40
  -6   5   6    4.60    0.40
  -6   5   6    3.70    0.30
  -6   5   6    4.40    0.30
  -6   5   6    4.20    0.30
   5  -5  -6  284.67    3.00
   5  -5  -6  288.07    3.10
  -5   5   6  286.87    3.00
  -5   5   6  283.47    3.20
  -5   5   6  282.07    2.90
  -5   5   6  283.27    2.90
   4  -5  -6    0.20    0.20
   4  -5  -6    0.40    0.10
  -4   5   6    0.30    0.10
  -4   5   6    0.20    0.20
  -4   5   6    0.00    0.10
  -4   5   6    0.40    0.20
   3  -5  -6   26.70    0.70
   3  -5  -6   29.00    0.70
  -3   5   6   27.10    0.60
  -3   5   6   28.60    0.70
  -3   5   6   27.00    0.60
  -3   5   6   29.20    0.80
   2  -5  -6   83.89    1.30
   2  -5  -6   84.39    1.30
  -2   5   6   82.29    1.20
  -2   5   6   83.89    1.20
  -2   5   6   83.09    1.30
   1  -5  -6   96.99    1.40
   1  -5  -6   98.99    1.50
  -1   5   6   97.39    1.40
  -1   5   6   99.79    1.30
  -1   5   6  100.89    1.30
   7  -6  -6    5.90    0.40
   7  -6  -6    6.30    0.40
  -7   6   6    6.30    0.40
  -7   6   6    5.90    0.40
  -7   6   6    6.20    0.40
   6  -6  -6   13.20    0.50
   6  -6  -6   11.90    0.50
  -6   6   6   11.80    0.50
  -6   6   6   12.10    0.50
  -6   6   6   12.10    0.50
   5  -6  -6    3.10    0.30
   5  -6  -6    2.60    0.30
  -5   6   6    2.40    0.30
  -5   6   6    2.40    0.30
  -5   6   6    2.30    0.30
  -5   6   6    2.20    0.30
   4  -6  -6    9.20    0.40
   4  -6  -6    9.10    0.50
  -4   6   6    8.10    0.40
  -4   6   6    7.60    0.40
  -4   6   6    7.90    0.40
  -4   6   6    7.90    0.50
   3  -6  -6    0.20    0.20
   3  -6  -6    0.60    0.20
  -3   6   6    0.50    0.20
  -3   6   6    0.60    0.20
  -3   6   6    0.60    0.20
  -3   6   6    0.50    0.20
   2  -6  -6  124.49    1.70
   2  -6  -6  122.69    1.80
  -2   6   6  121.49    1.70
  -2   6   6  120.59    1.80
  -2   6   6  119.99    1.50
  -2   6   6  124.09    1.60
   6  -7  -6   11.70    0.50
   6  -7  -6   11.00    0.60
  -6   7   6   12.00    0.50
  -6   7   6   11.50    0.50
   5  -7  -6   93.99    1.50
   5  -7  -6   93.29    1.60
  -5   7   6   96.59    1.40
  -5   7   6   97.69    1.50
  -5   7   6   97.59    1.50
   4  -7  -6    2.30    0.30
   4  -7  -6    2.00    0.30
  -4   7   6    2.50    0.30
  -4   7   6    2.60    0.30
  -4   7   6    1.80    0.20
   3  -7  -6   19.50    0.60
   3  -7  -6   17.80    0.70
  -3   7   6   19.40    0.60
  -3   7   6   19.50    0.60
  -3   7   6   19.60    0.60
  -2   7  -7   22.50    0.60
  -2   7  -7   20.20    0.60
  -2   7  -7   21.50    0.60
   2  -7   7   20.40    0.70
   2  -7   7   20.70    0.60
  -3   7  -7    7.30    0.40
  -3   7  -7    7.10    0.40
  -3   7  -7    7.70    0.40
  -3   7  -7    7.40    0.40
   3  -7   7    7.50    0.40
   3  -7   7    6.60    0.40
  -1   6  -7   12.20    0.40
  -1   6  -7   11.40    0.40
  -1   6  -7   11.60    0.40
  -1   6  -7   12.40    0.50
   1  -6   7   12.20    0.50
   1  -6   7   11.40    0.40
  -2   6  -7    0.80    0.20
  -2   6  -7    0.60    0.20
  -2   6  -7    1.00    0.20
  -2   6  -7    0.60    0.20
   2  -6   7    0.60    0.20
   2  -6   7    0.40    0.20
  -3   6  -7   14.80    0.50
  -3   6  -7   14.90    0.60
  -3   6  -7   16.00    0.50
  -3   6  -7   15.30    0.50
   3  -6   7   15.50    0.60
   3  -6   7   15.10    0.60
  -4   6  -7   88.29    1.40
  -4   6  -7   87.79    1.40
  -4   6  -7   88.49    1.50
  -4   6  -7   88.79    1.40
   4  -6   7   88.39    1.50
   4  -6   7   85.79    1.50
   0   5  -7    5.60    0.30
   0   5  -7    5.90    0.30
   0   5  -7    5.80    0.30
   0   5  -7    5.50    0.30
   0  -5   7    5.80    0.30
   0  -5   7    5.80    0.30
   0  -5   7    5.50    0.30
  -1   5  -7  134.59    1.70
  -1   5  -7  136.69    1.60
  -1   5  -7  134.79    1.60
  -1   5  -7  136.49    1.70
   1  -5   7  136.19    1.70
   1  -5   7  135.39    1.80
  -2   5  -7   35.10    0.80
  -2   5  -7   36.10    0.70
  -2   5  -7   35.90    0.80
  -2   5  -7   35.70    0.70
   2  -5   7   36.10    0.80
   2  -5   7   36.40    0.80
  -3   5  -7   17.50    0.60
  -3   5  -7   18.70    0.50
  -3   5  -7   18.80    0.60
  -3   5  -7   19.20    0.60
   3  -5   7   18.70    0.60
   3  -5   7   18.80    0.60
  -4   5  -7    1.80    0.30
  -4   5  -7    1.90    0.20
  -4   5  -7    2.40    0.30
  -4   5  -7    2.40    0.30
   4  -5   7    2.30    0.30
   4  -5   7    2.30    0.30
  -5   5  -7    9.80    0.50
  -5   5  -7   10.10    0.50
  -5   5  -7    9.80    0.50
   5  -5   7    9.70    0.50
   5  -5   7   10.20    0.50
   1   4  -7   16.20    0.40
   1   4  -7   16.10    0.40
   1   4  -7   16.90    0.40
   1   4  -7   16.00    0.40
  -1  -4   7   16.60    0.50
  -1  -4   7   16.30    0.50
  -1  -4   7   17.00    0.50
   0   4  -7    5.60    0.30
   0   4  -7    4.90    0.30
   0   4  -7    5.30    0.30
   0   4  -7    5.50    0.30
   0  -4   7    5.30    0.30
   0  -4   7    5.00    0.30
   0  -4   7    5.30    0.30
  -1   4  -7   36.50    0.70
  -1   4  -7   36.50    0.80
  -1   4  -7   36.50    0.70
  -1   4  -7   37.10    0.70
   1  -4   7   35.80    0.80
   1  -4   7   37.30    0.80
  -2   4  -7    1.70    0.20
  -2   4  -7    1.40    0.20
  -2   4  -7    1.40    0.20
  -2   4  -7    1.40    0.20
   2  -4   7    1.90    0.30
   2  -4   7    1.70    0.20
  -3   4  -7   32.60    0.70
  -3   4  -7   32.00    0.70
  -3   4  -7   30.50    0.70
  -3   4  -7   32.40    0.80
   3  -4   7   31.90    0.80
   3  -4   7   32.80    0.80
  -4   4  -7  119.99    1.70
  -4   4  -7  120.09    1.70
  -4   4  -7  117.99    1.60
  -4   4  -7  120.89    1.70
   4  -4   7  119.29    1.70
   4  -4   7  120.29    1.80
  -5   4  -7   80.99    1.40
  -5   4  -7   79.79    1.30
  -5   4  -7   81.29    1.40
   5  -4   7   79.59    1.50
   5  -4   7   77.49    1.40
   2   3  -7    0.60    0.10
   2   3  -7    0.60    0.10
   2   3  -7    0.60    0.10
   1   3  -7  117.89    1.40
   1   3  -7  116.29    1.40
   1   3  -7  118.89    1.40
   1   3  -7  119.29    1.40
  -1  -3   7  118.59    1.40
   0   3  -7   34.60    0.70
   0   3  -7   34.60    0.70
   0   3  -7   34.10    0.60
   0   3  -7   35.10    0.70
   0  -3   7   35.30    0.70
   0  -3   7   35.50    0.70
   0  -3   7   34.50    0.70
  -1   3  -7  253.17    2.60
  -1   3  -7  253.47    2.50
  -1   3  -7  250.07    2.60
  -1   3  -7  253.47    2.60
   1  -3   7  251.27    2.60
   1  -3   7  254.87    2.70
   1  -3   7  254.07    2.60
  -2   3  -7   23.50    0.60
  -2   3  -7   23.40    0.60
  -2   3  -7   23.20    0.60
  -2   3  -7   23.40    0.60
   2  -3   7   23.00    0.60
   2  -3   7   23.00    0.60
  -3   3  -7   28.00    0.70
  -3   3  -7   27.10    0.70
  -3   3  -7   27.10    0.60
  -3   3  -7   26.30    0.70
   3  -3   7   26.50    0.70
   3  -3   7   27.40    0.70
  -4   3  -7   15.80    0.60
  -4   3  -7   14.30    0.50
  -4   3  -7   14.80    0.50
  -4   3  -7   14.80    0.50
   4  -3   7   15.70    0.60
   4  -3   7   15.20    0.60
  -5   3  -7    0.30    0.20
  -5   3  -7    0.50    0.20
  -5   3  -7    0.50    0.20
   5  -3   7    0.50    0.20
   5  -3   7    0.70    0.20
   3   2  -7    3.70    0.20
   3   2  -7    3.50    0.20
   3   2  -7    3.90    0.30
  -3  -2   7    3.00    0.20
   2   2  -7  739.53    6.20
   2   2  -7  733.23    6.20
   2   2  -7  731.43    6.30
  -2  -2   7  732.33    6.20
   1   2  -7    1.10    0.20
   1   2  -7    1.50    0.20
   1   2  -7    0.90    0.20
   1   2  -7    1.00    0.20
  -1  -2   7    1.50    0.20
   0   2  -7   18.60    0.50
   0   2  -7   19.40    0.50
   0   2  -7   19.00    0.60
   0   2  -7   18.40    0.50
   0   2  -7   18.90    0.50
   0   2  -7   19.80    0.50
   0  -2   7   19.00    0.50
  -1   2  -7   42.50    0.80
  -1   2  -7   43.30    0.80
  -1   2  -7   44.10    0.80
  -1   2  -7   43.30    0.80
   1  -2   7   44.50    0.80
   1  -2   7   43.40    0.90
   1  -2   7   43.30    0.80
  -2   2  -7   10.30    0.40
  -2   2  -7   10.90    0.40
  -2   2  -7   10.10    0.40
  -2   2  -7   11.10    0.40
   2  -2   7   10.60    0.40
   2  -2   7   11.20    0.50
   2  -2   7   10.90    0.40
  -3   2  -7   44.30    0.90
  -3   2  -7   44.60    0.80
  -3   2  -7   44.00    0.90
  -3   2  -7   44.00    0.90
   3  -2   7   43.30    0.90
   3  -2   7   44.40    0.90
  -4   2  -7   81.99    1.30
  -4   2  -7   83.19    1.40
  -4   2  -7   81.19    1.30
  -4   2  -7   85.09    1.40
   4  -2   7   84.19    1.40
   4  -2   7   84.39    1.40
   4   1  -7   34.90    0.70
   4   1  -7   36.40    0.70
  -4  -1   7   35.80    0.70
  -4  -1   7   36.30    0.60
  -4  -1   7   36.00    0.60
   3   1  -7  255.37    2.50
   3   1  -7  257.47    2.50
   3   1  -7  257.67    2.60
  -3  -1   7  256.47    2.60
   2   1  -7   17.30    0.50
   2   1  -7   17.10    0.50
   2   1  -7   15.90    0.50
  -2  -1   7   17.60    0.50
   1   1  -7   75.99    1.10
   1   1  -7   76.89    1.10
   1   1  -7   77.29    1.10
   1   1  -7   77.69    1.20
  -1  -1   7   77.69    1.10
   0   1  -7   66.19    1.00
   0   1  -7   67.69    1.00
   0   1  -7   67.19    1.00
   0   1  -7   67.49    1.00
   0   1  -7   67.79    1.10
   0   1  -7   67.49    1.00
   0  -1   7   68.29    1.00
  -1   1  -7  301.57    2.90
  -1   1  -7  306.17    3.00
  -1   1  -7  302.17    3.10
  -1   1  -7  307.07    3.00
   1  -1   7  302.57    3.00
  -2   1  -7    2.40    0.20
  -2   1  -7    2.50    0.20
  -2   1  -7    2.90    0.20
  -2   1  -7    2.40    0.20
   2  -1   7    2.50    0.30
   2  -1   7    2.70    0.30
   2  -1   7    3.00    0.30
  -3   1  -7   23.30    0.60
  -3   1  -7   24.70    0.60
  -3   1  -7   24.50    0.70
  -3   1  -7   24.70    0.60
   3  -1   7   24.50    0.70
   3  -1   7   25.00    0.70
   3  -1   7   24.60    0.70
  -4   1  -7   21.80    0.70
  -4   1  -7   21.00    0.60
  -4   1  -7   21.00    0.60
  -4   1  -7   21.10    0.60
   4  -1   7   20.10    0.70
   4  -1   7   20.10    0.70
   4  -1   7   22.30    0.70
  -5   0   7   79.89    1.10
  -5   0   7   77.89    1.10
  -5   0   7   78.89    1.20
  -5   0   7   76.79    1.00
   4   0  -7    0.00    0.10
   4   0  -7    0.00    0.10
  -4   0   7   -0.20    0.10
  -4   0   7    0.00    0.10
  -4   0   7    0.10    0.10
   3   0  -7    7.80    0.30
   3   0  -7    8.20    0.40
   3   0  -7    7.10    0.30
  -3   0   7    7.60    0.30
   2   0  -7  938.31    7.90
   2   0  -7  949.71    8.00
   2   0  -7  943.01    7.80
  -2   0   7  938.11    7.90
   1   0  -7   52.79    0.90
   1   0  -7   54.09    0.90
   1   0  -7   53.29    0.90
   1   0  -7   52.99    0.90
   0   0  -7   20.90    0.50
   0   0  -7   20.70    0.50
   0   0  -7   20.40    0.50
   0   0  -7   21.50    0.60
   0   0   7   20.40    0.50
  -1   0  -7   18.90    0.50
  -1   0  -7   18.80    0.50
  -1   0  -7   19.30    0.60
  -1   0  -7   19.00    0.50
  -1   0  -7   19.50    0.50
  -1   0  -7   18.20    0.50
   1   0   7   18.50    0.50
  -2   0  -7   11.80    0.40
  -2   0  -7   11.20    0.40
  -2   0  -7   11.40    0.40
  -2   0  -7   11.40    0.40
   2   0   7   11.00    0.50
   2   0   7   11.40    0.40
   2   0   7   11.80    0.50
  -3   0  -7   36.00    0.80
  -3   0  -7   35.60    0.80
  -3   0  -7   35.80    0.80
  -3   0  -7   36.30    0.80
   3   0   7   36.70    0.80
   3   0   7   35.10    0.90
   3   0   7   35.20    0.80
  -4   0  -7   25.90    0.70
  -4   0  -7   26.80    0.80
  -4   0  -7   26.40    0.70
  -4   0  -7   25.50    0.70
   4   0   7   25.60    0.70
   4   0   7   26.00    0.80
   4   0   7   26.60    0.70
   6  -1  -7    0.30    0.10
   6  -1  -7    0.50    0.10
  -6   1   7    0.30    0.10
  -6   1   7    0.20    0.10
  -6   1   7    0.10    0.10
  -6   1   7    0.20    0.10
   5  -1  -7    5.60    0.30
   5  -1  -7    6.70    0.30
  -5   1   7    6.50    0.40
  -5   1   7    6.70    0.30
  -5   1   7    5.80    0.30
  -5   1   7    6.80    0.30
   4  -1  -7   17.90    0.50
   4  -1  -7   17.80    0.50
  -4   1   7   17.60    0.50
  -4   1   7   17.80    0.50
  -4   1   7   17.30    0.50
   3  -1  -7  163.18    1.90
   3  -1  -7  163.38    1.80
   3  -1  -7  160.68    1.80
  -3   1   7  162.58    1.90
   2  -1  -7   59.69    1.00
   2  -1  -7   61.69    0.90
   2  -1  -7   59.99    1.00
  -2   1   7   60.69    1.00
   1  -1  -7    5.40    0.30
   1  -1  -7    5.00    0.30
   1  -1  -7    5.10    0.30
  -1   1   7    5.30    0.30
   0  -1  -7   58.39    1.00
   0  -1  -7   58.99    1.00
   0  -1  -7   57.69    1.00
   0  -1  -7   58.69    1.00
   0   1   7   57.79    1.00
  -1  -1  -7  227.98    2.50
  -1  -1  -7  229.88    2.50
  -1  -1  -7  232.38    2.60
  -1  -1  -7  227.38    2.40
   1   1   7  230.48    2.50
  -2  -1  -7    2.30    0.30
  -2  -1  -7    2.20    0.30
   2   1   7    2.00    0.30
   2   1   7    2.40    0.30
   2   1   7    2.30    0.30
  -3  -1  -7   13.60    0.50
  -3  -1  -7   14.70    0.50
   3   1   7   13.30    0.50
   3   1   7   13.80    0.50
   3   1   7   14.00    0.50
   7  -2  -7    0.70    0.20
   7  -2  -7    0.40    0.20
  -7   2   7    0.60    0.10
  -7   2   7    0.50    0.20
  -7   2   7    0.60    0.20
  -7   2   7    0.60    0.20
   6  -2  -7   67.49    1.10
   6  -2  -7   70.29    1.20
  -6   2   7   67.69    1.10
  -6   2   7   69.39    1.00
  -6   2   7   68.29    1.20
  -6   2   7   68.99    1.10
   5  -2  -7   79.19    1.30
   5  -2  -7   76.99    1.20
  -5   2   7   76.59    1.30
  -5   2   7   74.59    1.10
  -5   2   7   73.59    1.10
  -5   2   7   77.09    1.20
   4  -2  -7   15.20    0.50
   4  -2  -7   15.50    0.50
  -4   2   7   15.00    0.50
  -4   2   7   15.00    0.40
  -4   2   7   15.40    0.50
   3  -2  -7   14.90    0.50
   3  -2  -7   14.80    0.50
  -3   2   7   14.50    0.50
   2  -2  -7  622.64    5.60
   2  -2  -7  611.64    5.50
   2  -2  -7  613.24    5.40
  -2   2   7  623.84    5.50
   1  -2  -7   92.69    1.40
   1  -2  -7   91.39    1.30
   1  -2  -7   93.79    1.30
  -1   2   7   92.19    1.30
   0  -2  -7   10.50    0.40
   0  -2  -7   10.90    0.40
   0  -2  -7   10.00    0.40
   0   2   7   10.40    0.40
  -1  -2  -7    1.30    0.20
  -1  -2  -7    1.30    0.20
  -1  -2  -7    1.60    0.20
   1   2   7    1.40    0.20
  -2  -2  -7    2.60    0.30
  -2  -2  -7    2.40    0.30
   2   2   7    2.10    0.30
   8  -3  -7    0.50    0.20
   8  -3  -7    0.40    0.20
  -8   3   7    0.60    0.20
  -8   3   7    0.50    0.20
  -8   3   7    0.20    0.20
   7  -3  -7   42.70    0.90
   7  -3  -7   43.20    1.00
  -7   3   7   42.10    1.00
  -7   3   7   43.30    0.90
  -7   3   7   43.20    0.80
  -7   3   7   42.80    0.90
   6  -3  -7    1.70    0.30
   6  -3  -7    1.50    0.20
  -6   3   7    1.60    0.20
  -6   3   7    1.80    0.20
  -6   3   7    1.90    0.20
  -6   3   7    1.60    0.20
   5  -3  -7   19.50    0.60
   5  -3  -7   20.20    0.60
  -5   3   7   20.50    0.60
  -5   3   7   20.50    0.60
   4  -3  -7    1.20    0.20
   4  -3  -7    1.20    0.20
  -4   3   7    1.40    0.20
  -4   3   7    1.50    0.20
  -4   3   7    1.40    0.20
   3  -3  -7   59.99    1.10
   3  -3  -7   56.99    1.00
  -3   3   7   57.99    0.90
  -3   3   7   58.79    1.00
  -3   3   7   57.79    1.00
   2  -3  -7   68.79    1.10
   2  -3  -7   66.19    1.20
  -2   3   7   68.09    1.10
   1  -3  -7   12.40    0.50
   1  -3  -7   12.00    0.50
   1  -3  -7   11.60    0.50
  -1   3   7   11.40    0.40
   0  -3  -7   26.90    0.70
   0  -3  -7   27.30    0.70
   0  -3  -7   26.30    0.70
   0   3   7   28.00    0.70
  -1  -3  -7   99.39    1.60
  -1  -3  -7  104.19    1.40
  -1  -3  -7  103.49    1.50
   1   3   7  100.49    1.50
  -2  -3  -7    5.20    0.50
   8  -4  -7   75.59    1.40
   8  -4  -7   76.89    1.40
  -8   4   7   75.39    1.50
  -8   4   7   76.89    1.30
  -8   4   7   76.29    1.30
   7  -4  -7    6.10    0.40
   7  -4  -7    7.50    0.40
  -7   4   7    6.60    0.40
  -7   4   7    6.60    0.40
  -7   4   7    6.70    0.40
   6  -4  -7   43.20    0.90
   6  -4  -7   42.70    1.00
  -6   4   7   42.60    0.90
  -6   4   7   42.80    0.90
  -6   4   7   44.20    1.00
  -6   4   7   42.70    0.80
   5  -4  -7   28.60    0.80
   5  -4  -7   29.80    0.70
  -5   4   7   30.10    0.80
  -5   4   7   30.10    0.70
  -5   4   7   30.00    0.70
  -5   4   7   28.40    0.70
   4  -4  -7   21.90    0.70
   4  -4  -7   22.20    0.60
  -4   4   7   20.80    0.60
  -4   4   7   21.20    0.60
  -4   4   7   20.70    0.60
   3  -4  -7   16.90    0.60
   3  -4  -7   17.30    0.50
  -3   4   7   17.70    0.50
  -3   4   7   17.50    0.60
  -3   4   7   16.40    0.50
   2  -4  -7  213.38    2.40
   2  -4  -7  217.08    2.50
  -2   4   7  215.98    2.40
  -2   4   7  215.88    2.30
  -2   4   7  211.58    2.30
   1  -4  -7   60.39    1.10
   1  -4  -7   58.89    1.10
  -1   4   7   59.09    1.10
   0  -4  -7    3.00    0.30
   0  -4  -7    3.00    0.30
   0   4   7    3.40    0.30
   7  -5  -7   19.10    0.70
   7  -5  -7   18.40    0.70
  -7   5   7   19.80    0.60
  -7   5   7   20.30    0.60
  -7   5   7   20.10    0.70
   6  -5  -7    2.90    0.30
   6  -5  -7    2.80    0.30
  -6   5   7    2.40    0.30
  -6   5   7    2.70    0.30
  -6   5   7    2.70    0.30
   5  -5  -7   16.10    0.60
   5  -5  -7   16.00    0.60
  -5   5   7   16.50    0.60
  -5   5   7   16.60    0.50
  -5   5   7   16.30    0.60
   4  -5  -7    0.70    0.20
   4  -5  -7    1.00    0.20
  -4   5   7    1.10    0.20
  -4   5   7    0.90    0.20
  -4   5   7    0.90    0.20
  -4   5   7    0.80    0.20
   3  -5  -7   13.60    0.50
   3  -5  -7   14.00    0.60
  -3   5   7   13.30    0.50
  -3   5   7   13.10    0.50
  -3   5   7   13.00    0.50
   2  -5  -7   31.50    0.80
   2  -5  -7   34.20    0.80
  -2   5   7   34.40    0.80
  -2   5   7   34.20    0.70
  -2   5   7   32.50    0.80
   1  -5  -7   26.20    0.70
   1  -5  -7   27.60    0.80
  -1   5   7   27.60    0.70
  -1   5   7   28.20    0.70
  -1   5   7   27.80    0.70
   6  -6  -7   15.30    0.60
   6  -6  -7   16.10    0.60
  -6   6   7   16.90    0.60
  -6   6   7   16.00    0.60
   5  -6  -7    3.40    0.30
   5  -6  -7    3.00    0.40
  -5   6   7    3.40    0.30
  -5   6   7    2.40    0.30
  -5   6   7    3.00    0.30
   4  -6  -7   10.80    0.50
   4  -6  -7   10.80    0.50
  -4   6   7   10.00    0.50
  -4   6   7   11.30    0.50
  -4   6   7   11.10    0.50
   3  -6  -7    7.40    0.50
   3  -6  -7    7.80    0.40
  -3   6   7    9.00    0.40
  -3   6   7    8.80    0.50
  -3   6   7    8.00    0.40
   2  -6  -7   44.30    1.00
   2  -6  -7   41.70    1.00
  -2   6   7   43.40    0.90
  -2   6   7   44.80    0.90
  -2   6   7   43.20    0.90
  -1   6  -8    2.90    0.30
  -1   6  -8    3.10    0.30
  -1   6  -8    3.30    0.30
  -1   6  -8    2.70    0.40
   1  -6   8    3.30    0.40
   1  -6   8    3.80    0.30
   1  -6   8    3.60    0.30
  -2   6  -8   10.70    0.50
  -2   6  -8   10.90    0.50
  -2   6  -8   11.20    0.50
  -2   6  -8   11.20    0.50
   2  -6   8   10.30    0.50
   2  -6   8   10.50    0.50
  -3   6  -8   31.30    0.80
  -3   6  -8   32.30    0.80
  -3   6  -8   31.20    0.80
  -3   6  -8   30.30    0.80
   3  -6   8   32.40    0.90
   3  -6   8   31.20    0.90
   0   5  -8    0.80    0.20
   0   5  -8    0.90    0.20
   0   5  -8    0.80    0.20
   0   5  -8    0.90    0.20
   0  -5   8    0.80    0.20
   0  -5   8    0.60    0.20
   0  -5   8    0.90    0.20
  -1   5  -8    1.90    0.20
  -1   5  -8    1.60    0.20
  -1   5  -8    2.60    0.30
  -1   5  -8    2.20    0.20
   1  -5   8    2.00    0.20
   1  -5   8    2.10    0.30
   1  -5   8    1.70    0.20
  -2   5  -8   72.19    1.20
  -2   5  -8   71.69    1.20
  -2   5  -8   70.59    1.20
  -2   5  -8   71.79    1.20
   2  -5   8   71.59    1.30
   2  -5   8   72.19    1.20
  -3   5  -8   34.20    0.80
  -3   5  -8   35.10    0.80
  -3   5  -8   33.80    0.80
  -3   5  -8   33.40    0.90
   3  -5   8   33.40    0.90
   3  -5   8   33.50    0.90
   1   4  -8   32.70    0.70
   1   4  -8   34.10    0.70
  -1  -4   8   33.60    0.70
  -1  -4   8   33.90    0.70
  -1  -4   8   33.90    0.70
   0   4  -8   78.39    1.20
   0   4  -8   78.19    1.20
   0   4  -8   77.09    1.20
   0   4  -8   78.19    1.10
   0  -4   8   78.89    1.20
   0  -4   8   79.89    1.20
   0  -4   8   78.99    1.30
  -1   4  -8   16.10    0.50
  -1   4  -8   17.50    0.60
  -1   4  -8   16.60    0.50
  -1   4  -8   17.30    0.50
   1  -4   8   17.30    0.60
   1  -4   8   17.80    0.60
   1  -4   8   17.00    0.60
  -2   4  -8    8.20    0.40
  -2   4  -8    7.70    0.40
  -2   4  -8    8.00    0.40
  -2   4  -8    8.10    0.40
   2  -4   8    7.10    0.40
   2  -4   8    8.00    0.40
   2  -4   8    8.20    0.40
  -3   4  -8   78.99    1.40
  -3   4  -8   80.59    1.30
  -3   4  -8   78.99    1.30
  -3   4  -8   78.89    1.30
   3  -4   8   78.59    1.40
   3  -4   8   77.49    1.40
  -4   4  -8    2.30    0.30
  -4   4  -8    2.00    0.30
  -4   4  -8    1.70    0.30
   4  -4   8    2.00    0.30
   4  -4   8    1.80    0.30
   2   3  -8   49.00    0.80
  -2  -3   8   47.60    0.80
   1   3  -8   27.20    0.60
   1   3  -8   28.70    0.60
  -1  -3   8   27.50    0.60
   0   3  -8    0.70    0.10
   0   3  -8    0.70    0.20
   0   3  -8    0.80    0.20
   0   3  -8    0.80    0.20
   0  -3   8    0.60    0.20
   0  -3   8    0.70    0.20
   0  -3   8    0.70    0.20
  -1   3  -8    0.60    0.20
  -1   3  -8    0.70    0.20
  -1   3  -8    0.80    0.20
  -1   3  -8    0.50    0.10
   1  -3   8    0.60    0.20
   1  -3   8    0.40    0.10
   1  -3   8    0.60    0.20
  -2   3  -8  142.09    1.80
  -2   3  -8  142.59    1.80
  -2   3  -8  142.09    1.80
  -2   3  -8  144.29    1.90
   2  -3   8  145.19    1.90
   2  -3   8  144.69    2.00
   2  -3   8  144.99    1.90
  -3   3  -8    4.30    0.30
  -3   3  -8    4.50    0.40
  -3   3  -8    3.60    0.30
  -3   3  -8    4.40    0.30
   3  -3   8    5.00    0.40
   3  -3   8    4.60    0.40
   3  -3   8    4.40    0.40
  -4   3  -8   51.29    1.10
  -4   3  -8   51.59    1.00
  -4   3  -8   54.39    1.10
   4  -3   8   52.39    1.10
   4  -3   8   50.39    1.20
   3   2  -8   56.39    0.90
  -3  -2   8   55.09    0.90
   2   2  -8    6.60    0.30
   2   2  -8    7.00    0.30
   2   2  -8    7.30    0.40
  -2  -2   8    6.40    0.30
   1   2  -8   30.00    0.70
   1   2  -8   30.50    0.70
   1   2  -8   30.30    0.70
   1   2  -8   31.30    0.70
  -1  -2   8   30.50    0.70
   0   2  -8  112.19    1.40
   0   2  -8  111.39    1.40
   0   2  -8  110.89    1.50
   0   2  -8  111.09    1.50
   0  -2   8  111.39    1.50
  -1   2  -8   38.80    0.80
  -1   2  -8   37.40    0.80
  -1   2  -8   37.70    0.80
  -1   2  -8   37.80    0.80
   1  -2   8   38.10    0.80
   1  -2   8   37.40    0.80
   1  -2   8   37.10    0.90
  -2   2  -8    0.60    0.20
  -2   2  -8    0.70    0.20
  -2   2  -8    0.40    0.20
  -2   2  -8    0.60    0.20
   2  -2   8    0.40    0.10
   2  -2   8    0.40    0.20
   2  -2   8    0.50    0.20
  -3   2  -8   86.19    1.30
  -3   2  -8   85.49    1.40
  -3   2  -8   87.19    1.40
  -3   2  -8   87.19    1.40
   3  -2   8   89.19    1.50
   3  -2   8   88.99    1.50
   3  -2   8   88.39    1.40
  -4   2  -8    4.50    0.40
  -4   2  -8    4.60    0.40
  -4   2  -8    5.10    0.40
   4  -2   8    4.50    0.40
   4  -2   8    4.30    0.40
   4   1  -8   27.90    0.60
   4   1  -8   26.40    0.70
  -4  -1   8   32.80    0.70
   3   1  -8   39.60    0.80
   3   1  -8   40.10    0.80
   3   1  -8   41.40    0.80
  -3  -1   8   39.50    0.80
   2   1  -8   70.59    1.20
   2   1  -8   73.59    1.10
   2   1  -8   71.09    1.10
  -2  -1   8   72.59    1.10
   1   1  -8   58.79    1.10
   1   1  -8   58.99    1.00
   1   1  -8   57.49    1.00
   1   1  -8   57.89    1.00
  -1  -1   8   58.39    1.00
   0   1  -8    7.20    0.40
   0   1  -8    6.50    0.40
   0   1  -8    6.60    0.30
   0   1  -8    6.20    0.30
   0  -1   8    7.20    0.40
  -1   1  -8    0.80    0.20
  -1   1  -8    0.50    0.10
  -1   1  -8    0.50    0.10
  -1   1  -8    0.60    0.20
   1  -1   8    0.40    0.10
  -2   1  -8  139.59    1.80
  -2   1  -8  141.79    1.90
  -2   1  -8  140.09    1.80
  -2   1  -8  140.19    1.80
   2  -1   8  141.49    1.90
   2  -1   8  140.69    1.90
   2  -1   8  141.79    2.00
  -3   1  -8    2.70    0.30
  -3   1  -8    3.50    0.30
  -3   1  -8    2.60    0.30
  -3   1  -8    3.00    0.30
   3  -1   8    3.70    0.40
   3  -1   8    3.50    0.30
   3  -1   8    3.30    0.30
   5   0  -8   41.90    0.90
   5   0  -8   41.80    0.80
  -5   0   8   41.50    0.80
  -5   0   8   41.60    0.70
  -5   0   8   41.80    0.80
   4   0  -8   95.69    1.30
   4   0  -8   96.39    1.40
  -4   0   8   94.99    1.30
   3   0  -8  106.69    1.40
   3   0  -8  106.39    1.50
   3   0  -8  106.19    1.40
  -3   0   8  105.69    1.40
   2   0  -8   14.70    0.50
   2   0  -8   14.30    0.50
   2   0  -8   14.70    0.50
  -2   0   8   14.90    0.50
   1   0  -8    6.70    0.30
   1   0  -8    6.60    0.30
   1   0  -8    6.80    0.40
   1   0  -8    7.00    0.30
  -1   0   8    6.60    0.30
   0   0  -8   91.59    1.40
   0   0  -8   92.49    1.40
   0   0  -8   91.39    1.30
   0   0  -8   91.39    1.40
   0   0   8   91.59    1.40
  -1   0  -8   32.60    0.80
  -1   0  -8   33.70    0.80
  -1   0  -8   34.10    0.80
  -1   0  -8   33.60    0.80
   1   0   8   34.10    0.80
  -2   0  -8   13.20    0.50
  -2   0  -8   13.90    0.50
  -2   0  -8   14.00    0.50
  -2   0  -8   13.70    0.50
   2   0   8   14.10    0.60
   2   0   8   14.80    0.60
   2   0   8   14.40    0.50
  -3   0  -8   43.90    0.90
  -3   0  -8   45.80    1.00
  -3   0  -8   47.70    1.00
  -3   0  -8   46.00    1.00
   3   0   8   43.80    1.00
   3   0   8   45.90    1.00
   3   0   8   44.60    1.00
   6  -1  -8    0.00    0.10
   6  -1  -8    0.40    0.20
  -6   1   8    0.10    0.10
  -6   1   8    0.00    0.10
  -6   1   8    0.20    0.10
  -6   1   8    0.00    0.10
   5  -1  -8    0.50    0.20
   5  -1  -8    0.70    0.20
  -5   1   8    0.50    0.20
  -5   1   8    0.50    0.10
  -5   1   8    0.70    0.20
   4  -1  -8   67.89    1.10
   4  -1  -8   68.29    1.20
  -4   1   8   67.99    1.10
  -4   1   8   68.19    1.00
  -4   1   8   70.39    1.10
   3  -1  -8    0.10    0.10
   3  -1  -8    0.70    0.20
   3  -1  -8    0.60    0.20
  -3   1   8    0.30    0.10
   2  -1  -8   68.59    1.10
   2  -1  -8   66.79    1.10
   2  -1  -8   67.39    1.20
  -2   1   8   66.89    1.10
   1  -1  -8   48.30    0.90
   1  -1  -8   47.70    1.00
   1  -1  -8   48.50    0.90
  -1   1   8   48.30    0.90
   0  -1  -8    9.50    0.40
   0  -1  -8    8.70    0.40
   0  -1  -8    9.60    0.40
   0   1   8    9.90    0.40
  -1  -1  -8    2.90    0.30
  -1  -1  -8    3.60    0.30
  -1  -1  -8    3.00    0.30
  -1  -1  -8    2.90    0.30
   1   1   8    3.60    0.30
  -2  -1  -8   67.59    1.20
  -2  -1  -8   68.19    1.20
   2   1   8   67.29    1.30
   2   1   8   67.59    1.20
   2   1   8   64.59    1.20
   7  -2  -8    0.70    0.20
   7  -2  -8    0.80    0.20
  -7   2   8    0.70    0.20
  -7   2   8    0.90    0.20
  -7   2   8    0.40    0.20
   6  -2  -8   19.80    0.60
   6  -2  -8   21.00    0.70
  -6   2   8   20.90    0.60
  -6   2   8   19.80    0.60
  -6   2   8   20.00    0.70
  -6   2   8   20.20    0.60
   5  -2  -8   89.99    1.40
   5  -2  -8   89.89    1.40
  -5   2   8   88.09    1.30
  -5   2   8   87.89    1.20
  -5   2   8   88.09    1.30
   4  -2  -8   47.30    0.90
   4  -2  -8   47.40    1.00
  -4   2   8   46.20    0.90
  -4   2   8   47.90    0.90
  -4   2   8   47.00    0.90
   3  -2  -8   94.89    1.40
   3  -2  -8   94.59    1.50
  -3   2   8   97.19    1.40
   2  -2  -8   15.90    0.50
   2  -2  -8   16.60    0.60
   2  -2  -8   15.60    0.50
  -2   2   8   16.90    0.50
   1  -2  -8    0.60    0.20
   1  -2  -8    0.30    0.10
   1  -2  -8    0.70    0.20
  -1   2   8    0.50    0.20
   0  -2  -8   42.40    1.00
   0  -2  -8   42.20    0.90
   0  -2  -8   40.90    0.90
   0   2   8   42.30    0.90
  -1  -2  -8   13.10    0.50
  -1  -2  -8   13.30    0.50
  -1  -2  -8   13.20    0.60
   1   2   8   12.70    0.50
   7  -3  -8    0.80    0.20
   7  -3  -8    0.50    0.20
  -7   3   8    0.80    0.20
  -7   3   8    0.80    0.20
  -7   3   8    0.90    0.20
   6  -3  -8    0.90    0.20
   6  -3  -8    0.80    0.20
  -6   3   8    0.80    0.20
  -6   3   8    0.60    0.20
  -6   3   8    0.90    0.20
   5  -3  -8    0.40    0.20
   5  -3  -8    0.60    0.20
  -5   3   8    0.60    0.20
  -5   3   8    0.80    0.20
  -5   3   8    0.60    0.20
  -5   3   8    0.60    0.20
   4  -3  -8   44.80    1.00
   4  -3  -8   49.10    1.00
  -4   3   8   47.30    0.90
  -4   3   8   46.30    0.90
  -4   3   8   46.60    0.90
   3  -3  -8   18.10    0.60
   3  -3  -8   17.50    0.60
  -3   3   8   17.80    0.60
   2  -3  -8   40.80    0.90
   2  -3  -8   42.20    0.90
  -2   3   8   42.80    0.90
   1  -3  -8   15.50    0.60
   1  -3  -8   16.00    0.50
   1  -3  -8   15.60    0.60
  -1   3   8   15.40    0.60
   0  -3  -8    4.90    0.40
   0  -3  -8    4.90    0.40
   0  -3  -8    4.80    0.40
   0   3   8    4.40    0.40
  -1  -3  -8    4.10    0.40
  -1  -3  -8    3.20    0.40
  -1  -3  -8    3.30    0.30
   1   3   8    3.40    0.30
   7  -4  -8    5.30    0.40
   7  -4  -8    5.90    0.40
  -7   4   8    5.50    0.40
  -7   4   8    5.20    0.40
   6  -4  -8   28.30    0.80
   6  -4  -8   28.60    0.80
  -6   4   8   28.30    0.80
  -6   4   8   28.10    0.70
  -6   4   8   29.40    0.80
   5  -4  -8   87.89    1.40
   5  -4  -8   88.29    1.50
  -5   4   8   88.49    1.40
  -5   4   8   87.69    1.40
  -5   4   8   87.89    1.30
   4  -4  -8    6.70    0.40
   4  -4  -8    6.60    0.40
  -4   4   8    6.60    0.40
  -4   4   8    6.00    0.30
  -4   4   8    7.00    0.40
   3  -4  -8   46.10    1.00
   3  -4  -8   48.50    1.00
  -3   4   8   46.90    1.00
  -3   4   8   47.10    0.90
  -3   4   8   46.60    0.90
   2  -4  -8    8.50    0.40
   2  -4  -8    8.70    0.50
  -2   4   8    9.30    0.50
  -2   4   8    9.40    0.40
  -2   4   8    8.00    0.40
   1  -4  -8    3.50    0.40
   1  -4  -8    3.40    0.30
  -1   4   8    3.20    0.30
   6  -5  -8    0.10    0.20
   6  -5  -8    0.10    0.20
  -6   5   8    0.00    0.20
  -6   5   8   -0.10    0.10
   5  -5  -8    1.10    0.30
   5  -5  -8    1.00    0.20
  -5   5   8    0.80    0.20
  -5   5   8    0.90    0.20
  -5   5   8    0.70    0.20
   4  -5  -8    9.20    0.50
   4  -5  -8    8.30    0.50
  -4   5   8    8.90    0.50
  -4   5   8    9.00    0.40
  -4   5   8    8.80    0.40
   3  -5  -8   25.70    0.80
   3  -5  -8   26.40    0.80
  -3   5   8   25.10    0.70
  -3   5   8   27.10    0.80
  -3   5   8   26.50    0.70
   2  -5  -8   15.20    0.60
   2  -5  -8   14.20    0.60
  -2   5   8   15.30    0.60
  -2   5   8   16.20    0.60
  -2   5   8   16.00    0.60
   0   5  -9   15.50    0.50
   0   5  -9   15.30    0.50
   0   5  -9   16.50    0.50
   0   5  -9   16.10    0.60
   0  -5   9   15.80    0.60
   0  -5   9   15.20    0.60
   0  -5   9   16.20    0.60
  -1   5  -9    9.60    0.40
  -1   5  -9    9.00    0.50
  -1   5  -9    9.40    0.50
  -1   5  -9    8.90    0.40
   1  -5   9    9.60    0.50
   1  -5   9    8.90    0.50
   1  -5   9    8.40    0.50
  -2   5  -9   18.80    0.60
  -2   5  -9   17.40    0.60
  -2   5  -9   16.10    0.90
  -2   5  -9   18.30    0.60
   2  -5   9   18.50    0.70
   2  -5   9   18.90    1.00
   2  -5   9   18.40    0.70
   1   4  -9   64.59    1.10
   1   4  -9   64.79    1.10
  -1  -4   9   65.89    1.20
  -1  -4   9   64.59    1.10
  -1  -4   9   64.39    1.10
   0   4  -9    0.60    0.20
   0   4  -9    0.70    0.20
   0   4  -9    0.60    0.20
   0   4  -9    0.80    0.20
   0  -4   9    0.40    0.20
   0  -4   9    0.40    0.20
   0  -4   9    0.40    0.20
  -1   4  -9   95.59    1.50
  -1   4  -9   97.79    1.40
  -1   4  -9   97.09    1.50
  -1   4  -9   97.09    1.40
   1  -4   9   96.19    1.50
   1  -4   9   97.39    1.50
   1  -4   9   94.49    1.60
  -2   4  -9    0.10    0.20
  -2   4  -9    0.40    0.20
  -2   4  -9    0.30    0.10
  -2   4  -9    0.00    0.10
   2  -4   9    0.00    0.10
   2  -4   9    0.20    0.20
   2  -4   9    0.40    0.20
   2   3  -9    1.10    0.20
  -2  -3   9    1.10    0.20
   1   3  -9    6.50    0.40
   1   3  -9    6.90    0.40
  -1  -3   9    5.80    0.40
  -1  -3   9    6.30    0.40
  -1  -3   9    6.70    0.40
   0   3  -9   27.30    0.70
   0   3  -9   26.90    0.70
   0   3  -9   27.10    0.70
   0   3  -9   27.20    0.70
   0  -3   9   28.00    0.70
   0  -3   9   28.30    0.80
   0  -3   9   27.00    0.70
  -1   3  -9   23.50    0.70
  -1   3  -9   23.40    0.70
  -1   3  -9   23.60    0.60
  -1   3  -9   24.20    0.70
   1  -3   9   24.00    0.70
   1  -3   9   23.60    0.70
   1  -3   9   24.10    0.70
  -2   3  -9   33.50    0.80
  -2   3  -9   33.10    0.90
  -2   3  -9   33.60    0.80
  -2   3  -9   34.00    0.80
   2  -3   9   33.90    0.90
   2  -3   9   34.20    0.90
   2  -3   9   35.30    0.90
   3   2  -9   12.30    0.50
   3   2  -9   12.40    0.50
   3   2  -9   12.00    0.40
  -3  -2   9   12.10    0.50
   2   2  -9   46.10    0.90
   2   2  -9   44.50    0.90
   2   2  -9   45.30    1.00
  -2  -2   9   45.20    0.90
   1   2  -9  111.39    1.70
   1   2  -9  111.19    1.50
   1   2  -9  113.29    1.60
   1   2  -9  112.99    1.60
  -1  -2   9  111.69    1.60
   0   2  -9   29.70    0.70
   0   2  -9   27.70    0.70
   0  -2   9   28.00    0.70
  -1   2  -9   81.59    1.30
  -1   2  -9   80.09    1.30
  -1   2  -9   78.79    1.20
  -1   2  -9   78.39    1.30
   1  -2   9   79.69    1.40
   1  -2   9   79.29    1.30
  -2   2  -9    2.90    0.30
  -2   2  -9    3.80    0.40
  -2   2  -9    4.10    0.30
  -2   2  -9    3.50    0.30
   2  -2   9    3.30    0.40
   2  -2   9    2.90    0.30
   2  -2   9    3.20    0.30
   4   1  -9    1.80    0.20
   4   1  -9    1.50    0.20
  -4  -1   9    1.70    0.20
   3   1  -9   24.00    0.70
   3   1  -9   24.20    0.60
   3   1  -9   24.40    0.60
  -3  -1   9   24.50    0.70
   2   1  -9    2.00    0.20
   2   1  -9    2.10    0.30
   2   1  -9    2.30    0.30
  -2  -1   9    2.30    0.30
   1   1  -9   27.90    0.70
   1   1  -9   28.00    0.70
   1   1  -9   25.80    0.70
   1   1  -9   26.50    0.70
  -1  -1   9   26.90    0.70
   0   1  -9   13.30    0.50
   0   1  -9   12.60    0.50
   0   1  -9   13.20    0.60
   0   1  -9   13.70    0.50
   0  -1   9   13.20    0.50
  -1   1  -9   33.70    0.80
  -1   1  -9   33.80    0.80
   1  -1   9   34.90    0.90
   1  -1   9   33.80    0.90
   1  -1   9   34.20    0.80
  -2   1  -9   43.60    0.90
  -2   1  -9   44.10    1.00
  -2   1  -9   42.00    0.90
   2  -1   9   43.00    1.00
   2  -1   9   43.40    1.00
   5   0  -9   21.90    0.60
   5   0  -9   21.10    0.70
  -5   0   9   21.70    0.60
  -5   0   9   22.70    0.60
  -5   0   9   21.10    0.60
   4   0  -9    0.10    0.10
   4   0  -9    0.00    0.10
  -4   0   9    0.00    0.10
   3   0  -9   39.70    0.80
   3   0  -9   41.00    0.90
   3   0  -9   41.20    0.90
  -3   0   9   41.50    0.90
   2   0  -9   40.80    0.80
   2   0  -9   40.10    0.90
   2   0  -9   40.50    0.90
  -2   0   9   41.20    0.90
   1   0  -9   97.99    1.60
   1   0  -9  100.59    1.50
   1   0  -9  101.79    1.50
  -1   0   9  102.09    1.50
   0   0  -9   60.69    1.10
   0   0  -9   58.69    1.20
   0   0  -9   60.19    1.10
   0   0  -9   60.59    1.10
   0   0   9   59.89    1.10
  -1   0  -9   32.60    0.80
  -1   0  -9   32.90    0.80
   1   0   9   32.50    0.80
  -2   0  -9   11.70    0.50
   2   0   9   12.60    0.60
   2   0   9   12.50    0.60
   6  -1  -9   68.09    1.30
   6  -1  -9   69.39    1.20
  -6   1   9   69.69    1.20
  -6   1   9   69.79    1.10
  -6   1   9   68.79    1.10
   5  -1  -9    4.50    0.30
   5  -1  -9    4.20    0.40
  -5   1   9    4.00    0.30
  -5   1   9    3.90    0.30
  -5   1   9    4.70    0.30
   4  -1  -9    9.40    0.40
   4  -1  -9    9.20    0.50
  -4   1   9   10.00    0.40
   3  -1  -9   27.10    0.70
   3  -1  -9   28.10    0.80
   3  -1  -9   28.90    0.70
  -3   1   9   27.90    0.70
   2  -1  -9    2.10    0.20
   2  -1  -9    2.40    0.30
   2  -1  -9    2.50    0.30
  -2   1   9    2.60    0.30
   1  -1  -9   51.09    1.00
   1  -1  -9   50.09    1.00
   1  -1  -9   48.50    1.10
  -1   1   9   51.49    1.00
   0  -1  -9   -0.10    0.10
   0  -1  -9    0.20    0.20
   0  -1  -9    0.20    0.20
   0   1   9    0.40    0.20
  -1  -1  -9   24.10    0.70
  -1  -1  -9   24.10    0.80
   1   1   9   25.50    0.80
   6  -2  -9    6.20    0.40
   6  -2  -9    5.60    0.40
  -6   2   9    6.10    0.40
  -6   2   9    6.10    0.40
  -6   2   9    6.50    0.40
   5  -2  -9   10.50    0.50
   5  -2  -9   11.30    0.50
  -5   2   9   11.50    0.50
  -5   2   9   11.60    0.50
  -5   2   9   11.90    0.50
   4  -2  -9    2.00    0.30
   4  -2  -9    2.00    0.30
  -4   2   9    1.60    0.20
  -4   2   9    1.90    0.30
  -4   2   9    1.30    0.20
   3  -2  -9   51.29    1.00
   3  -2  -9   52.09    1.10
  -3   2   9   50.09    1.00
   2  -2  -9   19.20    0.60
   2  -2  -9   20.20    0.70
   2  -2  -9   20.10    0.60
  -2   2   9   20.50    0.60
   1  -2  -9   44.80    0.90
   1  -2  -9   44.40    1.00
   1  -2  -9   43.90    1.00
  -1   2   9   43.70    1.00
   0  -2  -9   43.20    1.00
   0  -2  -9   43.40    1.00
   0  -2  -9   43.10    1.00
   0   2   9   42.50    1.00
   6  -3  -9   37.20    0.90
   6  -3  -9   34.90    0.90
  -6   3   9   36.50    0.80
  -6   3   9   36.60    1.00
  -6   3   9   36.30    0.80
   5  -3  -9    2.10    0.30
   5  -3  -9    2.00    0.30
  -5   3   9    1.70    0.20
  -5   3   9    2.20    0.30
  -5   3   9    1.90    0.30
   4  -3  -9   18.10    0.70
   4  -3  -9   17.90    0.60
  -4   3   9   17.90    0.60
  -4   3   9   18.10    0.60
  -4   3   9   18.60    0.60
   3  -3  -9   15.10    0.60
   3  -3  -9   14.40    0.60
  -3   3   9   13.30    0.50
   2  -3  -9    1.60    0.30
   2  -3  -9    1.70    0.30
  -2   3   9    1.70    0.30
   1  -3  -9   44.20    1.10
   1  -3  -9   45.00    1.00
   1  -3  -9   44.90    1.00
  -1   3   9   44.80    1.10
   5  -4  -9    1.80    0.30
   5  -4  -9    1.90    0.30
  -5   4   9    1.80    0.30
  -5   4   9    2.40    0.30
   4  -4  -9    9.10    0.50
   4  -4  -9    9.10    0.50
  -4   4   9    9.30    0.40
  -4   4   9    9.50    0.50
   3  -4  -9   28.00    0.80
   3  -4  -9   25.40    0.80
  -3   4   9   26.80    0.70
  -3   4   9   26.40    0.70
   1   4 -10    4.60    0.30
   1   4 -10    4.40    0.40
  -1  -4  10    4.60    0.40
  -1  -4  10    5.30    0.40
  -1  -4  10    4.60    0.50
   0   4 -10    0.20    0.20
   0   4 -10    0.40    0.20
   0  -4  10    0.00    0.20
   0  -4  10    0.20    0.20
   0  -4  10    0.10    0.20
   2   3 -10   44.20    0.90
  -2  -3  10   42.70    0.90
   1   3 -10    2.60    0.30
   1   3 -10    2.80    0.30
  -1  -3  10    2.70    0.30
  -1  -3  10    2.50    0.30
  -1  -3  10    2.90    0.30
   0   3 -10    0.40    0.20
   0   3 -10    0.40    0.20
   0  -3  10    0.60    0.20
   0  -3  10    0.40    0.20
   0  -3  10    1.00    0.20
   3   2 -10    1.80    0.30
   3   2 -10    3.10    0.30
   3   2 -10    2.10    0.30
  -3  -2  10    2.40    0.30
   2   2 -10  227.18    2.80
   2   2 -10  232.28    2.60
   2   2 -10  229.78    2.70
  -2  -2  10  235.08    2.70
   1   2 -10    1.10    0.20
   1   2 -10    0.90    0.20
  -1  -2  10    1.80    0.30
   0   2 -10    3.60    0.30
   0   2 -10    3.60    0.30
   0  -2  10    3.90    0.30
   0  -2  10    3.80    0.40
   0  -2  10    3.90    0.40
  -1   2 -10  165.68    2.20
   1  -2  10  164.68    2.30
   1  -2  10  163.58    2.20
   4   1 -10    4.00    0.30
   4   1 -10    3.10    0.30
  -4  -1  10    3.60    0.30
   3   1 -10    7.70    0.40
   3   1 -10    7.90    0.40
   3   1 -10    6.80    0.40
  -3  -1  10    6.70    0.40
   2   1 -10   28.30    0.80
   2   1 -10   28.10    0.70
   2   1 -10   27.60    0.80
  -2  -1  10   28.00    0.80
   1   1 -10    5.60    0.40
   1   1 -10    5.90    0.40
   1   1 -10    5.30    0.40
  -1  -1  10    6.20    0.40
   0   1 -10    5.00    0.40
   5   0 -10   41.10    0.90
   5   0 -10   41.40    1.00
  -5   0  10   38.30    0.90
  -5   0  10   38.90    0.90
  -5   0  10   38.90    0.80
   4   0 -10   56.39    1.20
   4   0 -10   57.79    1.10
  -4   0  10   57.39    1.10
   3   0 -10    0.80    0.20
   3   0 -10    0.80    0.20
   3   0 -10    0.90    0.20
  -3   0  10    0.70    0.20
   2   0 -10  248.38    3.00
   2   0 -10  252.17    2.90
   2   0 -10  250.97    2.80
  -2   0  10  252.87    2.90
   1   0 -10    0.20    0.20
   1   0 -10    0.40    0.20
   1   0 -10    0.40    0.20
  -1   0  10    0.10    0.20
   0   0 -10   18.60    0.70
   0   0 -10   18.80    0.70
   0   0 -10   18.30    0.70
   5  -1 -10   10.40    0.50
   5  -1 -10   11.10    0.60
  -5   1  10   10.20    0.50
  -5   1  10   10.00    0.50
  -5   1  10   10.30    0.50
   4  -1 -10    4.20    0.40
   4  -1 -10    4.30    0.40
  -4   1  10    4.60    0.40
   3  -1 -10   20.20    0.70
   3  -1 -10   20.60    0.70
   3  -1 -10   21.20    0.70
  -3   1  10   20.40    0.70
   2  -1 -10    7.70    0.40
   2  -1 -10    7.50    0.50
   2  -1 -10    7.40    0.40
  -2   1  10    7.20    0.50
   1  -1 -10    8.10    0.50
   1  -1 -10    8.50    0.50
   1  -1 -10    8.70    0.50
   5  -2 -10   44.20    1.00
   5  -2 -10   43.90    1.10
  -5   2  10   43.10    0.90
  -5   2  10   42.60    0.90
   4  -2 -10   51.29    1.20
   4  -2 -10   54.99    1.10
  -4   2  10   52.29    1.00
  -4   2  10   53.69    1.00
   3  -2 -10   14.10    0.60
   3  -2 -10   15.00    0.60
   2  -2 -10  144.59    2.00
   2  -2 -10  142.99    2.00
   2  -2 -10  140.19    2.10

_computing_structure_solution     'SHELXT 2014/4 (Sheldrick, 2014)'
;
_shelx_hkl_checksum              82693
loop_
_space_group_symop_operation_xyz
'x, y, z'
'-x, -y, -z'
loop_
_atom_site_label
_atom_site_type_symbol
_atom_site_fract_x
_atom_site_fract_y
_atom_site_fract_z
_atom_site_U_iso_or_equiv
_atom_site_adp_type
_atom_site_occupancy
_atom_site_site_symmetry_order
_atom_site_calc_flag
_atom_site_refinement_flags_posn
_atom_site_refinement_flags_adp
_atom_site_refinement_flags_occupancy
_atom_site_disorder_assembly
_atom_site_disorder_group
Cl1 Cl 0.68906(7) 0.77056(8) 0.93339(4) 0.03450(18) Uani 1 1 d . . . . .
F2 F -0.14086(16) 0.78161(17) 0.37637(11) 0.0258(3) Uani 1 1 d . . . . .
F1 F 0.02139(16) 0.79670(16) 0.71317(11) 0.0239(3) Uani 1 1 d . . . . .
O1 O 0.3104(2) 0.7355(2) 0.96205(14) 0.0347(4) Uani 1 1 d . . . . .
C1 C 0.3324(3) 0.7513(3) 0.67157(15) 0.0151(4) Uani 1 1 d . . . . .
C3 C 0.0521(3) 0.7649(3) 0.43122(17) 0.0173(4) Uani 1 1 d . . . . .
C4 C 0.1579(3) 0.7385(3) 0.31362(16) 0.0185(4) Uani 1 1 d . . . . .
H4 H 0.0980 0.7338 0.1925 0.022 Uiso 1 1 calc R U . . .
C6 C 0.4419(3) 0.7262(3) 0.55236(16) 0.0164(4) Uani 1 1 d . . . . .
H6 H 0.5773 0.7142 0.5931 0.020 Uiso 1 1 calc R U . . .
C5 C 0.3548(3) 0.7188(3) 0.37554(16) 0.0181(4) Uani 1 1 d . . . . .
H5 H 0.4299 0.7001 0.2960 0.022 Uiso 1 1 calc R U . . .
C2 C 0.1359(3) 0.7716(3) 0.60806(16) 0.0157(4) Uani 1 1 d . . . . .
C7 C 0.4118(3) 0.7497(3) 0.86031(17) 0.0200(4) Uani 1 1 d . . . . .
loop_
_atom_site_aniso_label
_atom_site_aniso_U_11
_atom_site_aniso_U_22
_atom_site_aniso_U_33
_atom_site_aniso_U_23
_atom_site_aniso_U_13
_atom_site_aniso_U_12
Cl1 0.0296(3) 0.0605(4) 0.01878(18) 0.00894(17) 0.00295(15) 0.0283(3)
F2 0.0187(6) 0.0350(7) 0.0291(4) 0.0096(4) 0.0053(3) 0.0180(6)
F1 0.0241(6) 0.0328(7) 0.0245(4) 0.0077(4) 0.0150(4) 0.0178(6)
O1 0.0388(9) 0.0584(11) 0.0203(5) 0.0157(5) 0.0166(5) 0.0295(9)
C1 0.0154(9) 0.0144(11) 0.0147(5) 0.0032(5) 0.0051(5) 0.0062(10)
C3 0.0122(9) 0.0167(11) 0.0227(6) 0.0053(5) 0.0039(5) 0.0072(10)
C4 0.0185(10) 0.0185(11) 0.0163(6) 0.0044(5) 0.0039(5) 0.0075(10)
C6 0.0153(9) 0.0173(11) 0.0175(6) 0.0032(5) 0.0056(5) 0.0083(10)
C5 0.0179(10) 0.0209(11) 0.0168(6) 0.0032(5) 0.0075(5) 0.0093(10)
C2 0.0143(9) 0.0149(11) 0.0193(6) 0.0040(5) 0.0090(5) 0.0060(10)
C7 0.0226(10) 0.0223(11) 0.0161(6) 0.0039(5) 0.0052(5) 0.0119(10)
loop_
_atom_type_symbol
_atom_type_description
_atom_type_scat_dispersion_real
_atom_type_scat_dispersion_imag
_atom_type_scat_source
C C 0.0033 0.0016 'International Tables Vol C Tables 4.2.6.8 and 6.1.1.4'
H H 0.0000 0.0000 'International Tables Vol C Tables 4.2.6.8 and 6.1.1.4'
O O 0.0106 0.0060 'International Tables Vol C Tables 4.2.6.8 and 6.1.1.4'
F F 0.0171 0.0103 'International Tables Vol C Tables 4.2.6.8 and 6.1.1.4'
Cl Cl 0.1484 0.1585 'International Tables Vol C Tables 4.2.6.8 and 6.1.1.4'
loop_
_geom_angle_atom_site_label_1
_geom_angle_atom_site_label_2
_geom_angle_atom_site_label_3
_geom_angle
_geom_angle_site_symmetry_1
_geom_angle_site_symmetry_3
C2 C1 C6 118.26(11) . .
C2 C1 C7 118.84(12) . .
C6 C1 C7 122.86(12) . .
F2 C3 C4 120.56(12) . .
F2 C3 C2 117.73(12) . .
C4 C3 C2 121.70(12) . .
C3 C4 C5 118.63(12) . .
C3 C4 H4 120.7 . .
C5 C4 H4 120.7 . .
C5 C6 C1 120.68(12) . .
C5 C6 H6 119.7 . .
C1 C6 H6 119.7 . .
C6 C5 C4 120.51(12) . .
C6 C5 H5 119.7 . .
C4 C5 H5 119.7 . .
F1 C2 C3 117.74(11) . .
F1 C2 C1 122.05(11) . .
C3 C2 C1 120.22(12) . .
O1 C7 C1 126.73(13) . .
O1 C7 Cl1 118.86(10) . .
C1 C7 Cl1 114.40(10) . .
loop_
_geom_bond_atom_site_label_1
_geom_bond_atom_site_label_2
_geom_bond_distance
_geom_bond_site_symmetry_2
Cl1 C7 1.7805(15) .
F2 C3 1.3494(14) .
F1 C2 1.3375(14) .
O1 C7 1.1807(18) .
C1 C2 1.3942(17) .
C1 C6 1.4002(18) .
C1 C7 1.4826(17) .
C3 C4 1.3732(19) .
C3 C2 1.3835(18) .
C4 C5 1.3921(18) .
C4 H4 0.9500 .
C6 C5 1.3857(17) .
C6 H6 0.9500 .
C5 H5 0.9500 .
loop_
_geom_torsion_atom_site_label_1
_geom_torsion_atom_site_label_2
_geom_torsion_atom_site_label_3
_geom_torsion_atom_site_label_4
_geom_torsion
_geom_torsion_site_symmetry_1
_geom_torsion_site_symmetry_2
_geom_torsion_site_symmetry_3
_geom_torsion_site_symmetry_4
F2 C3 C4 C5 -179.05(15) . . . .
C2 C3 C4 C5 -0.2(3) . . . .
C2 C1 C6 C5 -0.9(3) . . . .
C7 C1 C6 C5 176.91(15) . . . .
C1 C6 C5 C4 0.7(3) . . . .
C3 C4 C5 C6 -0.2(3) . . . .
F2 C3 C2 F1 -0.8(2) . . . .
C4 C3 C2 F1 -179.65(16) . . . .
F2 C3 C2 C1 178.84(15) . . . .
C4 C3 C2 C1 -0.1(3) . . . .
C6 C1 C2 F1 -179.81(15) . . . .
C7 C1 C2 F1 2.2(2) . . . .
C6 C1 C2 C3 0.6(3) . . . .
C7 C1 C2 C3 -177.33(15) . . . .
C2 C1 C7 O1 11.0(3) . . . .
C6 C1 C7 O1 -166.86(18) . . . .
C2 C1 C7 Cl1 -169.32(13) . . . .
C6 C1 C7 Cl1 12.8(2) . . . .
